1:0:0
     RDKit          3D

 43 45  0  0  1  0  0  0  0  0999 V2000
    3.6750   -4.9676    0.0680 C   0  0  0  0  0  0  0  0  0  0  0  0
    3.8883   -3.5807    0.6814 C   0  0  2  0  0  0  0  0  0  0  0  0
    2.8355   -3.3193    1.7588 C   0  0  0  0  0  0  0  0  0  0  0  0
    2.9642   -1.9104    2.3224 C   0  0  0  0  0  0  0  0  0  0  0  0
    2.8289   -0.8891    1.2316 N   0  0  1  0  0  0  0  0  0  0  0  0
    2.7752    0.5114    1.7324 C   0  0  0  0  0  0  0  0  0  0  0  0
    1.4367    0.8460    2.3906 C   0  0  0  0  0  0  0  0  0  0  0  0
    0.6689   -0.0613    2.7028 O   0  0  0  0  0  0  0  0  0  0  0  0
    1.1922    2.1437    2.6149 N   0  0  0  0  0  0  0  0  0  0  0  0
    0.1392    2.6742    3.2737 C   0  0  0  0  0  0  0  0  0  0  0  0
   -1.4097    1.9446    3.4093 S   0  0  0  0  0  0  0  0  0  0  0  0
   -2.0685    3.1574    4.3300 N   0  0  0  0  0  0  0  0  0  0  0  0
   -1.2080    4.1037    4.5124 N   0  0  0  0  0  0  0  0  0  0  0  0
    0.0547    3.8886    3.9249 C   0  0  0  0  0  0  0  0  0  0  0  0
    1.1102    4.9172    4.0666 C   0  0  0  0  0  0  0  0  0  0  0  0
    2.1698    5.0269    3.1382 C   0  0  0  0  0  0  0  0  0  0  0  0
    3.1754    5.9962    3.2974 C   0  0  0  0  0  0  0  0  0  0  0  0
    3.1188    6.8969    4.3710 C   0  0  0  0  0  0  0  0  0  0  0  0
    4.3189    8.1056    4.5336 Cl  0  0  0  0  0  0  0  0  0  0  0  0
    2.0741    6.8020    5.3026 C   0  0  0  0  0  0  0  0  0  0  0  0
    1.0752    5.8089    5.1621 C   0  0  0  0  0  0  0  0  0  0  0  0
    3.9014   -1.0774    0.2186 C   0  0  0  0  0  0  0  0  0  0  0  0
    3.8314   -2.4838   -0.4006 C   0  0  0  0  0  0  0  0  0  0  0  0
    2.6982   -5.0276   -0.4164 H   0  0  0  0  0  0  0  0  0  0  0  0
    3.7119   -5.7515    0.8256 H   0  0  0  0  0  0  0  0  0  0  0  0
    4.4314   -5.1880   -0.6900 H   0  0  0  0  0  0  0  0  0  0  0  0
    4.8703   -3.5458    1.1548 H   0  0  0  0  0  0  0  0  0  0  0  0
    1.8448   -3.4442    1.3369 H   0  0  0  0  0  0  0  0  0  0  0  0
    2.9239   -4.0429    2.5716 H   0  0  0  0  0  0  0  0  0  0  0  0
    2.2113   -1.8584    3.1054 H   0  0  0  0  0  0  0  0  0  0  0  0
    3.9238   -1.7812    2.8222 H   0  0  0  0  0  0  0  0  0  0  0  0
    3.5865    0.6846    2.4365 H   0  0  0  0  0  0  0  0  0  0  0  0
    2.9327    1.2141    0.9169 H   0  0  0  0  0  0  0  0  0  0  0  0
    1.8706    2.8038    2.2661 H   0  0  0  0  0  0  0  0  0  0  0  0
    2.2291    4.4084    2.2543 H   0  0  0  0  0  0  0  0  0  0  0  0
    3.9592    6.0654    2.5577 H   0  0  0  0  0  0  0  0  0  0  0  0
    2.0181    7.4913    6.1345 H   0  0  0  0  0  0  0  0  0  0  0  0
    0.2812    5.7454    5.8902 H   0  0  0  0  0  0  0  0  0  0  0  0
    3.8275   -0.3426   -0.5822 H   0  0  0  0  0  0  0  0  0  0  0  0
    4.8757   -0.9244    0.6891 H   0  0  0  0  0  0  0  0  0  0  0  0
    4.6524   -2.6147   -1.1123 H   0  0  0  0  0  0  0  0  0  0  0  0
    2.9096   -2.5677   -0.9800 H   0  0  0  0  0  0  0  0  0  0  0  0
    1.9564   -1.0288    0.7218 H   0  0  0  0  0  0  0  0  0  0  0  0
  1  2  1  0
  1 24  1  0
  1 25  1  0
  1 26  1  0
  2 23  1  0
  2  3  1  0
  2 27  1  1
  3  4  1  0
  3 28  1  0
  3 29  1  0
  4  5  1  0
  4 30  1  0
  4 31  1  0
  5  6  1  0
  5 22  1  0
  5 43  1  6
  6  7  1  0
  6 32  1  0
  6 33  1  0
  7  8  2  0
  7  9  1  0
  9 10  1  0
  9 34  1  0
 10 14  2  0
 10 11  1  0
 11 12  1  0
 12 13  2  0
 13 14  1  0
 14 15  1  0
 15 21  1  0
 15 16  2  0
 16 17  1  0
 16 35  1  0
 17 18  2  0
 17 36  1  0
 18 19  1  0
 18 20  1  0
 20 21  2  0
 20 37  1  0
 21 38  1  0
 22 23  1  0
 22 39  1  0
 22 40  1  0
 23 41  1  0
 23 42  1  0
M  CHG  1   5   1
M  END
>  <i_m_ct_stereo_status>  (1) 
1

>  <s_m_source_file>  (1) 
/var/tmp/pbs.5076255.sched01/tmpzk3r62u5/0tgg_cfwk.sdf

>  <i_m_source_file_index>  (1) 
2

>  <i_lp_mmshare_version>  (1) 
48012

>  <i_f3d_flags>  (1) 
0

>  <s_epik_input>  (1) 
W0NIM11bQ0hdMVtDSDJdW0NIMl1OKFtDSDJdW0NIMl0xKVtDSDJdQyg9TylbTkhdYzJzbm5jMi1jM1tjSF1bY0hdYyhDbClbY0hdW2NIXTM=

>  <s_epik_cmdline>  (1) 
J2VwaWtfcHl0aG9uJywgJy1waHQnLCAnMi4wJywgJy1waCcsICc3LjAnLCAnLXRuJywgJzgnLCAnLW1hJywgJzIwMCcsICctaW1hZScsICc8aW5maWxlLm1hZT4nLCAnLW9tYWUnLCAnPG91dGZpbGUubWFlPic=

>  <r_lp_tautomer_probability>  (1) 
1

>  <r_epik_Ionization_Penalty>  (1) 
0.0402373

>  <r_epik_Ionization_Penalty_Charging>  (1) 
0.040204

>  <r_epik_Ionization_Penalty_Neutral>  (1) 
3.33776e-05

>  <r_epik_State_Penalty>  (1) 
0.0338258

>  <r_epik_Charging_Adjusted_Penalty>  (1) 
0.0740297

>  <i_epik_Tot_Q>  (1) 
1

>  <i_epik_Tot_abs_Q>  (1) 
1

>  <s_lp_Force_Field>  (1) 
OPLS3e

>  <r_lp_Energy>  (1) 
37.5531

>  <b_lp_Chiralities_Consistent>  (1) 
1

>  <s_lp_Variant>  (1) 
1:0-1

>  <s_i_glide_gridfile>  (1) 
pfpi4k_grid

>  <i_i_glide_lignum>  (1) 
2

>  <i_i_glide_rotatable_bonds>  (1) 
5

>  <r_i_docking_score>  (1) 
-3.14486

>  <r_i_glide_ligand_efficiency>  (1) 
-0.136733

>  <r_i_glide_ligand_efficiency_sa>  (1) 
-0.38885

>  <r_i_glide_ligand_efficiency_ln>  (1) 
-0.760455

>  <r_i_glide_gscore>  (1) 
-3.14486

>  <r_i_glide_lipo>  (1) 
-0.194714

>  <r_i_glide_hbond>  (1) 
-0.2

>  <r_i_glide_metal>  (1) 
-0

>  <r_i_glide_rewards>  (1) 
-1.00994

>  <r_i_glide_evdw>  (1) 
-26.4095

>  <r_i_glide_ecoul>  (1) 
-6.28733

>  <r_i_glide_erotb>  (1) 
0.770424

>  <r_i_glide_esite>  (1) 
-0.247051

>  <r_i_glide_emodel>  (1) 
-39.7721

>  <r_i_glide_energy>  (1) 
-32.6968

>  <r_i_glide_einternal>  (1) 
0.524757

>  <r_i_glide_intrahb_reward>  (1) 
-0

>  <i_i_glide_confnum>  (1) 
6

>  <i_i_glide_posenum>  (1) 
12

>  <r_i_glide_eff_state_penalty>  (1) 
0

>  <ligand_id>  (1) 
1

>  <original_smiles>  (1) 
CC1CCN(CC(=O)Nc2snnc2-c2ccc(Cl)cc2)CC1

>  <smiles>  (1) 
[H]c1c([H])c(-c2nnsc2N([H])C(=O)C([H])([H])[N+]2([H])C([H])([H])C([H])([H])C([H])(C([H])([H])[H])C([H])([H])C2([H])[H])c([H])c([H])c1Cl

$$$$
1:0:1
     RDKit          3D

 43 45  0  0  1  0  0  0  0  0999 V2000
   -1.2743    1.5088    3.0160 C   0  0  0  0  0  0  0  0  0  0  0  0
    0.2095    1.2035    3.2540 C   0  0  2  0  0  0  0  0  0  0  0  0
    1.0672    1.7668    2.1105 C   0  0  0  0  0  0  0  0  0  0  0  0
    2.5339    1.3800    2.2838 C   0  0  0  0  0  0  0  0  0  0  0  0
    2.7013   -0.0907    2.4076 N   0  0  1  0  0  0  0  0  0  0  0  0
    4.1377   -0.5122    2.3690 C   0  0  0  0  0  0  0  0  0  0  0  0
    4.6383   -0.8737    0.9615 C   0  0  0  0  0  0  0  0  0  0  0  0
    5.8467   -1.0486    0.8068 O   0  0  0  0  0  0  0  0  0  0  0  0
    3.7453   -0.9823   -0.0377 N   0  0  0  0  0  0  0  0  0  0  0  0
    3.9727   -1.6166   -1.1842 C   0  0  0  0  0  0  0  0  0  0  0  0
    3.9669   -0.8494   -2.7248 S   0  0  0  0  0  0  0  0  0  0  0  0
    4.1746   -2.2632   -3.5506 N   0  0  0  0  0  0  0  0  0  0  0  0
    4.2386   -3.2815   -2.7672 N   0  0  0  0  0  0  0  0  0  0  0  0
    4.0838   -2.9750   -1.3948 C   0  0  0  0  0  0  0  0  0  0  0  0
    4.0230   -4.0402   -0.3757 C   0  0  0  0  0  0  0  0  0  0  0  0
    5.0231   -5.0349   -0.3713 C   0  0  0  0  0  0  0  0  0  0  0  0
    5.0009   -6.0653    0.5892 C   0  0  0  0  0  0  0  0  0  0  0  0
    3.9924   -6.1089    1.5600 C   0  0  0  0  0  0  0  0  0  0  0  0
    3.9827   -7.3585    2.7355 Cl  0  0  0  0  0  0  0  0  0  0  0  0
    2.9939   -5.1078    1.5738 C   0  0  0  0  0  0  0  0  0  0  0  0
    3.0131   -4.0765    0.6061 C   0  0  0  0  0  0  0  0  0  0  0  0
    1.9375   -0.6433    3.5506 C   0  0  0  0  0  0  0  0  0  0  0  0
    0.4509   -0.3072    3.4130 C   0  0  0  0  0  0  0  0  0  0  0  0
   -1.6163    1.0417    2.0905 H   0  0  0  0  0  0  0  0  0  0  0  0
   -1.4425    2.5820    2.9212 H   0  0  0  0  0  0  0  0  0  0  0  0
   -1.8880    1.1296    3.8321 H   0  0  0  0  0  0  0  0  0  0  0  0
    0.5374    1.6875    4.1772 H   0  0  0  0  0  0  0  0  0  0  0  0
    0.6921    1.4114    1.1468 H   0  0  0  0  0  0  0  0  0  0  0  0
    0.9986    2.8572    2.0973 H   0  0  0  0  0  0  0  0  0  0  0  0
    3.0815    1.7230    1.4210 H   0  0  0  0  0  0  0  0  0  0  0  0
    2.9540    1.8818    3.1596 H   0  0  0  0  0  0  0  0  0  0  0  0
    4.7921    0.2352    2.8230 H   0  0  0  0  0  0  0  0  0  0  0  0
    4.2984   -1.4148    2.9661 H   0  0  0  0  0  0  0  0  0  0  0  0
    2.7995   -0.6556    0.0375 H   0  0  0  0  0  0  0  0  0  0  0  0
    5.7972   -4.9959   -1.1182 H   0  0  0  0  0  0  0  0  0  0  0  0
    5.7736   -6.8233    0.5665 H   0  0  0  0  0  0  0  0  0  0  0  0
    2.2206   -5.1465    2.3215 H   0  0  0  0  0  0  0  0  0  0  0  0
    2.2370   -3.3228    0.6125 H   0  0  0  0  0  0  0  0  0  0  0  0
    2.0359   -1.7286    3.5638 H   0  0  0  0  0  0  0  0  0  0  0  0
    2.3458   -0.2446    4.4810 H   0  0  0  0  0  0  0  0  0  0  0  0
   -0.0993   -0.7004    4.2720 H   0  0  0  0  0  0  0  0  0  0  0  0
    0.0794   -0.8095    2.5252 H   0  0  0  0  0  0  0  0  0  0  0  0
    2.2398   -0.4962    1.6054 H   0  0  0  0  0  0  0  0  0  0  0  0
  1  2  1  0
  1 24  1  0
  1 25  1  0
  1 26  1  0
  2 23  1  0
  2  3  1  0
  2 27  1  1
  3  4  1  0
  3 28  1  0
  3 29  1  0
  4  5  1  0
  4 30  1  0
  4 31  1  0
  5  6  1  0
  5 22  1  0
  5 43  1  6
  6  7  1  0
  6 32  1  0
  6 33  1  0
  7  8  2  0
  7  9  1  0
  9 10  1  0
  9 34  1  0
 10 14  2  0
 10 11  1  0
 11 12  1  0
 12 13  2  0
 13 14  1  0
 14 15  1  0
 15 21  1  0
 15 16  2  0
 16 17  1  0
 16 35  1  0
 17 18  2  0
 17 36  1  0
 18 19  1  0
 18 20  1  0
 20 21  2  0
 20 37  1  0
 21 38  1  0
 22 23  1  0
 22 39  1  0
 22 40  1  0
 23 41  1  0
 23 42  1  0
M  CHG  1   5   1
M  END
>  <i_m_ct_stereo_status>  (2) 
1

>  <s_m_source_file>  (2) 
/var/tmp/pbs.5076255.sched01/tmpzk3r62u5/0tgg_cfwk.sdf

>  <i_m_source_file_index>  (2) 
2

>  <i_lp_mmshare_version>  (2) 
48012

>  <i_f3d_flags>  (2) 
0

>  <s_epik_input>  (2) 
W0NIM11bQ0hdMVtDSDJdW0NIMl1OKFtDSDJdW0NIMl0xKVtDSDJdQyg9TylbTkhdYzJzbm5jMi1jM1tjSF1bY0hdYyhDbClbY0hdW2NIXTM=

>  <s_epik_cmdline>  (2) 
J2VwaWtfcHl0aG9uJywgJy1waHQnLCAnMi4wJywgJy1waCcsICc3LjAnLCAnLXRuJywgJzgnLCAnLW1hJywgJzIwMCcsICctaW1hZScsICc8aW5maWxlLm1hZT4nLCAnLW9tYWUnLCAnPG91dGZpbGUubWFlPic=

>  <r_lp_tautomer_probability>  (2) 
1

>  <r_epik_Ionization_Penalty>  (2) 
0.0402373

>  <r_epik_Ionization_Penalty_Charging>  (2) 
0.040204

>  <r_epik_Ionization_Penalty_Neutral>  (2) 
3.33776e-05

>  <r_epik_State_Penalty>  (2) 
0.0338258

>  <r_epik_Charging_Adjusted_Penalty>  (2) 
0.0740297

>  <i_epik_Tot_Q>  (2) 
1

>  <i_epik_Tot_abs_Q>  (2) 
1

>  <s_lp_Force_Field>  (2) 
OPLS3e

>  <r_lp_Energy>  (2) 
37.5531

>  <b_lp_Chiralities_Consistent>  (2) 
1

>  <s_lp_Variant>  (2) 
1:0-1

>  <s_i_glide_gridfile>  (2) 
pfpi4k_grid

>  <i_i_glide_lignum>  (2) 
2

>  <i_i_glide_rotatable_bonds>  (2) 
5

>  <r_i_docking_score>  (2) 
-3.06936

>  <r_i_glide_ligand_efficiency>  (2) 
-0.13345

>  <r_i_glide_ligand_efficiency_sa>  (2) 
-0.379515

>  <r_i_glide_ligand_efficiency_ln>  (2) 
-0.742199

>  <r_i_glide_gscore>  (2) 
-3.06936

>  <r_i_glide_lipo>  (2) 
-0.276401

>  <r_i_glide_hbond>  (2) 
-0.0586904

>  <r_i_glide_metal>  (2) 
-0

>  <r_i_glide_rewards>  (2) 
-1.12556

>  <r_i_glide_evdw>  (2) 
-29.3057

>  <r_i_glide_ecoul>  (2) 
-5.67191

>  <r_i_glide_erotb>  (2) 
0.770424

>  <r_i_glide_esite>  (2) 
-0.063063

>  <r_i_glide_emodel>  (2) 
-37.9346

>  <r_i_glide_energy>  (2) 
-34.9776

>  <r_i_glide_einternal>  (2) 
9.16018

>  <r_i_glide_intrahb_reward>  (2) 
-0

>  <i_i_glide_confnum>  (2) 
2

>  <i_i_glide_posenum>  (2) 
1

>  <r_i_glide_eff_state_penalty>  (2) 
0

>  <ligand_id>  (2) 
1

>  <original_smiles>  (2) 
CC1CCN(CC(=O)Nc2snnc2-c2ccc(Cl)cc2)CC1

>  <smiles>  (2) 
[H]c1c([H])c(-c2nnsc2N([H])C(=O)C([H])([H])[N+]2([H])C([H])([H])C([H])([H])C([H])(C([H])([H])[H])C([H])([H])C2([H])[H])c([H])c([H])c1Cl

$$$$
1:0:2
     RDKit          3D

 43 45  0  0  1  0  0  0  0  0999 V2000
   -2.2935    3.5091    4.6837 C   0  0  0  0  0  0  0  0  0  0  0  0
   -0.9000    3.1252    4.1841 C   0  0  2  0  0  0  0  0  0  0  0  0
   -0.9997    2.3451    2.8619 C   0  0  0  0  0  0  0  0  0  0  0  0
    0.3805    1.8580    2.3904 C   0  0  0  0  0  0  0  0  0  0  0  0
    1.0615    1.0565    3.4409 N   0  0  1  0  0  0  0  0  0  0  0  0
    2.3452    0.4663    2.9748 C   0  0  0  0  0  0  0  0  0  0  0  0
    2.2055   -1.0396    2.8084 C   0  0  0  0  0  0  0  0  0  0  0  0
    1.4349   -1.6559    3.5500 O   0  0  0  0  0  0  0  0  0  0  0  0
    2.9465   -1.5888    1.8324 N   0  0  0  0  0  0  0  0  0  0  0  0
    2.9376   -2.8873    1.4343 C   0  0  0  0  0  0  0  0  0  0  0  0
    2.7592   -4.2429    2.4948 S   0  0  0  0  0  0  0  0  0  0  0  0
    2.8167   -5.3583    1.2563 N   0  0  0  0  0  0  0  0  0  0  0  0
    2.9700   -4.7731    0.1073 N   0  0  0  0  0  0  0  0  0  0  0  0
    3.0731   -3.3732    0.1511 C   0  0  0  0  0  0  0  0  0  0  0  0
    3.2670   -2.6390   -1.1073 C   0  0  0  0  0  0  0  0  0  0  0  0
    2.6280   -3.0552   -2.3014 C   0  0  0  0  0  0  0  0  0  0  0  0
    2.7982   -2.3315   -3.4985 C   0  0  0  0  0  0  0  0  0  0  0  0
    3.5837   -1.1703   -3.5094 C   0  0  0  0  0  0  0  0  0  0  0  0
    3.7545   -0.2342   -4.9346 Cl  0  0  0  0  0  0  0  0  0  0  0  0
    4.2228   -0.7481   -2.3316 C   0  0  0  0  0  0  0  0  0  0  0  0
    4.0645   -1.4714   -1.1384 C   0  0  0  0  0  0  0  0  0  0  0  0
    1.2040    1.8147    4.7086 C   0  0  0  0  0  0  0  0  0  0  0  0
   -0.1526    2.2984    5.2413 C   0  0  0  0  0  0  0  0  0  0  0  0
   -2.8911    2.6171    4.8754 H   0  0  0  0  0  0  0  0  0  0  0  0
   -2.8205    4.1009    3.9345 H   0  0  0  0  0  0  0  0  0  0  0  0
   -2.2445    4.0801    5.6117 H   0  0  0  0  0  0  0  0  0  0  0  0
   -0.3322    4.0390    3.9947 H   0  0  0  0  0  0  0  0  0  0  0  0
   -1.6716    1.4923    2.9746 H   0  0  0  0  0  0  0  0  0  0  0  0
   -1.4353    2.9828    2.0901 H   0  0  0  0  0  0  0  0  0  0  0  0
    0.2610    1.2715    1.4780 H   0  0  0  0  0  0  0  0  0  0  0  0
    1.0077    2.7150    2.1410 H   0  0  0  0  0  0  0  0  0  0  0  0
    2.6713    0.9221    2.0372 H   0  0  0  0  0  0  0  0  0  0  0  0
    3.1508    0.6452    3.6888 H   0  0  0  0  0  0  0  0  0  0  0  0
    3.4721   -0.9381    1.2616 H   0  0  0  0  0  0  0  0  0  0  0  0
    1.9968   -3.9271   -2.3040 H   0  0  0  0  0  0  0  0  0  0  0  0
    2.2988   -2.6744   -4.3926 H   0  0  0  0  0  0  0  0  0  0  0  0
    4.8237    0.1434   -2.3377 H   0  0  0  0  0  0  0  0  0  0  0  0
    4.5601   -1.1213   -0.2473 H   0  0  0  0  0  0  0  0  0  0  0  0
    1.6675    1.1849    5.4681 H   0  0  0  0  0  0  0  0  0  0  0  0
    1.8632    2.6671    4.5383 H   0  0  0  0  0  0  0  0  0  0  0  0
    0.0023    2.8926    6.1443 H   0  0  0  0  0  0  0  0  0  0  0  0
   -0.7579    1.4412    5.5346 H   0  0  0  0  0  0  0  0  0  0  0  0
    0.4626    0.2637    3.6417 H   0  0  0  0  0  0  0  0  0  0  0  0
  1  2  1  0
  1 24  1  0
  1 25  1  0
  1 26  1  0
  2 23  1  0
  2  3  1  0
  2 27  1  6
  3  4  1  0
  3 28  1  0
  3 29  1  0
  4  5  1  0
  4 30  1  0
  4 31  1  0
  5  6  1  0
  5 22  1  0
  5 43  1  1
  6  7  1  0
  6 32  1  0
  6 33  1  0
  7  8  2  0
  7  9  1  0
  9 10  1  0
  9 34  1  0
 10 14  2  0
 10 11  1  0
 11 12  1  0
 12 13  2  0
 13 14  1  0
 14 15  1  0
 15 21  1  0
 15 16  2  0
 16 17  1  0
 16 35  1  0
 17 18  2  0
 17 36  1  0
 18 19  1  0
 18 20  1  0
 20 21  2  0
 20 37  1  0
 21 38  1  0
 22 23  1  0
 22 39  1  0
 22 40  1  0
 23 41  1  0
 23 42  1  0
M  CHG  1   5   1
M  END
>  <i_m_ct_stereo_status>  (3) 
1

>  <s_m_source_file>  (3) 
/var/tmp/pbs.5076255.sched01/tmpzk3r62u5/0tgg_cfwk.sdf

>  <i_m_source_file_index>  (3) 
2

>  <i_lp_mmshare_version>  (3) 
48012

>  <i_f3d_flags>  (3) 
0

>  <s_epik_input>  (3) 
W0NIM11bQ0hdMVtDSDJdW0NIMl1OKFtDSDJdW0NIMl0xKVtDSDJdQyg9TylbTkhdYzJzbm5jMi1jM1tjSF1bY0hdYyhDbClbY0hdW2NIXTM=

>  <s_epik_cmdline>  (3) 
J2VwaWtfcHl0aG9uJywgJy1waHQnLCAnMi4wJywgJy1waCcsICc3LjAnLCAnLXRuJywgJzgnLCAnLW1hJywgJzIwMCcsICctaW1hZScsICc8aW5maWxlLm1hZT4nLCAnLW9tYWUnLCAnPG91dGZpbGUubWFlPic=

>  <r_lp_tautomer_probability>  (3) 
1

>  <r_epik_Ionization_Penalty>  (3) 
0.0402373

>  <r_epik_Ionization_Penalty_Charging>  (3) 
0.040204

>  <r_epik_Ionization_Penalty_Neutral>  (3) 
3.33776e-05

>  <r_epik_State_Penalty>  (3) 
0.0338258

>  <r_epik_Charging_Adjusted_Penalty>  (3) 
0.0740297

>  <i_epik_Tot_Q>  (3) 
1

>  <i_epik_Tot_abs_Q>  (3) 
1

>  <s_lp_Force_Field>  (3) 
OPLS3e

>  <r_lp_Energy>  (3) 
37.5531

>  <b_lp_Chiralities_Consistent>  (3) 
1

>  <s_lp_Variant>  (3) 
1:0-1

>  <s_i_glide_gridfile>  (3) 
pfpi4k_grid

>  <i_i_glide_lignum>  (3) 
2

>  <i_i_glide_rotatable_bonds>  (3) 
5

>  <r_i_docking_score>  (3) 
-3.06707

>  <r_i_glide_ligand_efficiency>  (3) 
-0.133351

>  <r_i_glide_ligand_efficiency_sa>  (3) 
-0.379232

>  <r_i_glide_ligand_efficiency_ln>  (3) 
-0.741645

>  <r_i_glide_gscore>  (3) 
-3.06707

>  <r_i_glide_lipo>  (3) 
-0.63141

>  <r_i_glide_hbond>  (3) 
0

>  <r_i_glide_metal>  (3) 
-0

>  <r_i_glide_rewards>  (3) 
-1.00994

>  <r_i_glide_evdw>  (3) 
-29.94

>  <r_i_glide_ecoul>  (3) 
-3.95513

>  <r_i_glide_erotb>  (3) 
0.770424

>  <r_i_glide_esite>  (3) 
-0.105868

>  <r_i_glide_emodel>  (3) 
-40.0497

>  <r_i_glide_energy>  (3) 
-33.8952

>  <r_i_glide_einternal>  (3) 
3.05439

>  <r_i_glide_intrahb_reward>  (3) 
-0

>  <i_i_glide_confnum>  (3) 
1

>  <i_i_glide_posenum>  (3) 
8

>  <r_i_glide_eff_state_penalty>  (3) 
0

>  <ligand_id>  (3) 
1

>  <original_smiles>  (3) 
CC1CCN(CC(=O)Nc2snnc2-c2ccc(Cl)cc2)CC1

>  <smiles>  (3) 
[H]c1c([H])c(-c2nnsc2N([H])C(=O)C([H])([H])[N+]2([H])C([H])([H])C([H])([H])C([H])(C([H])([H])[H])C([H])([H])C2([H])[H])c([H])c([H])c1Cl

$$$$
1:1:0
     RDKit          3D

 42 44  0  0  1  0  0  0  0  0999 V2000
    0.9712    4.0181    3.7737 C   0  0  0  0  0  0  0  0  0  0  0  0
    0.7400    2.6200    3.1890 C   0  0  0  0  0  0  0  0  0  0  0  0
    0.6817    1.5499    4.2877 C   0  0  0  0  0  0  0  0  0  0  0  0
    0.5731    0.1358    3.6947 C   0  0  0  0  0  0  0  0  0  0  0  0
    1.7032   -0.1219    2.8012 N   0  0  0  0  0  0  0  0  0  0  0  0
    1.6619   -1.5163    2.3173 C   0  0  0  0  0  0  0  0  0  0  0  0
    2.9645   -1.9619    1.6444 C   0  0  0  0  0  0  0  0  0  0  0  0
    3.8909   -2.3745    2.3440 O   0  0  0  0  0  0  0  0  0  0  0  0
    3.0266   -1.8913    0.3062 N   0  0  0  0  0  0  0  0  0  0  0  0
    4.1097   -2.2630   -0.4156 C   0  0  0  0  0  0  0  0  0  0  0  0
    4.9011   -1.1722   -1.4831 S   0  0  0  0  0  0  0  0  0  0  0  0
    6.0882   -2.2726   -1.8936 N   0  0  0  0  0  0  0  0  0  0  0  0
    5.8854   -3.4188   -1.3222 N   0  0  0  0  0  0  0  0  0  0  0  0
    4.7615   -3.4731   -0.4764 C   0  0  0  0  0  0  0  0  0  0  0  0
    4.4190   -4.7426    0.1916 C   0  0  0  0  0  0  0  0  0  0  0  0
    5.4259   -5.6457    0.5953 C   0  0  0  0  0  0  0  0  0  0  0  0
    5.0824   -6.8325    1.2762 C   0  0  0  0  0  0  0  0  0  0  0  0
    3.7353   -7.1270    1.5563 C   0  0  0  0  0  0  0  0  0  0  0  0
    3.3134   -8.5784    2.3749 Cl  0  0  0  0  0  0  0  0  0  0  0  0
    2.7260   -6.2335    1.1550 C   0  0  0  0  0  0  0  0  0  0  0  0
    3.0662   -5.0579    0.4636 C   0  0  0  0  0  0  0  0  0  0  0  0
    1.6871    0.8257    1.6771 C   0  0  0  0  0  0  0  0  0  0  0  0
    1.8422    2.2584    2.1878 C   0  0  0  0  0  0  0  0  0  0  0  0
    1.9187    4.0574    4.3118 H   0  0  0  0  0  0  0  0  0  0  0  0
    0.1798    4.2939    4.4690 H   0  0  0  0  0  0  0  0  0  0  0  0
    1.0101    4.7717    2.9858 H   0  0  0  0  0  0  0  0  0  0  0  0
   -0.2103    2.6099    2.6523 H   0  0  0  0  0  0  0  0  0  0  0  0
    1.5770    1.6121    4.9079 H   0  0  0  0  0  0  0  0  0  0  0  0
   -0.1676    1.7375    4.9436 H   0  0  0  0  0  0  0  0  0  0  0  0
    0.5844   -0.5827    4.5166 H   0  0  0  0  0  0  0  0  0  0  0  0
   -0.3744    0.0067    3.1659 H   0  0  0  0  0  0  0  0  0  0  0  0
    1.4846   -2.2015    3.1478 H   0  0  0  0  0  0  0  0  0  0  0  0
    0.8246   -1.6460    1.6339 H   0  0  0  0  0  0  0  0  0  0  0  0
    2.2538   -1.4541   -0.1971 H   0  0  0  0  0  0  0  0  0  0  0  0
    6.4653   -5.4191    0.3987 H   0  0  0  0  0  0  0  0  0  0  0  0
    5.8615   -7.5137    1.5850 H   0  0  0  0  0  0  0  0  0  0  0  0
    1.6927   -6.4525    1.3714 H   0  0  0  0  0  0  0  0  0  0  0  0
    2.2784   -4.3921    0.1501 H   0  0  0  0  0  0  0  0  0  0  0  0
    2.5133    0.6484    0.9903 H   0  0  0  0  0  0  0  0  0  0  0  0
    0.7648    0.7154    1.1001 H   0  0  0  0  0  0  0  0  0  0  0  0
    1.8140    2.9443    1.3413 H   0  0  0  0  0  0  0  0  0  0  0  0
    2.8251    2.3711    2.6453 H   0  0  0  0  0  0  0  0  0  0  0  0
  1  2  1  0
  1 24  1  0
  1 25  1  0
  1 26  1  0
  2 23  1  0
  2  3  1  0
  2 27  1  0
  3  4  1  0
  3 28  1  0
  3 29  1  0
  4  5  1  0
  4 30  1  0
  4 31  1  0
  5  6  1  0
  5 22  1  0
  6  7  1  0
  6 32  1  0
  6 33  1  0
  7  8  2  0
  7  9  1  0
  9 10  1  0
  9 34  1  0
 10 14  2  0
 10 11  1  0
 11 12  1  0
 12 13  2  0
 13 14  1  0
 14 15  1  0
 15 21  1  0
 15 16  2  0
 16 17  1  0
 16 35  1  0
 17 18  2  0
 17 36  1  0
 18 19  1  0
 18 20  1  0
 20 21  2  0
 20 37  1  0
 21 38  1  0
 22 23  1  0
 22 39  1  0
 22 40  1  0
 23 41  1  0
 23 42  1  0
M  END
>  <i_m_ct_stereo_status>  (4) 
1

>  <s_m_source_file>  (4) 
/var/tmp/pbs.5076255.sched01/tmpzk3r62u5/0tgg_cfwk.sdf

>  <i_m_source_file_index>  (4) 
3

>  <i_lp_mmshare_version>  (4) 
48012

>  <i_f3d_flags>  (4) 
0

>  <s_epik_input>  (4) 
W0NIM11bQ0hdMVtDSDJdW0NIMl1OKFtDSDJdW0NIMl0xKVtDSDJdQyg9TylbTkhdYzJzbm5jMi1jM1tjSF1bY0hdYyhDbClbY0hdW2NIXTM=

>  <s_epik_cmdline>  (4) 
J2VwaWtfcHl0aG9uJywgJy1waHQnLCAnMi4wJywgJy1waCcsICc3LjAnLCAnLXRuJywgJzgnLCAnLW1hJywgJzIwMCcsICctaW1hZScsICc8aW5maWxlLm1hZT4nLCAnLW9tYWUnLCAnPG91dGZpbGUubWFlPic=

>  <r_lp_tautomer_probability>  (4) 
1

>  <r_epik_Ionization_Penalty>  (4) 
1.61399

>  <r_epik_Ionization_Penalty_Charging>  (4) 
0

>  <r_epik_Ionization_Penalty_Neutral>  (4) 
1.61399

>  <r_epik_State_Penalty>  (4) 
1.71318

>  <r_epik_Charging_Adjusted_Penalty>  (4) 
1.71318

>  <i_epik_Tot_Q>  (4) 
0

>  <i_epik_Tot_abs_Q>  (4) 
0

>  <s_lp_Force_Field>  (4) 
OPLS3e

>  <r_lp_Energy>  (4) 
28.2974

>  <b_lp_Chiralities_Consistent>  (4) 
1

>  <s_lp_Variant>  (4) 
1:0-2

>  <s_i_glide_gridfile>  (4) 
pfpi4k_grid

>  <i_i_glide_lignum>  (4) 
3

>  <i_i_glide_rotatable_bonds>  (4) 
5

>  <r_i_docking_score>  (4) 
-2.98082

>  <r_i_glide_ligand_efficiency>  (4) 
-0.129601

>  <r_i_glide_ligand_efficiency_sa>  (4) 
-0.368568

>  <r_i_glide_ligand_efficiency_ln>  (4) 
-0.72079

>  <r_i_glide_gscore>  (4) 
-2.98082

>  <r_i_glide_lipo>  (4) 
-0.315842

>  <r_i_glide_hbond>  (4) 
-0.16

>  <r_i_glide_metal>  (4) 
-0

>  <r_i_glide_rewards>  (4) 
-1.01682

>  <r_i_glide_evdw>  (4) 
-27.1597

>  <r_i_glide_ecoul>  (4) 
-5.09817

>  <r_i_glide_erotb>  (4) 
0.774364

>  <r_i_glide_esite>  (4) 
-0.139818

>  <r_i_glide_emodel>  (4) 
-36.4239

>  <r_i_glide_energy>  (4) 
-32.2579

>  <r_i_glide_einternal>  (4) 
3.84095

>  <r_i_glide_intrahb_reward>  (4) 
-0

>  <i_i_glide_confnum>  (4) 
3

>  <i_i_glide_posenum>  (4) 
1

>  <r_i_glide_eff_state_penalty>  (4) 
0

>  <ligand_id>  (4) 
1

>  <original_smiles>  (4) 
CC1CCN(CC(=O)Nc2snnc2-c2ccc(Cl)cc2)CC1

>  <smiles>  (4) 
[H]c1c([H])c(-c2nnsc2N([H])C(=O)C([H])([H])N2C([H])([H])C([H])([H])C([H])(C([H])([H])[H])C([H])([H])C2([H])[H])c([H])c([H])c1Cl

$$$$
1:1:1
     RDKit          3D

 42 44  0  0  1  0  0  0  0  0999 V2000
   -1.7762    1.6560    4.2771 C   0  0  0  0  0  0  0  0  0  0  0  0
   -0.2448    1.5751    4.2388 C   0  0  0  0  0  0  0  0  0  0  0  0
    0.3160    2.1698    2.9380 C   0  0  0  0  0  0  0  0  0  0  0  0
    1.8372    1.9787    2.8371 C   0  0  0  0  0  0  0  0  0  0  0  0
    2.1753    0.5509    2.9202 N   0  0  0  0  0  0  0  0  0  0  0  0
    3.6287    0.3790    2.7141 C   0  0  0  0  0  0  0  0  0  0  0  0
    4.0815   -1.0716    2.5226 C   0  0  0  0  0  0  0  0  0  0  0  0
    4.8591   -1.5742    3.3315 O   0  0  0  0  0  0  0  0  0  0  0  0
    3.5997   -1.7011    1.4339 N   0  0  0  0  0  0  0  0  0  0  0  0
    4.0263   -2.8962    0.9402 C   0  0  0  0  0  0  0  0  0  0  0  0
    4.4393   -4.2759    1.9002 S   0  0  0  0  0  0  0  0  0  0  0  0
    4.8439   -5.2166    0.5834 N   0  0  0  0  0  0  0  0  0  0  0  0
    4.6924   -4.5554   -0.5237 N   0  0  0  0  0  0  0  0  0  0  0  0
    4.2185   -3.2416   -0.3771 C   0  0  0  0  0  0  0  0  0  0  0  0
    4.0501   -2.4166   -1.5769 C   0  0  0  0  0  0  0  0  0  0  0  0
    4.4216   -1.0547   -1.5831 C   0  0  0  0  0  0  0  0  0  0  0  0
    4.2142   -0.2646   -2.7344 C   0  0  0  0  0  0  0  0  0  0  0  0
    3.6572   -0.8201   -3.8918 C   0  0  0  0  0  0  0  0  0  0  0  0
    3.4092    0.1703   -5.2790 Cl  0  0  0  0  0  0  0  0  0  0  0  0
    3.3109   -2.1816   -3.8996 C   0  0  0  0  0  0  0  0  0  0  0  0
    3.5095   -2.9685   -2.7563 C   0  0  0  0  0  0  0  0  0  0  0  0
    1.7608    0.0157    4.2244 C   0  0  0  0  0  0  0  0  0  0  0  0
    0.2380    0.1235    4.3811 C   0  0  0  0  0  0  0  0  0  0  0  0
   -2.1791    1.1005    3.4421 H   0  0  0  0  0  0  0  0  0  0  0  0
   -2.1279    2.6845    4.1880 H   0  0  0  0  0  0  0  0  0  0  0  0
   -2.1780    1.2326    5.1978 H   0  0  0  0  0  0  0  0  0  0  0  0
    0.1608    2.1495    5.0715 H   0  0  0  0  0  0  0  0  0  0  0  0
   -0.1601    1.7011    2.0736 H   0  0  0  0  0  0  0  0  0  0  0  0
    0.0771    3.2323    2.8808 H   0  0  0  0  0  0  0  0  0  0  0  0
    2.1655    2.3876    1.8823 H   0  0  0  0  0  0  0  0  0  0  0  0
    2.3502    2.5479    3.6135 H   0  0  0  0  0  0  0  0  0  0  0  0
    3.9412    0.9411    1.8323 H   0  0  0  0  0  0  0  0  0  0  0  0
    4.1707    0.8019    3.5620 H   0  0  0  0  0  0  0  0  0  0  0  0
    2.9443   -1.1694    0.8657 H   0  0  0  0  0  0  0  0  0  0  0  0
    4.8516   -0.5930   -0.7022 H   0  0  0  0  0  0  0  0  0  0  0  0
    4.4731    0.7801   -2.7333 H   0  0  0  0  0  0  0  0  0  0  0  0
    2.8673   -2.6490   -4.7511 H   0  0  0  0  0  0  0  0  0  0  0  0
    3.2177   -4.0027   -2.7848 H   0  0  0  0  0  0  0  0  0  0  0  0
    2.0283   -1.0364    4.3174 H   0  0  0  0  0  0  0  0  0  0  0  0
    2.2665    0.5492    5.0321 H   0  0  0  0  0  0  0  0  0  0  0  0
   -0.0520   -0.2750    5.3539 H   0  0  0  0  0  0  0  0  0  0  0  0
   -0.2416   -0.5021    3.6295 H   0  0  0  0  0  0  0  0  0  0  0  0
  1  2  1  0
  1 24  1  0
  1 25  1  0
  1 26  1  0
  2 23  1  0
  2  3  1  0
  2 27  1  0
  3  4  1  0
  3 28  1  0
  3 29  1  0
  4  5  1  0
  4 30  1  0
  4 31  1  0
  5  6  1  0
  5 22  1  0
  6  7  1  0
  6 32  1  0
  6 33  1  0
  7  8  2  0
  7  9  1  0
  9 10  1  0
  9 34  1  0
 10 14  2  0
 10 11  1  0
 11 12  1  0
 12 13  2  0
 13 14  1  0
 14 15  1  0
 15 21  1  0
 15 16  2  0
 16 17  1  0
 16 35  1  0
 17 18  2  0
 17 36  1  0
 18 19  1  0
 18 20  1  0
 20 21  2  0
 20 37  1  0
 21 38  1  0
 22 23  1  0
 22 39  1  0
 22 40  1  0
 23 41  1  0
 23 42  1  0
M  END
>  <i_m_ct_stereo_status>  (5) 
1

>  <s_m_source_file>  (5) 
/var/tmp/pbs.5076255.sched01/tmpzk3r62u5/0tgg_cfwk.sdf

>  <i_m_source_file_index>  (5) 
3

>  <i_lp_mmshare_version>  (5) 
48012

>  <i_f3d_flags>  (5) 
0

>  <s_epik_input>  (5) 
W0NIM11bQ0hdMVtDSDJdW0NIMl1OKFtDSDJdW0NIMl0xKVtDSDJdQyg9TylbTkhdYzJzbm5jMi1jM1tjSF1bY0hdYyhDbClbY0hdW2NIXTM=

>  <s_epik_cmdline>  (5) 
J2VwaWtfcHl0aG9uJywgJy1waHQnLCAnMi4wJywgJy1waCcsICc3LjAnLCAnLXRuJywgJzgnLCAnLW1hJywgJzIwMCcsICctaW1hZScsICc8aW5maWxlLm1hZT4nLCAnLW9tYWUnLCAnPG91dGZpbGUubWFlPic=

>  <r_lp_tautomer_probability>  (5) 
1

>  <r_epik_Ionization_Penalty>  (5) 
1.61399

>  <r_epik_Ionization_Penalty_Charging>  (5) 
0

>  <r_epik_Ionization_Penalty_Neutral>  (5) 
1.61399

>  <r_epik_State_Penalty>  (5) 
1.71318

>  <r_epik_Charging_Adjusted_Penalty>  (5) 
1.71318

>  <i_epik_Tot_Q>  (5) 
0

>  <i_epik_Tot_abs_Q>  (5) 
0

>  <s_lp_Force_Field>  (5) 
OPLS3e

>  <r_lp_Energy>  (5) 
28.2974

>  <b_lp_Chiralities_Consistent>  (5) 
1

>  <s_lp_Variant>  (5) 
1:0-2

>  <s_i_glide_gridfile>  (5) 
pfpi4k_grid

>  <i_i_glide_lignum>  (5) 
3

>  <i_i_glide_rotatable_bonds>  (5) 
5

>  <r_i_docking_score>  (5) 
-2.82123

>  <r_i_glide_ligand_efficiency>  (5) 
-0.122662

>  <r_i_glide_ligand_efficiency_sa>  (5) 
-0.348835

>  <r_i_glide_ligand_efficiency_ln>  (5) 
-0.682199

>  <r_i_glide_gscore>  (5) 
-2.82123

>  <r_i_glide_lipo>  (5) 
-0.656052

>  <r_i_glide_hbond>  (5) 
0

>  <r_i_glide_metal>  (5) 
-0

>  <r_i_glide_rewards>  (5) 
-1.03907

>  <r_i_glide_evdw>  (5) 
-29.8963

>  <r_i_glide_ecoul>  (5) 
-2.55161

>  <r_i_glide_erotb>  (5) 
0.774364

>  <r_i_glide_esite>  (5) 
-0.0229109

>  <r_i_glide_emodel>  (5) 
-37.3565

>  <r_i_glide_energy>  (5) 
-32.448

>  <r_i_glide_einternal>  (5) 
1.51259

>  <r_i_glide_intrahb_reward>  (5) 
-0

>  <i_i_glide_confnum>  (5) 
4

>  <i_i_glide_posenum>  (5) 
24

>  <r_i_glide_eff_state_penalty>  (5) 
0

>  <ligand_id>  (5) 
1

>  <original_smiles>  (5) 
CC1CCN(CC(=O)Nc2snnc2-c2ccc(Cl)cc2)CC1

>  <smiles>  (5) 
[H]c1c([H])c(-c2nnsc2N([H])C(=O)C([H])([H])N2C([H])([H])C([H])([H])C([H])(C([H])([H])[H])C([H])([H])C2([H])[H])c([H])c([H])c1Cl

$$$$
1:1:2
     RDKit          3D

 42 44  0  0  1  0  0  0  0  0999 V2000
   -2.0244   -0.3267    5.0608 C   0  0  0  0  0  0  0  0  0  0  0  0
   -0.5279   -0.0249    4.9264 C   0  0  0  0  0  0  0  0  0  0  0  0
   -0.2453    0.8701    3.7105 C   0  0  0  0  0  0  0  0  0  0  0  0
    1.2643    1.0647    3.4900 C   0  0  0  0  0  0  0  0  0  0  0  0
    1.9280   -0.2345    3.3220 N   0  0  0  0  0  0  0  0  0  0  0  0
    3.3571   -0.0151    3.0005 C   0  0  0  0  0  0  0  0  0  0  0  0
    4.1159   -1.2853    2.6016 C   0  0  0  0  0  0  0  0  0  0  0  0
    4.9513   -1.7499    3.3792 O   0  0  0  0  0  0  0  0  0  0  0  0
    3.8162   -1.8053    1.3968 N   0  0  0  0  0  0  0  0  0  0  0  0
    4.3315   -2.9424    0.8439 C   0  0  0  0  0  0  0  0  0  0  0  0
    4.8972   -4.3169    1.7397 S   0  0  0  0  0  0  0  0  0  0  0  0
    5.3406   -5.1781    0.3779 N   0  0  0  0  0  0  0  0  0  0  0  0
    5.0651   -4.5071   -0.7007 N   0  0  0  0  0  0  0  0  0  0  0  0
    4.4822   -3.2430   -0.4883 C   0  0  0  0  0  0  0  0  0  0  0  0
    4.1789   -2.4139   -1.6558 C   0  0  0  0  0  0  0  0  0  0  0  0
    4.5490   -1.0536   -1.6884 C   0  0  0  0  0  0  0  0  0  0  0  0
    4.2155   -0.2570   -2.8046 C   0  0  0  0  0  0  0  0  0  0  0  0
    3.5315   -0.8087   -3.9033 C   0  0  0  0  0  0  0  0  0  0  0  0
    3.1555    0.2034   -5.2495 Cl  0  0  0  0  0  0  0  0  0  0  0  0
    3.1764   -2.1686   -3.8809 C   0  0  0  0  0  0  0  0  0  0  0  0
    3.5063   -2.9605   -2.7666 C   0  0  0  0  0  0  0  0  0  0  0  0
    1.7659   -1.0363    4.5450 C   0  0  0  0  0  0  0  0  0  0  0  0
    0.2812   -1.3200    4.8070 C   0  0  0  0  0  0  0  0  0  0  0  0
   -2.3868   -0.8458    4.1718 H   0  0  0  0  0  0  0  0  0  0  0  0
   -2.5760    0.6007    5.1567 H   0  0  0  0  0  0  0  0  0  0  0  0
   -2.2332   -0.9560    5.9290 H   0  0  0  0  0  0  0  0  0  0  0  0
   -0.1936    0.5059    5.8169 H   0  0  0  0  0  0  0  0  0  0  0  0
   -0.6814    0.4269    2.8147 H   0  0  0  0  0  0  0  0  0  0  0  0
   -0.7252    1.8421    3.8365 H   0  0  0  0  0  0  0  0  0  0  0  0
    1.4044    1.6712    2.5947 H   0  0  0  0  0  0  0  0  0  0  0  0
    1.7051    1.6219    4.3190 H   0  0  0  0  0  0  0  0  0  0  0  0
    3.4652    0.7166    2.1960 H   0  0  0  0  0  0  0  0  0  0  0  0
    3.8574    0.4083    3.8696 H   0  0  0  0  0  0  0  0  0  0  0  0
    3.1306   -1.3018    0.8411 H   0  0  0  0  0  0  0  0  0  0  0  0
    5.0768   -0.6025   -0.8579 H   0  0  0  0  0  0  0  0  0  0  0  0
    4.4794    0.7839   -2.8360 H   0  0  0  0  0  0  0  0  0  0  0  0
    2.6315   -2.6122   -4.7027 H   0  0  0  0  0  0  0  0  0  0  0  0
    3.2124   -3.9967   -2.7618 H   0  0  0  0  0  0  0  0  0  0  0  0
    2.2670   -1.9998    4.4556 H   0  0  0  0  0  0  0  0  0  0  0  0
    2.2121   -0.5212    5.3991 H   0  0  0  0  0  0  0  0  0  0  0  0
    0.1816   -1.9115    5.7179 H   0  0  0  0  0  0  0  0  0  0  0  0
   -0.1159   -1.9288    3.9958 H   0  0  0  0  0  0  0  0  0  0  0  0
  1  2  1  0
  1 24  1  0
  1 25  1  0
  1 26  1  0
  2 23  1  0
  2  3  1  0
  2 27  1  0
  3  4  1  0
  3 28  1  0
  3 29  1  0
  4  5  1  0
  4 30  1  0
  4 31  1  0
  5  6  1  0
  5 22  1  0
  6  7  1  0
  6 32  1  0
  6 33  1  0
  7  8  2  0
  7  9  1  0
  9 10  1  0
  9 34  1  0
 10 14  2  0
 10 11  1  0
 11 12  1  0
 12 13  2  0
 13 14  1  0
 14 15  1  0
 15 21  1  0
 15 16  2  0
 16 17  1  0
 16 35  1  0
 17 18  2  0
 17 36  1  0
 18 19  1  0
 18 20  1  0
 20 21  2  0
 20 37  1  0
 21 38  1  0
 22 23  1  0
 22 39  1  0
 22 40  1  0
 23 41  1  0
 23 42  1  0
M  END
>  <i_m_ct_stereo_status>  (6) 
1

>  <s_m_source_file>  (6) 
/var/tmp/pbs.5076255.sched01/tmpzk3r62u5/0tgg_cfwk.sdf

>  <i_m_source_file_index>  (6) 
3

>  <i_lp_mmshare_version>  (6) 
48012

>  <i_f3d_flags>  (6) 
0

>  <s_epik_input>  (6) 
W0NIM11bQ0hdMVtDSDJdW0NIMl1OKFtDSDJdW0NIMl0xKVtDSDJdQyg9TylbTkhdYzJzbm5jMi1jM1tjSF1bY0hdYyhDbClbY0hdW2NIXTM=

>  <s_epik_cmdline>  (6) 
J2VwaWtfcHl0aG9uJywgJy1waHQnLCAnMi4wJywgJy1waCcsICc3LjAnLCAnLXRuJywgJzgnLCAnLW1hJywgJzIwMCcsICctaW1hZScsICc8aW5maWxlLm1hZT4nLCAnLW9tYWUnLCAnPG91dGZpbGUubWFlPic=

>  <r_lp_tautomer_probability>  (6) 
1

>  <r_epik_Ionization_Penalty>  (6) 
1.61399

>  <r_epik_Ionization_Penalty_Charging>  (6) 
0

>  <r_epik_Ionization_Penalty_Neutral>  (6) 
1.61399

>  <r_epik_State_Penalty>  (6) 
1.71318

>  <r_epik_Charging_Adjusted_Penalty>  (6) 
1.71318

>  <i_epik_Tot_Q>  (6) 
0

>  <i_epik_Tot_abs_Q>  (6) 
0

>  <s_lp_Force_Field>  (6) 
OPLS3e

>  <r_lp_Energy>  (6) 
28.2974

>  <b_lp_Chiralities_Consistent>  (6) 
1

>  <s_lp_Variant>  (6) 
1:0-2

>  <s_i_glide_gridfile>  (6) 
pfpi4k_grid

>  <i_i_glide_lignum>  (6) 
3

>  <i_i_glide_rotatable_bonds>  (6) 
5

>  <r_i_docking_score>  (6) 
-2.77407

>  <r_i_glide_ligand_efficiency>  (6) 
-0.120612

>  <r_i_glide_ligand_efficiency_sa>  (6) 
-0.343003

>  <r_i_glide_ligand_efficiency_ln>  (6) 
-0.670795

>  <r_i_glide_gscore>  (6) 
-2.77407

>  <r_i_glide_lipo>  (6) 
-0.71852

>  <r_i_glide_hbond>  (6) 
0

>  <r_i_glide_metal>  (6) 
-0

>  <r_i_glide_rewards>  (6) 
-1.02486

>  <r_i_glide_evdw>  (6) 
-29.7684

>  <r_i_glide_ecoul>  (6) 
-2.04217

>  <r_i_glide_erotb>  (6) 
0.774364

>  <r_i_glide_esite>  (6) 
-0.0103059

>  <r_i_glide_emodel>  (6) 
-37.1976

>  <r_i_glide_energy>  (6) 
-31.8106

>  <r_i_glide_einternal>  (6) 
0.593902

>  <r_i_glide_intrahb_reward>  (6) 
-0

>  <i_i_glide_confnum>  (6) 
4

>  <i_i_glide_posenum>  (6) 
16

>  <r_i_glide_eff_state_penalty>  (6) 
0

>  <ligand_id>  (6) 
1

>  <original_smiles>  (6) 
CC1CCN(CC(=O)Nc2snnc2-c2ccc(Cl)cc2)CC1

>  <smiles>  (6) 
[H]c1c([H])c(-c2nnsc2N([H])C(=O)C([H])([H])N2C([H])([H])C([H])([H])C([H])(C([H])([H])[H])C([H])([H])C2([H])[H])c([H])c([H])c1Cl

$$$$
2:0:0
     RDKit          3D

 10 10  0  0  1  0  0  0  0  0999 V2000
   -1.7831   -9.0581    2.4807 Cl  0  0  0  0  0  0  0  0  0  0  0  0
   -0.5327   -7.8794    2.4805 C   0  0  0  0  0  0  0  0  0  0  0  0
   -0.1414   -7.2221    1.3036 C   0  0  0  0  0  0  0  0  0  0  0  0
    0.8005   -6.2568    1.3077 N   0  0  0  0  0  0  0  0  0  0  0  0
    1.4095   -6.0266    2.4717 C   0  0  0  0  0  0  0  0  0  0  0  0
    1.1185   -6.5820    3.6459 N   0  0  0  0  0  0  0  0  0  0  0  0
    0.1513   -7.5231    3.6570 C   0  0  0  0  0  0  0  0  0  0  0  0
   -0.6111   -7.4233    0.3535 H   0  0  0  0  0  0  0  0  0  0  0  0
    2.1701   -5.2669    2.4752 H   0  0  0  0  0  0  0  0  0  0  0  0
   -0.0790   -7.9762    4.6131 H   0  0  0  0  0  0  0  0  0  0  0  0
  1  2  1  0
  2  7  2  0
  2  3  1  0
  3  4  2  0
  3  8  1  0
  4  5  1  0
  5  6  2  0
  5  9  1  0
  6  7  1  0
  7 10  1  0
M  END
>  <i_m_ct_stereo_status>  (7) 
1

>  <s_m_source_file>  (7) 
/var/tmp/pbs.5076255.sched01/tmpzk3r62u5/0tgg_cfwk.sdf

>  <i_m_source_file_index>  (7) 
4

>  <i_lp_mmshare_version>  (7) 
48012

>  <i_f3d_flags>  (7) 
0

>  <s_epik_input>  (7) 
Q2xjMVtjSF1uW2NIXW5bY0hdMQ==

>  <s_epik_cmdline>  (7) 
J2VwaWtfcHl0aG9uJywgJy1waHQnLCAnMi4wJywgJy1waCcsICc3LjAnLCAnLXRuJywgJzgnLCAnLW1hJywgJzIwMCcsICctaW1hZScsICc8aW5maWxlLm1hZT4nLCAnLW9tYWUnLCAnPG91dGZpbGUubWFlPic=

>  <r_lp_tautomer_probability>  (7) 
1

>  <r_epik_Ionization_Penalty>  (7) 
8.79585e-08

>  <r_epik_Ionization_Penalty_Charging>  (7) 
0

>  <r_epik_Ionization_Penalty_Neutral>  (7) 
8.79585e-08

>  <r_epik_State_Penalty>  (7) 
-0

>  <r_epik_Charging_Adjusted_Penalty>  (7) 
0

>  <i_epik_Tot_Q>  (7) 
0

>  <i_epik_Tot_abs_Q>  (7) 
0

>  <s_epik_Chemistry_Notes>  (7) 
This compound contains an electron-poor aromatic ring that is susceptible to covalent hydrolysis at low pH, typically resulting in measured values for nitrogen ring protonation that are around two units higher than predicted values.

>  <s_lp_Force_Field>  (7) 
OPLS3e

>  <r_lp_Energy>  (7) 
11.9609

>  <b_lp_Chiralities_Consistent>  (7) 
1

>  <s_lp_Variant>  (7) 
2:0-1

>  <s_i_glide_gridfile>  (7) 
pfpi4k_grid

>  <i_i_glide_lignum>  (7) 
4

>  <i_i_glide_rotatable_bonds>  (7) 
0

>  <r_i_docking_score>  (7) 
-3.71876

>  <r_i_glide_ligand_efficiency>  (7) 
-0.531251

>  <r_i_glide_ligand_efficiency_sa>  (7) 
-1.01625

>  <r_i_glide_ligand_efficiency_ln>  (7) 
-1.26235

>  <r_i_glide_gscore>  (7) 
-3.71876

>  <r_i_glide_lipo>  (7) 
-0.235497

>  <r_i_glide_hbond>  (7) 
-0.16

>  <r_i_glide_metal>  (7) 
-0

>  <r_i_glide_rewards>  (7) 
-2.25

>  <r_i_glide_evdw>  (7) 
-11.6428

>  <r_i_glide_ecoul>  (7) 
-3.00959

>  <r_i_glide_erotb>  (7) 
0

>  <r_i_glide_esite>  (7) 
-0.0396798

>  <r_i_glide_emodel>  (7) 
-18.4629

>  <r_i_glide_energy>  (7) 
-14.6524

>  <r_i_glide_einternal>  (7) 
0

>  <r_i_glide_intrahb_reward>  (7) 
-0

>  <i_i_glide_confnum>  (7) 
1

>  <i_i_glide_posenum>  (7) 
5

>  <r_i_glide_eff_state_penalty>  (7) 
0

>  <ligand_id>  (7) 
2

>  <original_smiles>  (7) 
Clc1cncnc1

>  <smiles>  (7) 
[H]c1nc([H])c(Cl)c([H])n1

$$$$
2:0:1
     RDKit          3D

 10 10  0  0  1  0  0  0  0  0999 V2000
    3.8185   -1.7469   -3.9192 Cl  0  0  0  0  0  0  0  0  0  0  0  0
    3.8101   -2.7151   -2.4921 C   0  0  0  0  0  0  0  0  0  0  0  0
    2.6136   -3.0560   -1.8377 C   0  0  0  0  0  0  0  0  0  0  0  0
    2.6034   -3.8130   -0.7181 N   0  0  0  0  0  0  0  0  0  0  0  0
    3.7904   -4.2195   -0.2673 C   0  0  0  0  0  0  0  0  0  0  0  0
    4.9857   -3.9482   -0.7921 N   0  0  0  0  0  0  0  0  0  0  0  0
    4.9945   -3.2042   -1.9163 C   0  0  0  0  0  0  0  0  0  0  0  0
    1.6620   -2.7300   -2.2249 H   0  0  0  0  0  0  0  0  0  0  0  0
    3.7822   -4.8196    0.6294 H   0  0  0  0  0  0  0  0  0  0  0  0
    5.9551   -2.9809   -2.3529 H   0  0  0  0  0  0  0  0  0  0  0  0
  1  2  1  0
  2  7  2  0
  2  3  1  0
  3  4  2  0
  3  8  1  0
  4  5  1  0
  5  6  2  0
  5  9  1  0
  6  7  1  0
  7 10  1  0
M  END
>  <i_m_ct_stereo_status>  (8) 
1

>  <s_m_source_file>  (8) 
/var/tmp/pbs.5076255.sched01/tmpzk3r62u5/0tgg_cfwk.sdf

>  <i_m_source_file_index>  (8) 
4

>  <i_lp_mmshare_version>  (8) 
48012

>  <i_f3d_flags>  (8) 
0

>  <s_epik_input>  (8) 
Q2xjMVtjSF1uW2NIXW5bY0hdMQ==

>  <s_epik_cmdline>  (8) 
J2VwaWtfcHl0aG9uJywgJy1waHQnLCAnMi4wJywgJy1waCcsICc3LjAnLCAnLXRuJywgJzgnLCAnLW1hJywgJzIwMCcsICctaW1hZScsICc8aW5maWxlLm1hZT4nLCAnLW9tYWUnLCAnPG91dGZpbGUubWFlPic=

>  <r_lp_tautomer_probability>  (8) 
1

>  <r_epik_Ionization_Penalty>  (8) 
8.79585e-08

>  <r_epik_Ionization_Penalty_Charging>  (8) 
0

>  <r_epik_Ionization_Penalty_Neutral>  (8) 
8.79585e-08

>  <r_epik_State_Penalty>  (8) 
-0

>  <r_epik_Charging_Adjusted_Penalty>  (8) 
0

>  <i_epik_Tot_Q>  (8) 
0

>  <i_epik_Tot_abs_Q>  (8) 
0

>  <s_epik_Chemistry_Notes>  (8) 
This compound contains an electron-poor aromatic ring that is susceptible to covalent hydrolysis at low pH, typically resulting in measured values for nitrogen ring protonation that are around two units higher than predicted values.

>  <s_lp_Force_Field>  (8) 
OPLS3e

>  <r_lp_Energy>  (8) 
11.9609

>  <b_lp_Chiralities_Consistent>  (8) 
1

>  <s_lp_Variant>  (8) 
2:0-1

>  <s_i_glide_gridfile>  (8) 
pfpi4k_grid

>  <i_i_glide_lignum>  (8) 
4

>  <i_i_glide_rotatable_bonds>  (8) 
0

>  <r_i_docking_score>  (8) 
-3.42347

>  <r_i_glide_ligand_efficiency>  (8) 
-0.489067

>  <r_i_glide_ligand_efficiency_sa>  (8) 
-0.935552

>  <r_i_glide_ligand_efficiency_ln>  (8) 
-1.16211

>  <r_i_glide_gscore>  (8) 
-3.42347

>  <r_i_glide_lipo>  (8) 
-0.177395

>  <r_i_glide_hbond>  (8) 
0

>  <r_i_glide_metal>  (8) 
-0

>  <r_i_glide_rewards>  (8) 
-2.25

>  <r_i_glide_evdw>  (8) 
-13.4847

>  <r_i_glide_ecoul>  (8) 
-2.0185

>  <r_i_glide_erotb>  (8) 
0

>  <r_i_glide_esite>  (8) 
-0.0190637

>  <r_i_glide_emodel>  (8) 
-19.0121

>  <r_i_glide_energy>  (8) 
-15.5032

>  <r_i_glide_einternal>  (8) 
0

>  <r_i_glide_intrahb_reward>  (8) 
-0

>  <i_i_glide_confnum>  (8) 
1

>  <i_i_glide_posenum>  (8) 
12

>  <r_i_glide_eff_state_penalty>  (8) 
0

>  <ligand_id>  (8) 
2

>  <original_smiles>  (8) 
Clc1cncnc1

>  <smiles>  (8) 
[H]c1nc([H])c(Cl)c([H])n1

$$$$
2:0:2
     RDKit          3D

 10 10  0  0  1  0  0  0  0  0999 V2000
   -0.5851    0.9477    2.7115 Cl  0  0  0  0  0  0  0  0  0  0  0  0
   -1.2426    1.4154    4.2369 C   0  0  0  0  0  0  0  0  0  0  0  0
   -1.4068    0.4924    5.2860 C   0  0  0  0  0  0  0  0  0  0  0  0
   -1.9247    0.8523    6.4818 N   0  0  0  0  0  0  0  0  0  0  0  0
   -2.2563    2.1420    6.6147 C   0  0  0  0  0  0  0  0  0  0  0  0
   -2.1617    3.0975    5.6876 N   0  0  0  0  0  0  0  0  0  0  0  0
   -1.6499    2.7363    4.4925 C   0  0  0  0  0  0  0  0  0  0  0  0
   -1.1228   -0.5423    5.1652 H   0  0  0  0  0  0  0  0  0  0  0  0
   -2.6811    2.4298    7.5642 H   0  0  0  0  0  0  0  0  0  0  0  0
   -1.5597    3.5069    3.7421 H   0  0  0  0  0  0  0  0  0  0  0  0
  1  2  1  0
  2  7  2  0
  2  3  1  0
  3  4  2  0
  3  8  1  0
  4  5  1  0
  5  6  2  0
  5  9  1  0
  6  7  1  0
  7 10  1  0
M  END
>  <i_m_ct_stereo_status>  (9) 
1

>  <s_m_source_file>  (9) 
/var/tmp/pbs.5076255.sched01/tmpzk3r62u5/0tgg_cfwk.sdf

>  <i_m_source_file_index>  (9) 
4

>  <i_lp_mmshare_version>  (9) 
48012

>  <i_f3d_flags>  (9) 
0

>  <s_epik_input>  (9) 
Q2xjMVtjSF1uW2NIXW5bY0hdMQ==

>  <s_epik_cmdline>  (9) 
J2VwaWtfcHl0aG9uJywgJy1waHQnLCAnMi4wJywgJy1waCcsICc3LjAnLCAnLXRuJywgJzgnLCAnLW1hJywgJzIwMCcsICctaW1hZScsICc8aW5maWxlLm1hZT4nLCAnLW9tYWUnLCAnPG91dGZpbGUubWFlPic=

>  <r_lp_tautomer_probability>  (9) 
1

>  <r_epik_Ionization_Penalty>  (9) 
8.79585e-08

>  <r_epik_Ionization_Penalty_Charging>  (9) 
0

>  <r_epik_Ionization_Penalty_Neutral>  (9) 
8.79585e-08

>  <r_epik_State_Penalty>  (9) 
-0

>  <r_epik_Charging_Adjusted_Penalty>  (9) 
0

>  <i_epik_Tot_Q>  (9) 
0

>  <i_epik_Tot_abs_Q>  (9) 
0

>  <s_epik_Chemistry_Notes>  (9) 
This compound contains an electron-poor aromatic ring that is susceptible to covalent hydrolysis at low pH, typically resulting in measured values for nitrogen ring protonation that are around two units higher than predicted values.

>  <s_lp_Force_Field>  (9) 
OPLS3e

>  <r_lp_Energy>  (9) 
11.9609

>  <b_lp_Chiralities_Consistent>  (9) 
1

>  <s_lp_Variant>  (9) 
2:0-1

>  <s_i_glide_gridfile>  (9) 
pfpi4k_grid

>  <i_i_glide_lignum>  (9) 
4

>  <i_i_glide_rotatable_bonds>  (9) 
0

>  <r_i_docking_score>  (9) 
-3.35149

>  <r_i_glide_ligand_efficiency>  (9) 
-0.478785

>  <r_i_glide_ligand_efficiency_sa>  (9) 
-0.915882

>  <r_i_glide_ligand_efficiency_ln>  (9) 
-1.13768

>  <r_i_glide_gscore>  (9) 
-3.35149

>  <r_i_glide_lipo>  (9) 
0

>  <r_i_glide_hbond>  (9) 
-0.135182

>  <r_i_glide_metal>  (9) 
-0

>  <r_i_glide_rewards>  (9) 
-2.27381

>  <r_i_glide_evdw>  (9) 
-10.6318

>  <r_i_glide_ecoul>  (9) 
-2.7394

>  <r_i_glide_erotb>  (9) 
0

>  <r_i_glide_esite>  (9) 
0

>  <r_i_glide_emodel>  (9) 
-16.8062

>  <r_i_glide_energy>  (9) 
-13.3712

>  <r_i_glide_einternal>  (9) 
0

>  <r_i_glide_intrahb_reward>  (9) 
-0

>  <i_i_glide_confnum>  (9) 
1

>  <i_i_glide_posenum>  (9) 
34

>  <r_i_glide_eff_state_penalty>  (9) 
0

>  <ligand_id>  (9) 
2

>  <original_smiles>  (9) 
Clc1cncnc1

>  <smiles>  (9) 
[H]c1nc([H])c(Cl)c([H])n1

$$$$
3:0:0
     RDKit          3D

 55 58  0  0  1  0  0  0  0  0999 V2000
   -0.0818   -8.2213    5.0779 C   0  0  0  0  0  0  0  0  0  0  0  0
    0.0644   -7.9407    3.5800 C   0  0  0  0  0  0  0  0  0  0  0  0
   -1.2689   -7.6327    2.8974 C   0  0  0  0  0  0  0  0  0  0  0  0
    0.8629   -6.8185    3.4373 O   0  0  0  0  0  0  0  0  0  0  0  0
    2.1250   -7.2753    3.0277 C   0  0  2  0  0  0  0  0  0  0  0  0
    2.6779   -6.1965    2.0929 C   0  0  0  0  0  0  0  0  0  0  0  0
    3.8223   -6.6119    1.1211 C   0  0  1  0  0  0  0  0  0  0  0  0
    4.4884   -5.4542    0.5484 N   0  0  0  0  0  0  0  0  0  0  0  0
    3.5522   -4.4286   -0.0224 C   0  0  0  0  0  0  0  0  0  0  0  0
    4.2870   -3.2694   -0.7202 C   0  0  0  0  0  0  0  0  0  0  0  0
    5.2903   -2.6510    0.2540 C   0  0  0  0  0  0  0  0  0  0  0  0
    6.2754   -3.7114    0.7549 C   0  0  0  0  0  0  0  0  0  0  0  0
    5.5015   -4.8340    1.4467 C   0  0  0  0  0  0  0  0  0  0  0  0
    4.6139   -2.0951    1.3267 O   0  0  0  0  0  0  0  0  0  0  0  0
    5.4678   -1.1010    1.8386 C   0  0  0  0  0  0  0  0  0  0  0  0
    6.2030   -0.6796    0.5658 C   0  0  0  0  0  0  0  0  0  0  0  0
    5.9694   -1.6732   -0.3982 O   0  0  0  0  0  0  0  0  0  0  0  0
    4.7672   -7.7743    1.5907 C   0  0  1  0  0  0  0  0  0  0  0  0
    5.2225   -7.4578    2.9009 O   0  0  0  0  0  0  0  0  0  0  0  0
    4.1712   -9.2265    1.4942 C   0  0  1  0  0  0  0  0  0  0  0  0
    5.1991  -10.1913    1.6756 O   0  0  0  0  0  0  0  0  0  0  0  0
    2.9693   -9.6045    2.4003 C   0  0  1  0  0  0  0  0  0  0  0  0
    3.4410   -9.7037    3.7359 O   0  0  0  0  0  0  0  0  0  0  0  0
    1.8159   -8.5966    2.3304 C   0  0  1  0  0  0  0  0  0  0  0  0
    0.6500   -9.0548    2.9684 O   0  0  0  0  0  0  0  0  0  0  0  0
    0.9030   -8.4309    5.5116 H   0  0  0  0  0  0  0  0  0  0  0  0
   -0.7217   -9.0902    5.2144 H   0  0  0  0  0  0  0  0  0  0  0  0
   -0.5160   -7.3575    5.5862 H   0  0  0  0  0  0  0  0  0  0  0  0
   -1.0924   -7.3974    1.8441 H   0  0  0  0  0  0  0  0  0  0  0  0
   -1.7339   -6.7718    3.3760 H   0  0  0  0  0  0  0  0  0  0  0  0
   -1.9319   -8.4921    2.9669 H   0  0  0  0  0  0  0  0  0  0  0  0
    2.7285   -7.3992    3.9373 H   0  0  0  0  0  0  0  0  0  0  0  0
    1.8525   -5.8432    1.4681 H   0  0  0  0  0  0  0  0  0  0  0  0
    2.9985   -5.3551    2.7103 H   0  0  0  0  0  0  0  0  0  0  0  0
    3.3593   -7.0490    0.2423 H   0  0  0  0  0  0  0  0  0  0  0  0
    2.8770   -4.8603   -0.7684 H   0  0  0  0  0  0  0  0  0  0  0  0
    2.8938   -4.0394    0.7538 H   0  0  0  0  0  0  0  0  0  0  0  0
    4.7965   -3.5778   -1.6493 H   0  0  0  0  0  0  0  0  0  0  0  0
    3.5785   -2.4960   -1.0419 H   0  0  0  0  0  0  0  0  0  0  0  0
    6.8732   -4.0933   -0.0878 H   0  0  0  0  0  0  0  0  0  0  0  0
    6.9957   -3.2694    1.4590 H   0  0  0  0  0  0  0  0  0  0  0  0
    5.0052   -4.4626    2.3485 H   0  0  0  0  0  0  0  0  0  0  0  0
    6.2574   -5.5586    1.7744 H   0  0  0  0  0  0  0  0  0  0  0  0
    4.9355   -0.2676    2.3152 H   0  0  0  0  0  0  0  0  0  0  0  0
    6.1570   -1.5288    2.5687 H   0  0  0  0  0  0  0  0  0  0  0  0
    5.7800    0.2434    0.1786 H   0  0  0  0  0  0  0  0  0  0  0  0
    7.2815   -0.6109    0.7191 H   0  0  0  0  0  0  0  0  0  0  0  0
    5.6291   -7.7773    0.9225 H   0  0  0  0  0  0  0  0  0  0  0  0
    4.5760   -7.7744    3.4994 H   0  0  0  0  0  0  0  0  0  0  0  0
    3.8512   -9.3756    0.4608 H   0  0  0  0  0  0  0  0  0  0  0  0
    4.9027  -11.0078    1.2671 H   0  0  0  0  0  0  0  0  0  0  0  0
    2.5959  -10.5856    2.1093 H   0  0  0  0  0  0  0  0  0  0  0  0
    3.9542  -10.4876    3.8188 H   0  0  0  0  0  0  0  0  0  0  0  0
    1.5388   -8.4004    1.2988 H   0  0  0  0  0  0  0  0  0  0  0  0
    5.0187   -5.8084   -0.2376 H   0  0  0  0  0  0  0  0  0  0  0  0
  1  2  1  0
  1 26  1  0
  1 27  1  0
  1 28  1  0
  2 25  1  0
  2  3  1  0
  2  4  1  0
  3 29  1  0
  3 30  1  0
  3 31  1  0
  4  5  1  0
  5 24  1  0
  5  6  1  0
  5 32  1  1
  6  7  1  0
  6 33  1  0
  6 34  1  0
  7  8  1  0
  7 18  1  0
  7 35  1  6
  8 13  1  0
  8  9  1  0
  8 55  1  0
  9 10  1  0
  9 36  1  0
  9 37  1  0
 10 11  1  0
 10 38  1  0
 10 39  1  0
 11 17  1  0
 11 12  1  0
 11 14  1  0
 12 13  1  0
 12 40  1  0
 12 41  1  0
 13 42  1  0
 13 43  1  0
 14 15  1  0
 15 16  1  0
 15 44  1  0
 15 45  1  0
 16 17  1  0
 16 46  1  0
 16 47  1  0
 18 19  1  0
 18 20  1  0
 18 48  1  6
 19 49  1  0
 20 21  1  0
 20 22  1  0
 20 50  1  6
 21 51  1  0
 22 23  1  0
 22 24  1  0
 22 52  1  6
 23 53  1  0
 24 25  1  0
 24 54  1  6
M  CHG  1   8   1
M  END
>  <i_m_ct_stereo_status>  (10) 
1

>  <s_m_source_file>  (10) 
/var/tmp/pbs.5076255.sched01/tmpzk3r62u5/0tgg_cfwk.sdf

>  <i_m_source_file_index>  (10) 
5

>  <i_lp_mmshare_version>  (10) 
48012

>  <i_f3d_flags>  (10) 
0

>  <s_epik_input>  (10) 
W0NIM11DKE8xKShbQ0gzXSlPW0NAQEhdKFtDQEhdMTIpW0NASF0oW09IXSlbQ0BIXShbT0hdKVtDQEhdKFtPSF0pW0NAQEhdKFtDSDJdMilOKFtDSDJdW0NIMl0zKVtDSDJdW0NIMl1DMzRPW0NIMl1bQ0gyXU80

>  <s_epik_cmdline>  (10) 
J2VwaWtfcHl0aG9uJywgJy1waHQnLCAnMi4wJywgJy1waCcsICc3LjAnLCAnLXRuJywgJzgnLCAnLW1hJywgJzIwMCcsICctaW1hZScsICc8aW5maWxlLm1hZT4nLCAnLW9tYWUnLCAnPG91dGZpbGUubWFlPic=

>  <r_epik_Ionization_Penalty>  (10) 
0.201446

>  <r_epik_Ionization_Penalty_Charging>  (10) 
0.201444

>  <r_epik_Ionization_Penalty_Neutral>  (10) 
2.10475e-06

>  <r_epik_State_Penalty>  (10) 
0.19131

>  <r_epik_Charging_Adjusted_Penalty>  (10) 
0.392753

>  <i_epik_Tot_Q>  (10) 
1

>  <i_epik_Tot_abs_Q>  (10) 
1

>  <s_lp_Force_Field>  (10) 
OPLS3e

>  <r_lp_Energy>  (10) 
6.00096

>  <b_lp_Chiralities_Consistent>  (10) 
1

>  <s_lp_Variant>  (10) 
3:0-1

>  <s_i_glide_gridfile>  (10) 
pfpi4k_grid

>  <i_i_glide_lignum>  (10) 
5

>  <i_i_glide_rotatable_bonds>  (10) 
4

>  <r_i_docking_score>  (10) 
-4.17666

>  <r_i_glide_ligand_efficiency>  (10) 
-0.167066

>  <r_i_glide_ligand_efficiency_sa>  (10) 
-0.488505

>  <r_i_glide_ligand_efficiency_ln>  (10) 
-0.989993

>  <r_i_glide_gscore>  (10) 
-4.17666

>  <r_i_glide_lipo>  (10) 
-0.506556

>  <r_i_glide_hbond>  (10) 
0

>  <r_i_glide_metal>  (10) 
-0

>  <r_i_glide_rewards>  (10) 
-1.48806

>  <r_i_glide_evdw>  (10) 
-24.3568

>  <r_i_glide_ecoul>  (10) 
-7.17298

>  <r_i_glide_erotb>  (10) 
0.147638

>  <r_i_glide_esite>  (10) 
-0.035893

>  <r_i_glide_emodel>  (10) 
-44.0993

>  <r_i_glide_energy>  (10) 
-31.5298

>  <r_i_glide_einternal>  (10) 
6.06646

>  <r_i_glide_intrahb_reward>  (10) 
-0.5

>  <i_i_glide_confnum>  (10) 
4

>  <i_i_glide_posenum>  (10) 
16

>  <r_i_glide_eff_state_penalty>  (10) 
0

>  <ligand_id>  (10) 
3

>  <original_smiles>  (10) 
CC1(C)OC2CC(N3CCC4(CC3)OCCO4)C(O)C(O)C(O)C2O1

>  <smiles>  (10) 
[H]OC1([H])C2([H])OC(C([H])([H])[H])(C([H])([H])[H])OC2([H])C([H])([H])C([H])([N+]2([H])C([H])([H])C([H])([H])C3(OC([H])([H])C([H])([H])O3)C([H])([H])C2([H])[H])C([H])(O[H])C1([H])O[H]

$$$$
3:0:1
     RDKit          3D

 55 58  0  0  1  0  0  0  0  0999 V2000
   -2.7658    3.0650    6.6293 C   0  0  0  0  0  0  0  0  0  0  0  0
   -1.3329    2.6052    6.8886 C   0  0  0  0  0  0  0  0  0  0  0  0
   -1.0664    2.2603    8.3509 C   0  0  0  0  0  0  0  0  0  0  0  0
   -1.0726    1.4563    6.1375 O   0  0  0  0  0  0  0  0  0  0  0  0
   -0.2671    1.8484    5.0581 C   0  0  2  0  0  0  0  0  0  0  0  0
    0.7033    0.7076    4.7153 C   0  0  0  0  0  0  0  0  0  0  0  0
    1.9847    1.1396    3.9397 C   0  0  1  0  0  0  0  0  0  0  0  0
    2.6581   -0.0555    3.3539 N   0  0  0  0  0  0  0  0  0  0  0  0
    2.0586   -0.5112    2.0642 C   0  0  0  0  0  0  0  0  0  0  0  0
    2.6773   -1.8272    1.5728 C   0  0  0  0  0  0  0  0  0  0  0  0
    4.1933   -1.6531    1.4443 C   0  0  0  0  0  0  0  0  0  0  0  0
    4.8141   -1.2040    2.7716 C   0  0  0  0  0  0  0  0  0  0  0  0
    4.1333    0.0877    3.2691 C   0  0  0  0  0  0  0  0  0  0  0  0
    4.4813   -0.6975    0.4752 O   0  0  0  0  0  0  0  0  0  0  0  0
    4.9614   -1.4080   -0.6440 C   0  0  0  0  0  0  0  0  0  0  0  0
    5.6274   -2.5984    0.0314 C   0  0  0  0  0  0  0  0  0  0  0  0
    4.7313   -2.8690    1.0821 O   0  0  0  0  0  0  0  0  0  0  0  0
    1.8388    2.3152    2.9266 C   0  0  1  0  0  0  0  0  0  0  0  0
    0.6656    2.1439    2.1455 O   0  0  0  0  0  0  0  0  0  0  0  0
    1.9133    3.7278    3.5481 C   0  0  1  0  0  0  0  0  0  0  0  0
    2.1957    4.6574    2.5014 O   0  0  0  0  0  0  0  0  0  0  0  0
    0.7311    4.1721    4.4457 C   0  0  1  0  0  0  0  0  0  0  0  0
   -0.4326    4.4315    3.6648 O   0  0  0  0  0  0  0  0  0  0  0  0
    0.4090    3.1330    5.5500 C   0  0  1  0  0  0  0  0  0  0  0  0
   -0.4820    3.6469    6.5050 O   0  0  0  0  0  0  0  0  0  0  0  0
   -2.9025    3.3199    5.5772 H   0  0  0  0  0  0  0  0  0  0  0  0
   -2.9683    3.9534    7.2320 H   0  0  0  0  0  0  0  0  0  0  0  0
   -3.4705    2.2806    6.9091 H   0  0  0  0  0  0  0  0  0  0  0  0
   -0.0363    1.9215    8.4743 H   0  0  0  0  0  0  0  0  0  0  0  0
   -1.7379    1.4567    8.6603 H   0  0  0  0  0  0  0  0  0  0  0  0
   -1.2386    3.1349    8.9834 H   0  0  0  0  0  0  0  0  0  0  0  0
   -0.9309    2.0434    4.2190 H   0  0  0  0  0  0  0  0  0  0  0  0
    1.0159    0.2209    5.6410 H   0  0  0  0  0  0  0  0  0  0  0  0
    0.1428   -0.0522    4.1695 H   0  0  0  0  0  0  0  0  0  0  0  0
    2.6406    1.5130    4.7359 H   0  0  0  0  0  0  0  0  0  0  0  0
    0.9801   -0.6479    2.1498 H   0  0  0  0  0  0  0  0  0  0  0  0
    2.2073    0.2126    1.2605 H   0  0  0  0  0  0  0  0  0  0  0  0
    2.4451   -2.6621    2.2388 H   0  0  0  0  0  0  0  0  0  0  0  0
    2.2622   -2.0854    0.5941 H   0  0  0  0  0  0  0  0  0  0  0  0
    4.7130   -2.0073    3.5058 H   0  0  0  0  0  0  0  0  0  0  0  0
    5.8933   -1.0545    2.6308 H   0  0  0  0  0  0  0  0  0  0  0  0
    4.3657    0.8940    2.5761 H   0  0  0  0  0  0  0  0  0  0  0  0
    4.5658    0.3625    4.2375 H   0  0  0  0  0  0  0  0  0  0  0  0
    4.1268   -1.7269   -1.2672 H   0  0  0  0  0  0  0  0  0  0  0  0
    5.6536   -0.8185   -1.2539 H   0  0  0  0  0  0  0  0  0  0  0  0
    5.7347   -3.4623   -0.6249 H   0  0  0  0  0  0  0  0  0  0  0  0
    6.5984   -2.3277    0.4481 H   0  0  0  0  0  0  0  0  0  0  0  0
    2.6694    2.2873    2.2342 H   0  0  0  0  0  0  0  0  0  0  0  0
    0.5857    2.8446    1.5076 H   0  0  0  0  0  0  0  0  0  0  0  0
    2.8093    3.7534    4.1701 H   0  0  0  0  0  0  0  0  0  0  0  0
    1.5329    4.5852    1.8388 H   0  0  0  0  0  0  0  0  0  0  0  0
    1.0142    5.1107    4.9249 H   0  0  0  0  0  0  0  0  0  0  0  0
   -0.1836    4.5535    2.7574 H   0  0  0  0  0  0  0  0  0  0  0  0
    1.3091    2.8712    6.1078 H   0  0  0  0  0  0  0  0  0  0  0  0
    2.5010   -0.7896    4.0251 H   0  0  0  0  0  0  0  0  0  0  0  0
  1  2  1  0
  1 26  1  0
  1 27  1  0
  1 28  1  0
  2 25  1  0
  2  3  1  0
  2  4  1  0
  3 29  1  0
  3 30  1  0
  3 31  1  0
  4  5  1  0
  5 24  1  0
  5  6  1  0
  5 32  1  6
  6  7  1  0
  6 33  1  0
  6 34  1  0
  7  8  1  0
  7 18  1  0
  7 35  1  1
  8 13  1  0
  8  9  1  0
  8 55  1  0
  9 10  1  0
  9 36  1  0
  9 37  1  0
 10 11  1  0
 10 38  1  0
 10 39  1  0
 11 17  1  0
 11 12  1  0
 11 14  1  0
 12 13  1  0
 12 40  1  0
 12 41  1  0
 13 42  1  0
 13 43  1  0
 14 15  1  0
 15 16  1  0
 15 44  1  0
 15 45  1  0
 16 17  1  0
 16 46  1  0
 16 47  1  0
 18 19  1  0
 18 20  1  0
 18 48  1  6
 19 49  1  0
 20 21  1  0
 20 22  1  0
 20 50  1  1
 21 51  1  0
 22 23  1  0
 22 24  1  0
 22 52  1  1
 23 53  1  0
 24 25  1  0
 24 54  1  1
M  CHG  1   8   1
M  END
>  <i_m_ct_stereo_status>  (11) 
1

>  <s_m_source_file>  (11) 
/var/tmp/pbs.5076255.sched01/tmpzk3r62u5/0tgg_cfwk.sdf

>  <i_m_source_file_index>  (11) 
5

>  <i_lp_mmshare_version>  (11) 
48012

>  <i_f3d_flags>  (11) 
0

>  <s_epik_input>  (11) 
W0NIM11DKE8xKShbQ0gzXSlPW0NAQEhdKFtDQEhdMTIpW0NASF0oW09IXSlbQ0BIXShbT0hdKVtDQEhdKFtPSF0pW0NAQEhdKFtDSDJdMilOKFtDSDJdW0NIMl0zKVtDSDJdW0NIMl1DMzRPW0NIMl1bQ0gyXU80

>  <s_epik_cmdline>  (11) 
J2VwaWtfcHl0aG9uJywgJy1waHQnLCAnMi4wJywgJy1waCcsICc3LjAnLCAnLXRuJywgJzgnLCAnLW1hJywgJzIwMCcsICctaW1hZScsICc8aW5maWxlLm1hZT4nLCAnLW9tYWUnLCAnPG91dGZpbGUubWFlPic=

>  <r_epik_Ionization_Penalty>  (11) 
0.201446

>  <r_epik_Ionization_Penalty_Charging>  (11) 
0.201444

>  <r_epik_Ionization_Penalty_Neutral>  (11) 
2.10475e-06

>  <r_epik_State_Penalty>  (11) 
0.19131

>  <r_epik_Charging_Adjusted_Penalty>  (11) 
0.392753

>  <i_epik_Tot_Q>  (11) 
1

>  <i_epik_Tot_abs_Q>  (11) 
1

>  <s_lp_Force_Field>  (11) 
OPLS3e

>  <r_lp_Energy>  (11) 
6.00096

>  <b_lp_Chiralities_Consistent>  (11) 
1

>  <s_lp_Variant>  (11) 
3:0-1

>  <s_i_glide_gridfile>  (11) 
pfpi4k_grid

>  <i_i_glide_lignum>  (11) 
5

>  <i_i_glide_rotatable_bonds>  (11) 
4

>  <r_i_docking_score>  (11) 
-4.15216

>  <r_i_glide_ligand_efficiency>  (11) 
-0.166087

>  <r_i_glide_ligand_efficiency_sa>  (11) 
-0.48564

>  <r_i_glide_ligand_efficiency_ln>  (11) 
-0.984187

>  <r_i_glide_gscore>  (11) 
-4.15216

>  <r_i_glide_lipo>  (11) 
-0.257081

>  <r_i_glide_hbond>  (11) 
0

>  <r_i_glide_metal>  (11) 
-0

>  <r_i_glide_rewards>  (11) 
-0.977762

>  <r_i_glide_evdw>  (11) 
-23.774

>  <r_i_glide_ecoul>  (11) 
-12.4833

>  <r_i_glide_erotb>  (11) 
0.147638

>  <r_i_glide_esite>  (11) 
-0.00377163

>  <r_i_glide_emodel>  (11) 
-46.1242

>  <r_i_glide_energy>  (11) 
-36.2572

>  <r_i_glide_einternal>  (11) 
1.9967

>  <r_i_glide_intrahb_reward>  (11) 
-0

>  <i_i_glide_confnum>  (11) 
5

>  <i_i_glide_posenum>  (11) 
22

>  <r_i_glide_eff_state_penalty>  (11) 
0

>  <ligand_id>  (11) 
3

>  <original_smiles>  (11) 
CC1(C)OC2CC(N3CCC4(CC3)OCCO4)C(O)C(O)C(O)C2O1

>  <smiles>  (11) 
[H]OC1([H])C2([H])OC(C([H])([H])[H])(C([H])([H])[H])OC2([H])C([H])([H])C([H])([N+]2([H])C([H])([H])C([H])([H])C3(OC([H])([H])C([H])([H])O3)C([H])([H])C2([H])[H])C([H])(O[H])C1([H])O[H]

$$$$
3:0:2
     RDKit          3D

 55 58  0  0  1  0  0  0  0  0999 V2000
    0.0501   -8.5659    4.8342 C   0  0  0  0  0  0  0  0  0  0  0  0
    0.3154   -8.2938    3.3477 C   0  0  0  0  0  0  0  0  0  0  0  0
   -0.9748   -8.0469    2.5465 C   0  0  0  0  0  0  0  0  0  0  0  0
    1.0815   -7.1514    3.2514 O   0  0  0  0  0  0  0  0  0  0  0  0
    2.3948   -7.5545    2.9298 C   0  0  2  0  0  0  0  0  0  0  0  0
    2.9826   -6.4934    2.0154 C   0  0  0  0  0  0  0  0  0  0  0  0
    4.1924   -6.8961    1.1292 C   0  0  1  0  0  0  0  0  0  0  0  0
    4.8754   -5.6983    0.6111 N   0  0  0  0  0  0  0  0  0  0  0  0
    3.9151   -4.7016    0.0161 C   0  0  0  0  0  0  0  0  0  0  0  0
    4.6363   -3.5290   -0.6562 C   0  0  0  0  0  0  0  0  0  0  0  0
    5.5483   -2.8521    0.3788 C   0  0  0  0  0  0  0  0  0  0  0  0
    6.5399   -3.8568    0.9766 C   0  0  0  0  0  0  0  0  0  0  0  0
    5.7839   -5.0468    1.5873 C   0  0  0  0  0  0  0  0  0  0  0  0
    4.7756   -2.3285    1.4017 O   0  0  0  0  0  0  0  0  0  0  0  0
    4.8065   -0.9326    1.2542 C   0  0  0  0  0  0  0  0  0  0  0  0
    6.1823   -0.7544    0.6333 C   0  0  0  0  0  0  0  0  0  0  0  0
    6.2613   -1.8404   -0.2469 O   0  0  0  0  0  0  0  0  0  0  0  0
    5.1477   -7.9807    1.7116 C   0  0  1  0  0  0  0  0  0  0  0  0
    5.5463   -7.6777    3.0364 O   0  0  0  0  0  0  0  0  0  0  0  0
    4.6187   -9.4454    1.6023 C   0  0  1  0  0  0  0  0  0  0  0  0
    5.7070  -10.3326    1.8189 O   0  0  0  0  0  0  0  0  0  0  0  0
    3.3705   -9.8738    2.4309 C   0  0  1  0  0  0  0  0  0  0  0  0
    3.6973   -9.9989    3.8052 O   0  0  0  0  0  0  0  0  0  0  0  0
    2.1866   -8.9031    2.2555 C   0  0  1  0  0  0  0  0  0  0  0  0
    0.9862   -9.3882    2.8204 O   0  0  0  0  0  0  0  0  0  0  0  0
    0.9979   -8.7345    5.3486 H   0  0  0  0  0  0  0  0  0  0  0  0
   -0.5656   -9.4549    4.9255 H   0  0  0  0  0  0  0  0  0  0  0  0
   -0.4581   -7.7170    5.2922 H   0  0  0  0  0  0  0  0  0  0  0  0
   -0.7257   -7.8219    1.5097 H   0  0  0  0  0  0  0  0  0  0  0  0
   -1.5110   -7.2005    2.9703 H   0  0  0  0  0  0  0  0  0  0  0  0
   -1.6061   -8.9308    2.5821 H   0  0  0  0  0  0  0  0  0  0  0  0
    2.9415   -7.6359    3.8784 H   0  0  0  0  0  0  0  0  0  0  0  0
    2.1855   -6.1292    1.3385 H   0  0  0  0  0  0  0  0  0  0  0  0
    3.2420   -5.6415    2.6545 H   0  0  0  0  0  0  0  0  0  0  0  0
    3.8148   -7.3788    0.2407 H   0  0  0  0  0  0  0  0  0  0  0  0
    3.2732   -5.1789   -0.7157 H   0  0  0  0  0  0  0  0  0  0  0  0
    3.2391   -4.3290    0.7912 H   0  0  0  0  0  0  0  0  0  0  0  0
    5.2309   -3.8204   -1.5358 H   0  0  0  0  0  0  0  0  0  0  0  0
    3.9237   -2.7864   -1.0171 H   0  0  0  0  0  0  0  0  0  0  0  0
    7.2300   -4.1932    0.1966 H   0  0  0  0  0  0  0  0  0  0  0  0
    7.1311   -3.3514    1.7217 H   0  0  0  0  0  0  0  0  0  0  0  0
    5.2160   -4.7205    2.4676 H   0  0  0  0  0  0  0  0  0  0  0  0
    6.5482   -5.7495    1.9489 H   0  0  0  0  0  0  0  0  0  0  0  0
    4.0139   -0.6127    0.5697 H   0  0  0  0  0  0  0  0  0  0  0  0
    4.6912   -0.3947    2.1974 H   0  0  0  0  0  0  0  0  0  0  0  0
    6.2807    0.1792    0.0879 H   0  0  0  0  0  0  0  0  0  0  0  0
    6.9685   -0.8290    1.3908 H   0  0  0  0  0  0  0  0  0  0  0  0
    6.0655   -7.9605    1.1250 H   0  0  0  0  0  0  0  0  0  0  0  0
    6.1236   -8.3665    3.3030 H   0  0  0  0  0  0  0  0  0  0  0  0
    4.3671   -9.6205    0.5532 H   0  0  0  0  0  0  0  0  0  0  0  0
    5.4054  -11.2006    1.5853 H   0  0  0  0  0  0  0  0  0  0  0  0
    3.0571  -10.8573    2.1002 H   0  0  0  0  0  0  0  0  0  0  0  0
    2.9729  -10.4002    4.2454 H   0  0  0  0  0  0  0  0  0  0  0  0
    1.9784   -8.7481    1.1982 H   0  0  0  0  0  0  0  0  0  0  0  0
    5.4605   -6.0196   -0.1493 H   0  0  0  0  0  0  0  0  0  0  0  0
  1  2  1  0
  1 26  1  0
  1 27  1  0
  1 28  1  0
  2 25  1  0
  2  3  1  0
  2  4  1  0
  3 29  1  0
  3 30  1  0
  3 31  1  0
  4  5  1  0
  5 24  1  0
  5  6  1  0
  5 32  1  1
  6  7  1  0
  6 33  1  0
  6 34  1  0
  7  8  1  0
  7 18  1  0
  7 35  1  6
  8 13  1  0
  8  9  1  0
  8 55  1  0
  9 10  1  0
  9 36  1  0
  9 37  1  0
 10 11  1  0
 10 38  1  0
 10 39  1  0
 11 17  1  0
 11 12  1  0
 11 14  1  0
 12 13  1  0
 12 40  1  0
 12 41  1  0
 13 42  1  0
 13 43  1  0
 14 15  1  0
 15 16  1  0
 15 44  1  0
 15 45  1  0
 16 17  1  0
 16 46  1  0
 16 47  1  0
 18 19  1  0
 18 20  1  0
 18 48  1  6
 19 49  1  0
 20 21  1  0
 20 22  1  0
 20 50  1  6
 21 51  1  0
 22 23  1  0
 22 24  1  0
 22 52  1  6
 23 53  1  0
 24 25  1  0
 24 54  1  6
M  CHG  1   8   1
M  END
>  <i_m_ct_stereo_status>  (12) 
1

>  <s_m_source_file>  (12) 
/var/tmp/pbs.5076255.sched01/tmpzk3r62u5/0tgg_cfwk.sdf

>  <i_m_source_file_index>  (12) 
5

>  <i_lp_mmshare_version>  (12) 
48012

>  <i_f3d_flags>  (12) 
0

>  <s_epik_input>  (12) 
W0NIM11DKE8xKShbQ0gzXSlPW0NAQEhdKFtDQEhdMTIpW0NASF0oW09IXSlbQ0BIXShbT0hdKVtDQEhdKFtPSF0pW0NAQEhdKFtDSDJdMilOKFtDSDJdW0NIMl0zKVtDSDJdW0NIMl1DMzRPW0NIMl1bQ0gyXU80

>  <s_epik_cmdline>  (12) 
J2VwaWtfcHl0aG9uJywgJy1waHQnLCAnMi4wJywgJy1waCcsICc3LjAnLCAnLXRuJywgJzgnLCAnLW1hJywgJzIwMCcsICctaW1hZScsICc8aW5maWxlLm1hZT4nLCAnLW9tYWUnLCAnPG91dGZpbGUubWFlPic=

>  <r_epik_Ionization_Penalty>  (12) 
0.201446

>  <r_epik_Ionization_Penalty_Charging>  (12) 
0.201444

>  <r_epik_Ionization_Penalty_Neutral>  (12) 
2.10475e-06

>  <r_epik_State_Penalty>  (12) 
0.19131

>  <r_epik_Charging_Adjusted_Penalty>  (12) 
0.392753

>  <i_epik_Tot_Q>  (12) 
1

>  <i_epik_Tot_abs_Q>  (12) 
1

>  <s_lp_Force_Field>  (12) 
OPLS3e

>  <r_lp_Energy>  (12) 
6.00096

>  <b_lp_Chiralities_Consistent>  (12) 
1

>  <s_lp_Variant>  (12) 
3:0-1

>  <s_i_glide_gridfile>  (12) 
pfpi4k_grid

>  <i_i_glide_lignum>  (12) 
5

>  <i_i_glide_rotatable_bonds>  (12) 
4

>  <r_i_docking_score>  (12) 
-3.66693

>  <r_i_glide_ligand_efficiency>  (12) 
-0.146677

>  <r_i_glide_ligand_efficiency_sa>  (12) 
-0.428887

>  <r_i_glide_ligand_efficiency_ln>  (12) 
-0.869173

>  <r_i_glide_gscore>  (12) 
-3.66693

>  <r_i_glide_lipo>  (12) 
-0.558254

>  <r_i_glide_hbond>  (12) 
-0.00750902

>  <r_i_glide_metal>  (12) 
-0

>  <r_i_glide_rewards>  (12) 
-1.01235

>  <r_i_glide_evdw>  (12) 
-26.8457

>  <r_i_glide_ecoul>  (12) 
-5.76865

>  <r_i_glide_erotb>  (12) 
0.147638

>  <r_i_glide_esite>  (12) 
-0.0288722

>  <r_i_glide_emodel>  (12) 
-38.9502

>  <r_i_glide_energy>  (12) 
-32.6144

>  <r_i_glide_einternal>  (12) 
6.49724

>  <r_i_glide_intrahb_reward>  (12) 
-0

>  <i_i_glide_confnum>  (12) 
5

>  <i_i_glide_posenum>  (12) 
36

>  <r_i_glide_eff_state_penalty>  (12) 
0

>  <ligand_id>  (12) 
3

>  <original_smiles>  (12) 
CC1(C)OC2CC(N3CCC4(CC3)OCCO4)C(O)C(O)C(O)C2O1

>  <smiles>  (12) 
[H]OC1([H])C2([H])OC(C([H])([H])[H])(C([H])([H])[H])OC2([H])C([H])([H])C([H])([N+]2([H])C([H])([H])C([H])([H])C3(OC([H])([H])C([H])([H])O3)C([H])([H])C2([H])[H])C([H])(O[H])C1([H])O[H]

$$$$
3:1:0
     RDKit          3D

 54 57  0  0  1  0  0  0  0  0999 V2000
    2.9559   -7.2379    2.5116 C   0  0  0  0  0  0  0  0  0  0  0  0
    4.3392   -6.6009    2.6937 C   0  0  0  0  0  0  0  0  0  0  0  0
    5.2601   -7.4157    3.6066 C   0  0  0  0  0  0  0  0  0  0  0  0
    4.9685   -6.4806    1.4527 O   0  0  0  0  0  0  0  0  0  0  0  0
    4.8373   -5.1308    1.0672 C   0  0  2  0  0  0  0  0  0  0  0  0
    6.0114   -4.7075    0.1864 C   0  0  0  0  0  0  0  0  0  0  0  0
    5.9969   -3.2139   -0.2627 C   0  0  1  0  0  0  0  0  0  0  0  0
    4.8421   -2.8766   -1.1204 N   0  0  0  0  0  0  0  0  0  0  0  0
    4.8053   -3.6389   -2.3778 C   0  0  0  0  0  0  0  0  0  0  0  0
    3.5684   -3.3316   -3.2546 C   0  0  0  0  0  0  0  0  0  0  0  0
    3.4703   -1.8280   -3.5139 C   0  0  0  0  0  0  0  0  0  0  0  0
    3.5834   -1.0461   -2.2096 C   0  0  0  0  0  0  0  0  0  0  0  0
    4.8572   -1.4607   -1.4928 C   0  0  0  0  0  0  0  0  0  0  0  0
    2.2859   -1.5445   -4.1115 O   0  0  0  0  0  0  0  0  0  0  0  0
    2.4495   -0.2382   -4.6689 C   0  0  0  0  0  0  0  0  0  0  0  0
    3.8893   -0.3347   -5.0661 C   0  0  0  0  0  0  0  0  0  0  0  0
    4.4602   -1.4031   -4.3311 O   0  0  0  0  0  0  0  0  0  0  0  0
    6.2621   -2.2811    0.9707 C   0  0  1  0  0  0  0  0  0  0  0  0
    7.0054   -1.1477    0.5303 O   0  0  0  0  0  0  0  0  0  0  0  0
    5.1098   -1.9003    1.9559 C   0  0  1  0  0  0  0  0  0  0  0  0
    4.3964   -0.7557    1.5452 O   0  0  0  0  0  0  0  0  0  0  0  0
    4.1512   -3.0374    2.4148 C   0  0  1  0  0  0  0  0  0  0  0  0
    2.9553   -3.0398    1.6345 O   0  0  0  0  0  0  0  0  0  0  0  0
    4.8143   -4.4296    2.4147 C   0  0  1  0  0  0  0  0  0  0  0  0
    4.1435   -5.3389    3.2527 O   0  0  0  0  0  0  0  0  0  0  0  0
    2.3290   -6.6160    1.8703 H   0  0  0  0  0  0  0  0  0  0  0  0
    2.4786   -7.3179    3.4867 H   0  0  0  0  0  0  0  0  0  0  0  0
    3.0529   -8.2319    2.0776 H   0  0  0  0  0  0  0  0  0  0  0  0
    6.2352   -6.9349    3.6860 H   0  0  0  0  0  0  0  0  0  0  0  0
    5.3925   -8.4069    3.1785 H   0  0  0  0  0  0  0  0  0  0  0  0
    4.8174   -7.5056    4.5967 H   0  0  0  0  0  0  0  0  0  0  0  0
    3.8987   -5.0486    0.5190 H   0  0  0  0  0  0  0  0  0  0  0  0
    6.9535   -4.9160    0.6995 H   0  0  0  0  0  0  0  0  0  0  0  0
    6.0074   -5.3768   -0.6694 H   0  0  0  0  0  0  0  0  0  0  0  0
    6.8985   -3.1181   -0.8803 H   0  0  0  0  0  0  0  0  0  0  0  0
    5.6897   -3.4344   -2.9723 H   0  0  0  0  0  0  0  0  0  0  0  0
    4.7920   -4.7073   -2.2017 H   0  0  0  0  0  0  0  0  0  0  0  0
    3.5815   -3.8779   -4.2062 H   0  0  0  0  0  0  0  0  0  0  0  0
    2.6552   -3.6541   -2.7331 H   0  0  0  0  0  0  0  0  0  0  0  0
    3.6589    0.0166   -2.3838 H   0  0  0  0  0  0  0  0  0  0  0  0
    2.7051   -1.2761   -1.5943 H   0  0  0  0  0  0  0  0  0  0  0  0
    4.9210   -0.7678   -0.6546 H   0  0  0  0  0  0  0  0  0  0  0  0
    5.6990   -1.2576   -2.1652 H   0  0  0  0  0  0  0  0  0  0  0  0
    1.7972   -0.0833   -5.5183 H   0  0  0  0  0  0  0  0  0  0  0  0
    2.2616    0.5346   -3.9405 H   0  0  0  0  0  0  0  0  0  0  0  0
    3.8379   -0.6336   -6.1166 H   0  0  0  0  0  0  0  0  0  0  0  0
    4.4444    0.6010   -4.9412 H   0  0  0  0  0  0  0  0  0  0  0  0
    6.9972   -2.8207    1.5758 H   0  0  0  0  0  0  0  0  0  0  0  0
    7.1694   -0.5781    1.2671 H   0  0  0  0  0  0  0  0  0  0  0  0
    5.6219   -1.5764    2.8598 H   0  0  0  0  0  0  0  0  0  0  0  0
    3.7626   -1.0301    0.8686 H   0  0  0  0  0  0  0  0  0  0  0  0
    3.8568   -2.8254    3.4450 H   0  0  0  0  0  0  0  0  0  0  0  0
    3.1797   -3.1402    0.7197 H   0  0  0  0  0  0  0  0  0  0  0  0
    5.8266   -4.3754    2.8059 H   0  0  0  0  0  0  0  0  0  0  0  0
  1  2  1  0
  1 26  1  0
  1 27  1  0
  1 28  1  0
  2 25  1  0
  2  3  1  0
  2  4  1  0
  3 29  1  0
  3 30  1  0
  3 31  1  0
  4  5  1  0
  5 24  1  0
  5  6  1  0
  5 32  1  6
  6  7  1  0
  6 33  1  0
  6 34  1  0
  7  8  1  0
  7 18  1  0
  7 35  1  6
  8 13  1  0
  8  9  1  0
  9 10  1  0
  9 36  1  0
  9 37  1  0
 10 11  1  0
 10 38  1  0
 10 39  1  0
 11 17  1  0
 11 12  1  0
 11 14  1  0
 12 13  1  0
 12 40  1  0
 12 41  1  0
 13 42  1  0
 13 43  1  0
 14 15  1  0
 15 16  1  0
 15 44  1  0
 15 45  1  0
 16 17  1  0
 16 46  1  0
 16 47  1  0
 18 19  1  0
 18 20  1  0
 18 48  1  1
 19 49  1  0
 20 21  1  0
 20 22  1  0
 20 50  1  1
 21 51  1  0
 22 23  1  0
 22 24  1  0
 22 52  1  1
 23 53  1  0
 24 25  1  0
 24 54  1  1
M  END
>  <i_m_ct_stereo_status>  (13) 
1

>  <s_m_source_file>  (13) 
/var/tmp/pbs.5076255.sched01/tmpzk3r62u5/0tgg_cfwk.sdf

>  <i_m_source_file_index>  (13) 
6

>  <i_lp_mmshare_version>  (13) 
48012

>  <i_f3d_flags>  (13) 
0

>  <s_epik_input>  (13) 
W0NIM11DKE8xKShbQ0gzXSlPW0NAQEhdKFtDQEhdMTIpW0NASF0oW09IXSlbQ0BIXShbT0hdKVtDQEhdKFtPSF0pW0NAQEhdKFtDSDJdMilOKFtDSDJdW0NIMl0zKVtDSDJdW0NIMl1DMzRPW0NIMl1bQ0gyXU80

>  <s_epik_cmdline>  (13) 
J2VwaWtfcHl0aG9uJywgJy1waHQnLCAnMi4wJywgJy1waCcsICc3LjAnLCAnLXRuJywgJzgnLCAnLW1hJywgJzIwMCcsICctaW1hZScsICc8aW5maWxlLm1hZT4nLCAnLW9tYWUnLCAnPG91dGZpbGUubWFlPic=

>  <r_epik_Ionization_Penalty>  (13) 
0.737055

>  <r_epik_Ionization_Penalty_Charging>  (13) 
0

>  <r_epik_Ionization_Penalty_Neutral>  (13) 
0.737055

>  <r_epik_State_Penalty>  (13) 
0.762849

>  <r_epik_Charging_Adjusted_Penalty>  (13) 
0.762849

>  <i_epik_Tot_Q>  (13) 
0

>  <i_epik_Tot_abs_Q>  (13) 
0

>  <s_lp_Force_Field>  (13) 
OPLS3e

>  <r_lp_Energy>  (13) 
0.143415

>  <b_lp_Chiralities_Consistent>  (13) 
1

>  <s_lp_Variant>  (13) 
3:0-2

>  <s_i_glide_gridfile>  (13) 
pfpi4k_grid

>  <i_i_glide_lignum>  (13) 
6

>  <i_i_glide_rotatable_bonds>  (13) 
4

>  <r_i_docking_score>  (13) 
-4.11138

>  <r_i_glide_ligand_efficiency>  (13) 
-0.164455

>  <r_i_glide_ligand_efficiency_sa>  (13) 
-0.48087

>  <r_i_glide_ligand_efficiency_ln>  (13) 
-0.974521

>  <r_i_glide_gscore>  (13) 
-4.11138

>  <r_i_glide_lipo>  (13) 
-0.748074

>  <r_i_glide_hbond>  (13) 
-0.26811

>  <r_i_glide_metal>  (13) 
-0

>  <r_i_glide_rewards>  (13) 
-1.77466

>  <r_i_glide_evdw>  (13) 
-18.5052

>  <r_i_glide_ecoul>  (13) 
-3.62437

>  <r_i_glide_erotb>  (13) 
0.148377

>  <r_i_glide_esite>  (13) 
0

>  <r_i_glide_emodel>  (13) 
-29.7162

>  <r_i_glide_energy>  (13) 
-22.1295

>  <r_i_glide_einternal>  (13) 
1.72048

>  <r_i_glide_intrahb_reward>  (13) 
-0.5

>  <i_i_glide_confnum>  (13) 
3

>  <i_i_glide_posenum>  (13) 
5

>  <r_i_glide_eff_state_penalty>  (13) 
0

>  <ligand_id>  (13) 
3

>  <original_smiles>  (13) 
CC1(C)OC2CC(N3CCC4(CC3)OCCO4)C(O)C(O)C(O)C2O1

>  <smiles>  (13) 
[H]OC1([H])C2([H])OC(C([H])([H])[H])(C([H])([H])[H])OC2([H])C([H])([H])C([H])(N2C([H])([H])C([H])([H])C3(OC([H])([H])C([H])([H])O3)C([H])([H])C2([H])[H])C([H])(O[H])C1([H])O[H]

$$$$
3:1:1
     RDKit          3D

 54 57  0  0  1  0  0  0  0  0999 V2000
    0.5099   -6.7857    2.4309 C   0  0  0  0  0  0  0  0  0  0  0  0
    2.0036   -7.0985    2.5441 C   0  0  0  0  0  0  0  0  0  0  0  0
    2.2765   -8.5005    3.0964 C   0  0  0  0  0  0  0  0  0  0  0  0
    2.5880   -7.0238    1.2823 O   0  0  0  0  0  0  0  0  0  0  0  0
    3.2863   -5.8095    1.2225 C   0  0  2  0  0  0  0  0  0  0  0  0
    4.5193   -5.9106    0.3139 C   0  0  0  0  0  0  0  0  0  0  0  0
    5.3437   -4.5970    0.2050 C   0  0  1  0  0  0  0  0  0  0  0  0
    4.5959   -3.4178   -0.2971 N   0  0  0  0  0  0  0  0  0  0  0  0
    3.8389   -3.7562   -1.5026 C   0  0  0  0  0  0  0  0  0  0  0  0
    2.9743   -2.6248   -2.0490 C   0  0  0  0  0  0  0  0  0  0  0  0
    3.8689   -1.4266   -2.3652 C   0  0  0  0  0  0  0  0  0  0  0  0
    4.7088   -1.0470   -1.1304 C   0  0  0  0  0  0  0  0  0  0  0  0
    5.4785   -2.2853   -0.6268 C   0  0  0  0  0  0  0  0  0  0  0  0
    3.0877   -0.3577   -2.7407 O   0  0  0  0  0  0  0  0  0  0  0  0
    3.1096   -0.2629   -4.1435 C   0  0  0  0  0  0  0  0  0  0  0  0
    3.9812   -1.4197   -4.5578 C   0  0  0  0  0  0  0  0  0  0  0  0
    4.7106   -1.7283   -3.4088 O   0  0  0  0  0  0  0  0  0  0  0  0
    6.0870   -4.3703    1.5507 C   0  0  1  0  0  0  0  0  0  0  0  0
    7.3604   -3.8274    1.2786 O   0  0  0  0  0  0  0  0  0  0  0  0
    5.3455   -3.6364    2.7163 C   0  0  1  0  0  0  0  0  0  0  0  0
    5.3999   -2.2256    2.5859 O   0  0  0  0  0  0  0  0  0  0  0  0
    3.9121   -4.1134    3.0789 C   0  0  1  0  0  0  0  0  0  0  0  0
    2.9342   -3.2442    2.5242 O   0  0  0  0  0  0  0  0  0  0  0  0
    3.6437   -5.5864    2.6882 C   0  0  1  0  0  0  0  0  0  0  0  0
    2.5627   -6.1467    3.3876 O   0  0  0  0  0  0  0  0  0  0  0  0
    0.3735   -5.7737    2.0609 H   0  0  0  0  0  0  0  0  0  0  0  0
    0.0560   -6.8573    3.4221 H   0  0  0  0  0  0  0  0  0  0  0  0
    0.0244   -7.4983    1.7604 H   0  0  0  0  0  0  0  0  0  0  0  0
    3.3467   -8.6920    3.1347 H   0  0  0  0  0  0  0  0  0  0  0  0
    1.8164   -9.2347    2.4324 H   0  0  0  0  0  0  0  0  0  0  0  0
    1.8485   -8.6062    4.0958 H   0  0  0  0  0  0  0  0  0  0  0  0
    2.5846   -5.0591    0.8601 H   0  0  0  0  0  0  0  0  0  0  0  0
    5.1684   -6.7063    0.6860 H   0  0  0  0  0  0  0  0  0  0  0  0
    4.2293   -6.2550   -0.6785 H   0  0  0  0  0  0  0  0  0  0  0  0
    6.1115   -4.8325   -0.5273 H   0  0  0  0  0  0  0  0  0  0  0  0
    4.5224   -4.0997   -2.2870 H   0  0  0  0  0  0  0  0  0  0  0  0
    3.1161   -4.5317   -1.2775 H   0  0  0  0  0  0  0  0  0  0  0  0
    2.4234   -2.9487   -2.9395 H   0  0  0  0  0  0  0  0  0  0  0  0
    2.2460   -2.3316   -1.3027 H   0  0  0  0  0  0  0  0  0  0  0  0
    5.3919   -0.2491   -1.3941 H   0  0  0  0  0  0  0  0  0  0  0  0
    4.0298   -0.6795   -0.3629 H   0  0  0  0  0  0  0  0  0  0  0  0
    6.0622   -1.9577    0.2284 H   0  0  0  0  0  0  0  0  0  0  0  0
    6.1835   -2.5875   -1.3982 H   0  0  0  0  0  0  0  0  0  0  0  0
    2.1215   -0.3498   -4.5919 H   0  0  0  0  0  0  0  0  0  0  0  0
    3.5374    0.6952   -4.4348 H   0  0  0  0  0  0  0  0  0  0  0  0
    3.3853   -2.2861   -4.8460 H   0  0  0  0  0  0  0  0  0  0  0  0
    4.6126   -1.1147   -5.3705 H   0  0  0  0  0  0  0  0  0  0  0  0
    6.3512   -5.3580    1.9371 H   0  0  0  0  0  0  0  0  0  0  0  0
    7.8506   -3.7625    2.0849 H   0  0  0  0  0  0  0  0  0  0  0  0
    5.9297   -3.8509    3.6073 H   0  0  0  0  0  0  0  0  0  0  0  0
    4.8022   -1.9679    1.8938 H   0  0  0  0  0  0  0  0  0  0  0  0
    3.8225   -4.0418    4.1639 H   0  0  0  0  0  0  0  0  0  0  0  0
    3.0388   -3.2282    1.5810 H   0  0  0  0  0  0  0  0  0  0  0  0
    4.5001   -6.2105    2.9503 H   0  0  0  0  0  0  0  0  0  0  0  0
  1  2  1  0
  1 26  1  0
  1 27  1  0
  1 28  1  0
  2 25  1  0
  2  3  1  0
  2  4  1  0
  3 29  1  0
  3 30  1  0
  3 31  1  0
  4  5  1  0
  5 24  1  0
  5  6  1  0
  5 32  1  6
  6  7  1  0
  6 33  1  0
  6 34  1  0
  7  8  1  0
  7 18  1  0
  7 35  1  6
  8 13  1  0
  8  9  1  0
  9 10  1  0
  9 36  1  0
  9 37  1  0
 10 11  1  0
 10 38  1  0
 10 39  1  0
 11 17  1  0
 11 12  1  0
 11 14  1  0
 12 13  1  0
 12 40  1  0
 12 41  1  0
 13 42  1  0
 13 43  1  0
 14 15  1  0
 15 16  1  0
 15 44  1  0
 15 45  1  0
 16 17  1  0
 16 46  1  0
 16 47  1  0
 18 19  1  0
 18 20  1  0
 18 48  1  1
 19 49  1  0
 20 21  1  0
 20 22  1  0
 20 50  1  1
 21 51  1  0
 22 23  1  0
 22 24  1  0
 22 52  1  1
 23 53  1  0
 24 25  1  0
 24 54  1  1
M  END
>  <i_m_ct_stereo_status>  (14) 
1

>  <s_m_source_file>  (14) 
/var/tmp/pbs.5076255.sched01/tmpzk3r62u5/0tgg_cfwk.sdf

>  <i_m_source_file_index>  (14) 
6

>  <i_lp_mmshare_version>  (14) 
48012

>  <i_f3d_flags>  (14) 
0

>  <s_epik_input>  (14) 
W0NIM11DKE8xKShbQ0gzXSlPW0NAQEhdKFtDQEhdMTIpW0NASF0oW09IXSlbQ0BIXShbT0hdKVtDQEhdKFtPSF0pW0NAQEhdKFtDSDJdMilOKFtDSDJdW0NIMl0zKVtDSDJdW0NIMl1DMzRPW0NIMl1bQ0gyXU80

>  <s_epik_cmdline>  (14) 
J2VwaWtfcHl0aG9uJywgJy1waHQnLCAnMi4wJywgJy1waCcsICc3LjAnLCAnLXRuJywgJzgnLCAnLW1hJywgJzIwMCcsICctaW1hZScsICc8aW5maWxlLm1hZT4nLCAnLW9tYWUnLCAnPG91dGZpbGUubWFlPic=

>  <r_epik_Ionization_Penalty>  (14) 
0.737055

>  <r_epik_Ionization_Penalty_Charging>  (14) 
0

>  <r_epik_Ionization_Penalty_Neutral>  (14) 
0.737055

>  <r_epik_State_Penalty>  (14) 
0.762849

>  <r_epik_Charging_Adjusted_Penalty>  (14) 
0.762849

>  <i_epik_Tot_Q>  (14) 
0

>  <i_epik_Tot_abs_Q>  (14) 
0

>  <s_lp_Force_Field>  (14) 
OPLS3e

>  <r_lp_Energy>  (14) 
0.143415

>  <b_lp_Chiralities_Consistent>  (14) 
1

>  <s_lp_Variant>  (14) 
3:0-2

>  <s_i_glide_gridfile>  (14) 
pfpi4k_grid

>  <i_i_glide_lignum>  (14) 
6

>  <i_i_glide_rotatable_bonds>  (14) 
4

>  <r_i_docking_score>  (14) 
-2.93188

>  <r_i_glide_ligand_efficiency>  (14) 
-0.117275

>  <r_i_glide_ligand_efficiency_sa>  (14) 
-0.342915

>  <r_i_glide_ligand_efficiency_ln>  (14) 
-0.694945

>  <r_i_glide_gscore>  (14) 
-2.93188

>  <r_i_glide_lipo>  (14) 
-0.552421

>  <r_i_glide_hbond>  (14) 
0

>  <r_i_glide_metal>  (14) 
-0

>  <r_i_glide_rewards>  (14) 
-1.45854

>  <r_i_glide_evdw>  (14) 
-20.198

>  <r_i_glide_ecoul>  (14) 
0.0218328

>  <r_i_glide_erotb>  (14) 
0.148377

>  <r_i_glide_esite>  (14) 
-0.0626812

>  <r_i_glide_emodel>  (14) 
-28.027

>  <r_i_glide_energy>  (14) 
-20.1761

>  <r_i_glide_einternal>  (14) 
0.65127

>  <r_i_glide_intrahb_reward>  (14) 
-0.5

>  <i_i_glide_confnum>  (14) 
4

>  <i_i_glide_posenum>  (14) 
32

>  <r_i_glide_eff_state_penalty>  (14) 
0

>  <ligand_id>  (14) 
3

>  <original_smiles>  (14) 
CC1(C)OC2CC(N3CCC4(CC3)OCCO4)C(O)C(O)C(O)C2O1

>  <smiles>  (14) 
[H]OC1([H])C2([H])OC(C([H])([H])[H])(C([H])([H])[H])OC2([H])C([H])([H])C([H])(N2C([H])([H])C([H])([H])C3(OC([H])([H])C([H])([H])O3)C([H])([H])C2([H])[H])C([H])(O[H])C1([H])O[H]

$$$$
3:1:2
     RDKit          3D

 54 57  0  0  1  0  0  0  0  0999 V2000
    0.4537   -6.7675    2.4350 C   0  0  0  0  0  0  0  0  0  0  0  0
    1.9478   -7.0930    2.5412 C   0  0  0  0  0  0  0  0  0  0  0  0
    2.2100   -8.4973    3.0979 C   0  0  0  0  0  0  0  0  0  0  0  0
    2.5319   -7.0220    1.2832 O   0  0  0  0  0  0  0  0  0  0  0  0
    3.2415   -5.8100    1.2227 C   0  0  2  0  0  0  0  0  0  0  0  0
    4.4734   -5.9184    0.3173 C   0  0  0  0  0  0  0  0  0  0  0  0
    5.2999   -4.6102    0.2013 C   0  0  1  0  0  0  0  0  0  0  0  0
    4.5691   -3.4308   -0.3140 N   0  0  0  0  0  0  0  0  0  0  0  0
    3.8140   -3.7559   -1.5213 C   0  0  0  0  0  0  0  0  0  0  0  0
    2.9549   -2.6232   -2.0669 C   0  0  0  0  0  0  0  0  0  0  0  0
    3.8567   -1.4258   -2.3719 C   0  0  0  0  0  0  0  0  0  0  0  0
    4.6875   -1.0515   -1.1302 C   0  0  0  0  0  0  0  0  0  0  0  0
    5.4480   -2.2968   -0.6307 C   0  0  0  0  0  0  0  0  0  0  0  0
    3.0809   -0.3525   -2.7434 O   0  0  0  0  0  0  0  0  0  0  0  0
    3.1060   -0.2614   -4.1566 C   0  0  0  0  0  0  0  0  0  0  0  0
    3.9752   -1.4213   -4.5580 C   0  0  0  0  0  0  0  0  0  0  0  0
    4.7008   -1.7312   -3.4092 O   0  0  0  0  0  0  0  0  0  0  0  0
    6.0436   -4.3750    1.5447 C   0  0  1  0  0  0  0  0  0  0  0  0
    7.2972   -3.7765    1.2800 O   0  0  0  0  0  0  0  0  0  0  0  0
    5.2970   -3.6509    2.7138 C   0  0  1  0  0  0  0  0  0  0  0  0
    5.3471   -2.2419    2.5924 O   0  0  0  0  0  0  0  0  0  0  0  0
    3.8663   -4.1277    3.0877 C   0  0  1  0  0  0  0  0  0  0  0  0
    2.8721   -3.2734    2.5408 O   0  0  0  0  0  0  0  0  0  0  0  0
    3.5974   -5.5954    2.6917 C   0  0  1  0  0  0  0  0  0  0  0  0
    2.5127   -6.1481    3.3936 O   0  0  0  0  0  0  0  0  0  0  0  0
    0.3268   -5.7544    2.0675 H   0  0  0  0  0  0  0  0  0  0  0  0
    0.0017   -6.8360    3.4253 H   0  0  0  0  0  0  0  0  0  0  0  0
   -0.0348   -7.4753    1.7654 H   0  0  0  0  0  0  0  0  0  0  0  0
    3.2788   -8.6943    3.1356 H   0  0  0  0  0  0  0  0  0  0  0  0
    1.7449   -9.2249    2.4338 H   0  0  0  0  0  0  0  0  0  0  0  0
    1.7815   -8.5979    4.0962 H   0  0  0  0  0  0  0  0  0  0  0  0
    2.5411   -5.0572    0.8619 H   0  0  0  0  0  0  0  0  0  0  0  0
    5.1142   -6.7214    0.6865 H   0  0  0  0  0  0  0  0  0  0  0  0
    4.1771   -6.2686   -0.6710 H   0  0  0  0  0  0  0  0  0  0  0  0
    6.0688   -4.8598   -0.5287 H   0  0  0  0  0  0  0  0  0  0  0  0
    4.4956   -4.1088   -2.3030 H   0  0  0  0  0  0  0  0  0  0  0  0
    3.0776   -4.5160   -1.2962 H   0  0  0  0  0  0  0  0  0  0  0  0
    2.4015   -2.9439   -2.9517 H   0  0  0  0  0  0  0  0  0  0  0  0
    2.2269   -2.3310   -1.3172 H   0  0  0  0  0  0  0  0  0  0  0  0
    5.3849   -0.2586   -1.3826 H   0  0  0  0  0  0  0  0  0  0  0  0
    4.0118   -0.6869   -0.3615 H   0  0  0  0  0  0  0  0  0  0  0  0
    6.0150   -1.9601    0.2320 H   0  0  0  0  0  0  0  0  0  0  0  0
    6.1640   -2.5939   -1.3954 H   0  0  0  0  0  0  0  0  0  0  0  0
    2.1226   -0.3449   -4.6040 H   0  0  0  0  0  0  0  0  0  0  0  0
    3.5363    0.6927   -4.4466 H   0  0  0  0  0  0  0  0  0  0  0  0
    3.3801   -2.2890   -4.8489 H   0  0  0  0  0  0  0  0  0  0  0  0
    4.6247   -1.1243   -5.3725 H   0  0  0  0  0  0  0  0  0  0  0  0
    6.3262   -5.3549    1.9320 H   0  0  0  0  0  0  0  0  0  0  0  0
    7.7945   -4.3454    0.7075 H   0  0  0  0  0  0  0  0  0  0  0  0
    5.8869   -3.8686    3.5991 H   0  0  0  0  0  0  0  0  0  0  0  0
    6.2503   -1.9983    2.4335 H   0  0  0  0  0  0  0  0  0  0  0  0
    3.7846   -4.0520    4.1747 H   0  0  0  0  0  0  0  0  0  0  0  0
    3.0739   -3.1391    1.6218 H   0  0  0  0  0  0  0  0  0  0  0  0
    4.4550   -6.2201    2.9501 H   0  0  0  0  0  0  0  0  0  0  0  0
  1  2  1  0
  1 26  1  0
  1 27  1  0
  1 28  1  0
  2 25  1  0
  2  3  1  0
  2  4  1  0
  3 29  1  0
  3 30  1  0
  3 31  1  0
  4  5  1  0
  5 24  1  0
  5  6  1  0
  5 32  1  6
  6  7  1  0
  6 33  1  0
  6 34  1  0
  7  8  1  0
  7 18  1  0
  7 35  1  6
  8 13  1  0
  8  9  1  0
  9 10  1  0
  9 36  1  0
  9 37  1  0
 10 11  1  0
 10 38  1  0
 10 39  1  0
 11 17  1  0
 11 12  1  0
 11 14  1  0
 12 13  1  0
 12 40  1  0
 12 41  1  0
 13 42  1  0
 13 43  1  0
 14 15  1  0
 15 16  1  0
 15 44  1  0
 15 45  1  0
 16 17  1  0
 16 46  1  0
 16 47  1  0
 18 19  1  0
 18 20  1  0
 18 48  1  1
 19 49  1  0
 20 21  1  0
 20 22  1  0
 20 50  1  1
 21 51  1  0
 22 23  1  0
 22 24  1  0
 22 52  1  1
 23 53  1  0
 24 25  1  0
 24 54  1  1
M  END
>  <i_m_ct_stereo_status>  (15) 
1

>  <s_m_source_file>  (15) 
/var/tmp/pbs.5076255.sched01/tmpzk3r62u5/0tgg_cfwk.sdf

>  <i_m_source_file_index>  (15) 
6

>  <i_lp_mmshare_version>  (15) 
48012

>  <i_f3d_flags>  (15) 
0

>  <s_epik_input>  (15) 
W0NIM11DKE8xKShbQ0gzXSlPW0NAQEhdKFtDQEhdMTIpW0NASF0oW09IXSlbQ0BIXShbT0hdKVtDQEhdKFtPSF0pW0NAQEhdKFtDSDJdMilOKFtDSDJdW0NIMl0zKVtDSDJdW0NIMl1DMzRPW0NIMl1bQ0gyXU80

>  <s_epik_cmdline>  (15) 
J2VwaWtfcHl0aG9uJywgJy1waHQnLCAnMi4wJywgJy1waCcsICc3LjAnLCAnLXRuJywgJzgnLCAnLW1hJywgJzIwMCcsICctaW1hZScsICc8aW5maWxlLm1hZT4nLCAnLW9tYWUnLCAnPG91dGZpbGUubWFlPic=

>  <r_epik_Ionization_Penalty>  (15) 
0.737055

>  <r_epik_Ionization_Penalty_Charging>  (15) 
0

>  <r_epik_Ionization_Penalty_Neutral>  (15) 
0.737055

>  <r_epik_State_Penalty>  (15) 
0.762849

>  <r_epik_Charging_Adjusted_Penalty>  (15) 
0.762849

>  <i_epik_Tot_Q>  (15) 
0

>  <i_epik_Tot_abs_Q>  (15) 
0

>  <s_lp_Force_Field>  (15) 
OPLS3e

>  <r_lp_Energy>  (15) 
0.143415

>  <b_lp_Chiralities_Consistent>  (15) 
1

>  <s_lp_Variant>  (15) 
3:0-2

>  <s_i_glide_gridfile>  (15) 
pfpi4k_grid

>  <i_i_glide_lignum>  (15) 
6

>  <i_i_glide_rotatable_bonds>  (15) 
4

>  <r_i_docking_score>  (15) 
-2.78667

>  <r_i_glide_ligand_efficiency>  (15) 
-0.111467

>  <r_i_glide_ligand_efficiency_sa>  (15) 
-0.325931

>  <r_i_glide_ligand_efficiency_ln>  (15) 
-0.660525

>  <r_i_glide_gscore>  (15) 
-2.78667

>  <r_i_glide_lipo>  (15) 
-0.548824

>  <r_i_glide_hbond>  (15) 
0

>  <r_i_glide_metal>  (15) 
-0

>  <r_i_glide_rewards>  (15) 
-1.45854

>  <r_i_glide_evdw>  (15) 
-19.9805

>  <r_i_glide_ecoul>  (15) 
0.905271

>  <r_i_glide_erotb>  (15) 
0.148377

>  <r_i_glide_esite>  (15) 
-0.0644569

>  <r_i_glide_emodel>  (15) 
-26.5059

>  <r_i_glide_energy>  (15) 
-19.0752

>  <r_i_glide_einternal>  (15) 
0.942499

>  <r_i_glide_intrahb_reward>  (15) 
-0.5

>  <i_i_glide_confnum>  (15) 
4

>  <i_i_glide_posenum>  (15) 
7

>  <r_i_glide_eff_state_penalty>  (15) 
0

>  <ligand_id>  (15) 
3

>  <original_smiles>  (15) 
CC1(C)OC2CC(N3CCC4(CC3)OCCO4)C(O)C(O)C(O)C2O1

>  <smiles>  (15) 
[H]OC1([H])C2([H])OC(C([H])([H])[H])(C([H])([H])[H])OC2([H])C([H])([H])C([H])(N2C([H])([H])C([H])([H])C3(OC([H])([H])C([H])([H])O3)C([H])([H])C2([H])[H])C([H])(O[H])C1([H])O[H]

$$$$
4:0:0
     RDKit          3D

 20 22  0  0  1  0  0  0  0  0999 V2000
    1.9287   -6.1566    1.2750 C   0  0  0  0  0  0  0  0  0  0  0  0
    2.8599   -7.2057    1.4731 C   0  0  0  0  0  0  0  0  0  0  0  0
    2.5154   -8.4150    1.9697 N   0  0  0  0  0  0  0  0  0  0  0  0
    1.1897   -8.4932    2.2845 C   0  0  0  0  0  0  0  0  0  0  0  0
    0.2466   -7.4402    2.0833 C   0  0  0  0  0  0  0  0  0  0  0  0
    0.6084   -6.2597    1.5653 N   0  0  0  0  0  0  0  0  0  0  0  0
   -1.0209   -7.8130    2.4866 N   0  0  0  0  0  0  0  0  0  0  0  0
   -0.8029   -9.0659    2.9035 C   0  0  0  0  0  0  0  0  0  0  0  0
    0.4617   -9.5393    2.8428 N   0  0  0  0  0  0  0  0  0  0  0  0
    0.9143  -10.8816    3.1712 C   0  0  0  0  0  0  0  0  0  0  0  0
    1.0102  -11.1747    4.6447 C   0  0  0  0  0  0  0  0  0  0  0  0
    2.2693  -10.9652    3.8357 C   0  0  0  0  0  0  0  0  0  0  0  0
    2.2569   -5.2131    0.8712 H   0  0  0  0  0  0  0  0  0  0  0  0
    3.9002   -7.0770    1.2132 H   0  0  0  0  0  0  0  0  0  0  0  0
   -1.6186   -9.6764    3.2605 H   0  0  0  0  0  0  0  0  0  0  0  0
    0.5704  -11.6459    2.4822 H   0  0  0  0  0  0  0  0  0  0  0  0
    0.7266  -10.3957    5.3516 H   0  0  0  0  0  0  0  0  0  0  0  0
    0.7840  -12.1905    4.9616 H   0  0  0  0  0  0  0  0  0  0  0  0
    2.8792  -11.8339    3.6000 H   0  0  0  0  0  0  0  0  0  0  0  0
    2.8268  -10.0517    4.0308 H   0  0  0  0  0  0  0  0  0  0  0  0
  1  6  2  0
  1  2  1  0
  1 13  1  0
  2  3  2  0
  2 14  1  0
  3  4  1  0
  4  9  1  0
  4  5  2  0
  5  6  1  0
  5  7  1  0
  7  8  2  0
  8  9  1  0
  8 15  1  0
  9 10  1  0
 10 12  1  0
 10 11  1  0
 10 16  1  0
 11 12  1  0
 11 17  1  0
 11 18  1  0
 12 19  1  0
 12 20  1  0
M  END
>  <i_m_ct_stereo_status>  (16) 
1

>  <s_m_source_file>  (16) 
/var/tmp/pbs.5076255.sched01/tmpzk3r62u5/0tgg_cfwk.sdf

>  <i_m_source_file_index>  (16) 
7

>  <i_lp_mmshare_version>  (16) 
48012

>  <i_f3d_flags>  (16) 
0

>  <s_epik_input>  (16) 
bjFbY0hdW2NIXW5jKGMxMiluW2NIXW4yW0NIXTNbQ0gyXVtDSDJdMw==

>  <s_epik_cmdline>  (16) 
J2VwaWtfcHl0aG9uJywgJy1waHQnLCAnMi4wJywgJy1waCcsICc3LjAnLCAnLXRuJywgJzgnLCAnLW1hJywgJzIwMCcsICctaW1hZScsICc8aW5maWxlLm1hZT4nLCAnLW9tYWUnLCAnPG91dGZpbGUubWFlPic=

>  <r_lp_tautomer_probability>  (16) 
1

>  <r_epik_Ionization_Penalty>  (16) 
1.87023e-06

>  <r_epik_Ionization_Penalty_Charging>  (16) 
0

>  <r_epik_Ionization_Penalty_Neutral>  (16) 
1.87023e-06

>  <r_epik_State_Penalty>  (16) 
-0

>  <r_epik_Charging_Adjusted_Penalty>  (16) 
0

>  <i_epik_Tot_Q>  (16) 
0

>  <i_epik_Tot_abs_Q>  (16) 
0

>  <s_lp_Force_Field>  (16) 
OPLS3e

>  <r_lp_Energy>  (16) 
15.2896

>  <b_lp_Chiralities_Consistent>  (16) 
1

>  <s_lp_Variant>  (16) 
4:0-1

>  <s_i_glide_gridfile>  (16) 
pfpi4k_grid

>  <i_i_glide_lignum>  (16) 
7

>  <i_i_glide_rotatable_bonds>  (16) 
1

>  <r_i_docking_score>  (16) 
-3.68701

>  <r_i_glide_ligand_efficiency>  (16) 
-0.307251

>  <r_i_glide_ligand_efficiency_sa>  (16) 
-0.70343

>  <r_i_glide_ligand_efficiency_ln>  (16) 
-1.058

>  <r_i_glide_gscore>  (16) 
-3.68701

>  <r_i_glide_lipo>  (16) 
-0.175684

>  <r_i_glide_hbond>  (16) 
-0.16

>  <r_i_glide_metal>  (16) 
-0

>  <r_i_glide_rewards>  (16) 
-2.25

>  <r_i_glide_evdw>  (16) 
-18.8151

>  <r_i_glide_ecoul>  (16) 
-4.21601

>  <r_i_glide_erotb>  (16) 
0.587898

>  <r_i_glide_esite>  (16) 
-0.116072

>  <r_i_glide_emodel>  (16) 
-28.8716

>  <r_i_glide_energy>  (16) 
-23.0311

>  <r_i_glide_einternal>  (16) 
0.441109

>  <r_i_glide_intrahb_reward>  (16) 
-0

>  <i_i_glide_confnum>  (16) 
2

>  <i_i_glide_posenum>  (16) 
18

>  <r_i_glide_eff_state_penalty>  (16) 
0

>  <ligand_id>  (16) 
4

>  <original_smiles>  (16) 
c1cnc2c(n1)ncn2C1CC1

>  <smiles>  (16) 
[H]c1nc2nc([H])n(C3([H])C([H])([H])C3([H])[H])c2nc1[H]

$$$$
4:0:1
     RDKit          3D

 20 22  0  0  1  0  0  0  0  0999 V2000
    0.1390   -2.1905    5.1326 C   0  0  0  0  0  0  0  0  0  0  0  0
    0.6155   -1.5617    3.9570 C   0  0  0  0  0  0  0  0  0  0  0  0
    0.2977   -0.2903    3.6164 N   0  0  0  0  0  0  0  0  0  0  0  0
   -0.5177    0.3099    4.5300 C   0  0  0  0  0  0  0  0  0  0  0  0
   -0.9960   -0.3177    5.7166 C   0  0  0  0  0  0  0  0  0  0  0  0
   -0.6800   -1.5793    6.0274 N   0  0  0  0  0  0  0  0  0  0  0  0
   -1.7930    0.5410    6.4535 N   0  0  0  0  0  0  0  0  0  0  0  0
   -1.7695    1.6340    5.6908 C   0  0  0  0  0  0  0  0  0  0  0  0
   -1.0509    1.5921    4.5454 N   0  0  0  0  0  0  0  0  0  0  0  0
   -0.8496    2.6370    3.5464 C   0  0  0  0  0  0  0  0  0  0  0  0
   -0.8599    4.0543    4.0781 C   0  0  0  0  0  0  0  0  0  0  0  0
   -2.0413    3.5306    3.2819 C   0  0  0  0  0  0  0  0  0  0  0  0
    0.4198   -3.2079    5.3551 H   0  0  0  0  0  0  0  0  0  0  0  0
    1.2576   -2.0943    3.2725 H   0  0  0  0  0  0  0  0  0  0  0  0
   -2.3118    2.5168    5.9903 H   0  0  0  0  0  0  0  0  0  0  0  0
   -0.1759    2.3540    2.7373 H   0  0  0  0  0  0  0  0  0  0  0  0
   -0.9962    4.2185    5.1451 H   0  0  0  0  0  0  0  0  0  0  0  0
   -0.1947    4.7633    3.5886 H   0  0  0  0  0  0  0  0  0  0  0  0
   -2.1589    3.8982    2.2655 H   0  0  0  0  0  0  0  0  0  0  0  0
   -2.9733    3.3384    3.8114 H   0  0  0  0  0  0  0  0  0  0  0  0
  1  6  2  0
  1  2  1  0
  1 13  1  0
  2  3  2  0
  2 14  1  0
  3  4  1  0
  4  9  1  0
  4  5  2  0
  5  6  1  0
  5  7  1  0
  7  8  2  0
  8  9  1  0
  8 15  1  0
  9 10  1  0
 10 12  1  0
 10 11  1  0
 10 16  1  0
 11 12  1  0
 11 17  1  0
 11 18  1  0
 12 19  1  0
 12 20  1  0
M  END
>  <i_m_ct_stereo_status>  (17) 
1

>  <s_m_source_file>  (17) 
/var/tmp/pbs.5076255.sched01/tmpzk3r62u5/0tgg_cfwk.sdf

>  <i_m_source_file_index>  (17) 
7

>  <i_lp_mmshare_version>  (17) 
48012

>  <i_f3d_flags>  (17) 
0

>  <s_epik_input>  (17) 
bjFbY0hdW2NIXW5jKGMxMiluW2NIXW4yW0NIXTNbQ0gyXVtDSDJdMw==

>  <s_epik_cmdline>  (17) 
J2VwaWtfcHl0aG9uJywgJy1waHQnLCAnMi4wJywgJy1waCcsICc3LjAnLCAnLXRuJywgJzgnLCAnLW1hJywgJzIwMCcsICctaW1hZScsICc8aW5maWxlLm1hZT4nLCAnLW9tYWUnLCAnPG91dGZpbGUubWFlPic=

>  <r_lp_tautomer_probability>  (17) 
1

>  <r_epik_Ionization_Penalty>  (17) 
1.87023e-06

>  <r_epik_Ionization_Penalty_Charging>  (17) 
0

>  <r_epik_Ionization_Penalty_Neutral>  (17) 
1.87023e-06

>  <r_epik_State_Penalty>  (17) 
-0

>  <r_epik_Charging_Adjusted_Penalty>  (17) 
0

>  <i_epik_Tot_Q>  (17) 
0

>  <i_epik_Tot_abs_Q>  (17) 
0

>  <s_lp_Force_Field>  (17) 
OPLS3e

>  <r_lp_Energy>  (17) 
15.2896

>  <b_lp_Chiralities_Consistent>  (17) 
1

>  <s_lp_Variant>  (17) 
4:0-1

>  <s_i_glide_gridfile>  (17) 
pfpi4k_grid

>  <i_i_glide_lignum>  (17) 
7

>  <i_i_glide_rotatable_bonds>  (17) 
1

>  <r_i_docking_score>  (17) 
-3.25572

>  <r_i_glide_ligand_efficiency>  (17) 
-0.27131

>  <r_i_glide_ligand_efficiency_sa>  (17) 
-0.621145

>  <r_i_glide_ligand_efficiency_ln>  (17) 
-0.934235

>  <r_i_glide_gscore>  (17) 
-3.25572

>  <r_i_glide_lipo>  (17) 
0

>  <r_i_glide_hbond>  (17) 
-0.16

>  <r_i_glide_metal>  (17) 
-0

>  <r_i_glide_rewards>  (17) 
-2.25

>  <r_i_glide_evdw>  (17) 
-14.1846

>  <r_i_glide_ecoul>  (17) 
-4.10358

>  <r_i_glide_erotb>  (17) 
0.587898

>  <r_i_glide_esite>  (17) 
-0.108851

>  <r_i_glide_emodel>  (17) 
-23.2378

>  <r_i_glide_energy>  (17) 
-18.2882

>  <r_i_glide_einternal>  (17) 
0.988928

>  <r_i_glide_intrahb_reward>  (17) 
-0

>  <i_i_glide_confnum>  (17) 
2

>  <i_i_glide_posenum>  (17) 
10

>  <r_i_glide_eff_state_penalty>  (17) 
0

>  <ligand_id>  (17) 
4

>  <original_smiles>  (17) 
c1cnc2c(n1)ncn2C1CC1

>  <smiles>  (17) 
[H]c1nc2nc([H])n(C3([H])C([H])([H])C3([H])[H])c2nc1[H]

$$$$
4:0:2
     RDKit          3D

 20 22  0  0  1  0  0  0  0  0999 V2000
   -1.9714    2.6125    7.5157 C   0  0  0  0  0  0  0  0  0  0  0  0
   -1.4806    1.3406    7.1370 C   0  0  0  0  0  0  0  0  0  0  0  0
   -1.2021    0.9944    5.8594 N   0  0  0  0  0  0  0  0  0  0  0  0
   -1.4056    2.0287    4.9883 C   0  0  0  0  0  0  0  0  0  0  0  0
   -1.8965    3.3153    5.3602 C   0  0  0  0  0  0  0  0  0  0  0  0
   -2.1924    3.6119    6.6291 N   0  0  0  0  0  0  0  0  0  0  0  0
   -2.0203    4.1416    4.2604 N   0  0  0  0  0  0  0  0  0  0  0  0
   -1.5901    3.3491    3.2811 C   0  0  0  0  0  0  0  0  0  0  0  0
   -1.1921    2.1057    3.6170 N   0  0  0  0  0  0  0  0  0  0  0  0
   -0.7349    1.0645    2.7172 C   0  0  0  0  0  0  0  0  0  0  0  0
    0.5063    0.3325    3.1712 C   0  0  0  0  0  0  0  0  0  0  0  0
    0.5898    1.3451    2.0498 C   0  0  0  0  0  0  0  0  0  0  0  0
   -2.1959    2.8196    8.5514 H   0  0  0  0  0  0  0  0  0  0  0  0
   -1.3118    0.5736    7.8777 H   0  0  0  0  0  0  0  0  0  0  0  0
   -1.5664    3.6954    2.2606 H   0  0  0  0  0  0  0  0  0  0  0  0
   -1.5412    0.5666    2.1815 H   0  0  0  0  0  0  0  0  0  0  0  0
    0.9567    0.6100    4.1216 H   0  0  0  0  0  0  0  0  0  0  0  0
    0.5877   -0.7220    2.9107 H   0  0  0  0  0  0  0  0  0  0  0  0
    0.7269    0.9679    1.0377 H   0  0  0  0  0  0  0  0  0  0  0  0
    1.0832    2.2939    2.2597 H   0  0  0  0  0  0  0  0  0  0  0  0
  1  6  2  0
  1  2  1  0
  1 13  1  0
  2  3  2  0
  2 14  1  0
  3  4  1  0
  4  9  1  0
  4  5  2  0
  5  6  1  0
  5  7  1  0
  7  8  2  0
  8  9  1  0
  8 15  1  0
  9 10  1  0
 10 12  1  0
 10 11  1  0
 10 16  1  0
 11 12  1  0
 11 17  1  0
 11 18  1  0
 12 19  1  0
 12 20  1  0
M  END
>  <i_m_ct_stereo_status>  (18) 
1

>  <s_m_source_file>  (18) 
/var/tmp/pbs.5076255.sched01/tmpzk3r62u5/0tgg_cfwk.sdf

>  <i_m_source_file_index>  (18) 
7

>  <i_lp_mmshare_version>  (18) 
48012

>  <i_f3d_flags>  (18) 
0

>  <s_epik_input>  (18) 
bjFbY0hdW2NIXW5jKGMxMiluW2NIXW4yW0NIXTNbQ0gyXVtDSDJdMw==

>  <s_epik_cmdline>  (18) 
J2VwaWtfcHl0aG9uJywgJy1waHQnLCAnMi4wJywgJy1waCcsICc3LjAnLCAnLXRuJywgJzgnLCAnLW1hJywgJzIwMCcsICctaW1hZScsICc8aW5maWxlLm1hZT4nLCAnLW9tYWUnLCAnPG91dGZpbGUubWFlPic=

>  <r_lp_tautomer_probability>  (18) 
1

>  <r_epik_Ionization_Penalty>  (18) 
1.87023e-06

>  <r_epik_Ionization_Penalty_Charging>  (18) 
0

>  <r_epik_Ionization_Penalty_Neutral>  (18) 
1.87023e-06

>  <r_epik_State_Penalty>  (18) 
-0

>  <r_epik_Charging_Adjusted_Penalty>  (18) 
0

>  <i_epik_Tot_Q>  (18) 
0

>  <i_epik_Tot_abs_Q>  (18) 
0

>  <s_lp_Force_Field>  (18) 
OPLS3e

>  <r_lp_Energy>  (18) 
15.2896

>  <b_lp_Chiralities_Consistent>  (18) 
1

>  <s_lp_Variant>  (18) 
4:0-1

>  <s_i_glide_gridfile>  (18) 
pfpi4k_grid

>  <i_i_glide_lignum>  (18) 
7

>  <i_i_glide_rotatable_bonds>  (18) 
1

>  <r_i_docking_score>  (18) 
-3.16458

>  <r_i_glide_ligand_efficiency>  (18) 
-0.263715

>  <r_i_glide_ligand_efficiency_sa>  (18) 
-0.603757

>  <r_i_glide_ligand_efficiency_ln>  (18) 
-0.908082

>  <r_i_glide_gscore>  (18) 
-3.16458

>  <r_i_glide_lipo>  (18) 
-0.030177

>  <r_i_glide_hbond>  (18) 
-0.0541625

>  <r_i_glide_metal>  (18) 
-0

>  <r_i_glide_rewards>  (18) 
-2.25

>  <r_i_glide_evdw>  (18) 
-15.3403

>  <r_i_glide_ecoul>  (18) 
-3.46607

>  <r_i_glide_erotb>  (18) 
0.587898

>  <r_i_glide_esite>  (18) 
-0.131212

>  <r_i_glide_emodel>  (18) 
-23.8428

>  <r_i_glide_energy>  (18) 
-18.8064

>  <r_i_glide_einternal>  (18) 
0.438884

>  <r_i_glide_intrahb_reward>  (18) 
-0

>  <i_i_glide_confnum>  (18) 
3

>  <i_i_glide_posenum>  (18) 
1

>  <r_i_glide_eff_state_penalty>  (18) 
0

>  <ligand_id>  (18) 
4

>  <original_smiles>  (18) 
c1cnc2c(n1)ncn2C1CC1

>  <smiles>  (18) 
[H]c1nc2nc([H])n(C3([H])C([H])([H])C3([H])[H])c2nc1[H]

$$$$
5:0:0
     RDKit          3D

 33 36  0  0  1  0  0  0  0  0999 V2000
   -9.7873   -8.3354  -10.6103 C   0  0  0  0  0  0  0  0  0  0  0  0
   -9.3786   -8.4357   -9.2232 N   0  0  0  0  0  0  0  0  0  0  0  0
   -8.8508   -7.3877   -8.4472 C   0  0  0  0  0  0  0  0  0  0  0  0
   -8.1204   -7.8129   -7.3884 C   0  0  0  0  0  0  0  0  0  0  0  0
   -7.3575   -6.9945   -6.4382 C   0  0  0  0  0  0  0  0  0  0  0  0
   -7.5817   -5.6003   -6.2359 C   0  0  0  0  0  0  0  0  0  0  0  0
   -6.7123   -5.0666   -5.3129 C   0  0  0  0  0  0  0  0  0  0  0  0
   -5.6013   -6.2739   -4.7174 S   0  0  0  0  0  0  0  0  0  0  0  0
   -6.3136   -7.5050   -5.7220 C   0  0  0  0  0  0  0  0  0  0  0  0
   -8.4226   -9.2831   -7.3671 C   0  0  2  0  0  0  0  0  0  0  0  0
   -7.7959  -10.5774   -6.8310 C   0  0  2  0  0  0  0  0  0  0  0  0
   -6.5587  -11.0690   -7.6120 C   0  0  0  0  0  0  0  0  0  0  0  0
   -7.1524  -11.5207   -8.9813 C   0  0  0  0  0  0  0  0  0  0  0  0
   -8.6200  -11.0341   -8.9269 C   0  0  1  0  0  0  0  0  0  0  0  0
   -8.8860  -11.4813   -7.4750 C   0  0  0  0  0  0  0  0  0  0  0  0
   -8.4746   -9.5017   -8.8501 C   0  0  1  0  0  0  0  0  0  0  0  0
  -10.5314   -7.5491  -10.7316 H   0  0  0  0  0  0  0  0  0  0  0  0
  -10.2308   -9.2737  -10.9477 H   0  0  0  0  0  0  0  0  0  0  0  0
   -8.9309   -8.1072  -11.2465 H   0  0  0  0  0  0  0  0  0  0  0  0
   -8.9561   -6.3733   -8.7996 H   0  0  0  0  0  0  0  0  0  0  0  0
   -8.3530   -5.0454   -6.7475 H   0  0  0  0  0  0  0  0  0  0  0  0
   -6.6606   -4.0546   -4.9458 H   0  0  0  0  0  0  0  0  0  0  0  0
   -5.9249   -8.5125   -5.7260 H   0  0  0  0  0  0  0  0  0  0  0  0
   -9.4106   -9.2572   -6.9022 H   0  0  0  0  0  0  0  0  0  0  0  0
   -7.7341  -10.6405   -5.7434 H   0  0  0  0  0  0  0  0  0  0  0  0
   -5.8012  -10.2876   -7.7097 H   0  0  0  0  0  0  0  0  0  0  0  0
   -6.0995  -11.9176   -7.1045 H   0  0  0  0  0  0  0  0  0  0  0  0
   -6.5984  -11.1011   -9.8169 H   0  0  0  0  0  0  0  0  0  0  0  0
   -7.1090  -12.6037   -9.0795 H   0  0  0  0  0  0  0  0  0  0  0  0
   -9.2665  -11.4268   -9.7137 H   0  0  0  0  0  0  0  0  0  0  0  0
   -8.7133  -12.5483   -7.3245 H   0  0  0  0  0  0  0  0  0  0  0  0
   -9.9123  -11.2704   -7.1587 H   0  0  0  0  0  0  0  0  0  0  0  0
   -7.5210   -9.2335   -9.3124 H   0  0  0  0  0  0  0  0  0  0  0  0
  1  2  1  0
  1 17  1  0
  1 18  1  0
  1 19  1  0
  2 16  1  0
  2  3  1  0
  3  4  2  0
  3 20  1  0
  4  5  1  0
  4 10  1  0
  5  9  2  0
  5  6  1  0
  6  7  2  0
  6 21  1  0
  7  8  1  0
  7 22  1  0
  8  9  1  0
  9 23  1  0
 10 16  1  0
 10 11  1  0
 10 24  1  1
 11 15  1  0
 11 12  1  0
 11 25  1  1
 12 13  1  0
 12 26  1  0
 12 27  1  0
 13 14  1  0
 13 28  1  0
 13 29  1  0
 14 15  1  0
 14 16  1  0
 14 30  1  6
 15 31  1  0
 15 32  1  0
 16 33  1  6
M  END
>  <i_m_ct_stereo_status>  (19) 
1

>  <s_m_source_file>  (19) 
/var/tmp/pbs.5076255.sched01/tmpzk3r62u5/0tgg_cfwk.sdf

>  <i_m_source_file_index>  (19) 
8

>  <i_lp_mmshare_version>  (19) 
48012

>  <i_f3d_flags>  (19) 
0

>  <s_epik_input>  (19) 
W0NASF0xMltDQEBIXTNbQ0gyXVtDSDJdW0NAQEhdKFtDSDJdMylbQ0BIXTJOKFtDSDNdKVtDSF09QzFjNFtjSF1bY0hdc1tjSF00

>  <s_epik_cmdline>  (19) 
J2VwaWtfcHl0aG9uJywgJy1waHQnLCAnMi4wJywgJy1waCcsICc3LjAnLCAnLXRuJywgJzgnLCAnLW1hJywgJzIwMCcsICctaW1hZScsICc8aW5maWxlLm1hZT4nLCAnLW9tYWUnLCAnPG91dGZpbGUubWFlPic=

>  <r_epik_Ionization_Penalty>  (19) 
0.0532236

>  <r_epik_Ionization_Penalty_Charging>  (19) 
0

>  <r_epik_Ionization_Penalty_Neutral>  (19) 
0.0532236

>  <r_epik_State_Penalty>  (19) 
0.0457005

>  <r_epik_Charging_Adjusted_Penalty>  (19) 
0.0457005

>  <i_epik_Tot_Q>  (19) 
0

>  <i_epik_Tot_abs_Q>  (19) 
0

>  <s_lp_Force_Field>  (19) 
OPLS3e

>  <r_lp_Energy>  (19) 
62.5058

>  <b_lp_Chiralities_Consistent>  (19) 
1

>  <s_lp_Variant>  (19) 
5:0-1

>  <s_i_glide_gridfile>  (19) 
pfpi4k_grid

>  <i_i_glide_lignum>  (19) 
8

>  <i_i_glide_rotatable_bonds>  (19) 
1

>  <r_i_docking_score>  (19) 
-5.18442

>  <r_i_glide_ligand_efficiency>  (19) 
-0.324026

>  <r_i_glide_ligand_efficiency_sa>  (19) 
-0.816495

>  <r_i_glide_ligand_efficiency_ln>  (19) 
-1.37423

>  <r_i_glide_gscore>  (19) 
-5.18442

>  <r_i_glide_lipo>  (19) 
-2.05136

>  <r_i_glide_hbond>  (19) 
0

>  <r_i_glide_metal>  (19) 
-0

>  <r_i_glide_rewards>  (19) 
-2.42787

>  <r_i_glide_evdw>  (19) 
-20.3996

>  <r_i_glide_ecoul>  (19) 
-0.0319614

>  <r_i_glide_erotb>  (19) 
0.319585

>  <r_i_glide_esite>  (19) 
0

>  <r_i_glide_emodel>  (19) 
-26.2976

>  <r_i_glide_energy>  (19) 
-20.4316

>  <r_i_glide_einternal>  (19) 
0.623056

>  <r_i_glide_intrahb_reward>  (19) 
-0

>  <i_i_glide_confnum>  (19) 
2

>  <i_i_glide_posenum>  (19) 
23

>  <r_i_glide_eff_state_penalty>  (19) 
0

>  <ligand_id>  (19) 
5

>  <original_smiles>  (19) 
CN1C=C(c2ccsc2)C2C3CCC(C3)C21

>  <smiles>  (19) 
[H]C1=C(c2c([H])sc([H])c2[H])C2([H])C([H])(N1C([H])([H])[H])C1([H])C([H])([H])C([H])([H])C2([H])C1([H])[H]

$$$$
5:0:1
     RDKit          3D

 33 36  0  0  1  0  0  0  0  0999 V2000
  -11.0096   -6.2017  -10.3266 C   0  0  0  0  0  0  0  0  0  0  0  0
  -10.3306   -6.7248   -9.1623 N   0  0  0  0  0  0  0  0  0  0  0  0
   -9.6043   -5.9660   -8.2218 C   0  0  0  0  0  0  0  0  0  0  0  0
   -8.7066   -6.6927   -7.5137 C   0  0  0  0  0  0  0  0  0  0  0  0
   -7.7423   -6.2039   -6.5235 C   0  0  0  0  0  0  0  0  0  0  0  0
   -7.6881   -4.8484   -6.0730 C   0  0  0  0  0  0  0  0  0  0  0  0
   -6.6810   -4.6499   -5.1580 C   0  0  0  0  0  0  0  0  0  0  0  0
   -5.8053   -6.1222   -4.8431 S   0  0  0  0  0  0  0  0  0  0  0  0
   -6.7962   -7.0134   -5.9673 C   0  0  0  0  0  0  0  0  0  0  0  0
   -9.0719   -8.1009   -7.8997 C   0  0  2  0  0  0  0  0  0  0  0  0
   -8.4034   -9.4815   -7.9392 C   0  0  2  0  0  0  0  0  0  0  0  0
   -7.3596   -9.6600   -9.0597 C   0  0  0  0  0  0  0  0  0  0  0  0
   -8.2236   -9.6555  -10.3562 C   0  0  0  0  0  0  0  0  0  0  0  0
   -9.6353   -9.2606   -9.8624 C   0  0  1  0  0  0  0  0  0  0  0  0
   -9.6299  -10.1613   -8.6105 C   0  0  0  0  0  0  0  0  0  0  0  0
   -9.4183   -7.8324   -9.3306 C   0  0  1  0  0  0  0  0  0  0  0  0
  -11.7430   -5.4552  -10.0285 H   0  0  0  0  0  0  0  0  0  0  0  0
  -11.5405   -6.9974  -10.8493 H   0  0  0  0  0  0  0  0  0  0  0  0
  -10.2936   -5.7496  -11.0143 H   0  0  0  0  0  0  0  0  0  0  0  0
   -9.7512   -4.8970   -8.1885 H   0  0  0  0  0  0  0  0  0  0  0  0
   -8.3593   -4.0798   -6.4174 H   0  0  0  0  0  0  0  0  0  0  0  0
   -6.4082   -3.7361   -4.6545 H   0  0  0  0  0  0  0  0  0  0  0  0
   -6.6245   -8.0626   -6.1419 H   0  0  0  0  0  0  0  0  0  0  0  0
   -9.9654   -8.2524   -7.2788 H   0  0  0  0  0  0  0  0  0  0  0  0
   -8.1307   -9.8917   -6.9646 H   0  0  0  0  0  0  0  0  0  0  0  0
   -6.6050   -8.8705   -9.0465 H   0  0  0  0  0  0  0  0  0  0  0  0
   -6.8451  -10.6145   -8.9570 H   0  0  0  0  0  0  0  0  0  0  0  0
   -7.8273   -8.9607  -11.0949 H   0  0  0  0  0  0  0  0  0  0  0  0
   -8.2389  -10.6458  -10.8070 H   0  0  0  0  0  0  0  0  0  0  0  0
  -10.4396   -9.4000  -10.5878 H   0  0  0  0  0  0  0  0  0  0  0  0
   -9.4686  -11.2159   -8.8443 H   0  0  0  0  0  0  0  0  0  0  0  0
  -10.5648  -10.0941   -8.0442 H   0  0  0  0  0  0  0  0  0  0  0  0
   -8.5616   -7.4080   -9.8591 H   0  0  0  0  0  0  0  0  0  0  0  0
  1  2  1  0
  1 17  1  0
  1 18  1  0
  1 19  1  0
  2 16  1  0
  2  3  1  0
  3  4  2  0
  3 20  1  0
  4  5  1  0
  4 10  1  0
  5  9  2  0
  5  6  1  0
  6  7  2  0
  6 21  1  0
  7  8  1  0
  7 22  1  0
  8  9  1  0
  9 23  1  0
 10 16  1  0
 10 11  1  0
 10 24  1  1
 11 15  1  0
 11 12  1  0
 11 25  1  1
 12 13  1  0
 12 26  1  0
 12 27  1  0
 13 14  1  0
 13 28  1  0
 13 29  1  0
 14 15  1  0
 14 16  1  0
 14 30  1  6
 15 31  1  0
 15 32  1  0
 16 33  1  6
M  END
>  <i_m_ct_stereo_status>  (20) 
1

>  <s_m_source_file>  (20) 
/var/tmp/pbs.5076255.sched01/tmpzk3r62u5/0tgg_cfwk.sdf

>  <i_m_source_file_index>  (20) 
8

>  <i_lp_mmshare_version>  (20) 
48012

>  <i_f3d_flags>  (20) 
0

>  <s_epik_input>  (20) 
W0NASF0xMltDQEBIXTNbQ0gyXVtDSDJdW0NAQEhdKFtDSDJdMylbQ0BIXTJOKFtDSDNdKVtDSF09QzFjNFtjSF1bY0hdc1tjSF00

>  <s_epik_cmdline>  (20) 
J2VwaWtfcHl0aG9uJywgJy1waHQnLCAnMi4wJywgJy1waCcsICc3LjAnLCAnLXRuJywgJzgnLCAnLW1hJywgJzIwMCcsICctaW1hZScsICc8aW5maWxlLm1hZT4nLCAnLW9tYWUnLCAnPG91dGZpbGUubWFlPic=

>  <r_epik_Ionization_Penalty>  (20) 
0.0532236

>  <r_epik_Ionization_Penalty_Charging>  (20) 
0

>  <r_epik_Ionization_Penalty_Neutral>  (20) 
0.0532236

>  <r_epik_State_Penalty>  (20) 
0.0457005

>  <r_epik_Charging_Adjusted_Penalty>  (20) 
0.0457005

>  <i_epik_Tot_Q>  (20) 
0

>  <i_epik_Tot_abs_Q>  (20) 
0

>  <s_lp_Force_Field>  (20) 
OPLS3e

>  <r_lp_Energy>  (20) 
62.5058

>  <b_lp_Chiralities_Consistent>  (20) 
1

>  <s_lp_Variant>  (20) 
5:0-1

>  <s_i_glide_gridfile>  (20) 
pfpi4k_grid

>  <i_i_glide_lignum>  (20) 
8

>  <i_i_glide_rotatable_bonds>  (20) 
1

>  <r_i_docking_score>  (20) 
-5.0456

>  <r_i_glide_ligand_efficiency>  (20) 
-0.31535

>  <r_i_glide_ligand_efficiency_sa>  (20) 
-0.794631

>  <r_i_glide_ligand_efficiency_ln>  (20) 
-1.33744

>  <r_i_glide_gscore>  (20) 
-5.0456

>  <r_i_glide_lipo>  (20) 
-2.01873

>  <r_i_glide_hbond>  (20) 
0

>  <r_i_glide_metal>  (20) 
-0

>  <r_i_glide_rewards>  (20) 
-2.29579

>  <r_i_glide_evdw>  (20) 
-21.3774

>  <r_i_glide_ecoul>  (20) 
0.229464

>  <r_i_glide_erotb>  (20) 
0.319585

>  <r_i_glide_esite>  (20) 
-0.0162142

>  <r_i_glide_emodel>  (20) 
-27.1537

>  <r_i_glide_energy>  (20) 
-21.1479

>  <r_i_glide_einternal>  (20) 
0.0225948

>  <r_i_glide_intrahb_reward>  (20) 
-0

>  <i_i_glide_confnum>  (20) 
1

>  <i_i_glide_posenum>  (20) 
20

>  <r_i_glide_eff_state_penalty>  (20) 
0

>  <ligand_id>  (20) 
5

>  <original_smiles>  (20) 
CN1C=C(c2ccsc2)C2C3CCC(C3)C21

>  <smiles>  (20) 
[H]C1=C(c2c([H])sc([H])c2[H])C2([H])C([H])(N1C([H])([H])[H])C1([H])C([H])([H])C([H])([H])C2([H])C1([H])[H]

$$$$
5:0:2
     RDKit          3D

 33 36  0  0  1  0  0  0  0  0999 V2000
  -10.0771   -6.6513  -10.3363 C   0  0  0  0  0  0  0  0  0  0  0  0
   -9.5848   -7.3187   -9.1490 N   0  0  0  0  0  0  0  0  0  0  0  0
   -8.6887   -6.7720   -8.2136 C   0  0  0  0  0  0  0  0  0  0  0  0
   -8.0275   -7.7052   -7.4854 C   0  0  0  0  0  0  0  0  0  0  0  0
   -6.9681   -7.4742   -6.4988 C   0  0  0  0  0  0  0  0  0  0  0  0
   -6.0009   -8.4629   -6.1631 C   0  0  0  0  0  0  0  0  0  0  0  0
   -5.0870   -8.0051   -5.2515 C   0  0  0  0  0  0  0  0  0  0  0  0
   -5.4009   -6.3428   -4.8089 S   0  0  0  0  0  0  0  0  0  0  0  0
   -6.7687   -6.2672   -5.8837 C   0  0  0  0  0  0  0  0  0  0  0  0
   -8.7666   -8.9630   -7.8359 C   0  0  2  0  0  0  0  0  0  0  0  0
   -8.5063  -10.4779   -7.8558 C   0  0  2  0  0  0  0  0  0  0  0  0
   -7.5611  -10.9705   -8.9758 C   0  0  0  0  0  0  0  0  0  0  0  0
   -8.3935  -10.7559  -10.2762 C   0  0  0  0  0  0  0  0  0  0  0  0
   -9.6306   -9.9614   -9.7932 C   0  0  1  0  0  0  0  0  0  0  0  0
   -9.8766  -10.7945   -8.5206 C   0  0  0  0  0  0  0  0  0  0  0  0
   -9.0213   -8.6434   -9.2821 C   0  0  1  0  0  0  0  0  0  0  0  0
  -10.5540   -5.7099  -10.0686 H   0  0  0  0  0  0  0  0  0  0  0  0
  -10.8182   -7.2704  -10.8445 H   0  0  0  0  0  0  0  0  0  0  0  0
   -9.2595   -6.4461  -11.0284 H   0  0  0  0  0  0  0  0  0  0  0  0
   -8.5101   -5.7079   -8.2219 H   0  0  0  0  0  0  0  0  0  0  0  0
   -6.0104   -9.4502   -6.5965 H   0  0  0  0  0  0  0  0  0  0  0  0
   -4.2583   -8.5373   -4.8007 H   0  0  0  0  0  0  0  0  0  0  0  0
   -7.3313   -5.3486   -5.9913 H   0  0  0  0  0  0  0  0  0  0  0  0
   -9.6528   -8.8422   -7.1979 H   0  0  0  0  0  0  0  0  0  0  0  0
   -8.3596  -10.9333   -6.8743 H   0  0  0  0  0  0  0  0  0  0  0  0
   -6.6128  -10.4290   -8.9804 H   0  0  0  0  0  0  0  0  0  0  0  0
   -7.3391  -12.0299   -8.8473 H   0  0  0  0  0  0  0  0  0  0  0  0
   -7.8228  -10.2299  -11.0381 H   0  0  0  0  0  0  0  0  0  0  0  0
   -8.6936  -11.7124  -10.7020 H   0  0  0  0  0  0  0  0  0  0  0  0
  -10.4402   -9.8821  -10.5198 H   0  0  0  0  0  0  0  0  0  0  0  0
  -10.0247  -11.8556   -8.7327 H   0  0  0  0  0  0  0  0  0  0  0  0
  -10.7523  -10.4493   -7.9629 H   0  0  0  0  0  0  0  0  0  0  0  0
   -8.0817   -8.4889   -9.8169 H   0  0  0  0  0  0  0  0  0  0  0  0
  1  2  1  0
  1 17  1  0
  1 18  1  0
  1 19  1  0
  2 16  1  0
  2  3  1  0
  3  4  2  0
  3 20  1  0
  4  5  1  0
  4 10  1  0
  5  9  2  0
  5  6  1  0
  6  7  2  0
  6 21  1  0
  7  8  1  0
  7 22  1  0
  8  9  1  0
  9 23  1  0
 10 16  1  0
 10 11  1  0
 10 24  1  1
 11 15  1  0
 11 12  1  0
 11 25  1  1
 12 13  1  0
 12 26  1  0
 12 27  1  0
 13 14  1  0
 13 28  1  0
 13 29  1  0
 14 15  1  0
 14 16  1  0
 14 30  1  6
 15 31  1  0
 15 32  1  0
 16 33  1  6
M  END
>  <i_m_ct_stereo_status>  (21) 
1

>  <s_m_source_file>  (21) 
/var/tmp/pbs.5076255.sched01/tmpzk3r62u5/0tgg_cfwk.sdf

>  <i_m_source_file_index>  (21) 
8

>  <i_lp_mmshare_version>  (21) 
48012

>  <i_f3d_flags>  (21) 
0

>  <s_epik_input>  (21) 
W0NASF0xMltDQEBIXTNbQ0gyXVtDSDJdW0NAQEhdKFtDSDJdMylbQ0BIXTJOKFtDSDNdKVtDSF09QzFjNFtjSF1bY0hdc1tjSF00

>  <s_epik_cmdline>  (21) 
J2VwaWtfcHl0aG9uJywgJy1waHQnLCAnMi4wJywgJy1waCcsICc3LjAnLCAnLXRuJywgJzgnLCAnLW1hJywgJzIwMCcsICctaW1hZScsICc8aW5maWxlLm1hZT4nLCAnLW9tYWUnLCAnPG91dGZpbGUubWFlPic=

>  <r_epik_Ionization_Penalty>  (21) 
0.0532236

>  <r_epik_Ionization_Penalty_Charging>  (21) 
0

>  <r_epik_Ionization_Penalty_Neutral>  (21) 
0.0532236

>  <r_epik_State_Penalty>  (21) 
0.0457005

>  <r_epik_Charging_Adjusted_Penalty>  (21) 
0.0457005

>  <i_epik_Tot_Q>  (21) 
0

>  <i_epik_Tot_abs_Q>  (21) 
0

>  <s_lp_Force_Field>  (21) 
OPLS3e

>  <r_lp_Energy>  (21) 
62.5058

>  <b_lp_Chiralities_Consistent>  (21) 
1

>  <s_lp_Variant>  (21) 
5:0-1

>  <s_i_glide_gridfile>  (21) 
pfpi4k_grid

>  <i_i_glide_lignum>  (21) 
8

>  <i_i_glide_rotatable_bonds>  (21) 
1

>  <r_i_docking_score>  (21) 
-4.62695

>  <r_i_glide_ligand_efficiency>  (21) 
-0.289184

>  <r_i_glide_ligand_efficiency_sa>  (21) 
-0.728699

>  <r_i_glide_ligand_efficiency_ln>  (21) 
-1.22647

>  <r_i_glide_gscore>  (21) 
-4.62695

>  <r_i_glide_lipo>  (21) 
-1.75628

>  <r_i_glide_hbond>  (21) 
0

>  <r_i_glide_metal>  (21) 
-0

>  <r_i_glide_rewards>  (21) 
-2.08453

>  <r_i_glide_evdw>  (21) 
-20.6618

>  <r_i_glide_ecoul>  (21) 
-0.48426

>  <r_i_glide_erotb>  (21) 
0.319585

>  <r_i_glide_esite>  (21) 
0

>  <r_i_glide_emodel>  (21) 
-26.2958

>  <r_i_glide_energy>  (21) 
-21.1461

>  <r_i_glide_einternal>  (21) 
0.654444

>  <r_i_glide_intrahb_reward>  (21) 
-0

>  <i_i_glide_confnum>  (21) 
2

>  <i_i_glide_posenum>  (21) 
38

>  <r_i_glide_eff_state_penalty>  (21) 
0

>  <ligand_id>  (21) 
5

>  <original_smiles>  (21) 
CN1C=C(c2ccsc2)C2C3CCC(C3)C21

>  <smiles>  (21) 
[H]C1=C(c2c([H])sc([H])c2[H])C2([H])C([H])(N1C([H])([H])[H])C1([H])C([H])([H])C([H])([H])C2([H])C1([H])[H]

$$$$
5:1:0
     RDKit          3D

 34 37  0  0  1  0  0  0  0  0999 V2000
   -8.7390   -8.7851  -10.6639 C   0  0  0  0  0  0  0  0  0  0  0  0
   -8.8658   -8.7494   -9.1939 N   0  0  2  0  0  0  0  0  0  0  0  0
   -8.7356   -7.3843   -8.5423 C   0  0  0  0  0  0  0  0  0  0  0  0
   -8.1319   -7.4934   -7.3327 C   0  0  0  0  0  0  0  0  0  0  0  0
   -7.7690   -6.3912   -6.4322 C   0  0  0  0  0  0  0  0  0  0  0  0
   -8.4088   -5.1117   -6.4579 C   0  0  0  0  0  0  0  0  0  0  0  0
   -7.8735   -4.2629   -5.5221 C   0  0  0  0  0  0  0  0  0  0  0  0
   -6.5553   -5.0052   -4.6543 S   0  0  0  0  0  0  0  0  0  0  0  0
   -6.7482   -6.4997   -5.5312 C   0  0  0  0  0  0  0  0  0  0  0  0
   -8.0890   -8.9768   -7.0915 C   0  0  2  0  0  0  0  0  0  0  0  0
   -7.3346   -9.9647   -6.1906 C   0  0  2  0  0  0  0  0  0  0  0  0
   -5.8810  -10.2667   -6.6144 C   0  0  0  0  0  0  0  0  0  0  0  0
   -6.0483  -11.0694   -7.9380 C   0  0  0  0  0  0  0  0  0  0  0  0
   -7.5624  -10.9572   -8.2465 C   0  0  1  0  0  0  0  0  0  0  0  0
   -8.0397  -11.2108   -6.8056 C   0  0  0  0  0  0  0  0  0  0  0  0
   -7.7856   -9.4450   -8.4751 C   0  0  1  0  0  0  0  0  0  0  0  0
   -9.5644   -8.2453  -11.1283 H   0  0  0  0  0  0  0  0  0  0  0  0
   -8.7661   -9.8179  -11.0207 H   0  0  0  0  0  0  0  0  0  0  0  0
   -7.8024   -8.3262  -10.9827 H   0  0  0  0  0  0  0  0  0  0  0  0
   -9.0173   -6.5033   -9.0917 H   0  0  0  0  0  0  0  0  0  0  0  0
   -9.2253   -4.8586   -7.1183 H   0  0  0  0  0  0  0  0  0  0  0  0
   -8.1703   -3.2497   -5.2918 H   0  0  0  0  0  0  0  0  0  0  0  0
   -6.1020   -7.3447   -5.3358 H   0  0  0  0  0  0  0  0  0  0  0  0
   -9.1376   -9.1237   -6.8040 H   0  0  0  0  0  0  0  0  0  0  0  0
   -7.5027   -9.8317   -5.1242 H   0  0  0  0  0  0  0  0  0  0  0  0
   -5.2903   -9.3566   -6.7327 H   0  0  0  0  0  0  0  0  0  0  0  0
   -5.3838  -10.8861   -5.8653 H   0  0  0  0  0  0  0  0  0  0  0  0
   -5.4053  -10.6774   -8.7229 H   0  0  0  0  0  0  0  0  0  0  0  0
   -5.7602  -12.1104   -7.7910 H   0  0  0  0  0  0  0  0  0  0  0  0
   -7.9198  -11.6311   -9.0282 H   0  0  0  0  0  0  0  0  0  0  0  0
   -7.6775  -12.1580   -6.3968 H   0  0  0  0  0  0  0  0  0  0  0  0
   -9.1275  -11.2210   -6.7149 H   0  0  0  0  0  0  0  0  0  0  0  0
   -6.8543   -9.0068   -8.8385 H   0  0  0  0  0  0  0  0  0  0  0  0
   -9.7518   -9.1663   -8.9310 H   0  0  0  0  0  0  0  0  0  0  0  0
  1  2  1  0
  1 17  1  0
  1 18  1  0
  1 19  1  0
  2 16  1  0
  2  3  1  0
  2 34  1  6
  3  4  2  0
  3 20  1  0
  4  5  1  0
  4 10  1  0
  5  9  2  0
  5  6  1  0
  6  7  2  0
  6 21  1  0
  7  8  1  0
  7 22  1  0
  8  9  1  0
  9 23  1  0
 10 16  1  0
 10 11  1  0
 10 24  1  1
 11 15  1  0
 11 12  1  0
 11 25  1  1
 12 13  1  0
 12 26  1  0
 12 27  1  0
 13 14  1  0
 13 28  1  0
 13 29  1  0
 14 15  1  0
 14 16  1  0
 14 30  1  6
 15 31  1  0
 15 32  1  0
 16 33  1  6
M  CHG  1   2   1
M  END
>  <i_m_ct_stereo_status>  (22) 
1

>  <s_m_source_file>  (22) 
/var/tmp/pbs.5076255.sched01/tmpzk3r62u5/0tgg_cfwk.sdf

>  <i_m_source_file_index>  (22) 
9

>  <i_lp_mmshare_version>  (22) 
48012

>  <i_f3d_flags>  (22) 
0

>  <s_epik_input>  (22) 
W0NASF0xMltDQEBIXTNbQ0gyXVtDSDJdW0NAQEhdKFtDSDJdMylbQ0BIXTJOKFtDSDNdKVtDSF09QzFjNFtjSF1bY0hdc1tjSF00

>  <s_epik_cmdline>  (22) 
J2VwaWtfcHl0aG9uJywgJy1waHQnLCAnMi4wJywgJy1waCcsICc3LjAnLCAnLXRuJywgJzgnLCAnLW1hJywgJzIwMCcsICctaW1hZScsICc8aW5maWxlLm1hZT4nLCAnLW9tYWUnLCAnPG91dGZpbGUubWFlPic=

>  <r_epik_Ionization_Penalty>  (22) 
1.45431

>  <r_epik_Ionization_Penalty_Charging>  (22) 
1.45431

>  <r_epik_Ionization_Penalty_Neutral>  (22) 
0

>  <r_epik_State_Penalty>  (22) 
1.54078

>  <r_epik_Charging_Adjusted_Penalty>  (22) 
2.99509

>  <i_epik_Tot_Q>  (22) 
1

>  <i_epik_Tot_abs_Q>  (22) 
1

>  <s_lp_Force_Field>  (22) 
OPLS3e

>  <r_lp_Energy>  (22) 
66.6796

>  <b_lp_Chiralities_Consistent>  (22) 
1

>  <s_lp_Variant>  (22) 
5:0-2

>  <s_i_glide_gridfile>  (22) 
pfpi4k_grid

>  <i_i_glide_lignum>  (22) 
9

>  <i_i_glide_rotatable_bonds>  (22) 
1

>  <r_i_docking_score>  (22) 
-5.85086

>  <r_i_glide_ligand_efficiency>  (22) 
-0.365679

>  <r_i_glide_ligand_efficiency_sa>  (22) 
-0.921453

>  <r_i_glide_ligand_efficiency_ln>  (22) 
-1.55089

>  <r_i_glide_gscore>  (22) 
-5.85086

>  <r_i_glide_lipo>  (22) 
-2.6004

>  <r_i_glide_hbond>  (22) 
0

>  <r_i_glide_metal>  (22) 
-0

>  <r_i_glide_rewards>  (22) 
-2.40741

>  <r_i_glide_evdw>  (22) 
-22.1395

>  <r_i_glide_ecoul>  (22) 
-0.355419

>  <r_i_glide_erotb>  (22) 
0.317233

>  <r_i_glide_esite>  (22) 
0

>  <r_i_glide_emodel>  (22) 
-29.1956

>  <r_i_glide_energy>  (22) 
-22.495

>  <r_i_glide_einternal>  (22) 
0.871165

>  <r_i_glide_intrahb_reward>  (22) 
-0

>  <i_i_glide_confnum>  (22) 
2

>  <i_i_glide_posenum>  (22) 
21

>  <r_i_glide_eff_state_penalty>  (22) 
0

>  <ligand_id>  (22) 
5

>  <original_smiles>  (22) 
CN1C=C(c2ccsc2)C2C3CCC(C3)C21

>  <smiles>  (22) 
[H]C1=C(c2c([H])sc([H])c2[H])C2([H])C3([H])C([H])([H])C([H])([H])C([H])(C3([H])[H])C2([H])[N+]1([H])C([H])([H])[H]

$$$$
5:1:1
     RDKit          3D

 34 37  0  0  1  0  0  0  0  0999 V2000
  -10.9107   -6.2554  -10.3956 C   0  0  0  0  0  0  0  0  0  0  0  0
  -10.4672   -6.8995   -9.1435 N   0  0  2  0  0  0  0  0  0  0  0  0
   -9.6903   -6.0187   -8.1781 C   0  0  0  0  0  0  0  0  0  0  0  0
   -8.7523   -6.7420   -7.5208 C   0  0  0  0  0  0  0  0  0  0  0  0
   -7.7653   -6.2255   -6.5567 C   0  0  0  0  0  0  0  0  0  0  0  0
   -7.7216   -4.8630   -6.1158 C   0  0  0  0  0  0  0  0  0  0  0  0
   -6.7037   -4.6479   -5.2255 C   0  0  0  0  0  0  0  0  0  0  0  0
   -5.8042   -6.1102   -4.9107 S   0  0  0  0  0  0  0  0  0  0  0  0
   -6.8027   -7.0265   -6.0038 C   0  0  0  0  0  0  0  0  0  0  0  0
   -9.0718   -8.1643   -7.9002 C   0  0  2  0  0  0  0  0  0  0  0  0
   -8.3693   -9.5310   -7.8970 C   0  0  2  0  0  0  0  0  0  0  0  0
   -7.3381   -9.7389   -9.0247 C   0  0  0  0  0  0  0  0  0  0  0  0
   -8.2140   -9.8004  -10.3106 C   0  0  0  0  0  0  0  0  0  0  0  0
   -9.6288   -9.4094   -9.8131 C   0  0  1  0  0  0  0  0  0  0  0  0
   -9.5903  -10.2615   -8.5320 C   0  0  0  0  0  0  0  0  0  0  0  0
   -9.4574   -7.9564   -9.3274 C   0  0  1  0  0  0  0  0  0  0  0  0
  -11.6484   -5.4818  -10.1775 H   0  0  0  0  0  0  0  0  0  0  0  0
  -11.3762   -6.9915  -11.0555 H   0  0  0  0  0  0  0  0  0  0  0  0
  -10.0681   -5.8010  -10.9178 H   0  0  0  0  0  0  0  0  0  0  0  0
   -9.8813   -4.9587   -8.1547 H   0  0  0  0  0  0  0  0  0  0  0  0
   -8.4094   -4.0990   -6.4536 H   0  0  0  0  0  0  0  0  0  0  0  0
   -6.4225   -3.7247   -4.7321 H   0  0  0  0  0  0  0  0  0  0  0  0
   -6.6256   -8.0791   -6.1642 H   0  0  0  0  0  0  0  0  0  0  0  0
   -9.9342   -8.3275   -7.2471 H   0  0  0  0  0  0  0  0  0  0  0  0
   -8.0863   -9.9109   -6.9150 H   0  0  0  0  0  0  0  0  0  0  0  0
   -6.5923   -8.9431   -9.0511 H   0  0  0  0  0  0  0  0  0  0  0  0
   -6.8088  -10.6838   -8.8901 H   0  0  0  0  0  0  0  0  0  0  0  0
   -7.8292   -9.1415  -11.0861 H   0  0  0  0  0  0  0  0  0  0  0  0
   -8.2163  -10.8110  -10.7211 H   0  0  0  0  0  0  0  0  0  0  0  0
  -10.4318   -9.5997  -10.5286 H   0  0  0  0  0  0  0  0  0  0  0  0
   -9.4047  -11.3211   -8.7305 H   0  0  0  0  0  0  0  0  0  0  0  0
  -10.5176  -10.2032   -7.9587 H   0  0  0  0  0  0  0  0  0  0  0  0
   -8.6421   -7.4962   -9.8840 H   0  0  0  0  0  0  0  0  0  0  0  0
  -11.2785   -7.2869   -8.6748 H   0  0  0  0  0  0  0  0  0  0  0  0
  1  2  1  0
  1 17  1  0
  1 18  1  0
  1 19  1  0
  2 16  1  0
  2  3  1  0
  2 34  1  1
  3  4  2  0
  3 20  1  0
  4  5  1  0
  4 10  1  0
  5  9  2  0
  5  6  1  0
  6  7  2  0
  6 21  1  0
  7  8  1  0
  7 22  1  0
  8  9  1  0
  9 23  1  0
 10 16  1  0
 10 11  1  0
 10 24  1  1
 11 15  1  0
 11 12  1  0
 11 25  1  1
 12 13  1  0
 12 26  1  0
 12 27  1  0
 13 14  1  0
 13 28  1  0
 13 29  1  0
 14 15  1  0
 14 16  1  0
 14 30  1  6
 15 31  1  0
 15 32  1  0
 16 33  1  6
M  CHG  1   2   1
M  END
>  <i_m_ct_stereo_status>  (23) 
1

>  <s_m_source_file>  (23) 
/var/tmp/pbs.5076255.sched01/tmpzk3r62u5/0tgg_cfwk.sdf

>  <i_m_source_file_index>  (23) 
9

>  <i_lp_mmshare_version>  (23) 
48012

>  <i_f3d_flags>  (23) 
0

>  <s_epik_input>  (23) 
W0NASF0xMltDQEBIXTNbQ0gyXVtDSDJdW0NAQEhdKFtDSDJdMylbQ0BIXTJOKFtDSDNdKVtDSF09QzFjNFtjSF1bY0hdc1tjSF00

>  <s_epik_cmdline>  (23) 
J2VwaWtfcHl0aG9uJywgJy1waHQnLCAnMi4wJywgJy1waCcsICc3LjAnLCAnLXRuJywgJzgnLCAnLW1hJywgJzIwMCcsICctaW1hZScsICc8aW5maWxlLm1hZT4nLCAnLW9tYWUnLCAnPG91dGZpbGUubWFlPic=

>  <r_epik_Ionization_Penalty>  (23) 
1.45431

>  <r_epik_Ionization_Penalty_Charging>  (23) 
1.45431

>  <r_epik_Ionization_Penalty_Neutral>  (23) 
0

>  <r_epik_State_Penalty>  (23) 
1.54078

>  <r_epik_Charging_Adjusted_Penalty>  (23) 
2.99509

>  <i_epik_Tot_Q>  (23) 
1

>  <i_epik_Tot_abs_Q>  (23) 
1

>  <s_lp_Force_Field>  (23) 
OPLS3e

>  <r_lp_Energy>  (23) 
66.6796

>  <b_lp_Chiralities_Consistent>  (23) 
1

>  <s_lp_Variant>  (23) 
5:0-2

>  <s_i_glide_gridfile>  (23) 
pfpi4k_grid

>  <i_i_glide_lignum>  (23) 
9

>  <i_i_glide_rotatable_bonds>  (23) 
1

>  <r_i_docking_score>  (23) 
-5.29517

>  <r_i_glide_ligand_efficiency>  (23) 
-0.330948

>  <r_i_glide_ligand_efficiency_sa>  (23) 
-0.833937

>  <r_i_glide_ligand_efficiency_ln>  (23) 
-1.40359

>  <r_i_glide_gscore>  (23) 
-5.29517

>  <r_i_glide_lipo>  (23) 
-1.98715

>  <r_i_glide_hbond>  (23) 
0

>  <r_i_glide_metal>  (23) 
-0

>  <r_i_glide_rewards>  (23) 
-2.43844

>  <r_i_glide_evdw>  (23) 
-20.2009

>  <r_i_glide_ecoul>  (23) 
-1.05575

>  <r_i_glide_erotb>  (23) 
0.317233

>  <r_i_glide_esite>  (23) 
-0.0184082

>  <r_i_glide_emodel>  (23) 
-27.707

>  <r_i_glide_energy>  (23) 
-21.2566

>  <r_i_glide_einternal>  (23) 
0.00873189

>  <r_i_glide_intrahb_reward>  (23) 
-0

>  <i_i_glide_confnum>  (23) 
2

>  <i_i_glide_posenum>  (23) 
17

>  <r_i_glide_eff_state_penalty>  (23) 
0

>  <ligand_id>  (23) 
5

>  <original_smiles>  (23) 
CN1C=C(c2ccsc2)C2C3CCC(C3)C21

>  <smiles>  (23) 
[H]C1=C(c2c([H])sc([H])c2[H])C2([H])C3([H])C([H])([H])C([H])([H])C([H])(C3([H])[H])C2([H])[N+]1([H])C([H])([H])[H]

$$$$
5:1:2
     RDKit          3D

 34 37  0  0  1  0  0  0  0  0999 V2000
  -10.2215   -8.9886   -9.9348 C   0  0  0  0  0  0  0  0  0  0  0  0
   -9.7040   -9.3977   -8.6091 N   0  0  2  0  0  0  0  0  0  0  0  0
   -8.8270   -8.3878   -7.8906 C   0  0  0  0  0  0  0  0  0  0  0  0
   -7.8743   -9.0177   -7.1560 C   0  0  0  0  0  0  0  0  0  0  0  0
   -6.7978   -8.3771   -6.3811 C   0  0  0  0  0  0  0  0  0  0  0  0
   -6.8037   -6.9942   -6.0216 C   0  0  0  0  0  0  0  0  0  0  0  0
   -5.6786   -6.6462   -5.3162 C   0  0  0  0  0  0  0  0  0  0  0  0
   -4.6005   -8.0048   -5.1172 S   0  0  0  0  0  0  0  0  0  0  0  0
   -5.6829   -9.0588   -5.9871 C   0  0  0  0  0  0  0  0  0  0  0  0
   -8.2745  -10.4646   -7.2226 C   0  0  2  0  0  0  0  0  0  0  0  0
   -7.6187  -11.8398   -7.0121 C   0  0  2  0  0  0  0  0  0  0  0  0
   -6.6841  -12.3131   -8.1490 C   0  0  0  0  0  0  0  0  0  0  0  0
   -7.6570  -12.5827   -9.3371 C   0  0  0  0  0  0  0  0  0  0  0  0
   -9.0112  -12.0298   -8.8264 C   0  0  1  0  0  0  0  0  0  0  0  0
   -8.9063  -12.6179   -7.4072 C   0  0  0  0  0  0  0  0  0  0  0  0
   -8.7546  -10.5204   -8.6422 C   0  0  1  0  0  0  0  0  0  0  0  0
  -10.9096   -8.1496   -9.8223 H   0  0  0  0  0  0  0  0  0  0  0  0
  -10.7640   -9.8137  -10.4003 H   0  0  0  0  0  0  0  0  0  0  0  0
   -9.4070   -8.6848  -10.5930 H   0  0  0  0  0  0  0  0  0  0  0  0
   -8.9701   -7.3366   -8.0774 H   0  0  0  0  0  0  0  0  0  0  0  0
   -7.6025   -6.3113   -6.2709 H   0  0  0  0  0  0  0  0  0  0  0  0
   -5.4215   -5.6791   -4.9115 H   0  0  0  0  0  0  0  0  0  0  0  0
   -5.4304  -10.0964   -6.1491 H   0  0  0  0  0  0  0  0  0  0  0  0
   -9.0855  -10.4442   -6.4822 H   0  0  0  0  0  0  0  0  0  0  0  0
   -7.2661  -12.0355   -5.9978 H   0  0  0  0  0  0  0  0  0  0  0  0
   -5.9155  -11.5752   -8.3834 H   0  0  0  0  0  0  0  0  0  0  0  0
   -6.1798  -13.2389   -7.8669 H   0  0  0  0  0  0  0  0  0  0  0  0
   -7.3084  -12.1191  -10.2606 H   0  0  0  0  0  0  0  0  0  0  0  0
   -7.7297  -13.6534   -9.5326 H   0  0  0  0  0  0  0  0  0  0  0  0
   -9.8756  -12.3125   -9.4299 H   0  0  0  0  0  0  0  0  0  0  0  0
   -8.7752  -13.7032   -7.4052 H   0  0  0  0  0  0  0  0  0  0  0  0
   -9.7872  -12.3976   -6.7968 H   0  0  0  0  0  0  0  0  0  0  0  0
   -7.9667  -10.2187   -9.3360 H   0  0  0  0  0  0  0  0  0  0  0  0
  -10.4875   -9.6525   -8.0189 H   0  0  0  0  0  0  0  0  0  0  0  0
  1  2  1  0
  1 17  1  0
  1 18  1  0
  1 19  1  0
  2 16  1  0
  2  3  1  0
  2 34  1  1
  3  4  2  0
  3 20  1  0
  4  5  1  0
  4 10  1  0
  5  9  2  0
  5  6  1  0
  6  7  2  0
  6 21  1  0
  7  8  1  0
  7 22  1  0
  8  9  1  0
  9 23  1  0
 10 16  1  0
 10 11  1  0
 10 24  1  1
 11 15  1  0
 11 12  1  0
 11 25  1  1
 12 13  1  0
 12 26  1  0
 12 27  1  0
 13 14  1  0
 13 28  1  0
 13 29  1  0
 14 15  1  0
 14 16  1  0
 14 30  1  6
 15 31  1  0
 15 32  1  0
 16 33  1  6
M  CHG  1   2   1
M  END
>  <i_m_ct_stereo_status>  (24) 
1

>  <s_m_source_file>  (24) 
/var/tmp/pbs.5076255.sched01/tmpzk3r62u5/0tgg_cfwk.sdf

>  <i_m_source_file_index>  (24) 
9

>  <i_lp_mmshare_version>  (24) 
48012

>  <i_f3d_flags>  (24) 
0

>  <s_epik_input>  (24) 
W0NASF0xMltDQEBIXTNbQ0gyXVtDSDJdW0NAQEhdKFtDSDJdMylbQ0BIXTJOKFtDSDNdKVtDSF09QzFjNFtjSF1bY0hdc1tjSF00

>  <s_epik_cmdline>  (24) 
J2VwaWtfcHl0aG9uJywgJy1waHQnLCAnMi4wJywgJy1waCcsICc3LjAnLCAnLXRuJywgJzgnLCAnLW1hJywgJzIwMCcsICctaW1hZScsICc8aW5maWxlLm1hZT4nLCAnLW9tYWUnLCAnPG91dGZpbGUubWFlPic=

>  <r_epik_Ionization_Penalty>  (24) 
1.45431

>  <r_epik_Ionization_Penalty_Charging>  (24) 
1.45431

>  <r_epik_Ionization_Penalty_Neutral>  (24) 
0

>  <r_epik_State_Penalty>  (24) 
1.54078

>  <r_epik_Charging_Adjusted_Penalty>  (24) 
2.99509

>  <i_epik_Tot_Q>  (24) 
1

>  <i_epik_Tot_abs_Q>  (24) 
1

>  <s_lp_Force_Field>  (24) 
OPLS3e

>  <r_lp_Energy>  (24) 
66.6796

>  <b_lp_Chiralities_Consistent>  (24) 
1

>  <s_lp_Variant>  (24) 
5:0-2

>  <s_i_glide_gridfile>  (24) 
pfpi4k_grid

>  <i_i_glide_lignum>  (24) 
9

>  <i_i_glide_rotatable_bonds>  (24) 
1

>  <r_i_docking_score>  (24) 
-4.74478

>  <r_i_glide_ligand_efficiency>  (24) 
-0.296549

>  <r_i_glide_ligand_efficiency_sa>  (24) 
-0.747256

>  <r_i_glide_ligand_efficiency_ln>  (24) 
-1.2577

>  <r_i_glide_gscore>  (24) 
-4.74478

>  <r_i_glide_lipo>  (24) 
-1.75959

>  <r_i_glide_hbond>  (24) 
0

>  <r_i_glide_metal>  (24) 
-0

>  <r_i_glide_rewards>  (24) 
-2.14145

>  <r_i_glide_evdw>  (24) 
-20.2802

>  <r_i_glide_ecoul>  (24) 
-0.97978

>  <r_i_glide_erotb>  (24) 
0.317233

>  <r_i_glide_esite>  (24) 
0

>  <r_i_glide_emodel>  (24) 
-26.8612

>  <r_i_glide_energy>  (24) 
-21.2599

>  <r_i_glide_einternal>  (24) 
0.353365

>  <r_i_glide_intrahb_reward>  (24) 
-0

>  <i_i_glide_confnum>  (24) 
2

>  <i_i_glide_posenum>  (24) 
36

>  <r_i_glide_eff_state_penalty>  (24) 
0

>  <ligand_id>  (24) 
5

>  <original_smiles>  (24) 
CN1C=C(c2ccsc2)C2C3CCC(C3)C21

>  <smiles>  (24) 
[H]C1=C(c2c([H])sc([H])c2[H])C2([H])C3([H])C([H])([H])C([H])([H])C([H])(C3([H])[H])C2([H])[N+]1([H])C([H])([H])[H]

$$$$
6:0:0
     RDKit          3D

 22 23  0  0  1  0  0  0  0  0999 V2000
    3.2421    0.0300   -4.1602 C   0  0  0  0  0  0  0  0  0  0  0  0
    4.1444   -1.0610   -3.5751 C   0  0  2  0  0  0  0  0  0  0  0  0
    3.4492   -2.4293   -3.5683 C   0  0  0  0  0  0  0  0  0  0  0  0
    4.2468   -3.4349   -2.9714 O   0  0  0  0  0  0  0  0  0  0  0  0
    4.7501   -3.0965   -1.7521 C   0  0  0  0  0  0  0  0  0  0  0  0
    5.0972   -4.1271   -0.9616 N   0  0  0  0  0  0  0  0  0  0  0  0
    5.5774   -3.8002    0.2399 C   0  0  0  0  0  0  0  0  0  0  0  0
    5.7593   -2.5764    0.7337 N   0  0  0  0  0  0  0  0  0  0  0  0
    5.4223   -1.5502   -0.0660 C   0  0  0  0  0  0  0  0  0  0  0  0
    5.6360   -0.2856    0.4592 N   0  0  0  0  0  0  0  0  0  0  0  0
    4.9206   -1.7557   -1.3705 C   0  0  0  0  0  0  0  0  0  0  0  0
    4.6147   -0.7074   -2.2460 N   0  0  0  0  0  0  0  0  0  0  0  0
    2.9292   -0.2025   -5.1809 H   0  0  0  0  0  0  0  0  0  0  0  0
    3.7352    1.0045   -4.1781 H   0  0  0  0  0  0  0  0  0  0  0  0
    2.3336    0.1363   -3.5661 H   0  0  0  0  0  0  0  0  0  0  0  0
    5.0182   -1.1247   -4.2188 H   0  0  0  0  0  0  0  0  0  0  0  0
    2.4859   -2.3857   -3.0660 H   0  0  0  0  0  0  0  0  0  0  0  0
    3.2650   -2.7452   -4.5898 H   0  0  0  0  0  0  0  0  0  0  0  0
    5.8448   -4.6052    0.9111 H   0  0  0  0  0  0  0  0  0  0  0  0
    5.4125    0.5581   -0.0657 H   0  0  0  0  0  0  0  0  0  0  0  0
    4.6183    0.2474   -1.9339 H   0  0  0  0  0  0  0  0  0  0  0  0
    6.0327   -0.1675    1.3847 H   0  0  0  0  0  0  0  0  0  0  0  0
  1  2  1  0
  1 13  1  0
  1 14  1  0
  1 15  1  0
  2  3  1  0
  2 16  1  6
  2 12  1  0
  3 17  1  0
  3 18  1  0
  3  4  1  0
  4  5  1  0
  5 11  2  0
  5  6  1  0
  6  7  2  0
  7 19  1  0
  7  8  1  0
  8  9  2  0
  9 10  1  0
  9 11  1  0
 10 20  1  0
 10 22  1  0
 11 12  1  0
 12 21  1  0
M  END
>  <i_m_ct_stereo_status>  (25) 
1

>  <s_m_source_file>  (25) 
/var/tmp/pbs.5076255.sched01/tmpzk3r62u5/0tgg_cfwk.sdf

>  <i_m_source_file_index>  (25) 
10

>  <i_lp_mmshare_version>  (25) 
48012

>  <i_f3d_flags>  (25) 
0

>  <s_epik_input>  (25) 
TzFbQ0gyXVtDQEBIXShbQ0gzXSlbTkhdYyhjMTIpYyg9Ti9bSF0pXFtuSF1bY0hdbjI=

>  <s_epik_cmdline>  (25) 
J2VwaWtfcHl0aG9uJywgJy1waHQnLCAnMi4wJywgJy1waCcsICc3LjAnLCAnLXRuJywgJzgnLCAnLW1hJywgJzIwMCcsICctaW1hZScsICc8aW5maWxlLm1hZT4nLCAnLW9tYWUnLCAnPG91dGZpbGUubWFlPic=

>  <r_lp_tautomer_probability>  (25) 
9.26703e-05

>  <r_epik_Ionization_Penalty>  (25) 
0.00965004

>  <r_epik_Ionization_Penalty_Charging>  (25) 
0

>  <r_epik_Ionization_Penalty_Neutral>  (25) 
0.00965004

>  <r_epik_State_Penalty>  (25) 
0.00514853

>  <r_epik_Charging_Adjusted_Penalty>  (25) 
0.00514853

>  <i_epik_Tot_Q>  (25) 
0

>  <i_epik_Tot_abs_Q>  (25) 
0

>  <s_lp_Force_Field>  (25) 
OPLS3e

>  <r_lp_Energy>  (25) 
20.5954

>  <b_lp_Chiralities_Consistent>  (25) 
1

>  <s_lp_Variant>  (25) 
6:0-1

>  <s_i_glide_gridfile>  (25) 
pfpi4k_grid

>  <i_i_glide_lignum>  (25) 
10

>  <i_i_glide_rotatable_bonds>  (25) 
0

>  <r_i_docking_score>  (25) 
-4.81978

>  <r_i_glide_ligand_efficiency>  (25) 
-0.401648

>  <r_i_glide_ligand_efficiency_sa>  (25) 
-0.919545

>  <r_i_glide_ligand_efficiency_ln>  (25) 
-1.38304

>  <r_i_glide_gscore>  (25) 
-4.81978

>  <r_i_glide_lipo>  (25) 
-0.586429

>  <r_i_glide_hbond>  (25) 
-0.556831

>  <r_i_glide_metal>  (25) 
-0

>  <r_i_glide_rewards>  (25) 
-2.33283

>  <r_i_glide_evdw>  (25) 
-20.1666

>  <r_i_glide_ecoul>  (25) 
-2.0841

>  <r_i_glide_erotb>  (25) 
0

>  <r_i_glide_esite>  (25) 
-0.0227458

>  <r_i_glide_emodel>  (25) 
-28.5963

>  <r_i_glide_energy>  (25) 
-22.2507

>  <r_i_glide_einternal>  (25) 
0

>  <r_i_glide_intrahb_reward>  (25) 
-0

>  <i_i_glide_confnum>  (25) 
2

>  <i_i_glide_posenum>  (25) 
19

>  <r_i_glide_eff_state_penalty>  (25) 
0

>  <ligand_id>  (25) 
6

>  <original_smiles>  (25) 
CC1COc2nc[nH]c(=N)c2N1

>  <smiles>  (25) 
[H]c1nc2c(c(N([H])[H])n1)N([H])C([H])(C([H])([H])[H])C([H])([H])O2

$$$$
6:0:1
     RDKit          3D

 22 23  0  0  1  0  0  0  0  0999 V2000
    3.7155   -0.0725   -4.3416 C   0  0  0  0  0  0  0  0  0  0  0  0
    4.0636   -1.2228   -3.3774 C   0  0  2  0  0  0  0  0  0  0  0  0
    2.9805   -2.3196   -3.4206 C   0  0  0  0  0  0  0  0  0  0  0  0
    3.1930   -3.3462   -2.4671 O   0  0  0  0  0  0  0  0  0  0  0  0
    3.4417   -2.8988   -1.1989 C   0  0  0  0  0  0  0  0  0  0  0  0
    3.2041   -3.7751   -0.2034 N   0  0  0  0  0  0  0  0  0  0  0  0
    3.4445   -3.3377    1.0325 C   0  0  0  0  0  0  0  0  0  0  0  0
    3.8867   -2.1339    1.3905 N   0  0  0  0  0  0  0  0  0  0  0  0
    4.1387   -1.2656    0.3975 C   0  0  0  0  0  0  0  0  0  0  0  0
    4.6316   -0.0306    0.7954 N   0  0  0  0  0  0  0  0  0  0  0  0
    3.9540   -1.6033   -0.9615 C   0  0  0  0  0  0  0  0  0  0  0  0
    4.2546   -0.7312   -2.0197 N   0  0  0  0  0  0  0  0  0  0  0  0
    3.6340   -0.4284   -5.3710 H   0  0  0  0  0  0  0  0  0  0  0  0
    4.4673    0.7160   -4.3377 H   0  0  0  0  0  0  0  0  0  0  0  0
    2.7622    0.3994   -4.0867 H   0  0  0  0  0  0  0  0  0  0  0  0
    5.0137   -1.6588   -3.6868 H   0  0  0  0  0  0  0  0  0  0  0  0
    1.9900   -1.8955   -3.2540 H   0  0  0  0  0  0  0  0  0  0  0  0
    2.9666   -2.7779   -4.4069 H   0  0  0  0  0  0  0  0  0  0  0  0
    3.2549   -4.0168    1.8489 H   0  0  0  0  0  0  0  0  0  0  0  0
    4.8267    0.7055    0.1225 H   0  0  0  0  0  0  0  0  0  0  0  0
    4.4900    0.2358   -1.8454 H   0  0  0  0  0  0  0  0  0  0  0  0
    4.7047    0.2002    1.7741 H   0  0  0  0  0  0  0  0  0  0  0  0
  1  2  1  0
  1 13  1  0
  1 14  1  0
  1 15  1  0
  2  3  1  0
  2 16  1  6
  2 12  1  0
  3 17  1  0
  3 18  1  0
  3  4  1  0
  4  5  1  0
  5 11  2  0
  5  6  1  0
  6  7  2  0
  7 19  1  0
  7  8  1  0
  8  9  2  0
  9 10  1  0
  9 11  1  0
 10 20  1  0
 10 22  1  0
 11 12  1  0
 12 21  1  0
M  END
>  <i_m_ct_stereo_status>  (26) 
1

>  <s_m_source_file>  (26) 
/var/tmp/pbs.5076255.sched01/tmpzk3r62u5/0tgg_cfwk.sdf

>  <i_m_source_file_index>  (26) 
10

>  <i_lp_mmshare_version>  (26) 
48012

>  <i_f3d_flags>  (26) 
0

>  <s_epik_input>  (26) 
TzFbQ0gyXVtDQEBIXShbQ0gzXSlbTkhdYyhjMTIpYyg9Ti9bSF0pXFtuSF1bY0hdbjI=

>  <s_epik_cmdline>  (26) 
J2VwaWtfcHl0aG9uJywgJy1waHQnLCAnMi4wJywgJy1waCcsICc3LjAnLCAnLXRuJywgJzgnLCAnLW1hJywgJzIwMCcsICctaW1hZScsICc8aW5maWxlLm1hZT4nLCAnLW9tYWUnLCAnPG91dGZpbGUubWFlPic=

>  <r_lp_tautomer_probability>  (26) 
9.26703e-05

>  <r_epik_Ionization_Penalty>  (26) 
0.00965004

>  <r_epik_Ionization_Penalty_Charging>  (26) 
0

>  <r_epik_Ionization_Penalty_Neutral>  (26) 
0.00965004

>  <r_epik_State_Penalty>  (26) 
0.00514853

>  <r_epik_Charging_Adjusted_Penalty>  (26) 
0.00514853

>  <i_epik_Tot_Q>  (26) 
0

>  <i_epik_Tot_abs_Q>  (26) 
0

>  <s_lp_Force_Field>  (26) 
OPLS3e

>  <r_lp_Energy>  (26) 
20.5954

>  <b_lp_Chiralities_Consistent>  (26) 
1

>  <s_lp_Variant>  (26) 
6:0-1

>  <s_i_glide_gridfile>  (26) 
pfpi4k_grid

>  <i_i_glide_lignum>  (26) 
10

>  <i_i_glide_rotatable_bonds>  (26) 
0

>  <r_i_docking_score>  (26) 
-4.45738

>  <r_i_glide_ligand_efficiency>  (26) 
-0.371448

>  <r_i_glide_ligand_efficiency_sa>  (26) 
-0.850404

>  <r_i_glide_ligand_efficiency_ln>  (26) 
-1.27905

>  <r_i_glide_gscore>  (26) 
-4.45738

>  <r_i_glide_lipo>  (26) 
-0.566078

>  <r_i_glide_hbond>  (26) 
-0.526612

>  <r_i_glide_metal>  (26) 
-0

>  <r_i_glide_rewards>  (26) 
-2.25

>  <r_i_glide_evdw>  (26) 
-18.6963

>  <r_i_glide_ecoul>  (26) 
-1.07873

>  <r_i_glide_erotb>  (26) 
0

>  <r_i_glide_esite>  (26) 
-0.0180652

>  <r_i_glide_emodel>  (26) 
-25.6307

>  <r_i_glide_energy>  (26) 
-19.775

>  <r_i_glide_einternal>  (26) 
0

>  <r_i_glide_intrahb_reward>  (26) 
-0

>  <i_i_glide_confnum>  (26) 
1

>  <i_i_glide_posenum>  (26) 
9

>  <r_i_glide_eff_state_penalty>  (26) 
0

>  <ligand_id>  (26) 
6

>  <original_smiles>  (26) 
CC1COc2nc[nH]c(=N)c2N1

>  <smiles>  (26) 
[H]c1nc2c(c(N([H])[H])n1)N([H])C([H])(C([H])([H])[H])C([H])([H])O2

$$$$
6:0:2
     RDKit          3D

 22 23  0  0  1  0  0  0  0  0999 V2000
   -2.8955    3.3460    3.0741 C   0  0  0  0  0  0  0  0  0  0  0  0
   -1.6755    2.7890    3.8253 C   0  0  2  0  0  0  0  0  0  0  0  0
   -1.8004    3.0706    5.3416 C   0  0  0  0  0  0  0  0  0  0  0  0
   -0.6615    2.6560    6.0758 O   0  0  0  0  0  0  0  0  0  0  0  0
    0.5238    3.0591    5.5343 C   0  0  0  0  0  0  0  0  0  0  0  0
    1.5615    3.0810    6.3924 N   0  0  0  0  0  0  0  0  0  0  0  0
    2.7165    3.5073    5.8768 C   0  0  0  0  0  0  0  0  0  0  0  0
    2.9669    3.8975    4.6252 N   0  0  0  0  0  0  0  0  0  0  0  0
    1.9328    3.8426    3.7684 C   0  0  0  0  0  0  0  0  0  0  0  0
    2.2181    4.2281    2.4608 N   0  0  0  0  0  0  0  0  0  0  0  0
    0.6490    3.4261    4.1784 C   0  0  0  0  0  0  0  0  0  0  0  0
   -0.4513    3.3809    3.3038 N   0  0  0  0  0  0  0  0  0  0  0  0
   -3.8274    2.9112    3.4378 H   0  0  0  0  0  0  0  0  0  0  0  0
   -2.8350    3.1211    2.0128 H   0  0  0  0  0  0  0  0  0  0  0  0
   -2.9691    4.4305    3.1807 H   0  0  0  0  0  0  0  0  0  0  0  0
   -1.6363    1.7054    3.6695 H   0  0  0  0  0  0  0  0  0  0  0  0
   -1.9656    4.1328    5.5341 H   0  0  0  0  0  0  0  0  0  0  0  0
   -2.6452    2.5232    5.7545 H   0  0  0  0  0  0  0  0  0  0  0  0
    3.5583    3.5640    6.5494 H   0  0  0  0  0  0  0  0  0  0  0  0
    1.4830    4.2495    1.7464 H   0  0  0  0  0  0  0  0  0  0  0  0
   -0.3371    3.6578    2.3244 H   0  0  0  0  0  0  0  0  0  0  0  0
    3.1427    4.5438    2.1776 H   0  0  0  0  0  0  0  0  0  0  0  0
  1  2  1  0
  1 13  1  0
  1 14  1  0
  1 15  1  0
  2  3  1  0
  2 16  1  1
  2 12  1  0
  3 17  1  0
  3 18  1  0
  3  4  1  0
  4  5  1  0
  5 11  2  0
  5  6  1  0
  6  7  2  0
  7 19  1  0
  7  8  1  0
  8  9  2  0
  9 10  1  0
  9 11  1  0
 10 20  1  0
 10 22  1  0
 11 12  1  0
 12 21  1  0
M  END
>  <i_m_ct_stereo_status>  (27) 
1

>  <s_m_source_file>  (27) 
/var/tmp/pbs.5076255.sched01/tmpzk3r62u5/0tgg_cfwk.sdf

>  <i_m_source_file_index>  (27) 
10

>  <i_lp_mmshare_version>  (27) 
48012

>  <i_f3d_flags>  (27) 
0

>  <s_epik_input>  (27) 
TzFbQ0gyXVtDQEBIXShbQ0gzXSlbTkhdYyhjMTIpYyg9Ti9bSF0pXFtuSF1bY0hdbjI=

>  <s_epik_cmdline>  (27) 
J2VwaWtfcHl0aG9uJywgJy1waHQnLCAnMi4wJywgJy1waCcsICc3LjAnLCAnLXRuJywgJzgnLCAnLW1hJywgJzIwMCcsICctaW1hZScsICc8aW5maWxlLm1hZT4nLCAnLW9tYWUnLCAnPG91dGZpbGUubWFlPic=

>  <r_lp_tautomer_probability>  (27) 
9.26703e-05

>  <r_epik_Ionization_Penalty>  (27) 
0.00965004

>  <r_epik_Ionization_Penalty_Charging>  (27) 
0

>  <r_epik_Ionization_Penalty_Neutral>  (27) 
0.00965004

>  <r_epik_State_Penalty>  (27) 
0.00514853

>  <r_epik_Charging_Adjusted_Penalty>  (27) 
0.00514853

>  <i_epik_Tot_Q>  (27) 
0

>  <i_epik_Tot_abs_Q>  (27) 
0

>  <s_lp_Force_Field>  (27) 
OPLS3e

>  <r_lp_Energy>  (27) 
20.5954

>  <b_lp_Chiralities_Consistent>  (27) 
1

>  <s_lp_Variant>  (27) 
6:0-1

>  <s_i_glide_gridfile>  (27) 
pfpi4k_grid

>  <i_i_glide_lignum>  (27) 
10

>  <i_i_glide_rotatable_bonds>  (27) 
0

>  <r_i_docking_score>  (27) 
-4.27724

>  <r_i_glide_ligand_efficiency>  (27) 
-0.356437

>  <r_i_glide_ligand_efficiency_sa>  (27) 
-0.816037

>  <r_i_glide_ligand_efficiency_ln>  (27) 
-1.22736

>  <r_i_glide_gscore>  (27) 
-4.27724

>  <r_i_glide_lipo>  (27) 
0

>  <r_i_glide_hbond>  (27) 
-0.304

>  <r_i_glide_metal>  (27) 
-0

>  <r_i_glide_rewards>  (27) 
-2.25

>  <r_i_glide_evdw>  (27) 
-11.563

>  <r_i_glide_ecoul>  (27) 
-6.31502

>  <r_i_glide_erotb>  (27) 
0

>  <r_i_glide_esite>  (27) 
-0.197839

>  <r_i_glide_emodel>  (27) 
-23.5124

>  <r_i_glide_energy>  (27) 
-17.878

>  <r_i_glide_einternal>  (27) 
0

>  <r_i_glide_intrahb_reward>  (27) 
-0

>  <i_i_glide_confnum>  (27) 
2

>  <i_i_glide_posenum>  (27) 
15

>  <r_i_glide_eff_state_penalty>  (27) 
0

>  <ligand_id>  (27) 
6

>  <original_smiles>  (27) 
CC1COc2nc[nH]c(=N)c2N1

>  <smiles>  (27) 
[H]c1nc2c(c(N([H])[H])n1)N([H])C([H])(C([H])([H])[H])C([H])([H])O2

$$$$
7:1:0
     RDKit          3D

 52 56  0  0  1  0  0  0  0  0999 V2000
    4.5137   -3.5487    5.0007 C   0  0  0  0  0  0  0  0  0  0  0  0
    5.4075   -3.6544    3.7829 C   0  0  0  0  0  0  0  0  0  0  0  0
    5.4205   -3.0421    2.5687 C   0  0  0  0  0  0  0  0  0  0  0  0
    6.4744   -3.5521    1.5854 C   0  0  2  0  0  0  0  0  0  0  0  0
    7.1999   -2.4296    0.8230 C   0  0  0  0  0  0  0  0  0  0  0  0
    6.4151   -2.2834   -0.4840 C   0  0  0  0  0  0  0  0  0  0  0  0
    5.1418   -3.1582   -0.3165 C   0  0  2  0  0  0  0  0  0  0  0  0
    5.7469   -4.3152    0.4884 C   0  0  0  0  0  0  0  0  0  0  0  0
    4.6115   -3.6323   -1.6861 C   0  0  0  0  0  0  0  0  0  0  0  0
    4.1431   -2.5011   -2.5243 N   0  0  1  0  0  0  0  0  0  0  0  0
    3.6966   -2.9407   -3.8654 C   0  0  0  0  0  0  0  0  0  0  0  0
    3.1001   -1.7149   -1.8431 C   0  0  0  0  0  0  0  0  0  0  0  0
    3.5295   -1.2563   -0.4361 C   0  0  0  0  0  0  0  0  0  0  0  0
    4.0075   -2.4195    0.5009 C   0  0  1  0  0  0  0  0  0  0  0  0
    2.7752   -3.2879    0.8977 C   0  0  0  0  0  0  0  0  0  0  0  0
    2.1540   -2.6704    2.1722 C   0  0  0  0  0  0  0  0  0  0  0  0
    3.1439   -1.5845    2.6158 C   0  0  0  0  0  0  0  0  0  0  0  0
    3.2086   -1.4522    3.9834 O   0  0  0  0  0  0  0  0  0  0  0  0
    3.7203   -0.1614    4.2151 C   0  0  0  0  0  0  0  0  0  0  0  0
    3.0917    0.6317    3.0758 C   0  0  0  0  0  0  0  0  0  0  0  0
    2.7007   -0.3571    2.1487 O   0  0  0  0  0  0  0  0  0  0  0  0
    4.4909   -1.9536    1.9262 C   0  0  1  0  0  0  0  0  0  0  0  0
    4.7437   -4.3555    5.6968 H   0  0  0  0  0  0  0  0  0  0  0  0
    3.4624   -3.6679    4.7460 H   0  0  0  0  0  0  0  0  0  0  0  0
    4.6759   -2.6139    5.5360 H   0  0  0  0  0  0  0  0  0  0  0  0
    6.1781   -4.3917    3.9606 H   0  0  0  0  0  0  0  0  0  0  0  0
    7.1916   -4.2105    2.0753 H   0  0  0  0  0  0  0  0  0  0  0  0
    7.2372   -1.4921    1.3790 H   0  0  0  0  0  0  0  0  0  0  0  0
    8.2295   -2.7161    0.6088 H   0  0  0  0  0  0  0  0  0  0  0  0
    6.2257   -1.2393   -0.7190 H   0  0  0  0  0  0  0  0  0  0  0  0
    7.0299   -2.6801   -1.2936 H   0  0  0  0  0  0  0  0  0  0  0  0
    6.4649   -4.8791   -0.1087 H   0  0  0  0  0  0  0  0  0  0  0  0
    5.0337   -5.0373    0.8792 H   0  0  0  0  0  0  0  0  0  0  0  0
    5.3863   -4.1775   -2.2288 H   0  0  0  0  0  0  0  0  0  0  0  0
    3.7891   -4.3251   -1.5107 H   0  0  0  0  0  0  0  0  0  0  0  0
    2.8469   -3.6262   -3.8034 H   0  0  0  0  0  0  0  0  0  0  0  0
    4.5077   -3.4513   -4.3854 H   0  0  0  0  0  0  0  0  0  0  0  0
    3.3901   -2.0844   -4.4699 H   0  0  0  0  0  0  0  0  0  0  0  0
    2.8290   -0.8411   -2.4398 H   0  0  0  0  0  0  0  0  0  0  0  0
    2.2114   -2.3388   -1.7911 H   0  0  0  0  0  0  0  0  0  0  0  0
    4.2841   -0.4766   -0.5179 H   0  0  0  0  0  0  0  0  0  0  0  0
    2.6512   -0.7522   -0.0472 H   0  0  0  0  0  0  0  0  0  0  0  0
    2.0394   -3.3772    0.1033 H   0  0  0  0  0  0  0  0  0  0  0  0
    3.0656   -4.3084    1.1398 H   0  0  0  0  0  0  0  0  0  0  0  0
    1.1716   -2.2266    2.0104 H   0  0  0  0  0  0  0  0  0  0  0  0
    2.0570   -3.4323    2.9421 H   0  0  0  0  0  0  0  0  0  0  0  0
    3.4602    0.2245    5.2013 H   0  0  0  0  0  0  0  0  0  0  0  0
    4.8070   -0.1903    4.1264 H   0  0  0  0  0  0  0  0  0  0  0  0
    2.2093    1.1845    3.3971 H   0  0  0  0  0  0  0  0  0  0  0  0
    3.7951    1.3330    2.6332 H   0  0  0  0  0  0  0  0  0  0  0  0
    5.0857   -1.0438    1.8445 H   0  0  0  0  0  0  0  0  0  0  0  0
    4.9269   -1.8765   -2.6516 H   0  0  0  0  0  0  0  0  0  0  0  0
  1  2  1  0
  1 23  1  0
  1 24  1  0
  1 25  1  0
  2  3  2  3
  2 26  1  0
  3 22  1  0
  3  4  1  0
  4  8  1  0
  4  5  1  0
  4 27  1  1
  5  6  1  0
  5 28  1  0
  5 29  1  0
  7  6  1  6
  6 30  1  0
  6 31  1  0
  7 14  1  0
  7  8  1  0
  7  9  1  0
  8 32  1  0
  8 33  1  0
  9 10  1  0
  9 34  1  0
  9 35  1  0
 10 11  1  0
 10 12  1  0
 10 52  1  6
 11 36  1  0
 11 37  1  0
 11 38  1  0
 12 13  1  0
 12 39  1  0
 12 40  1  0
 14 13  1  6
 13 41  1  0
 13 42  1  0
 14 22  1  0
 14 15  1  0
 15 16  1  0
 15 43  1  0
 15 44  1  0
 16 17  1  0
 16 45  1  0
 16 46  1  0
 17 21  1  0
 17 18  1  0
 17 22  1  0
 18 19  1  0
 19 20  1  0
 19 47  1  0
 19 48  1  0
 20 21  1  0
 20 49  1  0
 20 50  1  0
 22 51  1  6
M  CHG  1  10   1
M  END
>  <i_m_ct_stereo_status>  (28) 
1

>  <s_m_source_file>  (28) 
/var/tmp/pbs.5076255.sched01/tmpzk3r62u5/0tgg_cfwk.sdf

>  <i_m_source_file_index>  (28) 
12

>  <i_lp_mmshare_version>  (28) 
48012

>  <i_f3d_flags>  (28) 
0

>  <s_epik_input>  (28) 
TzFbQ0gyXVtDSDJdT0MxKFtDSDJdW0NIMl0yKVtDQEBIXShDKD1bQ0hdXFtDSDNdKVxbQ0BASF0oW0NIMl0zKVtDSDJdW0NIMl00KVtDQF0yKFtDQF0zNDUpW0NIMl1bQ0gyXU4oW0NIMl01KVtDSDNd

>  <s_epik_cmdline>  (28) 
J2VwaWtfcHl0aG9uJywgJy1waHQnLCAnMi4wJywgJy1waCcsICc3LjAnLCAnLXRuJywgJzgnLCAnLW1hJywgJzIwMCcsICctaW1hZScsICc8aW5maWxlLm1hZT4nLCAnLW9tYWUnLCAnPG91dGZpbGUubWFlPic=

>  <r_epik_Ionization_Penalty>  (28) 
0.00172829

>  <r_epik_Ionization_Penalty_Charging>  (28) 
0.00172829

>  <r_epik_Ionization_Penalty_Neutral>  (28) 
1.46424e-13

>  <r_epik_State_Penalty>  (28) 
0.00116899

>  <r_epik_Charging_Adjusted_Penalty>  (28) 
0.00289728

>  <i_epik_Tot_Q>  (28) 
1

>  <i_epik_Tot_abs_Q>  (28) 
1

>  <s_lp_Force_Field>  (28) 
OPLS3e

>  <r_lp_Energy>  (28) 
50.536

>  <b_lp_Chiralities_Consistent>  (28) 
1

>  <s_lp_Variant>  (28) 
7:0-2

>  <s_i_glide_gridfile>  (28) 
pfpi4k_grid

>  <i_i_glide_lignum>  (28) 
12

>  <i_i_glide_rotatable_bonds>  (28) 
0

>  <r_i_docking_score>  (28) 
-2.96935

>  <r_i_glide_ligand_efficiency>  (28) 
-0.13497

>  <r_i_glide_ligand_efficiency_sa>  (28) 
-0.378192

>  <r_i_glide_ligand_efficiency_ln>  (28) 
-0.725817

>  <r_i_glide_gscore>  (28) 
-2.96935

>  <r_i_glide_lipo>  (28) 
-0.470963

>  <r_i_glide_hbond>  (28) 
0

>  <r_i_glide_metal>  (28) 
-0

>  <r_i_glide_rewards>  (28) 
-1.33332

>  <r_i_glide_evdw>  (28) 
-16.1618

>  <r_i_glide_ecoul>  (28) 
-2.36503

>  <r_i_glide_erotb>  (28) 
0

>  <r_i_glide_esite>  (28) 
-0.00222905

>  <r_i_glide_emodel>  (28) 
-21.9061

>  <r_i_glide_energy>  (28) 
-18.5268

>  <r_i_glide_einternal>  (28) 
0

>  <r_i_glide_intrahb_reward>  (28) 
-0

>  <i_i_glide_confnum>  (28) 
4

>  <i_i_glide_posenum>  (28) 
1

>  <r_i_glide_eff_state_penalty>  (28) 
0

>  <ligand_id>  (28) 
7

>  <original_smiles>  (28) 
CC=C1C2CCC3(C2)CN(C)CCC32CCC3(OCCO3)C12

>  <smiles>  (28) 
[H]C(=C1C2([H])C([H])([H])C([H])([H])C3(C2([H])[H])C2(C([H])([H])C([H])([H])C4(OC([H])([H])C([H])([H])O4)C12[H])C([H])([H])C([H])([H])[N+]([H])(C([H])([H])[H])C3([H])[H])C([H])([H])[H]

$$$$
8:0:0
     RDKit          3D

 43 47  0  0  1  0  0  0  0  0999 V2000
    8.4006   -2.8340   -1.1121 C   0  0  0  0  0  0  0  0  0  0  0  0
    7.4519   -2.7652   -0.0484 O   0  0  0  0  0  0  0  0  0  0  0  0
    6.1684   -2.4595   -0.4051 C   0  0  0  0  0  0  0  0  0  0  0  0
    5.2737   -1.9762    0.4774 C   0  0  0  0  0  0  0  0  0  0  0  0
    5.3948   -2.5173    1.8960 C   0  0  0  0  0  0  0  0  0  0  0  0
    4.6997   -3.9225    1.9684 C   0  0  1  0  0  0  0  0  0  0  0  0
    3.2153   -3.7258    1.6221 C   0  0  2  0  0  0  0  0  0  0  0  0
    2.4102   -5.0067    1.9035 C   0  0  0  0  0  0  0  0  0  0  0  0
    1.4551   -5.0255    2.6771 O   0  0  0  0  0  0  0  0  0  0  0  0
    2.8583   -6.2582    1.1658 C   0  0  0  0  0  0  0  0  0  0  0  0
    4.3927   -6.3265    1.1168 C   0  0  0  0  0  0  0  0  0  0  0  0
    5.0818   -4.9523    0.8370 C   0  0  2  0  0  0  0  0  0  0  0  0
    6.4841   -5.1962    0.6845 O   0  0  0  0  0  0  0  0  0  0  0  0
    7.1991   -5.7027    1.8089 C   0  0  0  0  0  0  0  0  0  0  0  0
    4.4698   -4.3129   -0.4634 C   0  0  2  0  0  0  0  0  0  0  0  0
    5.4800   -3.4635   -1.3370 C   0  0  1  0  0  0  0  0  0  0  0  0
    4.6965   -2.6158   -2.3512 C   0  0  0  0  0  0  0  0  0  0  0  0
    3.8029   -1.6219   -1.5805 C   0  0  0  0  0  0  0  0  0  0  0  0
    3.8205   -1.9470   -0.0585 C   0  0  2  0  0  0  0  0  0  0  0  0
    3.0142   -0.9801    0.5855 O   0  0  0  0  0  0  0  0  0  0  0  0
    3.3177   -3.4012    0.1108 C   0  0  2  0  0  0  0  0  0  0  0  0
    9.3783   -3.0777   -0.6965 H   0  0  0  0  0  0  0  0  0  0  0  0
    8.4904   -1.8668   -1.5991 H   0  0  0  0  0  0  0  0  0  0  0  0
    8.1873   -3.5766   -1.8743 H   0  0  0  0  0  0  0  0  0  0  0  0
    6.4402   -2.5823    2.1881 H   0  0  0  0  0  0  0  0  0  0  0  0
    4.9000   -1.8232    2.5774 H   0  0  0  0  0  0  0  0  0  0  0  0
    4.8223   -4.3490    2.9674 H   0  0  0  0  0  0  0  0  0  0  0  0
    2.7731   -2.9114    2.1885 H   0  0  0  0  0  0  0  0  0  0  0  0
    2.4525   -7.1469    1.6520 H   0  0  0  0  0  0  0  0  0  0  0  0
    2.4454   -6.2245    0.1571 H   0  0  0  0  0  0  0  0  0  0  0  0
    4.7164   -6.7331    2.0778 H   0  0  0  0  0  0  0  0  0  0  0  0
    4.6880   -7.0454    0.3517 H   0  0  0  0  0  0  0  0  0  0  0  0
    8.2573   -5.7693    1.5540 H   0  0  0  0  0  0  0  0  0  0  0  0
    6.8904   -6.7094    2.0886 H   0  0  0  0  0  0  0  0  0  0  0  0
    7.1076   -5.0532    2.6763 H   0  0  0  0  0  0  0  0  0  0  0  0
    4.0717   -5.0793   -1.1142 H   0  0  0  0  0  0  0  0  0  0  0  0
    6.1419   -4.1487   -1.8494 H   0  0  0  0  0  0  0  0  0  0  0  0
    5.3925   -2.0577   -2.9786 H   0  0  0  0  0  0  0  0  0  0  0  0
    4.1134   -3.2514   -3.0204 H   0  0  0  0  0  0  0  0  0  0  0  0
    4.1649   -0.6035   -1.7379 H   0  0  0  0  0  0  0  0  0  0  0  0
    2.7842   -1.6586   -1.9774 H   0  0  0  0  0  0  0  0  0  0  0  0
    2.1608   -0.9858    0.1567 H   0  0  0  0  0  0  0  0  0  0  0  0
    2.3686   -3.5532   -0.4135 H   0  0  0  0  0  0  0  0  0  0  0  0
  1  2  1  0
  1 22  1  0
  1 23  1  0
  1 24  1  0
  2  3  1  0
  3 16  1  0
  3  4  2  0
  4 19  1  0
  4  5  1  0
  5  6  1  0
  5 25  1  0
  5 26  1  0
  6 12  1  0
  6  7  1  0
  6 27  1  1
  7 21  1  0
  7  8  1  0
  7 28  1  1
  8  9  2  0
  8 10  1  0
 10 11  1  0
 10 29  1  0
 10 30  1  0
 11 12  1  0
 11 31  1  0
 11 32  1  0
 12 13  1  6
 12 15  1  0
 13 14  1  0
 14 33  1  0
 14 34  1  0
 14 35  1  0
 15 21  1  0
 15 16  1  0
 15 36  1  6
 16 17  1  0
 16 37  1  6
 17 18  1  0
 17 38  1  0
 17 39  1  0
 18 19  1  0
 18 40  1  0
 18 41  1  0
 19 20  1  1
 19 21  1  0
 20 42  1  0
 21 43  1  6
M  END
>  <i_m_ct_stereo_status>  (29) 
1

>  <s_m_source_file>  (29) 
/var/tmp/pbs.5076255.sched01/tmpzk3r62u5/0tgg_cfwk.sdf

>  <i_m_source_file_index>  (29) 
13

>  <i_lp_mmshare_version>  (29) 
48012

>  <i_f3d_flags>  (29) 
0

>  <s_epik_input>  (29) 
W0NIMl0xW0NIMl1bQ0BdMihbT0hdKUMoW0NIMl0zKT1DKE9bQ0gzXSlbQ0BIXTFbQ0BASF00W0NASF0yW0NAQEhdKEMoPU8pW0NIMl1bQ0gyXTUpW0NIXTNbQ0BdNDVPW0NIM10=

>  <s_epik_cmdline>  (29) 
J2VwaWtfcHl0aG9uJywgJy1waHQnLCAnMi4wJywgJy1waCcsICc3LjAnLCAnLXRuJywgJzgnLCAnLW1hJywgJzIwMCcsICctaW1hZScsICc8aW5maWxlLm1hZT4nLCAnLW9tYWUnLCAnPG91dGZpbGUubWFlPic=

>  <r_lp_tautomer_probability>  (29) 
1

>  <r_epik_Ionization_Penalty>  (29) 
6.02377e-08

>  <r_epik_Ionization_Penalty_Charging>  (29) 
0

>  <r_epik_Ionization_Penalty_Neutral>  (29) 
6.02377e-08

>  <r_epik_State_Penalty>  (29) 
-0

>  <r_epik_Charging_Adjusted_Penalty>  (29) 
0

>  <i_epik_Tot_Q>  (29) 
0

>  <i_epik_Tot_abs_Q>  (29) 
0

>  <s_lp_Force_Field>  (29) 
OPLS3e

>  <r_lp_Energy>  (29) 
96.3617

>  <b_lp_Chiralities_Consistent>  (29) 
1

>  <s_lp_Variant>  (29) 
8:0-1

>  <s_i_glide_gridfile>  (29) 
pfpi4k_grid

>  <i_i_glide_lignum>  (29) 
13

>  <i_i_glide_rotatable_bonds>  (29) 
3

>  <r_i_docking_score>  (29) 
-3.67862

>  <r_i_glide_ligand_efficiency>  (29) 
-0.175172

>  <r_i_glide_ligand_efficiency_sa>  (29) 
-0.483287

>  <r_i_glide_ligand_efficiency_ln>  (29) 
-0.909531

>  <r_i_glide_gscore>  (29) 
-3.67862

>  <r_i_glide_lipo>  (29) 
-0.516588

>  <r_i_glide_hbond>  (29) 
-0.16

>  <r_i_glide_metal>  (29) 
-0

>  <r_i_glide_rewards>  (29) 
-1.4294

>  <r_i_glide_evdw>  (29) 
-17.7152

>  <r_i_glide_ecoul>  (29) 
-4.45616

>  <r_i_glide_erotb>  (29) 
0

>  <r_i_glide_esite>  (29) 
-0.0184429

>  <r_i_glide_emodel>  (29) 
-26.6247

>  <r_i_glide_energy>  (29) 
-22.1714

>  <r_i_glide_einternal>  (29) 
3.46914

>  <r_i_glide_intrahb_reward>  (29) 
-0

>  <i_i_glide_confnum>  (29) 
2

>  <i_i_glide_posenum>  (29) 
13

>  <r_i_glide_eff_state_penalty>  (29) 
0

>  <ligand_id>  (29) 
8

>  <original_smiles>  (29) 
COC1=C2CC3C4C(=O)CCC3(OC)C3C1CCC2(O)C43

>  <smiles>  (29) 
[H]OC12C3=C(OC([H])([H])[H])C([H])(C([H])([H])C1([H])[H])C1([H])C2([H])C2([H])C(=O)C([H])([H])C([H])([H])C1(OC([H])([H])[H])C2([H])C3([H])[H]

$$$$
8:0:1
     RDKit          3D

 43 47  0  0  1  0  0  0  0  0999 V2000
    7.6243   -4.9569    1.6609 C   0  0  0  0  0  0  0  0  0  0  0  0
    7.0230   -3.6868    1.4264 O   0  0  0  0  0  0  0  0  0  0  0  0
    5.6669   -3.6113    1.5424 C   0  0  0  0  0  0  0  0  0  0  0  0
    4.7695   -4.4456    0.9882 C   0  0  0  0  0  0  0  0  0  0  0  0
    5.0999   -4.8962   -0.4244 C   0  0  0  0  0  0  0  0  0  0  0  0
    4.7476   -3.7505   -1.4195 C   0  0  1  0  0  0  0  0  0  0  0  0
    3.2406   -3.5279   -1.3197 C   0  0  2  0  0  0  0  0  0  0  0  0
    2.7663   -2.6532   -2.4839 C   0  0  0  0  0  0  0  0  0  0  0  0
    2.0096   -3.0556   -3.3412 O   0  0  0  0  0  0  0  0  0  0  0  0
    3.3912   -1.2638   -2.5498 C   0  0  0  0  0  0  0  0  0  0  0  0
    4.8920   -1.3331   -2.2188 C   0  0  0  0  0  0  0  0  0  0  0  0
    5.2415   -2.2980   -1.0532 C   0  0  2  0  0  0  0  0  0  0  0  0
    6.6420   -2.1403   -0.7950 O   0  0  0  0  0  0  0  0  0  0  0  0
    7.5622   -2.7249   -1.7078 C   0  0  0  0  0  0  0  0  0  0  0  0
    4.3929   -1.9078    0.2080 C   0  0  2  0  0  0  0  0  0  0  0  0
    5.1323   -2.1718    1.5870 C   0  0  1  0  0  0  0  0  0  0  0  0
    4.0892   -2.1324    2.7282 C   0  0  0  0  0  0  0  0  0  0  0  0
    3.0783   -3.2870    2.5250 C   0  0  0  0  0  0  0  0  0  0  0  0
    3.3019   -3.9654    1.1437 C   0  0  2  0  0  0  0  0  0  0  0  0
    2.3949   -5.0232    1.0109 O   0  0  0  0  0  0  0  0  0  0  0  0
    3.1457   -2.8613    0.0661 C   0  0  2  0  0  0  0  0  0  0  0  0
    8.6851   -4.8831    1.4377 H   0  0  0  0  0  0  0  0  0  0  0  0
    7.2284   -5.7784    1.0603 H   0  0  0  0  0  0  0  0  0  0  0  0
    7.5283   -5.2216    2.7065 H   0  0  0  0  0  0  0  0  0  0  0  0
    6.1588   -5.1068   -0.5448 H   0  0  0  0  0  0  0  0  0  0  0  0
    4.5497   -5.8010   -0.6561 H   0  0  0  0  0  0  0  0  0  0  0  0
    5.0431   -4.0449   -2.4319 H   0  0  0  0  0  0  0  0  0  0  0  0
    2.6671   -4.4441   -1.3543 H   0  0  0  0  0  0  0  0  0  0  0  0
    3.2174   -0.8201   -3.5338 H   0  0  0  0  0  0  0  0  0  0  0  0
    2.8638   -0.6573   -1.8266 H   0  0  0  0  0  0  0  0  0  0  0  0
    5.4029   -1.6718   -3.1185 H   0  0  0  0  0  0  0  0  0  0  0  0
    5.2473   -0.3268   -1.9950 H   0  0  0  0  0  0  0  0  0  0  0  0
    8.5795   -2.5704   -1.3500 H   0  0  0  0  0  0  0  0  0  0  0  0
    7.4839   -2.2755   -2.6926 H   0  0  0  0  0  0  0  0  0  0  0  0
    7.4332   -3.7976   -1.8082 H   0  0  0  0  0  0  0  0  0  0  0  0
    4.0787   -0.8631    0.1663 H   0  0  0  0  0  0  0  0  0  0  0  0
    5.9358   -1.4634    1.7587 H   0  0  0  0  0  0  0  0  0  0  0  0
    4.5899   -2.2514    3.6874 H   0  0  0  0  0  0  0  0  0  0  0  0
    3.5797   -1.1627    2.7635 H   0  0  0  0  0  0  0  0  0  0  0  0
    3.1917   -4.0200    3.3250 H   0  0  0  0  0  0  0  0  0  0  0  0
    2.0602   -2.9057    2.5995 H   0  0  0  0  0  0  0  0  0  0  0  0
    2.6231   -5.4964    0.2131 H   0  0  0  0  0  0  0  0  0  0  0  0
    2.2073   -2.3215    0.2084 H   0  0  0  0  0  0  0  0  0  0  0  0
  1  2  1  0
  1 22  1  0
  1 23  1  0
  1 24  1  0
  2  3  1  0
  3 16  1  0
  3  4  2  0
  4 19  1  0
  4  5  1  0
  5  6  1  0
  5 25  1  0
  5 26  1  0
  6 12  1  0
  6  7  1  0
  6 27  1  6
  7 21  1  0
  7  8  1  0
  7 28  1  1
  8  9  2  0
  8 10  1  0
 10 11  1  0
 10 29  1  0
 10 30  1  0
 11 12  1  0
 11 31  1  0
 11 32  1  0
 12 13  1  1
 12 15  1  0
 13 14  1  0
 14 33  1  0
 14 34  1  0
 14 35  1  0
 15 21  1  0
 15 16  1  0
 15 36  1  6
 16 17  1  0
 16 37  1  1
 17 18  1  0
 17 38  1  0
 17 39  1  0
 18 19  1  0
 18 40  1  0
 18 41  1  0
 19 20  1  6
 19 21  1  0
 20 42  1  0
 21 43  1  6
M  END
>  <i_m_ct_stereo_status>  (30) 
1

>  <s_m_source_file>  (30) 
/var/tmp/pbs.5076255.sched01/tmpzk3r62u5/0tgg_cfwk.sdf

>  <i_m_source_file_index>  (30) 
13

>  <i_lp_mmshare_version>  (30) 
48012

>  <i_f3d_flags>  (30) 
0

>  <s_epik_input>  (30) 
W0NIMl0xW0NIMl1bQ0BdMihbT0hdKUMoW0NIMl0zKT1DKE9bQ0gzXSlbQ0BIXTFbQ0BASF00W0NASF0yW0NAQEhdKEMoPU8pW0NIMl1bQ0gyXTUpW0NIXTNbQ0BdNDVPW0NIM10=

>  <s_epik_cmdline>  (30) 
J2VwaWtfcHl0aG9uJywgJy1waHQnLCAnMi4wJywgJy1waCcsICc3LjAnLCAnLXRuJywgJzgnLCAnLW1hJywgJzIwMCcsICctaW1hZScsICc8aW5maWxlLm1hZT4nLCAnLW9tYWUnLCAnPG91dGZpbGUubWFlPic=

>  <r_lp_tautomer_probability>  (30) 
1

>  <r_epik_Ionization_Penalty>  (30) 
6.02377e-08

>  <r_epik_Ionization_Penalty_Charging>  (30) 
0

>  <r_epik_Ionization_Penalty_Neutral>  (30) 
6.02377e-08

>  <r_epik_State_Penalty>  (30) 
-0

>  <r_epik_Charging_Adjusted_Penalty>  (30) 
0

>  <i_epik_Tot_Q>  (30) 
0

>  <i_epik_Tot_abs_Q>  (30) 
0

>  <s_lp_Force_Field>  (30) 
OPLS3e

>  <r_lp_Energy>  (30) 
96.3617

>  <b_lp_Chiralities_Consistent>  (30) 
1

>  <s_lp_Variant>  (30) 
8:0-1

>  <s_i_glide_gridfile>  (30) 
pfpi4k_grid

>  <i_i_glide_lignum>  (30) 
13

>  <i_i_glide_rotatable_bonds>  (30) 
3

>  <r_i_docking_score>  (30) 
-3.213

>  <r_i_glide_ligand_efficiency>  (30) 
-0.153

>  <r_i_glide_ligand_efficiency_sa>  (30) 
-0.422116

>  <r_i_glide_ligand_efficiency_ln>  (30) 
-0.794408

>  <r_i_glide_gscore>  (30) 
-3.213

>  <r_i_glide_lipo>  (30) 
-0.299539

>  <r_i_glide_hbond>  (30) 
-0.135891

>  <r_i_glide_metal>  (30) 
-0

>  <r_i_glide_rewards>  (30) 
-1.4294

>  <r_i_glide_evdw>  (30) 
-18.969

>  <r_i_glide_ecoul>  (30) 
-2.42059

>  <r_i_glide_erotb>  (30) 
0

>  <r_i_glide_esite>  (30) 
-0.0366291

>  <r_i_glide_emodel>  (30) 
-26.5034

>  <r_i_glide_energy>  (30) 
-21.3896

>  <r_i_glide_einternal>  (30) 
0.163625

>  <r_i_glide_intrahb_reward>  (30) 
-0

>  <i_i_glide_confnum>  (30) 
1

>  <i_i_glide_posenum>  (30) 
8

>  <r_i_glide_eff_state_penalty>  (30) 
0

>  <ligand_id>  (30) 
8

>  <original_smiles>  (30) 
COC1=C2CC3C4C(=O)CCC3(OC)C3C1CCC2(O)C43

>  <smiles>  (30) 
[H]OC12C3=C(OC([H])([H])[H])C([H])(C([H])([H])C1([H])[H])C1([H])C2([H])C2([H])C(=O)C([H])([H])C([H])([H])C1(OC([H])([H])[H])C2([H])C3([H])[H]

$$$$
8:0:2
     RDKit          3D

 43 47  0  0  1  0  0  0  0  0999 V2000
    6.6199   -5.4517    2.8801 C   0  0  0  0  0  0  0  0  0  0  0  0
    6.2131   -4.1497    2.4772 O   0  0  0  0  0  0  0  0  0  0  0  0
    4.8777   -3.9777    2.2305 C   0  0  0  0  0  0  0  0  0  0  0  0
    4.1585   -4.7396    1.3902 C   0  0  0  0  0  0  0  0  0  0  0  0
    4.9133   -5.1988    0.1434 C   0  0  0  0  0  0  0  0  0  0  0  0
    4.9458   -4.0080   -0.8750 C   0  0  1  0  0  0  0  0  0  0  0  0
    3.4881   -3.7051   -1.2514 C   0  0  2  0  0  0  0  0  0  0  0  0
    3.4232   -2.8010   -2.4893 C   0  0  0  0  0  0  0  0  0  0  0  0
    2.8974   -3.1479   -3.5515 O   0  0  0  0  0  0  0  0  0  0  0  0
    4.1368   -1.4718   -2.3622 C   0  0  0  0  0  0  0  0  0  0  0  0
    5.4547   -1.6386   -1.5912 C   0  0  0  0  0  0  0  0  0  0  0  0
    5.3768   -2.5740   -0.3410 C   0  0  2  0  0  0  0  0  0  0  0  0
    6.6802   -2.5552    0.2600 O   0  0  0  0  0  0  0  0  0  0  0  0
    7.1515   -1.3243    0.8206 C   0  0  0  0  0  0  0  0  0  0  0  0
    4.2047   -2.1709    0.6222 C   0  0  2  0  0  0  0  0  0  0  0  0
    4.4481   -2.5088    2.1620 C   0  0  1  0  0  0  0  0  0  0  0  0
    3.1108   -2.3957    2.9040 C   0  0  0  0  0  0  0  0  0  0  0  0
    2.1487   -3.4802    2.3701 C   0  0  0  0  0  0  0  0  0  0  0  0
    2.7551   -4.1739    1.1062 C   0  0  2  0  0  0  0  0  0  0  0  0
    1.8790   -5.1947    0.6546 O   0  0  0  0  0  0  0  0  0  0  0  0
    3.0124   -3.0530    0.0669 C   0  0  2  0  0  0  0  0  0  0  0  0
    7.7024   -5.4479    2.9954 H   0  0  0  0  0  0  0  0  0  0  0  0
    6.3700   -6.2365    2.1741 H   0  0  0  0  0  0  0  0  0  0  0  0
    6.1909   -5.6797    3.8531 H   0  0  0  0  0  0  0  0  0  0  0  0
    5.9456   -5.4850    0.3327 H   0  0  0  0  0  0  0  0  0  0  0  0
    4.3943   -6.0676   -0.2744 H   0  0  0  0  0  0  0  0  0  0  0  0
    5.5274   -4.3156   -1.7499 H   0  0  0  0  0  0  0  0  0  0  0  0
    2.9016   -4.5932   -1.4577 H   0  0  0  0  0  0  0  0  0  0  0  0
    4.3158   -1.0305   -3.3442 H   0  0  0  0  0  0  0  0  0  0  0  0
    3.4752   -0.8017   -1.8119 H   0  0  0  0  0  0  0  0  0  0  0  0
    6.2314   -2.0240   -2.2599 H   0  0  0  0  0  0  0  0  0  0  0  0
    5.7218   -0.6214   -1.3209 H   0  0  0  0  0  0  0  0  0  0  0  0
    8.1526   -1.4693    1.2089 H   0  0  0  0  0  0  0  0  0  0  0  0
    6.5354   -0.9491    1.6195 H   0  0  0  0  0  0  0  0  0  0  0  0
    7.2605   -0.5444    0.0715 H   0  0  0  0  0  0  0  0  0  0  0  0
    3.9692   -1.1136    0.5048 H   0  0  0  0  0  0  0  0  0  0  0  0
    5.1497   -1.8698    2.6773 H   0  0  0  0  0  0  0  0  0  0  0  0
    3.2610   -2.5389    3.9727 H   0  0  0  0  0  0  0  0  0  0  0  0
    2.6781   -1.3990    2.7802 H   0  0  0  0  0  0  0  0  0  0  0  0
    1.9502   -4.2174    3.1518 H   0  0  0  0  0  0  0  0  0  0  0  0
    1.2029   -2.9823    2.1499 H   0  0  0  0  0  0  0  0  0  0  0  0
    2.2476   -5.5666   -0.1278 H   0  0  0  0  0  0  0  0  0  0  0  0
    2.1237   -2.4604   -0.0978 H   0  0  0  0  0  0  0  0  0  0  0  0
  1  2  1  0
  1 22  1  0
  1 23  1  0
  1 24  1  0
  2  3  1  0
  3 16  1  0
  3  4  2  0
  4 19  1  0
  4  5  1  0
  5  6  1  0
  5 25  1  0
  5 26  1  0
  6 12  1  0
  6  7  1  0
  6 27  1  6
  7 21  1  0
  7  8  1  0
  7 28  1  6
  8  9  2  0
  8 10  1  0
 10 11  1  0
 10 29  1  0
 10 30  1  0
 11 12  1  0
 11 31  1  0
 11 32  1  0
 12 13  1  1
 12 15  1  0
 13 14  1  0
 14 33  1  0
 14 34  1  0
 14 35  1  0
 15 21  1  0
 15 16  1  0
 15 36  1  1
 16 17  1  0
 16 37  1  1
 17 18  1  0
 17 38  1  0
 17 39  1  0
 18 19  1  0
 18 40  1  0
 18 41  1  0
 19 20  1  6
 19 21  1  0
 20 42  1  0
 21 43  1  6
M  END
>  <i_m_ct_stereo_status>  (31) 
1

>  <s_m_source_file>  (31) 
/var/tmp/pbs.5076255.sched01/tmpzk3r62u5/0tgg_cfwk.sdf

>  <i_m_source_file_index>  (31) 
13

>  <i_lp_mmshare_version>  (31) 
48012

>  <i_f3d_flags>  (31) 
0

>  <s_epik_input>  (31) 
W0NIMl0xW0NIMl1bQ0BdMihbT0hdKUMoW0NIMl0zKT1DKE9bQ0gzXSlbQ0BIXTFbQ0BASF00W0NASF0yW0NAQEhdKEMoPU8pW0NIMl1bQ0gyXTUpW0NIXTNbQ0BdNDVPW0NIM10=

>  <s_epik_cmdline>  (31) 
J2VwaWtfcHl0aG9uJywgJy1waHQnLCAnMi4wJywgJy1waCcsICc3LjAnLCAnLXRuJywgJzgnLCAnLW1hJywgJzIwMCcsICctaW1hZScsICc8aW5maWxlLm1hZT4nLCAnLW9tYWUnLCAnPG91dGZpbGUubWFlPic=

>  <r_lp_tautomer_probability>  (31) 
1

>  <r_epik_Ionization_Penalty>  (31) 
6.02377e-08

>  <r_epik_Ionization_Penalty_Charging>  (31) 
0

>  <r_epik_Ionization_Penalty_Neutral>  (31) 
6.02377e-08

>  <r_epik_State_Penalty>  (31) 
-0

>  <r_epik_Charging_Adjusted_Penalty>  (31) 
0

>  <i_epik_Tot_Q>  (31) 
0

>  <i_epik_Tot_abs_Q>  (31) 
0

>  <s_lp_Force_Field>  (31) 
OPLS3e

>  <r_lp_Energy>  (31) 
96.3617

>  <b_lp_Chiralities_Consistent>  (31) 
1

>  <s_lp_Variant>  (31) 
8:0-1

>  <s_i_glide_gridfile>  (31) 
pfpi4k_grid

>  <i_i_glide_lignum>  (31) 
13

>  <i_i_glide_rotatable_bonds>  (31) 
3

>  <r_i_docking_score>  (31) 
-2.97107

>  <r_i_glide_ligand_efficiency>  (31) 
-0.14148

>  <r_i_glide_ligand_efficiency_sa>  (31) 
-0.390331

>  <r_i_glide_ligand_efficiency_ln>  (31) 
-0.734591

>  <r_i_glide_gscore>  (31) 
-2.97107

>  <r_i_glide_lipo>  (31) 
-0.142225

>  <r_i_glide_hbond>  (31) 
-0.0838703

>  <r_i_glide_metal>  (31) 
-0

>  <r_i_glide_rewards>  (31) 
-1.4294

>  <r_i_glide_evdw>  (31) 
-13.2077

>  <r_i_glide_ecoul>  (31) 
-4.1858

>  <r_i_glide_erotb>  (31) 
0

>  <r_i_glide_esite>  (31) 
-0.0273169

>  <r_i_glide_emodel>  (31) 
-19.4712

>  <r_i_glide_energy>  (31) 
-17.3935

>  <r_i_glide_einternal>  (31) 
3.38863

>  <r_i_glide_intrahb_reward>  (31) 
-0

>  <i_i_glide_confnum>  (31) 
1

>  <i_i_glide_posenum>  (31) 
39

>  <r_i_glide_eff_state_penalty>  (31) 
0

>  <ligand_id>  (31) 
8

>  <original_smiles>  (31) 
COC1=C2CC3C4C(=O)CCC3(OC)C3C1CCC2(O)C43

>  <smiles>  (31) 
[H]OC12C3=C(OC([H])([H])[H])C([H])(C([H])([H])C1([H])[H])C1([H])C2([H])C2([H])C(=O)C([H])([H])C([H])([H])C1(OC([H])([H])[H])C2([H])C3([H])[H]

$$$$
10:0:0
     RDKit          3D

 74 81  0  0  1  0  0  0  0  0999 V2000
    6.2518    2.2424    8.1049 C   0  0  0  0  0  0  0  0  0  0  0  0
    5.2247    1.1368    7.7564 C   0  0  0  0  0  0  0  0  0  0  0  0
    4.9973    0.9524    6.2434 C   0  0  0  0  0  0  0  0  0  0  0  0
    6.2855    0.4675    5.5603 C   0  0  0  0  0  0  0  0  0  0  0  0
    3.8440    1.1108    5.5195 C   0  0  0  0  0  0  0  0  0  0  0  0
    3.8538    0.6127    4.2157 O   0  0  0  0  0  0  0  0  0  0  0  0
    2.5981    0.3165    3.5351 C   0  0  2  0  0  0  0  0  0  0  0  0
    2.0764    1.6126    2.8967 C   0  0  0  0  0  0  0  0  0  0  0  0
    1.9831    1.7075    1.6734 O   0  0  0  0  0  0  0  0  0  0  0  0
    1.6333    2.7189    3.7706 C   0  0  0  0  0  0  0  0  0  0  0  0
    2.3715    2.9727    4.8588 C   0  0  0  0  0  0  0  0  0  0  0  0
    2.1467    4.3889    5.4145 C   0  0  0  0  0  0  0  0  0  0  0  0
    0.6470    4.7615    5.6040 C   0  0  1  0  0  0  0  0  0  0  0  0
    0.4350    6.2844    5.6986 C   0  0  0  0  0  0  0  0  0  0  0  0
   -0.2545    4.0878    4.5455 C   0  0  0  0  0  0  0  0  0  0  0  0
   -1.2567    4.6553    4.0885 O   0  0  0  0  0  0  0  0  0  0  0  0
    0.1366    2.6498    4.1280 C   0  0  1  0  0  0  0  0  0  0  0  0
   -0.6608    2.2385    3.0266 O   0  0  0  0  0  0  0  0  0  0  0  0
   -0.0402    1.6583    5.3586 C   0  0  1  0  0  0  0  0  0  0  0  0
   -1.3403    0.8208    5.3667 C   0  0  0  0  0  0  0  0  0  0  0  0
    1.2642    0.8320    5.6664 C   0  0  1  0  0  0  0  0  0  0  0  0
    1.5341   -0.2082    4.5497 C   0  0  2  0  0  0  0  0  0  0  0  0
    1.7380   -1.6852    5.0383 C   0  0  0  0  0  0  0  0  0  0  0  0
    1.1032   -2.5645    4.0934 O   0  0  0  0  0  0  0  0  0  0  0  0
    1.9186   -3.4942    3.4473 N   0  0  0  0  0  0  0  0  0  0  0  0
    3.0199   -3.2611    2.6937 C   0  0  0  0  0  0  0  0  0  0  0  0
    3.5051   -4.3183    2.0393 N   0  0  0  0  0  0  0  0  0  0  0  0
    2.6455   -5.3312    2.4361 C   0  0  0  0  0  0  0  0  0  0  0  0
    2.6262   -6.7019    2.1016 C   0  0  0  0  0  0  0  0  0  0  0  0
    1.6355   -7.5649    2.6292 C   0  0  0  0  0  0  0  0  0  0  0  0
    0.6501   -7.0664    3.4992 C   0  0  0  0  0  0  0  0  0  0  0  0
    0.6512   -5.7042    3.8456 C   0  0  0  0  0  0  0  0  0  0  0  0
    1.6437   -4.8480    3.3233 C   0  0  0  0  0  0  0  0  0  0  0  0
    3.6597   -1.9089    2.7023 C   0  0  1  0  0  0  0  0  0  0  0  0
    5.0161   -1.8631    3.3880 C   0  0  0  0  0  0  0  0  0  0  0  0
    5.8012   -0.8196    2.8599 O   0  0  0  0  0  0  0  0  0  0  0  0
    3.6141   -1.1326    1.4902 O   0  0  0  0  0  0  0  0  0  0  0  0
    2.6451   -0.8225    2.4954 C   0  0  2  0  0  0  0  0  0  0  0  0
    2.4903    1.8026    5.8831 C   0  0  1  0  0  0  0  0  0  0  0  0
    2.3774    2.3138    7.3412 C   0  0  0  0  0  0  0  0  0  0  0  0
    6.3863    2.2651    9.1861 H   0  0  0  0  0  0  0  0  0  0  0  0
    5.9057    3.2282    7.7829 H   0  0  0  0  0  0  0  0  0  0  0  0
    7.2542    2.0912    7.6916 H   0  0  0  0  0  0  0  0  0  0  0  0
    5.6143    0.1716    8.1072 H   0  0  0  0  0  0  0  0  0  0  0  0
    4.3393    1.2812    8.3650 H   0  0  0  0  0  0  0  0  0  0  0  0
    7.1831    0.9450    5.9616 H   0  0  0  0  0  0  0  0  0  0  0  0
    6.2826    0.7238    4.5084 H   0  0  0  0  0  0  0  0  0  0  0  0
    6.4333   -0.6048    5.7129 H   0  0  0  0  0  0  0  0  0  0  0  0
    2.7434    4.6148    6.3003 H   0  0  0  0  0  0  0  0  0  0  0  0
    2.5418    5.0543    4.6462 H   0  0  0  0  0  0  0  0  0  0  0  0
    0.3185    4.3578    6.5579 H   0  0  0  0  0  0  0  0  0  0  0  0
   -0.5801    6.5220    6.0211 H   0  0  0  0  0  0  0  0  0  0  0  0
    0.6102    6.7837    4.7436 H   0  0  0  0  0  0  0  0  0  0  0  0
    1.1099    6.7281    6.4310 H   0  0  0  0  0  0  0  0  0  0  0  0
   -0.4772    2.8250    2.2971 H   0  0  0  0  0  0  0  0  0  0  0  0
   -0.1807    2.2638    6.2517 H   0  0  0  0  0  0  0  0  0  0  0  0
   -1.4360    0.1625    4.5023 H   0  0  0  0  0  0  0  0  0  0  0  0
   -2.2106    1.4759    5.3686 H   0  0  0  0  0  0  0  0  0  0  0  0
   -1.3938    0.1984    6.2604 H   0  0  0  0  0  0  0  0  0  0  0  0
    1.0887    0.2754    6.5863 H   0  0  0  0  0  0  0  0  0  0  0  0
    0.6070   -0.2858    3.9750 H   0  0  0  0  0  0  0  0  0  0  0  0
    2.7795   -1.9350    5.2504 H   0  0  0  0  0  0  0  0  0  0  0  0
    1.2107   -1.8348    5.9787 H   0  0  0  0  0  0  0  0  0  0  0  0
    3.3758   -7.0994    1.4432 H   0  0  0  0  0  0  0  0  0  0  0  0
    1.6380   -8.6131    2.3692 H   0  0  0  0  0  0  0  0  0  0  0  0
   -0.1015   -7.7352    3.9041 H   0  0  0  0  0  0  0  0  0  0  0  0
   -0.0891   -5.3103    4.5175 H   0  0  0  0  0  0  0  0  0  0  0  0
    4.9016   -1.7474    4.4630 H   0  0  0  0  0  0  0  0  0  0  0  0
    5.5618   -2.7863    3.2225 H   0  0  0  0  0  0  0  0  0  0  0  0
    5.3784   -0.0071    3.0978 H   0  0  0  0  0  0  0  0  0  0  0  0
    1.6510   -1.0642    2.0917 H   0  0  0  0  0  0  0  0  0  0  0  0
    3.2235    2.9503    7.6065 H   0  0  0  0  0  0  0  0  0  0  0  0
    2.3178    1.4878    8.0521 H   0  0  0  0  0  0  0  0  0  0  0  0
    1.4812    2.8964    7.5195 H   0  0  0  0  0  0  0  0  0  0  0  0
  1  2  1  0
  1 41  1  0
  1 42  1  0
  1 43  1  0
  2  3  1  0
  2 44  1  0
  2 45  1  0
  3  4  1  0
  3  5  2  3
  4 46  1  0
  4 47  1  0
  4 48  1  0
  5 39  1  0
  5  6  1  0
  7  6  1  1
  7 22  1  0
  7 38  1  0
  7  8  1  0
  8  9  2  0
  8 10  1  0
 10 17  1  0
 10 11  2  0
 11 39  1  0
 11 12  1  0
 12 13  1  0
 12 49  1  0
 12 50  1  0
 13 14  1  0
 13 15  1  0
 13 51  1  1
 14 52  1  0
 14 53  1  0
 14 54  1  0
 15 16  2  0
 15 17  1  0
 17 18  1  6
 17 19  1  0
 18 55  1  0
 19 20  1  0
 19 21  1  0
 19 56  1  1
 20 57  1  0
 20 58  1  0
 20 59  1  0
 21 22  1  0
 21 39  1  0
 21 60  1  1
 22 23  1  0
 22 61  1  6
 23 24  1  0
 23 62  1  0
 23 63  1  0
 24 25  1  0
 25 33  1  0
 25 26  1  0
 26 27  2  0
 26 34  1  0
 27 28  1  0
 28 33  2  0
 28 29  1  0
 29 30  2  0
 29 64  1  0
 30 31  1  0
 30 65  1  0
 31 32  2  0
 31 66  1  0
 32 33  1  0
 32 67  1  0
 34 38  1  0
 34 35  1  1
 34 37  1  0
 35 36  1  0
 35 68  1  0
 35 69  1  0
 36 70  1  0
 37 38  1  0
 38 71  1  6
 39 40  1  1
 40 72  1  0
 40 73  1  0
 40 74  1  0
M  END
>  <i_m_ct_stereo_status>  (32) 
1

>  <s_m_source_file>  (32) 
/var/tmp/pbs.5076255.sched01/tmpzk3r62u5/0tgg_cfwk.sdf

>  <i_m_source_file_index>  (32) 
15

>  <i_lp_mmshare_version>  (32) 
48012

>  <i_f3d_flags>  (32) 
0

>  <s_epik_input>  (32) 
W0NIMl0xW0NAQEhdKFtDSDNdKUMoPU8pW0NAXShbT0hdKShbQ0BIXTJbQ0gzXSlDKEMzPU8pPUMxW0NAXShbQ0gzXSkoQygvTzQpPUMoW0NIM10pXFtDSDJdW0NIM10pW0NAQEhdMltDQEBIXShbQ0BAXTM0NSlbQ0gyXU9uNmMoW0NAQF03KFtDQEBIXTVPNylbQ0gyXVtPSF0pbmM4YzZbY0hdW2NIXVtjSF1bY0hdOA==

>  <s_epik_cmdline>  (32) 
J2VwaWtfcHl0aG9uJywgJy1waHQnLCAnMi4wJywgJy1waCcsICc3LjAnLCAnLXRuJywgJzgnLCAnLW1hJywgJzIwMCcsICctaW1hZScsICc8aW5maWxlLm1hZT4nLCAnLW9tYWUnLCAnPG91dGZpbGUubWFlPic=

>  <r_lp_tautomer_probability>  (32) 
0.99995

>  <r_epik_Ionization_Penalty>  (32) 
0.0151419

>  <r_epik_Ionization_Penalty_Charging>  (32) 
0

>  <r_epik_Ionization_Penalty_Neutral>  (32) 
0.0151419

>  <r_epik_State_Penalty>  (32) 
0.0118791

>  <r_epik_Charging_Adjusted_Penalty>  (32) 
0.0118791

>  <i_epik_Tot_Q>  (32) 
0

>  <i_epik_Tot_abs_Q>  (32) 
0

>  <s_lp_Force_Field>  (32) 
OPLS3e

>  <r_lp_Energy>  (32) 
151.188

>  <b_lp_Chiralities_Consistent>  (32) 
1

>  <s_lp_Variant>  (32) 
10:0-1

>  <s_i_glide_gridfile>  (32) 
pfpi4k_grid

>  <i_i_glide_lignum>  (32) 
15

>  <i_i_glide_rotatable_bonds>  (32) 
4

>  <r_i_docking_score>  (32) 
-2.46098

>  <r_i_glide_ligand_efficiency>  (32) 
-0.0615246

>  <r_i_glide_ligand_efficiency_sa>  (32) 
-0.210411

>  <r_i_glide_ligand_efficiency_ln>  (32) 
-0.524855

>  <r_i_glide_gscore>  (32) 
-2.46098

>  <r_i_glide_lipo>  (32) 
-0.217742

>  <r_i_glide_hbond>  (32) 
-0.118881

>  <r_i_glide_metal>  (32) 
-0

>  <r_i_glide_rewards>  (32) 
-0.547691

>  <r_i_glide_evdw>  (32) 
-26.5387

>  <r_i_glide_ecoul>  (32) 
-2.30574

>  <r_i_glide_erotb>  (32) 
0.138636

>  <r_i_glide_esite>  (32) 
-0.0425096

>  <r_i_glide_emodel>  (32) 
-31.5332

>  <r_i_glide_energy>  (32) 
-28.8444

>  <r_i_glide_einternal>  (32) 
12.5694

>  <r_i_glide_intrahb_reward>  (32) 
-0.5

>  <i_i_glide_confnum>  (32) 
3

>  <i_i_glide_posenum>  (32) 
37

>  <r_i_glide_eff_state_penalty>  (32) 
0

>  <ligand_id>  (32) 
10

>  <original_smiles>  (32) 
CCC(C)=C1OC23C(=O)C4=C5CC(C)C(=O)C4(O)C(C)C(C2COn2c(nc4ccccc42)C2(CO)OC23)C51C

>  <smiles>  (32) 
[H]OC([H])([H])C12OC1([H])C13OC(=C(C([H])([H])[H])C([H])([H])C([H])([H])[H])C4(C([H])([H])[H])C5=C(C1=O)C(O[H])(C(=O)C([H])(C([H])([H])[H])C5([H])[H])C([H])(C([H])([H])[H])C4([H])C3([H])C([H])([H])On1c2nc2c([H])c([H])c([H])c([H])c21

$$$$
10:0:1
     RDKit          3D

 74 81  0  0  1  0  0  0  0  0999 V2000
    8.3457   -3.4501    9.2555 C   0  0  0  0  0  0  0  0  0  0  0  0
    6.9257   -3.7986    8.7734 C   0  0  0  0  0  0  0  0  0  0  0  0
    6.7137   -3.7303    7.2431 C   0  0  0  0  0  0  0  0  0  0  0  0
    7.5103   -4.8484    6.5671 C   0  0  0  0  0  0  0  0  0  0  0  0
    5.8945   -2.9120    6.5069 C   0  0  0  0  0  0  0  0  0  0  0  0
    5.6950   -3.2801    5.1783 O   0  0  0  0  0  0  0  0  0  0  0  0
    4.5627   -2.7703    4.4300 C   0  0  2  0  0  0  0  0  0  0  0  0
    4.9038   -1.3778    3.8554 C   0  0  0  0  0  0  0  0  0  0  0  0
    5.0123   -1.2171    2.6403 O   0  0  0  0  0  0  0  0  0  0  0  0
    5.0939   -0.2680    4.8280 C   0  0  0  0  0  0  0  0  0  0  0  0
    5.7835   -0.5294    5.9504 C   0  0  0  0  0  0  0  0  0  0  0  0
    6.3385    0.7471    6.6094 C   0  0  0  0  0  0  0  0  0  0  0  0
    5.2961    1.8888    6.7847 C   0  0  1  0  0  0  0  0  0  0  0  0
    5.9676    3.2628    6.9858 C   0  0  0  0  0  0  0  0  0  0  0  0
    4.2589    1.8817    5.6463 C   0  0  0  0  0  0  0  0  0  0  0  0
    3.7954    2.9314    5.1981 O   0  0  0  0  0  0  0  0  0  0  0  0
    3.7988    0.4990    5.1358 C   0  0  1  0  0  0  0  0  0  0  0  0
    2.9798    0.6583    3.9866 O   0  0  0  0  0  0  0  0  0  0  0  0
    3.0105   -0.2733    6.2729 C   0  0  1  0  0  0  0  0  0  0  0  0
    1.4688   -0.2315    6.1713 C   0  0  0  0  0  0  0  0  0  0  0  0
    3.5993   -1.7027    6.5507 C   0  0  1  0  0  0  0  0  0  0  0  0
    3.3254   -2.6605    5.3685 C   0  0  2  0  0  0  0  0  0  0  0  0
    2.6394   -4.0159    5.7558 C   0  0  0  0  0  0  0  0  0  0  0  0
    1.6883   -4.3422    4.7290 O   0  0  0  0  0  0  0  0  0  0  0  0
    1.9000   -5.5379    4.0266 N   0  0  0  0  0  0  0  0  0  0  0  0
    2.9950   -5.9388    3.3338 C   0  0  0  0  0  0  0  0  0  0  0  0
    2.8369   -7.0550    2.6124 N   0  0  0  0  0  0  0  0  0  0  0  0
    1.5342   -7.4205    2.9115 C   0  0  0  0  0  0  0  0  0  0  0  0
    0.7678   -8.5315    2.4772 C   0  0  0  0  0  0  0  0  0  0  0  0
   -0.5671   -8.7115    2.8988 C   0  0  0  0  0  0  0  0  0  0  0  0
   -1.1647   -7.7773    3.7653 C   0  0  0  0  0  0  0  0  0  0  0  0
   -0.4199   -6.6648    4.2186 C   0  0  0  0  0  0  0  0  0  0  0  0
    0.9093   -6.4971    3.7988 C   0  0  0  0  0  0  0  0  0  0  0  0
    4.2909   -5.2025    3.4756 C   0  0  1  0  0  0  0  0  0  0  0  0
    5.3842   -5.9411    4.2369 C   0  0  0  0  0  0  0  0  0  0  0  0
    5.6628   -7.2471    3.7546 O   0  0  0  0  0  0  0  0  0  0  0  0
    4.7882   -4.4553    2.3506 O   0  0  0  0  0  0  0  0  0  0  0  0
    4.0648   -3.7221    3.3325 C   0  0  2  0  0  0  0  0  0  0  0  0
    5.1423   -1.6023    6.8840 C   0  0  1  0  0  0  0  0  0  0  0  0
    5.2327   -1.1801    8.3736 C   0  0  0  0  0  0  0  0  0  0  0  0
    8.3807   -3.5535   10.3344 H   0  0  0  0  0  0  0  0  0  0  0  0
    8.6210   -2.4246    9.0066 H   0  0  0  0  0  0  0  0  0  0  0  0
    9.1088   -4.1127    8.8678 H   0  0  0  0  0  0  0  0  0  0  0  0
    6.6573   -4.8086    9.0739 H   0  0  0  0  0  0  0  0  0  0  0  0
    6.2204   -3.2387    9.3885 H   0  0  0  0  0  0  0  0  0  0  0  0
    8.5215   -4.9325    6.9644 H   0  0  0  0  0  0  0  0  0  0  0  0
    7.6767   -4.6615    5.5130 H   0  0  0  0  0  0  0  0  0  0  0  0
    7.0470   -5.8282    6.6969 H   0  0  0  0  0  0  0  0  0  0  0  0
    6.8958    0.5566    7.5239 H   0  0  0  0  0  0  0  0  0  0  0  0
    7.0910    1.1083    5.9118 H   0  0  0  0  0  0  0  0  0  0  0  0
    4.7342    1.6985    7.6952 H   0  0  0  0  0  0  0  0  0  0  0  0
    5.2379    4.0161    7.2808 H   0  0  0  0  0  0  0  0  0  0  0  0
    6.4580    3.6171    6.0792 H   0  0  0  0  0  0  0  0  0  0  0  0
    6.7206    3.2177    7.7729 H   0  0  0  0  0  0  0  0  0  0  0  0
    3.4558    1.1928    3.3625 H   0  0  0  0  0  0  0  0  0  0  0  0
    3.1682    0.2630    7.2042 H   0  0  0  0  0  0  0  0  0  0  0  0
    1.0847   -0.6868    5.2582 H   0  0  0  0  0  0  0  0  0  0  0  0
    1.1051    0.7964    6.1924 H   0  0  0  0  0  0  0  0  0  0  0  0
    1.0120   -0.7550    7.0123 H   0  0  0  0  0  0  0  0  0  0  0  0
    3.0869   -2.1035    7.4233 H   0  0  0  0  0  0  0  0  0  0  0  0
    2.5578   -2.1821    4.7662 H   0  0  0  0  0  0  0  0  0  0  0  0
    3.3400   -4.8197    5.9802 H   0  0  0  0  0  0  0  0  0  0  0  0
    2.0488   -3.8901    6.6623 H   0  0  0  0  0  0  0  0  0  0  0  0
    1.2249   -9.2537    1.8217 H   0  0  0  0  0  0  0  0  0  0  0  0
   -1.1299   -9.5765    2.5654 H   0  0  0  0  0  0  0  0  0  0  0  0
   -2.1859   -7.9411    4.0853 H   0  0  0  0  0  0  0  0  0  0  0  0
   -0.8630   -5.9625    4.9050 H   0  0  0  0  0  0  0  0  0  0  0  0
    6.2999   -5.3805    4.1082 H   0  0  0  0  0  0  0  0  0  0  0  0
    5.1297   -6.0004    5.2937 H   0  0  0  0  0  0  0  0  0  0  0  0
    4.8697   -7.7688    3.7791 H   0  0  0  0  0  0  0  0  0  0  0  0
    3.1496   -3.3621    2.8673 H   0  0  0  0  0  0  0  0  0  0  0  0
    6.2597   -1.1188    8.7134 H   0  0  0  0  0  0  0  0  0  0  0  0
    4.6676   -1.8472    9.0149 H   0  0  0  0  0  0  0  0  0  0  0  0
    4.8011   -0.1928    8.5723 H   0  0  0  0  0  0  0  0  0  0  0  0
  1  2  1  0
  1 41  1  0
  1 42  1  0
  1 43  1  0
  2  3  1  0
  2 44  1  0
  2 45  1  0
  3  4  1  0
  3  5  2  3
  4 46  1  0
  4 47  1  0
  4 48  1  0
  5 39  1  0
  5  6  1  0
  7  6  1  1
  7 22  1  0
  7 38  1  0
  7  8  1  0
  8  9  2  0
  8 10  1  0
 10 17  1  0
 10 11  2  0
 11 39  1  0
 11 12  1  0
 12 13  1  0
 12 49  1  0
 12 50  1  0
 13 14  1  0
 13 15  1  0
 13 51  1  1
 14 52  1  0
 14 53  1  0
 14 54  1  0
 15 16  2  0
 15 17  1  0
 17 18  1  6
 17 19  1  0
 18 55  1  0
 19 20  1  0
 19 21  1  0
 19 56  1  1
 20 57  1  0
 20 58  1  0
 20 59  1  0
 21 22  1  0
 21 39  1  0
 21 60  1  1
 22 23  1  0
 22 61  1  6
 23 24  1  0
 23 62  1  0
 23 63  1  0
 24 25  1  0
 25 33  1  0
 25 26  1  0
 26 27  2  0
 26 34  1  0
 27 28  1  0
 28 33  2  0
 28 29  1  0
 29 30  2  0
 29 64  1  0
 30 31  1  0
 30 65  1  0
 31 32  2  0
 31 66  1  0
 32 33  1  0
 32 67  1  0
 34 38  1  0
 34 35  1  1
 34 37  1  0
 35 36  1  0
 35 68  1  0
 35 69  1  0
 36 70  1  0
 37 38  1  0
 38 71  1  6
 39 40  1  1
 40 72  1  0
 40 73  1  0
 40 74  1  0
M  END
>  <i_m_ct_stereo_status>  (33) 
1

>  <s_m_source_file>  (33) 
/var/tmp/pbs.5076255.sched01/tmpzk3r62u5/0tgg_cfwk.sdf

>  <i_m_source_file_index>  (33) 
15

>  <i_lp_mmshare_version>  (33) 
48012

>  <i_f3d_flags>  (33) 
0

>  <s_epik_input>  (33) 
W0NIMl0xW0NAQEhdKFtDSDNdKUMoPU8pW0NAXShbT0hdKShbQ0BIXTJbQ0gzXSlDKEMzPU8pPUMxW0NAXShbQ0gzXSkoQygvTzQpPUMoW0NIM10pXFtDSDJdW0NIM10pW0NAQEhdMltDQEBIXShbQ0BAXTM0NSlbQ0gyXU9uNmMoW0NAQF03KFtDQEBIXTVPNylbQ0gyXVtPSF0pbmM4YzZbY0hdW2NIXVtjSF1bY0hdOA==

>  <s_epik_cmdline>  (33) 
J2VwaWtfcHl0aG9uJywgJy1waHQnLCAnMi4wJywgJy1waCcsICc3LjAnLCAnLXRuJywgJzgnLCAnLW1hJywgJzIwMCcsICctaW1hZScsICc8aW5maWxlLm1hZT4nLCAnLW9tYWUnLCAnPG91dGZpbGUubWFlPic=

>  <r_lp_tautomer_probability>  (33) 
0.99995

>  <r_epik_Ionization_Penalty>  (33) 
0.0151419

>  <r_epik_Ionization_Penalty_Charging>  (33) 
0

>  <r_epik_Ionization_Penalty_Neutral>  (33) 
0.0151419

>  <r_epik_State_Penalty>  (33) 
0.0118791

>  <r_epik_Charging_Adjusted_Penalty>  (33) 
0.0118791

>  <i_epik_Tot_Q>  (33) 
0

>  <i_epik_Tot_abs_Q>  (33) 
0

>  <s_lp_Force_Field>  (33) 
OPLS3e

>  <r_lp_Energy>  (33) 
151.188

>  <b_lp_Chiralities_Consistent>  (33) 
1

>  <s_lp_Variant>  (33) 
10:0-1

>  <s_i_glide_gridfile>  (33) 
pfpi4k_grid

>  <i_i_glide_lignum>  (33) 
15

>  <i_i_glide_rotatable_bonds>  (33) 
4

>  <r_i_docking_score>  (33) 
-1.33461

>  <r_i_glide_ligand_efficiency>  (33) 
-0.0333654

>  <r_i_glide_ligand_efficiency_sa>  (33) 
-0.114108

>  <r_i_glide_ligand_efficiency_ln>  (33) 
-0.284634

>  <r_i_glide_gscore>  (33) 
-1.33461

>  <r_i_glide_lipo>  (33) 
-0.274596

>  <r_i_glide_hbond>  (33) 
0

>  <r_i_glide_metal>  (33) 
-0

>  <r_i_glide_rewards>  (33) 
-0.0797845

>  <r_i_glide_evdw>  (33) 
-22.8008

>  <r_i_glide_ecoul>  (33) 
0.160051

>  <r_i_glide_erotb>  (33) 
0.138636

>  <r_i_glide_esite>  (33) 
-0.00283539

>  <r_i_glide_emodel>  (33) 
-23.1191

>  <r_i_glide_energy>  (33) 
-22.6408

>  <r_i_glide_einternal>  (33) 
2.77225

>  <r_i_glide_intrahb_reward>  (33) 
-0

>  <i_i_glide_confnum>  (33) 
6

>  <i_i_glide_posenum>  (33) 
1

>  <r_i_glide_eff_state_penalty>  (33) 
0

>  <ligand_id>  (33) 
10

>  <original_smiles>  (33) 
CCC(C)=C1OC23C(=O)C4=C5CC(C)C(=O)C4(O)C(C)C(C2COn2c(nc4ccccc42)C2(CO)OC23)C51C

>  <smiles>  (33) 
[H]OC([H])([H])C12OC1([H])C13OC(=C(C([H])([H])[H])C([H])([H])C([H])([H])[H])C4(C([H])([H])[H])C5=C(C1=O)C(O[H])(C(=O)C([H])(C([H])([H])[H])C5([H])[H])C([H])(C([H])([H])[H])C4([H])C3([H])C([H])([H])On1c2nc2c([H])c([H])c([H])c([H])c21

$$$$
10:0:2
     RDKit          3D

 74 81  0  0  1  0  0  0  0  0999 V2000
    5.2455   -1.0040    8.2392 C   0  0  0  0  0  0  0  0  0  0  0  0
    4.8037    0.2441    7.4379 C   0  0  0  0  0  0  0  0  0  0  0  0
    4.5888   -0.0282    5.9367 C   0  0  0  0  0  0  0  0  0  0  0  0
    5.8949   -0.5080    5.3009 C   0  0  0  0  0  0  0  0  0  0  0  0
    3.4579    0.1382    5.1805 C   0  0  0  0  0  0  0  0  0  0  0  0
    3.5079   -0.3466    3.8793 O   0  0  0  0  0  0  0  0  0  0  0  0
    2.2610   -0.6365    3.1854 C   0  0  2  0  0  0  0  0  0  0  0  0
    1.7984    0.6722    2.4930 C   0  0  0  0  0  0  0  0  0  0  0  0
    1.7898    0.7836    1.2765 O   0  0  0  0  0  0  0  0  0  0  0  0
    1.3404    1.8001    3.3573 C   0  0  0  0  0  0  0  0  0  0  0  0
    2.0600    2.0463    4.4491 C   0  0  0  0  0  0  0  0  0  0  0  0
    1.8468    3.4711    4.9867 C   0  0  0  0  0  0  0  0  0  0  0  0
    0.3496    3.8707    5.1395 C   0  0  1  0  0  0  0  0  0  0  0  0
    0.1679    5.3977    5.2065 C   0  0  0  0  0  0  0  0  0  0  0  0
   -0.5497    3.2025    4.0774 C   0  0  0  0  0  0  0  0  0  0  0  0
   -1.5396    3.7845    3.6149 O   0  0  0  0  0  0  0  0  0  0  0  0
   -0.1709    1.7524    3.6797 C   0  0  1  0  0  0  0  0  0  0  0  0
   -0.9478    1.3209    2.5781 O   0  0  0  0  0  0  0  0  0  0  0  0
   -0.3960    0.7879    4.9196 C   0  0  1  0  0  0  0  0  0  0  0  0
   -1.7077   -0.0331    4.9096 C   0  0  0  0  0  0  0  0  0  0  0  0
    0.8777   -0.0627    5.2613 C   0  0  1  0  0  0  0  0  0  0  0  0
    1.1394   -1.1260    4.1670 C   0  0  2  0  0  0  0  0  0  0  0  0
    1.2594   -2.6003    4.6969 C   0  0  0  0  0  0  0  0  0  0  0  0
    0.6766   -3.4825    3.7133 O   0  0  0  0  0  0  0  0  0  0  0  0
    1.5129   -4.4375    3.1338 N   0  0  0  0  0  0  0  0  0  0  0  0
    2.6424   -4.2389    2.4076 C   0  0  0  0  0  0  0  0  0  0  0  0
    3.1111   -5.3031    1.7570 N   0  0  0  0  0  0  0  0  0  0  0  0
    2.2357   -6.2973    2.1576 C   0  0  0  0  0  0  0  0  0  0  0  0
    2.2118   -7.6741    1.8478 C   0  0  0  0  0  0  0  0  0  0  0  0
    1.1914   -8.5056    2.3621 C   0  0  0  0  0  0  0  0  0  0  0  0
    0.1923   -7.9807    3.1937 C   0  0  0  0  0  0  0  0  0  0  0  0
    0.2128   -6.6181    3.5257 C   0  0  0  0  0  0  0  0  0  0  0  0
    1.2299   -5.7925    3.0169 C   0  0  0  0  0  0  0  0  0  0  0  0
    3.3197   -2.9078    2.4511 C   0  0  1  0  0  0  0  0  0  0  0  0
    4.6736   -2.9474    3.1266 C   0  0  0  0  0  0  0  0  0  0  0  0
    4.5731   -3.1784    4.5135 O   0  0  0  0  0  0  0  0  0  0  0  0
    3.3699   -2.1175    1.2476 O   0  0  0  0  0  0  0  0  0  0  0  0
    2.3420   -1.7891    2.1801 C   0  0  2  0  0  0  0  0  0  0  0  0
    2.1200    0.8793    5.4923 C   0  0  1  0  0  0  0  0  0  0  0  0
    1.9707    1.4251    6.9344 C   0  0  0  0  0  0  0  0  0  0  0  0
    5.2153   -0.7309    9.2911 H   0  0  0  0  0  0  0  0  0  0  0  0
    6.2494   -1.3812    8.0305 H   0  0  0  0  0  0  0  0  0  0  0  0
    4.5305   -1.8186    8.1247 H   0  0  0  0  0  0  0  0  0  0  0  0
    3.9447    0.5881    7.9922 H   0  0  0  0  0  0  0  0  0  0  0  0
    5.5748    1.0236    7.5210 H   0  0  0  0  0  0  0  0  0  0  0  0
    6.7284    0.1024    5.6650 H   0  0  0  0  0  0  0  0  0  0  0  0
    5.8930   -0.4024    4.2131 H   0  0  0  0  0  0  0  0  0  0  0  0
    6.1382   -1.5333    5.5921 H   0  0  0  0  0  0  0  0  0  0  0  0
    2.4310    3.7049    5.8784 H   0  0  0  0  0  0  0  0  0  0  0  0
    2.2608    4.1150    4.2098 H   0  0  0  0  0  0  0  0  0  0  0  0
   -0.0103    3.4902    6.0924 H   0  0  0  0  0  0  0  0  0  0  0  0
   -0.8489    5.6515    5.4994 H   0  0  0  0  0  0  0  0  0  0  0  0
    0.3686    5.8809    4.2480 H   0  0  0  0  0  0  0  0  0  0  0  0
    0.8310    5.8447    5.9482 H   0  0  0  0  0  0  0  0  0  0  0  0
   -0.7510    1.8896    1.8448 H   0  0  0  0  0  0  0  0  0  0  0  0
   -0.5474    1.4120    5.7984 H   0  0  0  0  0  0  0  0  0  0  0  0
   -1.7887   -0.7080    4.0575 H   0  0  0  0  0  0  0  0  0  0  0  0
   -2.5725    0.6272    4.8699 H   0  0  0  0  0  0  0  0  0  0  0  0
   -1.7911   -0.6425    5.8107 H   0  0  0  0  0  0  0  0  0  0  0  0
    0.6815   -0.5998    6.1893 H   0  0  0  0  0  0  0  0  0  0  0  0
    0.2302   -1.1655    3.5575 H   0  0  0  0  0  0  0  0  0  0  0  0
    2.2642   -2.8779    5.0102 H   0  0  0  0  0  0  0  0  0  0  0  0
    0.6524   -2.6987    5.6014 H   0  0  0  0  0  0  0  0  0  0  0  0
    2.9709   -8.1072    1.2309 H   0  0  0  0  0  0  0  0  0  0  0  0
    1.1715   -9.5539    2.1180 H   0  0  0  0  0  0  0  0  0  0  0  0
   -0.5851   -8.6182    3.5898 H   0  0  0  0  0  0  0  0  0  0  0  0
   -0.5207   -6.1992    4.1760 H   0  0  0  0  0  0  0  0  0  0  0  0
    5.2873   -3.7206    2.6639 H   0  0  0  0  0  0  0  0  0  0  0  0
    5.1833   -2.0022    2.8992 H   0  0  0  0  0  0  0  0  0  0  0  0
    5.3778   -2.9112    4.9308 H   0  0  0  0  0  0  0  0  0  0  0  0
    1.3526   -2.0150    1.7396 H   0  0  0  0  0  0  0  0  0  0  0  0
    2.8085    2.0753    7.1987 H   0  0  0  0  0  0  0  0  0  0  0  0
    1.9123    0.6103    7.6606 H   0  0  0  0  0  0  0  0  0  0  0  0
    1.0670    2.0006    7.0828 H   0  0  0  0  0  0  0  0  0  0  0  0
  1  2  1  0
  1 41  1  0
  1 42  1  0
  1 43  1  0
  2  3  1  0
  2 44  1  0
  2 45  1  0
  3  4  1  0
  3  5  2  3
  4 46  1  0
  4 47  1  0
  4 48  1  0
  5 39  1  0
  5  6  1  0
  7  6  1  1
  7 22  1  0
  7 38  1  0
  7  8  1  0
  8  9  2  0
  8 10  1  0
 10 17  1  0
 10 11  2  0
 11 39  1  0
 11 12  1  0
 12 13  1  0
 12 49  1  0
 12 50  1  0
 13 14  1  0
 13 15  1  0
 13 51  1  1
 14 52  1  0
 14 53  1  0
 14 54  1  0
 15 16  2  0
 15 17  1  0
 17 18  1  6
 17 19  1  0
 18 55  1  0
 19 20  1  0
 19 21  1  0
 19 56  1  1
 20 57  1  0
 20 58  1  0
 20 59  1  0
 21 22  1  0
 21 39  1  0
 21 60  1  1
 22 23  1  0
 22 61  1  6
 23 24  1  0
 23 62  1  0
 23 63  1  0
 24 25  1  0
 25 33  1  0
 25 26  1  0
 26 27  2  0
 26 34  1  0
 27 28  1  0
 28 33  2  0
 28 29  1  0
 29 30  2  0
 29 64  1  0
 30 31  1  0
 30 65  1  0
 31 32  2  0
 31 66  1  0
 32 33  1  0
 32 67  1  0
 34 38  1  0
 34 35  1  1
 34 37  1  0
 35 36  1  0
 35 68  1  0
 35 69  1  0
 36 70  1  0
 37 38  1  0
 38 71  1  6
 39 40  1  1
 40 72  1  0
 40 73  1  0
 40 74  1  0
M  END
>  <i_m_ct_stereo_status>  (34) 
1

>  <s_m_source_file>  (34) 
/var/tmp/pbs.5076255.sched01/tmpzk3r62u5/0tgg_cfwk.sdf

>  <i_m_source_file_index>  (34) 
15

>  <i_lp_mmshare_version>  (34) 
48012

>  <i_f3d_flags>  (34) 
0

>  <s_epik_input>  (34) 
W0NIMl0xW0NAQEhdKFtDSDNdKUMoPU8pW0NAXShbT0hdKShbQ0BIXTJbQ0gzXSlDKEMzPU8pPUMxW0NAXShbQ0gzXSkoQygvTzQpPUMoW0NIM10pXFtDSDJdW0NIM10pW0NAQEhdMltDQEBIXShbQ0BAXTM0NSlbQ0gyXU9uNmMoW0NAQF03KFtDQEBIXTVPNylbQ0gyXVtPSF0pbmM4YzZbY0hdW2NIXVtjSF1bY0hdOA==

>  <s_epik_cmdline>  (34) 
J2VwaWtfcHl0aG9uJywgJy1waHQnLCAnMi4wJywgJy1waCcsICc3LjAnLCAnLXRuJywgJzgnLCAnLW1hJywgJzIwMCcsICctaW1hZScsICc8aW5maWxlLm1hZT4nLCAnLW9tYWUnLCAnPG91dGZpbGUubWFlPic=

>  <r_lp_tautomer_probability>  (34) 
0.99995

>  <r_epik_Ionization_Penalty>  (34) 
0.0151419

>  <r_epik_Ionization_Penalty_Charging>  (34) 
0

>  <r_epik_Ionization_Penalty_Neutral>  (34) 
0.0151419

>  <r_epik_State_Penalty>  (34) 
0.0118791

>  <r_epik_Charging_Adjusted_Penalty>  (34) 
0.0118791

>  <i_epik_Tot_Q>  (34) 
0

>  <i_epik_Tot_abs_Q>  (34) 
0

>  <s_lp_Force_Field>  (34) 
OPLS3e

>  <r_lp_Energy>  (34) 
151.188

>  <b_lp_Chiralities_Consistent>  (34) 
1

>  <s_lp_Variant>  (34) 
10:0-1

>  <s_i_glide_gridfile>  (34) 
pfpi4k_grid

>  <i_i_glide_lignum>  (34) 
15

>  <i_i_glide_rotatable_bonds>  (34) 
4

>  <r_i_docking_score>  (34) 
-1.23623

>  <r_i_glide_ligand_efficiency>  (34) 
-0.0309056

>  <r_i_glide_ligand_efficiency_sa>  (34) 
-0.105696

>  <r_i_glide_ligand_efficiency_ln>  (34) 
-0.263651

>  <r_i_glide_gscore>  (34) 
-1.23623

>  <r_i_glide_lipo>  (34) 
-0.0741433

>  <r_i_glide_hbond>  (34) 
0

>  <r_i_glide_metal>  (34) 
-0

>  <r_i_glide_rewards>  (34) 
0

>  <r_i_glide_evdw>  (34) 
-28.3808

>  <r_i_glide_ecoul>  (34) 
1.34717

>  <r_i_glide_erotb>  (34) 
0.138636

>  <r_i_glide_esite>  (34) 
-0.0837527

>  <r_i_glide_emodel>  (34) 
-27.5242

>  <r_i_glide_energy>  (34) 
-27.0336

>  <r_i_glide_einternal>  (34) 
2.78451

>  <r_i_glide_intrahb_reward>  (34) 
-0

>  <i_i_glide_confnum>  (34) 
3

>  <i_i_glide_posenum>  (34) 
14

>  <r_i_glide_eff_state_penalty>  (34) 
0

>  <ligand_id>  (34) 
10

>  <original_smiles>  (34) 
CCC(C)=C1OC23C(=O)C4=C5CC(C)C(=O)C4(O)C(C)C(C2COn2c(nc4ccccc42)C2(CO)OC23)C51C

>  <smiles>  (34) 
[H]OC([H])([H])C12OC1([H])C13OC(=C(C([H])([H])[H])C([H])([H])C([H])([H])[H])C4(C([H])([H])[H])C5=C(C1=O)C(O[H])(C(=O)C([H])(C([H])([H])[H])C5([H])[H])C([H])(C([H])([H])[H])C4([H])C3([H])C([H])([H])On1c2nc2c([H])c([H])c([H])c([H])c21

$$$$
10:1:0
     RDKit          3D

 74 81  0  0  1  0  0  0  0  0999 V2000
    6.6421  -10.2143    2.6073 C   0  0  0  0  0  0  0  0  0  0  0  0
    6.2004   -9.2450    1.4587 C   0  0  0  0  0  0  0  0  0  0  0  0
    6.4895   -7.7416    1.6601 C   0  0  0  0  0  0  0  0  0  0  0  0
    7.9909   -7.4911    1.8279 C   0  0  0  0  0  0  0  0  0  0  0  0
    5.5227   -6.7692    1.5944 C   0  0  0  0  0  0  0  0  0  0  0  0
    4.1934   -7.1845    1.5553 O   0  0  0  0  0  0  0  0  0  0  0  0
    3.1492   -6.2680    1.9908 C   0  0  2  0  0  0  0  0  0  0  0  0
    2.7068   -5.4229    0.7651 C   0  0  0  0  0  0  0  0  0  0  0  0
    1.5777   -5.5401    0.2861 O   0  0  0  0  0  0  0  0  0  0  0  0
    3.6702   -4.4364    0.2188 C   0  0  0  0  0  0  0  0  0  0  0  0
    4.9507   -4.8362    0.1183 C   0  0  0  0  0  0  0  0  0  0  0  0
    5.7540   -3.9843   -0.8844 C   0  0  0  0  0  0  0  0  0  0  0  0
    5.6193   -2.4525   -0.6631 C   0  0  1  0  0  0  0  0  0  0  0  0
    5.9838   -1.6673   -1.9286 C   0  0  0  0  0  0  0  0  0  0  0  0
    4.2257   -2.0647   -0.1407 C   0  0  0  0  0  0  0  0  0  0  0  0
    3.6597   -1.0419   -0.5137 O   0  0  0  0  0  0  0  0  0  0  0  0
    3.5905   -3.0372    0.8680 C   0  0  1  0  0  0  0  0  0  0  0  0
    2.2586   -2.6142    1.1220 O   0  0  0  0  0  0  0  0  0  0  0  0
    4.4566   -3.0302    2.2018 C   0  0  1  0  0  0  0  0  0  0  0  0
    3.8909   -2.1700    3.3588 C   0  0  0  0  0  0  0  0  0  0  0  0
    4.9014   -4.4739    2.6356 C   0  0  1  0  0  0  0  0  0  0  0  0
    3.6789   -5.3019    3.1253 C   0  0  2  0  0  0  0  0  0  0  0  0
    3.8519   -5.9187    4.5680 C   0  0  0  0  0  0  0  0  0  0  0  0
    2.5570   -5.8815    5.2074 O   0  0  0  0  0  0  0  0  0  0  0  0
    1.9876   -7.1177    5.5671 N   0  0  0  0  0  0  0  0  0  0  0  0
    1.6197   -8.1516    4.7561 C   0  0  0  0  0  0  0  0  0  0  0  0
    0.9147   -9.1030    5.3506 N   0  0  0  0  0  0  0  0  0  0  0  0
    0.8648   -8.6751    6.6660 C   0  0  0  0  0  0  0  0  0  0  0  0
    0.2661   -9.2597    7.7928 C   0  0  0  0  0  0  0  0  0  0  0  0
    0.3013   -8.6152    9.0451 C   0  0  0  0  0  0  0  0  0  0  0  0
    0.9608   -7.3827    9.1896 C   0  0  0  0  0  0  0  0  0  0  0  0
    1.5783   -6.7905    8.0803 C   0  0  0  0  0  0  0  0  0  0  0  0
    1.5330   -7.4311    6.8397 C   0  0  0  0  0  0  0  0  0  0  0  0
    2.0950   -8.2466    3.3491 C   0  0  1  0  0  0  0  0  0  0  0  0
    3.0596   -9.3721    3.0938 C   0  0  0  0  0  0  0  0  0  0  0  0
    4.2575   -9.0521    3.6785 O   0  0  0  0  0  0  0  0  0  0  0  0
    1.1720   -8.0514    2.2473 O   0  0  0  0  0  0  0  0  0  0  0  0
    1.9289   -6.9021    2.6609 C   0  0  2  0  0  0  0  0  0  0  0  0
    5.6637   -5.2120    1.4610 C   0  0  1  0  0  0  0  0  0  0  0  0
    7.1306   -4.6839    1.5047 C   0  0  0  0  0  0  0  0  0  0  0  0
    6.4098  -11.2371    2.3053 H   0  0  0  0  0  0  0  0  0  0  0  0
    6.1874  -10.0469    3.5554 H   0  0  0  0  0  0  0  0  0  0  0  0
    7.7250  -10.2185    2.7946 H   0  0  0  0  0  0  0  0  0  0  0  0
    6.7131   -9.5096    0.5442 H   0  0  0  0  0  0  0  0  0  0  0  0
    5.1514   -9.3963    1.1967 H   0  0  0  0  0  0  0  0  0  0  0  0
    8.5121   -8.3650    2.2014 H   0  0  0  0  0  0  0  0  0  0  0  0
    8.1974   -6.7623    2.6009 H   0  0  0  0  0  0  0  0  0  0  0  0
    8.4752   -7.2298    0.8845 H   0  0  0  0  0  0  0  0  0  0  0  0
    6.8109   -4.2543   -0.9609 H   0  0  0  0  0  0  0  0  0  0  0  0
    5.3211   -4.2039   -1.8630 H   0  0  0  0  0  0  0  0  0  0  0  0
    6.3237   -2.1334    0.1014 H   0  0  0  0  0  0  0  0  0  0  0  0
    5.9652   -0.6016   -1.7085 H   0  0  0  0  0  0  0  0  0  0  0  0
    5.2713   -1.8185   -2.7406 H   0  0  0  0  0  0  0  0  0  0  0  0
    6.9686   -1.9565   -2.2925 H   0  0  0  0  0  0  0  0  0  0  0  0
    1.9964   -2.0592    0.3893 H   0  0  0  0  0  0  0  0  0  0  0  0
    5.3948   -2.5166    2.0027 H   0  0  0  0  0  0  0  0  0  0  0  0
    2.9037   -2.4912    3.6998 H   0  0  0  0  0  0  0  0  0  0  0  0
    3.7954   -1.1260    3.0542 H   0  0  0  0  0  0  0  0  0  0  0  0
    4.5575   -2.1964    4.2242 H   0  0  0  0  0  0  0  0  0  0  0  0
    5.5857   -4.3665    3.4759 H   0  0  0  0  0  0  0  0  0  0  0  0
    2.8728   -4.5753    3.2701 H   0  0  0  0  0  0  0  0  0  0  0  0
    4.3534   -6.8925    4.5792 H   0  0  0  0  0  0  0  0  0  0  0  0
    4.5278   -5.2785    5.1504 H   0  0  0  0  0  0  0  0  0  0  0  0
   -0.1973  -10.2235    7.6675 H   0  0  0  0  0  0  0  0  0  0  0  0
   -0.1532   -9.0352    9.9214 H   0  0  0  0  0  0  0  0  0  0  0  0
    1.0026   -6.8994   10.1556 H   0  0  0  0  0  0  0  0  0  0  0  0
    2.0848   -5.8513    8.1729 H   0  0  0  0  0  0  0  0  0  0  0  0
    2.6752  -10.3205    3.4941 H   0  0  0  0  0  0  0  0  0  0  0  0
    3.1941   -9.4970    2.0294 H   0  0  0  0  0  0  0  0  0  0  0  0
    4.6512   -8.3688    3.1632 H   0  0  0  0  0  0  0  0  0  0  0  0
    1.2567   -6.1538    3.0769 H   0  0  0  0  0  0  0  0  0  0  0  0
    7.7631   -5.1528    0.7572 H   0  0  0  0  0  0  0  0  0  0  0  0
    7.5757   -4.8330    2.4815 H   0  0  0  0  0  0  0  0  0  0  0  0
    7.2102   -3.6120    1.3327 H   0  0  0  0  0  0  0  0  0  0  0  0
  1  2  1  0
  1 41  1  0
  1 42  1  0
  1 43  1  0
  2  3  1  0
  2 44  1  0
  2 45  1  0
  3  4  1  0
  3  5  2  3
  4 46  1  0
  4 47  1  0
  4 48  1  0
  5 39  1  0
  5  6  1  0
  7  6  1  6
  7 22  1  0
  7 38  1  0
  7  8  1  0
  8  9  2  0
  8 10  1  0
 10 17  1  0
 10 11  2  0
 11 39  1  0
 11 12  1  0
 12 13  1  0
 12 49  1  0
 12 50  1  0
 13 14  1  0
 13 15  1  0
 13 51  1  1
 14 52  1  0
 14 53  1  0
 14 54  1  0
 15 16  2  0
 15 17  1  0
 17 18  1  1
 17 19  1  0
 18 55  1  0
 19 20  1  0
 19 21  1  0
 19 56  1  6
 20 57  1  0
 20 58  1  0
 20 59  1  0
 21 22  1  0
 21 39  1  0
 21 60  1  1
 22 23  1  0
 22 61  1  1
 23 24  1  0
 23 62  1  0
 23 63  1  0
 24 25  1  0
 25 33  1  0
 25 26  1  0
 26 27  2  0
 26 34  1  0
 27 28  1  0
 28 33  2  0
 28 29  1  0
 29 30  2  0
 29 64  1  0
 30 31  1  0
 30 65  1  0
 31 32  2  0
 31 66  1  0
 32 33  1  0
 32 67  1  0
 34 38  1  0
 34 35  1  6
 34 37  1  0
 35 36  1  0
 35 68  1  0
 35 69  1  0
 36 70  1  0
 37 38  1  0
 38 71  1  1
 39 40  1  6
 40 72  1  0
 40 73  1  0
 40 74  1  0
M  END
>  <i_m_ct_stereo_status>  (35) 
1

>  <s_m_source_file>  (35) 
/var/tmp/pbs.5076255.sched01/tmpzk3r62u5/0tgg_cfwk.sdf

>  <i_m_source_file_index>  (35) 
16

>  <i_lp_mmshare_version>  (35) 
48012

>  <i_f3d_flags>  (35) 
0

>  <s_epik_input>  (35) 
W0NIMl0xW0NAQEhdKFtDSDNdKUMoPU8pW0NAXShbT0hdKShbQ0BIXTJbQ0gzXSlDKEMzPU8pPUMxW0NAXShbQ0gzXSkoQygvTzQpPUMoW0NIM10pXFtDSDJdW0NIM10pW0NAQEhdMltDQEBIXShbQ0BAXTM0NSlbQ0gyXU9uNmMoW0NAQF03KFtDQEBIXTVPNylbQ0gyXVtPSF0pbmM4YzZbY0hdW2NIXVtjSF1bY0hdOA==

>  <s_epik_cmdline>  (35) 
J2VwaWtfcHl0aG9uJywgJy1waHQnLCAnMi4wJywgJy1waCcsICc3LjAnLCAnLXRuJywgJzgnLCAnLW1hJywgJzIwMCcsICctaW1hZScsICc8aW5maWxlLm1hZT4nLCAnLW9tYWUnLCAnPG91dGZpbGUubWFlPic=

>  <r_lp_tautomer_probability>  (35) 
0.99995

>  <r_epik_Ionization_Penalty>  (35) 
0.0151419

>  <r_epik_Ionization_Penalty_Charging>  (35) 
0

>  <r_epik_Ionization_Penalty_Neutral>  (35) 
0.0151419

>  <r_epik_State_Penalty>  (35) 
0.0118791

>  <r_epik_Charging_Adjusted_Penalty>  (35) 
0.0118791

>  <i_epik_Tot_Q>  (35) 
0

>  <i_epik_Tot_abs_Q>  (35) 
0

>  <s_lp_Force_Field>  (35) 
OPLS3e

>  <r_lp_Energy>  (35) 
148.651

>  <b_lp_Chiralities_Consistent>  (35) 
1

>  <s_lp_Variant>  (35) 
10:0-2

>  <s_i_glide_gridfile>  (35) 
pfpi4k_grid

>  <i_i_glide_lignum>  (35) 
16

>  <i_i_glide_rotatable_bonds>  (35) 
4

>  <r_i_docking_score>  (35) 
-2.22682

>  <r_i_glide_ligand_efficiency>  (35) 
-0.0556705

>  <r_i_glide_ligand_efficiency_sa>  (35) 
-0.190391

>  <r_i_glide_ligand_efficiency_ln>  (35) 
-0.474915

>  <r_i_glide_gscore>  (35) 
-2.22682

>  <r_i_glide_lipo>  (35) 
-0.570733

>  <r_i_glide_hbond>  (35) 
-0.120603

>  <r_i_glide_metal>  (35) 
-0

>  <r_i_glide_rewards>  (35) 
0

>  <r_i_glide_evdw>  (35) 
-26.5692

>  <r_i_glide_ecoul>  (35) 
-1.88847

>  <r_i_glide_erotb>  (35) 
0.138636

>  <r_i_glide_esite>  (35) 
-0.0623905

>  <r_i_glide_emodel>  (35) 
-27.6429

>  <r_i_glide_energy>  (35) 
-28.4577

>  <r_i_glide_einternal>  (35) 
3.62074

>  <r_i_glide_intrahb_reward>  (35) 
-0

>  <i_i_glide_confnum>  (35) 
6

>  <i_i_glide_posenum>  (35) 
1

>  <r_i_glide_eff_state_penalty>  (35) 
0

>  <ligand_id>  (35) 
10

>  <original_smiles>  (35) 
CCC(C)=C1OC23C(=O)C4=C5CC(C)C(=O)C4(O)C(C)C(C2COn2c(nc4ccccc42)C2(CO)OC23)C51C

>  <smiles>  (35) 
[H]OC([H])([H])C12OC1([H])C13OC(=C(C([H])([H])[H])C([H])([H])C([H])([H])[H])C4(C([H])([H])[H])C5=C(C1=O)C(O[H])(C(=O)C([H])(C([H])([H])[H])C5([H])[H])C([H])(C([H])([H])[H])C4([H])C3([H])C([H])([H])On1c2nc2c([H])c([H])c([H])c([H])c21

$$$$
10:1:1
     RDKit          3D

 74 81  0  0  1  0  0  0  0  0999 V2000
    7.5968    1.3344    5.6569 C   0  0  0  0  0  0  0  0  0  0  0  0
    6.3621    0.5107    5.2433 C   0  0  0  0  0  0  0  0  0  0  0  0
    5.0675    0.8635    5.9801 C   0  0  0  0  0  0  0  0  0  0  0  0
    5.2985    0.9257    7.4853 C   0  0  0  0  0  0  0  0  0  0  0  0
    3.8853    1.0630    5.3211 C   0  0  0  0  0  0  0  0  0  0  0  0
    3.8527    0.7330    3.9713 O   0  0  0  0  0  0  0  0  0  0  0  0
    2.5854    0.4583    3.3325 C   0  0  2  0  0  0  0  0  0  0  0  0
    1.9680    1.7879    2.8688 C   0  0  0  0  0  0  0  0  0  0  0  0
    1.8063    2.0004    1.6803 O   0  0  0  0  0  0  0  0  0  0  0  0
    1.5239    2.7604    3.8888 C   0  0  0  0  0  0  0  0  0  0  0  0
    2.3122    2.9310    4.9641 C   0  0  0  0  0  0  0  0  0  0  0  0
    2.0327    4.2642    5.6831 C   0  0  0  0  0  0  0  0  0  0  0  0
    0.5273    4.5332    5.9802 C   0  0  1  0  0  0  0  0  0  0  0  0
    0.2421    6.0241    6.2561 C   0  0  0  0  0  0  0  0  0  0  0  0
   -0.3812    3.9447    4.8783 C   0  0  0  0  0  0  0  0  0  0  0  0
   -1.4073    4.5233    4.5149 O   0  0  0  0  0  0  0  0  0  0  0  0
    0.0561    2.5784    4.2964 C   0  0  1  0  0  0  0  0  0  0  0  0
   -0.7763    2.2398    3.1897 O   0  0  0  0  0  0  0  0  0  0  0  0
   -0.0154    1.4506    5.4142 C   0  0  1  0  0  0  0  0  0  0  0  0
   -1.2726    0.5480    5.3795 C   0  0  0  0  0  0  0  0  0  0  0  0
    1.3398    0.6624    5.5698 C   0  0  1  0  0  0  0  0  0  0  0  0
    1.6114   -0.2315    4.3320 C   0  0  2  0  0  0  0  0  0  0  0  0
    1.9453   -1.7305    4.6506 C   0  0  0  0  0  0  0  0  0  0  0  0
    1.3106   -2.5442    3.6541 O   0  0  0  0  0  0  0  0  0  0  0  0
    2.1450   -3.3484    2.8738 N   0  0  0  0  0  0  0  0  0  0  0  0
    3.1777   -2.9638    2.0695 C   0  0  0  0  0  0  0  0  0  0  0  0
    3.6819   -3.9300    1.3002 N   0  0  0  0  0  0  0  0  0  0  0  0
    2.9200   -5.0335    1.6577 C   0  0  0  0  0  0  0  0  0  0  0  0
    2.9701   -6.3688    1.2035 C   0  0  0  0  0  0  0  0  0  0  0  0
    2.0765   -7.3452    1.6988 C   0  0  0  0  0  0  0  0  0  0  0  0
    1.1148   -6.9979    2.6640 C   0  0  0  0  0  0  0  0  0  0  0  0
    1.0496   -5.6725    3.1386 C   0  0  0  0  0  0  0  0  0  0  0  0
    1.9502   -4.7041    2.6458 C   0  0  0  0  0  0  0  0  0  0  0  0
    3.7504   -1.5817    2.1775 C   0  0  1  0  0  0  0  0  0  0  0  0
    5.1423   -1.4970    2.7730 C   0  0  0  0  0  0  0  0  0  0  0  0
    6.0965   -2.2341    2.0295 O   0  0  0  0  0  0  0  0  0  0  0  0
    3.5726   -0.6470    1.0909 O   0  0  0  0  0  0  0  0  0  0  0  0
    2.6526   -0.5546    2.1753 C   0  0  2  0  0  0  0  0  0  0  0  0
    2.5374    1.6564    5.8333 C   0  0  1  0  0  0  0  0  0  0  0  0
    2.5088    1.9913    7.3500 C   0  0  0  0  0  0  0  0  0  0  0  0
    8.4293    1.1024    4.9949 H   0  0  0  0  0  0  0  0  0  0  0  0
    7.9360    1.1249    6.6710 H   0  0  0  0  0  0  0  0  0  0  0  0
    7.4155    2.4064    5.5842 H   0  0  0  0  0  0  0  0  0  0  0  0
    6.2475    0.6959    4.1814 H   0  0  0  0  0  0  0  0  0  0  0  0
    6.5653   -0.5499    5.3856 H   0  0  0  0  0  0  0  0  0  0  0  0
    6.1712    0.3403    7.7674 H   0  0  0  0  0  0  0  0  0  0  0  0
    4.4990    0.4589    8.0462 H   0  0  0  0  0  0  0  0  0  0  0  0
    5.4638    1.9464    7.8219 H   0  0  0  0  0  0  0  0  0  0  0  0
    2.6590    4.4240    6.5646 H   0  0  0  0  0  0  0  0  0  0  0  0
    2.3503    5.0335    4.9783 H   0  0  0  0  0  0  0  0  0  0  0  0
    0.2668    4.0043    6.8925 H   0  0  0  0  0  0  0  0  0  0  0  0
   -0.7673    6.1684    6.6382 H   0  0  0  0  0  0  0  0  0  0  0  0
    0.3510    6.6356    5.3594 H   0  0  0  0  0  0  0  0  0  0  0  0
    0.9226    6.4174    7.0105 H   0  0  0  0  0  0  0  0  0  0  0  0
   -0.5883    2.8428    2.4775 H   0  0  0  0  0  0  0  0  0  0  0  0
   -0.1382    1.9449    6.3747 H   0  0  0  0  0  0  0  0  0  0  0  0
   -1.3725   -0.0182    4.4522 H   0  0  0  0  0  0  0  0  0  0  0  0
   -2.1820    1.1418    5.4866 H   0  0  0  0  0  0  0  0  0  0  0  0
   -1.2525   -0.1730    6.1977 H   0  0  0  0  0  0  0  0  0  0  0  0
    1.2415    0.0052    6.4309 H   0  0  0  0  0  0  0  0  0  0  0  0
    0.6627   -0.3085    3.8002 H   0  0  0  0  0  0  0  0  0  0  0  0
    3.0132   -1.9213    4.7646 H   0  0  0  0  0  0  0  0  0  0  0  0
    1.4919   -2.0150    5.5988 H   0  0  0  0  0  0  0  0  0  0  0  0
    3.7051   -6.6416    0.4652 H   0  0  0  0  0  0  0  0  0  0  0  0
    2.1339   -8.3643    1.3436 H   0  0  0  0  0  0  0  0  0  0  0  0
    0.4368   -7.7565    3.0455 H   0  0  0  0  0  0  0  0  0  0  0  0
    0.3299   -5.3987    3.8885 H   0  0  0  0  0  0  0  0  0  0  0  0
    5.4654   -0.4695    2.6934 H   0  0  0  0  0  0  0  0  0  0  0  0
    5.1319   -1.8168    3.8141 H   0  0  0  0  0  0  0  0  0  0  0  0
    5.8457   -3.1483    2.0000 H   0  0  0  0  0  0  0  0  0  0  0  0
    1.6587   -0.8184    1.8024 H   0  0  0  0  0  0  0  0  0  0  0  0
    3.3345    2.6367    7.6451 H   0  0  0  0  0  0  0  0  0  0  0  0
    2.5261    1.0938    7.9667 H   0  0  0  0  0  0  0  0  0  0  0  0
    1.5980    2.5071    7.6477 H   0  0  0  0  0  0  0  0  0  0  0  0
  1  2  1  0
  1 41  1  0
  1 42  1  0
  1 43  1  0
  2  3  1  0
  2 44  1  0
  2 45  1  0
  3  4  1  0
  3  5  2  3
  4 46  1  0
  4 47  1  0
  4 48  1  0
  5 39  1  0
  5  6  1  0
  7  6  1  1
  7 22  1  0
  7 38  1  0
  7  8  1  0
  8  9  2  0
  8 10  1  0
 10 17  1  0
 10 11  2  0
 11 39  1  0
 11 12  1  0
 12 13  1  0
 12 49  1  0
 12 50  1  0
 13 14  1  0
 13 15  1  0
 13 51  1  1
 14 52  1  0
 14 53  1  0
 14 54  1  0
 15 16  2  0
 15 17  1  0
 17 18  1  6
 17 19  1  0
 18 55  1  0
 19 20  1  0
 19 21  1  0
 19 56  1  1
 20 57  1  0
 20 58  1  0
 20 59  1  0
 21 22  1  0
 21 39  1  0
 21 60  1  1
 22 23  1  0
 22 61  1  6
 23 24  1  0
 23 62  1  0
 23 63  1  0
 24 25  1  0
 25 33  1  0
 25 26  1  0
 26 27  2  0
 26 34  1  0
 27 28  1  0
 28 33  2  0
 28 29  1  0
 29 30  2  0
 29 64  1  0
 30 31  1  0
 30 65  1  0
 31 32  2  0
 31 66  1  0
 32 33  1  0
 32 67  1  0
 34 38  1  0
 34 35  1  1
 34 37  1  0
 35 36  1  0
 35 68  1  0
 35 69  1  0
 36 70  1  0
 37 38  1  0
 38 71  1  6
 39 40  1  1
 40 72  1  0
 40 73  1  0
 40 74  1  0
M  END
>  <i_m_ct_stereo_status>  (36) 
1

>  <s_m_source_file>  (36) 
/var/tmp/pbs.5076255.sched01/tmpzk3r62u5/0tgg_cfwk.sdf

>  <i_m_source_file_index>  (36) 
16

>  <i_lp_mmshare_version>  (36) 
48012

>  <i_f3d_flags>  (36) 
0

>  <s_epik_input>  (36) 
W0NIMl0xW0NAQEhdKFtDSDNdKUMoPU8pW0NAXShbT0hdKShbQ0BIXTJbQ0gzXSlDKEMzPU8pPUMxW0NAXShbQ0gzXSkoQygvTzQpPUMoW0NIM10pXFtDSDJdW0NIM10pW0NAQEhdMltDQEBIXShbQ0BAXTM0NSlbQ0gyXU9uNmMoW0NAQF03KFtDQEBIXTVPNylbQ0gyXVtPSF0pbmM4YzZbY0hdW2NIXVtjSF1bY0hdOA==

>  <s_epik_cmdline>  (36) 
J2VwaWtfcHl0aG9uJywgJy1waHQnLCAnMi4wJywgJy1waCcsICc3LjAnLCAnLXRuJywgJzgnLCAnLW1hJywgJzIwMCcsICctaW1hZScsICc8aW5maWxlLm1hZT4nLCAnLW9tYWUnLCAnPG91dGZpbGUubWFlPic=

>  <r_lp_tautomer_probability>  (36) 
0.99995

>  <r_epik_Ionization_Penalty>  (36) 
0.0151419

>  <r_epik_Ionization_Penalty_Charging>  (36) 
0

>  <r_epik_Ionization_Penalty_Neutral>  (36) 
0.0151419

>  <r_epik_State_Penalty>  (36) 
0.0118791

>  <r_epik_Charging_Adjusted_Penalty>  (36) 
0.0118791

>  <i_epik_Tot_Q>  (36) 
0

>  <i_epik_Tot_abs_Q>  (36) 
0

>  <s_lp_Force_Field>  (36) 
OPLS3e

>  <r_lp_Energy>  (36) 
148.651

>  <b_lp_Chiralities_Consistent>  (36) 
1

>  <s_lp_Variant>  (36) 
10:0-2

>  <s_i_glide_gridfile>  (36) 
pfpi4k_grid

>  <i_i_glide_lignum>  (36) 
16

>  <i_i_glide_rotatable_bonds>  (36) 
4

>  <r_i_docking_score>  (36) 
-1.94069

>  <r_i_glide_ligand_efficiency>  (36) 
-0.0485173

>  <r_i_glide_ligand_efficiency_sa>  (36) 
-0.165927

>  <r_i_glide_ligand_efficiency_ln>  (36) 
-0.413892

>  <r_i_glide_gscore>  (36) 
-1.94069

>  <r_i_glide_lipo>  (36) 
-0.323357

>  <r_i_glide_hbond>  (36) 
-0.0647726

>  <r_i_glide_metal>  (36) 
-0

>  <r_i_glide_rewards>  (36) 
0

>  <r_i_glide_evdw>  (36) 
-27.3414

>  <r_i_glide_ecoul>  (36) 
-1.91561

>  <r_i_glide_erotb>  (36) 
0.138636

>  <r_i_glide_esite>  (36) 
-0.0367835

>  <r_i_glide_emodel>  (36) 
-31.1775

>  <r_i_glide_energy>  (36) 
-29.257

>  <r_i_glide_einternal>  (36) 
3.1549

>  <r_i_glide_intrahb_reward>  (36) 
-0

>  <i_i_glide_confnum>  (36) 
2

>  <i_i_glide_posenum>  (36) 
40

>  <r_i_glide_eff_state_penalty>  (36) 
0

>  <ligand_id>  (36) 
10

>  <original_smiles>  (36) 
CCC(C)=C1OC23C(=O)C4=C5CC(C)C(=O)C4(O)C(C)C(C2COn2c(nc4ccccc42)C2(CO)OC23)C51C

>  <smiles>  (36) 
[H]OC([H])([H])C12OC1([H])C13OC(=C(C([H])([H])[H])C([H])([H])C([H])([H])[H])C4(C([H])([H])[H])C5=C(C1=O)C(O[H])(C(=O)C([H])(C([H])([H])[H])C5([H])[H])C([H])(C([H])([H])[H])C4([H])C3([H])C([H])([H])On1c2nc2c([H])c([H])c([H])c([H])c21

$$$$
10:1:2
     RDKit          3D

 74 81  0  0  1  0  0  0  0  0999 V2000
    6.3566   -3.9012    6.9429 C   0  0  0  0  0  0  0  0  0  0  0  0
    6.1670   -2.5034    6.3015 C   0  0  0  0  0  0  0  0  0  0  0  0
    4.9208   -1.7148    6.7279 C   0  0  0  0  0  0  0  0  0  0  0  0
    4.9655   -1.3926    8.2158 C   0  0  0  0  0  0  0  0  0  0  0  0
    3.9873   -1.2785    5.8246 C   0  0  0  0  0  0  0  0  0  0  0  0
    4.0551   -1.7748    4.5199 O   0  0  0  0  0  0  0  0  0  0  0  0
    2.8695   -1.7661    3.6784 C   0  0  2  0  0  0  0  0  0  0  0  0
    2.7688   -0.4042    2.9544 C   0  0  0  0  0  0  0  0  0  0  0  0
    2.8840   -0.3473    1.7381 O   0  0  0  0  0  0  0  0  0  0  0  0
    2.4943    0.7984    3.7880 C   0  0  0  0  0  0  0  0  0  0  0  0
    3.1423    0.9018    4.9530 C   0  0  0  0  0  0  0  0  0  0  0  0
    3.1775    2.3560    5.4681 C   0  0  0  0  0  0  0  0  0  0  0  0
    1.8003    3.0918    5.4569 C   0  0  1  0  0  0  0  0  0  0  0  0
    1.9505    4.6241    5.5101 C   0  0  0  0  0  0  0  0  0  0  0  0
    0.9127    2.6073    4.3005 C   0  0  0  0  0  0  0  0  0  0  0  0
    0.1217    3.3833    3.7429 O   0  0  0  0  0  0  0  0  0  0  0  0
    0.9864    1.1040    3.9430 C   0  0  1  0  0  0  0  0  0  0  0  0
    0.2262    0.8429    2.7688 O   0  0  0  0  0  0  0  0  0  0  0  0
    0.4287    0.2398    5.1478 C   0  0  1  0  0  0  0  0  0  0  0  0
   -1.0275   -0.2639    4.9850 C   0  0  0  0  0  0  0  0  0  0  0  0
    1.4424   -0.8642    5.6274 C   0  0  1  0  0  0  0  0  0  0  0  0
    1.6006   -1.9845    4.5675 C   0  0  2  0  0  0  0  0  0  0  0  0
    1.4064   -3.4428    5.1068 C   0  0  0  0  0  0  0  0  0  0  0  0
    0.6980   -4.1941    4.1086 O   0  0  0  0  0  0  0  0  0  0  0  0
    1.3554   -5.3037    3.5761 N   0  0  0  0  0  0  0  0  0  0  0  0
    2.5338   -5.3758    2.9430 C   0  0  0  0  0  0  0  0  0  0  0  0
    2.8350   -6.5616    2.3782 N   0  0  0  0  0  0  0  0  0  0  0  0
    1.7285   -7.3236    2.7226 C   0  0  0  0  0  0  0  0  0  0  0  0
    1.4392   -8.6770    2.4420 C   0  0  0  0  0  0  0  0  0  0  0  0
    0.2331   -9.2678    2.8795 C   0  0  0  0  0  0  0  0  0  0  0  0
   -0.7133   -8.5044    3.6035 C   0  0  0  0  0  0  0  0  0  0  0  0
   -0.4363   -7.1533    3.8979 C   0  0  0  0  0  0  0  0  0  0  0  0
    0.7730   -6.5768    3.4730 C   0  0  0  0  0  0  0  0  0  0  0  0
    3.5085   -4.2244    3.0041 C   0  0  1  0  0  0  0  0  0  0  0  0
    4.7484   -4.4398    3.8147 C   0  0  0  0  0  0  0  0  0  0  0  0
    5.4998   -5.5997    3.5015 O   0  0  0  0  0  0  0  0  0  0  0  0
    3.7604   -3.4549    1.7821 O   0  0  0  0  0  0  0  0  0  0  0  0
    2.7732   -2.9287    2.7014 C   0  0  2  0  0  0  0  0  0  0  0  0
    2.8305   -0.2325    5.9893 C   0  0  1  0  0  0  0  0  0  0  0  0
    2.6902    0.3463    7.4318 C   0  0  0  0  0  0  0  0  0  0  0  0
    7.2885   -4.3440    6.5847 H   0  0  0  0  0  0  0  0  0  0  0  0
    5.5512   -4.5877    6.6953 H   0  0  0  0  0  0  0  0  0  0  0  0
    6.4366   -3.9006    8.0269 H   0  0  0  0  0  0  0  0  0  0  0  0
    7.0344   -1.8717    6.5404 H   0  0  0  0  0  0  0  0  0  0  0  0
    6.1949   -2.5879    5.2321 H   0  0  0  0  0  0  0  0  0  0  0  0
    5.5909   -2.0707    8.7826 H   0  0  0  0  0  0  0  0  0  0  0  0
    3.9866   -1.5250    8.6699 H   0  0  0  0  0  0  0  0  0  0  0  0
    5.3652   -0.3992    8.4076 H   0  0  0  0  0  0  0  0  0  0  0  0
    3.6927    2.4753    6.4253 H   0  0  0  0  0  0  0  0  0  0  0  0
    3.8137    2.8895    4.7533 H   0  0  0  0  0  0  0  0  0  0  0  0
    1.2678    2.8129    6.3650 H   0  0  0  0  0  0  0  0  0  0  0  0
    0.9869    5.1085    5.6723 H   0  0  0  0  0  0  0  0  0  0  0  0
    2.3647    5.0293    4.5851 H   0  0  0  0  0  0  0  0  0  0  0  0
    2.6019    4.9301    6.3286 H   0  0  0  0  0  0  0  0  0  0  0  0
    0.4937    0.0504    2.3624 H   0  0  0  0  0  0  0  0  0  0  0  0
    0.3265    0.8958    6.0115 H   0  0  0  0  0  0  0  0  0  0  0  0
   -1.1662   -0.9205    4.1252 H   0  0  0  0  0  0  0  0  0  0  0  0
   -1.7161    0.5723    4.8541 H   0  0  0  0  0  0  0  0  0  0  0  0
   -1.3507   -0.8179    5.8670 H   0  0  0  0  0  0  0  0  0  0  0  0
    1.0245   -1.3194    6.5294 H   0  0  0  0  0  0  0  0  0  0  0  0
    0.7529   -1.8717    3.8896 H   0  0  0  0  0  0  0  0  0  0  0  0
    2.3369   -3.9086    5.4410 H   0  0  0  0  0  0  0  0  0  0  0  0
    0.7590   -3.4319    5.9833 H   0  0  0  0  0  0  0  0  0  0  0  0
    2.1439   -9.2702    1.8826 H   0  0  0  0  0  0  0  0  0  0  0  0
    0.0249  -10.2955    2.6538 H   0  0  0  0  0  0  0  0  0  0  0  0
   -1.6242   -8.9655    3.9308 H   0  0  0  0  0  0  0  0  0  0  0  0
   -1.1396   -6.5797    4.4733 H   0  0  0  0  0  0  0  0  0  0  0  0
    5.4028   -3.5964    3.6094 H   0  0  0  0  0  0  0  0  0  0  0  0
    4.4664   -4.4647    4.8634 H   0  0  0  0  0  0  0  0  0  0  0  0
    4.9627   -6.3653    3.5688 H   0  0  0  0  0  0  0  0  0  0  0  0
    1.8087   -2.9600    2.1821 H   0  0  0  0  0  0  0  0  0  0  0  0
    3.6206    0.7743    7.8042 H   0  0  0  0  0  0  0  0  0  0  0  0
    2.3430   -0.4046    8.1401 H   0  0  0  0  0  0  0  0  0  0  0  0
    1.9502    1.1397    7.5028 H   0  0  0  0  0  0  0  0  0  0  0  0
  1  2  1  0
  1 41  1  0
  1 42  1  0
  1 43  1  0
  2  3  1  0
  2 44  1  0
  2 45  1  0
  3  4  1  0
  3  5  2  3
  4 46  1  0
  4 47  1  0
  4 48  1  0
  5 39  1  0
  5  6  1  0
  7  6  1  1
  7 22  1  0
  7 38  1  0
  7  8  1  0
  8  9  2  0
  8 10  1  0
 10 17  1  0
 10 11  2  0
 11 39  1  0
 11 12  1  0
 12 13  1  0
 12 49  1  0
 12 50  1  0
 13 14  1  0
 13 15  1  0
 13 51  1  1
 14 52  1  0
 14 53  1  0
 14 54  1  0
 15 16  2  0
 15 17  1  0
 17 18  1  6
 17 19  1  0
 18 55  1  0
 19 20  1  0
 19 21  1  0
 19 56  1  1
 20 57  1  0
 20 58  1  0
 20 59  1  0
 21 22  1  0
 21 39  1  0
 21 60  1  1
 22 23  1  0
 22 61  1  6
 23 24  1  0
 23 62  1  0
 23 63  1  0
 24 25  1  0
 25 33  1  0
 25 26  1  0
 26 27  2  0
 26 34  1  0
 27 28  1  0
 28 33  2  0
 28 29  1  0
 29 30  2  0
 29 64  1  0
 30 31  1  0
 30 65  1  0
 31 32  2  0
 31 66  1  0
 32 33  1  0
 32 67  1  0
 34 38  1  0
 34 35  1  1
 34 37  1  0
 35 36  1  0
 35 68  1  0
 35 69  1  0
 36 70  1  0
 37 38  1  0
 38 71  1  6
 39 40  1  1
 40 72  1  0
 40 73  1  0
 40 74  1  0
M  END
>  <i_m_ct_stereo_status>  (37) 
1

>  <s_m_source_file>  (37) 
/var/tmp/pbs.5076255.sched01/tmpzk3r62u5/0tgg_cfwk.sdf

>  <i_m_source_file_index>  (37) 
16

>  <i_lp_mmshare_version>  (37) 
48012

>  <i_f3d_flags>  (37) 
0

>  <s_epik_input>  (37) 
W0NIMl0xW0NAQEhdKFtDSDNdKUMoPU8pW0NAXShbT0hdKShbQ0BIXTJbQ0gzXSlDKEMzPU8pPUMxW0NAXShbQ0gzXSkoQygvTzQpPUMoW0NIM10pXFtDSDJdW0NIM10pW0NAQEhdMltDQEBIXShbQ0BAXTM0NSlbQ0gyXU9uNmMoW0NAQF03KFtDQEBIXTVPNylbQ0gyXVtPSF0pbmM4YzZbY0hdW2NIXVtjSF1bY0hdOA==

>  <s_epik_cmdline>  (37) 
J2VwaWtfcHl0aG9uJywgJy1waHQnLCAnMi4wJywgJy1waCcsICc3LjAnLCAnLXRuJywgJzgnLCAnLW1hJywgJzIwMCcsICctaW1hZScsICc8aW5maWxlLm1hZT4nLCAnLW9tYWUnLCAnPG91dGZpbGUubWFlPic=

>  <r_lp_tautomer_probability>  (37) 
0.99995

>  <r_epik_Ionization_Penalty>  (37) 
0.0151419

>  <r_epik_Ionization_Penalty_Charging>  (37) 
0

>  <r_epik_Ionization_Penalty_Neutral>  (37) 
0.0151419

>  <r_epik_State_Penalty>  (37) 
0.0118791

>  <r_epik_Charging_Adjusted_Penalty>  (37) 
0.0118791

>  <i_epik_Tot_Q>  (37) 
0

>  <i_epik_Tot_abs_Q>  (37) 
0

>  <s_lp_Force_Field>  (37) 
OPLS3e

>  <r_lp_Energy>  (37) 
148.651

>  <b_lp_Chiralities_Consistent>  (37) 
1

>  <s_lp_Variant>  (37) 
10:0-2

>  <s_i_glide_gridfile>  (37) 
pfpi4k_grid

>  <i_i_glide_lignum>  (37) 
16

>  <i_i_glide_rotatable_bonds>  (37) 
4

>  <r_i_docking_score>  (37) 
-1.05722

>  <r_i_glide_ligand_efficiency>  (37) 
-0.0264305

>  <r_i_glide_ligand_efficiency_sa>  (37) 
-0.090391

>  <r_i_glide_ligand_efficiency_ln>  (37) 
-0.225474

>  <r_i_glide_gscore>  (37) 
-1.05722

>  <r_i_glide_lipo>  (37) 
-0.0546489

>  <r_i_glide_hbond>  (37) 
0

>  <r_i_glide_metal>  (37) 
-0

>  <r_i_glide_rewards>  (37) 
0

>  <r_i_glide_evdw>  (37) 
-26.5722

>  <r_i_glide_ecoul>  (37) 
1.5488

>  <r_i_glide_erotb>  (37) 
0.138636

>  <r_i_glide_esite>  (37) 
-0.0449181

>  <r_i_glide_emodel>  (37) 
-25.6292

>  <r_i_glide_energy>  (37) 
-25.0234

>  <r_i_glide_einternal>  (37) 
1.03246

>  <r_i_glide_intrahb_reward>  (37) 
-0

>  <i_i_glide_confnum>  (37) 
6

>  <i_i_glide_posenum>  (37) 
14

>  <r_i_glide_eff_state_penalty>  (37) 
0

>  <ligand_id>  (37) 
10

>  <original_smiles>  (37) 
CCC(C)=C1OC23C(=O)C4=C5CC(C)C(=O)C4(O)C(C)C(C2COn2c(nc4ccccc42)C2(CO)OC23)C51C

>  <smiles>  (37) 
[H]OC([H])([H])C12OC1([H])C13OC(=C(C([H])([H])[H])C([H])([H])C([H])([H])[H])C4(C([H])([H])[H])C5=C(C1=O)C(O[H])(C(=O)C([H])(C([H])([H])[H])C5([H])[H])C([H])(C([H])([H])[H])C4([H])C3([H])C([H])([H])On1c2nc2c([H])c([H])c([H])c([H])c21

$$$$
10:2:0
     RDKit          3D

 75 82  0  0  1  0  0  0  0  0999 V2000
   -0.8810   -3.5235    6.5773 C   0  0  0  0  0  0  0  0  0  0  0  0
    0.0167   -3.1962    7.7811 C   0  0  0  0  0  0  0  0  0  0  0  0
    0.7172   -4.4058    8.4231 C   0  0  0  0  0  0  0  0  0  0  0  0
   -0.3130   -5.4460    8.8642 C   0  0  0  0  0  0  0  0  0  0  0  0
    2.0587   -4.5980    8.6753 C   0  0  0  0  0  0  0  0  0  0  0  0
    2.4227   -5.8565    9.1418 O   0  0  0  0  0  0  0  0  0  0  0  0
    3.7942   -6.3058    9.0088 C   0  0  2  0  0  0  0  0  0  0  0  0
    4.6084   -5.8024   10.2211 C   0  0  0  0  0  0  0  0  0  0  0  0
    5.0780   -6.6064   11.0310 O   0  0  0  0  0  0  0  0  0  0  0  0
    4.8391   -4.3476   10.3487 C   0  0  0  0  0  0  0  0  0  0  0  0
    3.8011   -3.5288   10.0657 C   0  0  0  0  0  0  0  0  0  0  0  0
    3.9656   -2.1259   10.6859 C   0  0  0  0  0  0  0  0  0  0  0  0
    5.3459   -1.4612   10.4174 C   0  0  1  0  0  0  0  0  0  0  0  0
    5.6591   -0.3214   11.4126 C   0  0  0  0  0  0  0  0  0  0  0  0
    6.4785   -2.5107   10.3364 C   0  0  0  0  0  0  0  0  0  0  0  0
    7.6011   -2.2654   10.7600 O   0  0  0  0  0  0  0  0  0  0  0  0
    6.1170   -3.8549    9.6508 C   0  0  1  0  0  0  0  0  0  0  0  0
    7.2139   -4.7566    9.8049 O   0  0  0  0  0  0  0  0  0  0  0  0
    5.8044   -3.6187    8.1139 C   0  0  1  0  0  0  0  0  0  0  0  0
    6.9553   -3.9503    7.1346 C   0  0  0  0  0  0  0  0  0  0  0  0
    4.4086   -4.1995    7.6854 C   0  0  1  0  0  0  0  0  0  0  0  0
    4.4186   -5.7476    7.6950 C   0  0  2  0  0  0  0  0  0  0  0  0
    3.9211   -6.4335    6.3724 C   0  0  0  0  0  0  0  0  0  0  0  0
    4.7390   -7.5860    6.1148 O   0  0  0  0  0  0  0  0  0  0  0  0
    4.0969   -8.8234    6.0692 N   0  0  0  0  0  0  0  0  0  0  0  0
    3.3221   -9.3815    7.0612 C   0  0  0  0  0  0  0  0  0  0  0  0
    3.0141  -10.6527    6.6625 N   0  0  0  0  0  0  0  0  0  0  0  0
    3.5916  -10.9121    5.4264 C   0  0  0  0  0  0  0  0  0  0  0  0
    3.5545  -12.0626    4.6335 C   0  0  0  0  0  0  0  0  0  0  0  0
    4.2563  -12.0092    3.4144 C   0  0  0  0  0  0  0  0  0  0  0  0
    4.9620  -10.8508    3.0293 C   0  0  0  0  0  0  0  0  0  0  0  0
    4.9880   -9.6962    3.8398 C   0  0  0  0  0  0  0  0  0  0  0  0
    4.2770   -9.7542    5.0446 C   0  0  0  0  0  0  0  0  0  0  0  0
    2.8149   -8.6573    8.2687 C   0  0  1  0  0  0  0  0  0  0  0  0
    1.3339   -8.3264    8.2368 C   0  0  0  0  0  0  0  0  0  0  0  0
    0.4877   -9.4560    8.1748 O   0  0  0  0  0  0  0  0  0  0  0  0
    3.3209   -8.8496    9.6131 O   0  0  0  0  0  0  0  0  0  0  0  0
    3.9343   -7.8247    8.8383 C   0  0  2  0  0  0  0  0  0  0  0  0
    3.2664   -3.6138    8.6040 C   0  0  1  0  0  0  0  0  0  0  0  0
    2.9553   -2.2001    8.0423 C   0  0  0  0  0  0  0  0  0  0  0  0
   -1.1721   -2.5828    6.1050 H   0  0  0  0  0  0  0  0  0  0  0  0
   -1.7961   -4.0683    6.8330 H   0  0  0  0  0  0  0  0  0  0  0  0
   -0.3323   -4.0795    5.8086 H   0  0  0  0  0  0  0  0  0  0  0  0
    0.6798   -2.4821    7.3199 H   0  0  0  0  0  0  0  0  0  0  0  0
   -0.5350   -2.6658    8.5553 H   0  0  0  0  0  0  0  0  0  0  0  0
   -1.1877   -4.9480    9.2885 H   0  0  0  0  0  0  0  0  0  0  0  0
    0.0602   -6.0800    9.6707 H   0  0  0  0  0  0  0  0  0  0  0  0
   -0.6620   -6.0689    8.0358 H   0  0  0  0  0  0  0  0  0  0  0  0
    3.1418   -1.4418   10.4716 H   0  0  0  0  0  0  0  0  0  0  0  0
    3.9040   -2.2852   11.7614 H   0  0  0  0  0  0  0  0  0  0  0  0
    5.3204   -0.9966    9.4377 H   0  0  0  0  0  0  0  0  0  0  0  0
    6.5389    0.2416   11.1022 H   0  0  0  0  0  0  0  0  0  0  0  0
    5.8449   -0.6960   12.4194 H   0  0  0  0  0  0  0  0  0  0  0  0
    4.8287    0.3822   11.4664 H   0  0  0  0  0  0  0  0  0  0  0  0
    6.9995   -5.5938    9.4239 H   0  0  0  0  0  0  0  0  0  0  0  0
    5.7053   -2.5455    7.9584 H   0  0  0  0  0  0  0  0  0  0  0  0
    7.2628   -4.9968    7.1620 H   0  0  0  0  0  0  0  0  0  0  0  0
    7.8398   -3.3511    7.3604 H   0  0  0  0  0  0  0  0  0  0  0  0
    6.6672   -3.7259    6.1057 H   0  0  0  0  0  0  0  0  0  0  0  0
    4.2231   -3.8822    6.6611 H   0  0  0  0  0  0  0  0  0  0  0  0
    5.4650   -6.0479    7.7267 H   0  0  0  0  0  0  0  0  0  0  0  0
    2.8521   -6.6412    6.3606 H   0  0  0  0  0  0  0  0  0  0  0  0
    4.0959   -5.7649    5.5303 H   0  0  0  0  0  0  0  0  0  0  0  0
    3.0172  -12.9452    4.9347 H   0  0  0  0  0  0  0  0  0  0  0  0
    4.2486  -12.8747    2.7614 H   0  0  0  0  0  0  0  0  0  0  0  0
    5.4843  -10.8604    2.0798 H   0  0  0  0  0  0  0  0  0  0  0  0
    5.5257   -8.8119    3.5431 H   0  0  0  0  0  0  0  0  0  0  0  0
    1.0882   -7.8571    9.1781 H   0  0  0  0  0  0  0  0  0  0  0  0
    1.1042   -7.6505    7.4124 H   0  0  0  0  0  0  0  0  0  0  0  0
    0.8956  -10.1606    7.6789 H   0  0  0  0  0  0  0  0  0  0  0  0
    4.9673   -8.1187    8.6345 H   0  0  0  0  0  0  0  0  0  0  0  0
    2.1533   -1.7132    8.5936 H   0  0  0  0  0  0  0  0  0  0  0  0
    2.7089   -2.2348    6.9819 H   0  0  0  0  0  0  0  0  0  0  0  0
    3.8023   -1.5101    8.0986 H   0  0  0  0  0  0  0  0  0  0  0  0
    2.4277  -11.3355    7.1735 H   0  0  0  0  0  0  0  0  0  0  0  0
  1  2  1  0
  1 41  1  0
  1 42  1  0
  1 43  1  0
  2  3  1  0
  2 44  1  0
  2 45  1  0
  3  4  1  0
  3  5  2  3
  4 46  1  0
  4 47  1  0
  4 48  1  0
  5 39  1  0
  5  6  1  0
  7  6  1  1
  7 22  1  0
  7 38  1  0
  7  8  1  0
  8  9  2  0
  8 10  1  0
 10 17  1  0
 10 11  2  0
 11 39  1  0
 11 12  1  0
 12 13  1  0
 12 49  1  0
 12 50  1  0
 13 14  1  0
 13 15  1  0
 13 51  1  6
 14 52  1  0
 14 53  1  0
 14 54  1  0
 15 16  2  0
 15 17  1  0
 17 18  1  6
 17 19  1  0
 18 55  1  0
 19 20  1  0
 19 21  1  0
 19 56  1  1
 20 57  1  0
 20 58  1  0
 20 59  1  0
 21 22  1  0
 21 39  1  0
 21 60  1  6
 22 23  1  0
 22 61  1  1
 23 24  1  0
 23 62  1  0
 23 63  1  0
 24 25  1  0
 25 33  1  0
 25 26  1  0
 26 27  2  0
 26 34  1  0
 27 28  1  0
 27 75  1  0
 28 33  2  0
 28 29  1  0
 29 30  2  0
 29 64  1  0
 30 31  1  0
 30 65  1  0
 31 32  2  0
 31 66  1  0
 32 33  1  0
 32 67  1  0
 34 38  1  0
 34 35  1  1
 34 37  1  0
 35 36  1  0
 35 68  1  0
 35 69  1  0
 36 70  1  0
 37 38  1  0
 38 71  1  6
 39 40  1  6
 40 72  1  0
 40 73  1  0
 40 74  1  0
M  CHG  1  27   1
M  END
>  <i_m_ct_stereo_status>  (38) 
1

>  <s_m_source_file>  (38) 
/var/tmp/pbs.5076255.sched01/tmpzk3r62u5/0tgg_cfwk.sdf

>  <i_m_source_file_index>  (38) 
17

>  <i_lp_mmshare_version>  (38) 
48012

>  <i_f3d_flags>  (38) 
0

>  <s_epik_input>  (38) 
W0NIMl0xW0NAQEhdKFtDSDNdKUMoPU8pW0NAXShbT0hdKShbQ0BIXTJbQ0gzXSlDKEMzPU8pPUMxW0NAXShbQ0gzXSkoQygvTzQpPUMoW0NIM10pXFtDSDJdW0NIM10pW0NAQEhdMltDQEBIXShbQ0BAXTM0NSlbQ0gyXU9uNmMoW0NAQF03KFtDQEBIXTVPNylbQ0gyXVtPSF0pbmM4YzZbY0hdW2NIXVtjSF1bY0hdOA==

>  <s_epik_cmdline>  (38) 
J2VwaWtfcHl0aG9uJywgJy1waHQnLCAnMi4wJywgJy1waCcsICc3LjAnLCAnLXRuJywgJzgnLCAnLW1hJywgJzIwMCcsICctaW1hZScsICc8aW5maWxlLm1hZT4nLCAnLW9tYWUnLCAnPG91dGZpbGUubWFlPic=

>  <r_lp_tautomer_probability>  (38) 
0.99995

>  <r_epik_Ionization_Penalty>  (38) 
2.1803

>  <r_epik_Ionization_Penalty_Charging>  (38) 
2.1803

>  <r_epik_Ionization_Penalty_Neutral>  (38) 
5.5296e-06

>  <r_epik_State_Penalty>  (38) 
2.32228

>  <r_epik_Charging_Adjusted_Penalty>  (38) 
4.50258

>  <i_epik_Tot_Q>  (38) 
1

>  <i_epik_Tot_abs_Q>  (38) 
1

>  <s_lp_Force_Field>  (38) 
OPLS3e

>  <r_lp_Energy>  (38) 
152.726

>  <b_lp_Chiralities_Consistent>  (38) 
1

>  <s_lp_Variant>  (38) 
10:0-3

>  <s_i_glide_gridfile>  (38) 
pfpi4k_grid

>  <i_i_glide_lignum>  (38) 
17

>  <i_i_glide_rotatable_bonds>  (38) 
4

>  <r_i_docking_score>  (38) 
-2.43058

>  <r_i_glide_ligand_efficiency>  (38) 
-0.0607646

>  <r_i_glide_ligand_efficiency_sa>  (38) 
-0.207812

>  <r_i_glide_ligand_efficiency_ln>  (38) 
-0.518372

>  <r_i_glide_gscore>  (38) 
-2.43058

>  <r_i_glide_lipo>  (38) 
-0.0155133

>  <r_i_glide_hbond>  (38) 
-0.2

>  <r_i_glide_metal>  (38) 
-0

>  <r_i_glide_rewards>  (38) 
0

>  <r_i_glide_evdw>  (38) 
-14.0172

>  <r_i_glide_ecoul>  (38) 
-10.1098

>  <r_i_glide_erotb>  (38) 
0.138165

>  <r_i_glide_esite>  (38) 
-0.135901

>  <r_i_glide_emodel>  (38) 
-28.2827

>  <r_i_glide_energy>  (38) 
-24.127

>  <r_i_glide_einternal>  (38) 
1.56274

>  <r_i_glide_intrahb_reward>  (38) 
-0

>  <i_i_glide_confnum>  (38) 
6

>  <i_i_glide_posenum>  (38) 
31

>  <r_i_glide_eff_state_penalty>  (38) 
0

>  <ligand_id>  (38) 
10

>  <original_smiles>  (38) 
CCC(C)=C1OC23C(=O)C4=C5CC(C)C(=O)C4(O)C(C)C(C2COn2c(nc4ccccc42)C2(CO)OC23)C51C

>  <smiles>  (38) 
[H]OC([H])([H])C12OC1([H])C13OC(=C(C([H])([H])[H])C([H])([H])C([H])([H])[H])C4(C([H])([H])[H])C5=C(C1=O)C(O[H])(C(=O)C([H])(C([H])([H])[H])C5([H])[H])C([H])(C([H])([H])[H])C4([H])C3([H])C([H])([H])On1c2[n+]([H])c2c([H])c([H])c([H])c([H])c21

$$$$
10:2:1
     RDKit          3D

 75 82  0  0  1  0  0  0  0  0999 V2000
    1.0184   -3.3307   12.6381 C   0  0  0  0  0  0  0  0  0  0  0  0
    1.0092   -3.8138   11.1725 C   0  0  0  0  0  0  0  0  0  0  0  0
    2.0661   -4.8872   10.8367 C   0  0  0  0  0  0  0  0  0  0  0  0
    1.7305   -6.1920   11.5678 C   0  0  0  0  0  0  0  0  0  0  0  0
    3.1237   -4.8332    9.9557 C   0  0  0  0  0  0  0  0  0  0  0  0
    3.7241   -6.0512    9.6447 O   0  0  0  0  0  0  0  0  0  0  0  0
    4.5314   -6.1899    8.4512 C   0  0  2  0  0  0  0  0  0  0  0  0
    5.9622   -5.7080    8.7506 C   0  0  0  0  0  0  0  0  0  0  0  0
    6.9070   -6.5014    8.7275 O   0  0  0  0  0  0  0  0  0  0  0  0
    6.1663   -4.2635    9.0186 C   0  0  0  0  0  0  0  0  0  0  0  0
    5.2507   -3.6373    9.7916 C   0  0  0  0  0  0  0  0  0  0  0  0
    5.7843   -2.3330   10.4050 C   0  0  0  0  0  0  0  0  0  0  0  0
    6.4588   -1.3742    9.3900 C   0  0  1  0  0  0  0  0  0  0  0  0
    7.3794   -0.3398   10.0671 C   0  0  0  0  0  0  0  0  0  0  0  0
    7.1664   -2.1530    8.2572 C   0  0  0  0  0  0  0  0  0  0  0  0
    8.2018   -1.7418    7.7514 O   0  0  0  0  0  0  0  0  0  0  0  0
    6.4524   -3.4367    7.7580 C   0  0  1  0  0  0  0  0  0  0  0  0
    7.3148   -4.1132    6.8471 O   0  0  0  0  0  0  0  0  0  0  0  0
    5.0785   -3.0650    7.0596 C   0  0  1  0  0  0  0  0  0  0  0  0
    5.0951   -3.0219    5.5138 C   0  0  0  0  0  0  0  0  0  0  0  0
    3.8631   -3.8520    7.6725 C   0  0  1  0  0  0  0  0  0  0  0  0
    3.9240   -5.3514    7.2935 C   0  0  2  0  0  0  0  0  0  0  0  0
    2.6220   -5.9321    6.6446 C   0  0  0  0  0  0  0  0  0  0  0  0
    2.9923   -6.8475    5.6040 O   0  0  0  0  0  0  0  0  0  0  0  0
    2.5876   -8.1714    5.7477 N   0  0  0  0  0  0  0  0  0  0  0  0
    2.8438   -9.0133    6.8227 C   0  0  0  0  0  0  0  0  0  0  0  0
    2.3768  -10.2594    6.4837 N   0  0  0  0  0  0  0  0  0  0  0  0
    1.8278  -10.2239    5.2114 C   0  0  0  0  0  0  0  0  0  0  0  0
    1.2345  -11.2366    4.4557 C   0  0  0  0  0  0  0  0  0  0  0  0
    0.7692  -10.8657    3.1724 C   0  0  0  0  0  0  0  0  0  0  0  0
    0.8895   -9.5405    2.6920 C   0  0  0  0  0  0  0  0  0  0  0  0
    1.4995   -8.5351    3.4793 C   0  0  0  0  0  0  0  0  0  0  0  0
    1.9560   -8.9025    4.7484 C   0  0  0  0  0  0  0  0  0  0  0  0
    3.4085   -8.5702    8.1263 C   0  0  1  0  0  0  0  0  0  0  0  0
    2.3966   -8.5730    9.2621 C   0  0  0  0  0  0  0  0  0  0  0  0
    1.8601   -9.8468    9.5653 O   0  0  0  0  0  0  0  0  0  0  0  0
    4.7523   -8.8358    8.5583 O   0  0  0  0  0  0  0  0  0  0  0  0
    4.5420   -7.6188    7.8777 C   0  0  2  0  0  0  0  0  0  0  0  0
    3.8018   -3.6299    9.2335 C   0  0  1  0  0  0  0  0  0  0  0  0
    3.1255   -2.2499    9.4388 C   0  0  0  0  0  0  0  0  0  0  0  0
    0.2202   -2.5998   12.7680 H   0  0  0  0  0  0  0  0  0  0  0  0
    1.9660   -2.8551   12.9129 H   0  0  0  0  0  0  0  0  0  0  0  0
    0.8070   -4.1193   13.3608 H   0  0  0  0  0  0  0  0  0  0  0  0
    0.0346   -4.2353   10.9111 H   0  0  0  0  0  0  0  0  0  0  0  0
    0.9813   -2.9264   10.5525 H   0  0  0  0  0  0  0  0  0  0  0  0
    1.4708   -6.0192   12.6101 H   0  0  0  0  0  0  0  0  0  0  0  0
    2.5949   -6.8439   11.6483 H   0  0  0  0  0  0  0  0  0  0  0  0
    0.8849   -6.7218   11.1204 H   0  0  0  0  0  0  0  0  0  0  0  0
    5.0644   -1.8106   11.0352 H   0  0  0  0  0  0  0  0  0  0  0  0
    6.5597   -2.6474   11.0993 H   0  0  0  0  0  0  0  0  0  0  0  0
    5.6867   -0.7989    8.8919 H   0  0  0  0  0  0  0  0  0  0  0  0
    7.7001    0.4312    9.3633 H   0  0  0  0  0  0  0  0  0  0  0  0
    8.2789   -0.8038   10.4706 H   0  0  0  0  0  0  0  0  0  0  0  0
    6.8566    0.1605   10.8832 H   0  0  0  0  0  0  0  0  0  0  0  0
    6.9183   -4.9266    6.5630 H   0  0  0  0  0  0  0  0  0  0  0  0
    4.8654   -2.0240    7.2944 H   0  0  0  0  0  0  0  0  0  0  0  0
    5.3553   -3.9763    5.0544 H   0  0  0  0  0  0  0  0  0  0  0  0
    5.8141   -2.2857    5.1560 H   0  0  0  0  0  0  0  0  0  0  0  0
    4.1191   -2.7264    5.1268 H   0  0  0  0  0  0  0  0  0  0  0  0
    2.9580   -3.4456    7.2272 H   0  0  0  0  0  0  0  0  0  0  0  0
    4.6392   -5.4380    6.4773 H   0  0  0  0  0  0  0  0  0  0  0  0
    1.9196   -6.3556    7.3611 H   0  0  0  0  0  0  0  0  0  0  0  0
    2.0782   -5.1392    6.1367 H   0  0  0  0  0  0  0  0  0  0  0  0
    1.1333  -12.2512    4.8222 H   0  0  0  0  0  0  0  0  0  0  0  0
    0.3159  -11.6101    2.5340 H   0  0  0  0  0  0  0  0  0  0  0  0
    0.5380   -9.2799    1.7171 H   0  0  0  0  0  0  0  0  0  0  0  0
    1.6015   -7.5349    3.0968 H   0  0  0  0  0  0  0  0  0  0  0  0
    2.9371   -8.2821   10.1583 H   0  0  0  0  0  0  0  0  0  0  0  0
    1.6049   -7.8477    9.0733 H   0  0  0  0  0  0  0  0  0  0  0  0
    1.7462  -10.3754    8.7789 H   0  0  0  0  0  0  0  0  0  0  0  0
    5.0679   -7.6677    6.9205 H   0  0  0  0  0  0  0  0  0  0  0  0
    3.0107   -2.0172   10.4933 H   0  0  0  0  0  0  0  0  0  0  0  0
    2.1630   -2.1984    8.9362 H   0  0  0  0  0  0  0  0  0  0  0  0
    3.6945   -1.4178    9.0226 H   0  0  0  0  0  0  0  0  0  0  0  0
    2.3385  -11.1134    7.0500 H   0  0  0  0  0  0  0  0  0  0  0  0
  1  2  1  0
  1 41  1  0
  1 42  1  0
  1 43  1  0
  2  3  1  0
  2 44  1  0
  2 45  1  0
  3  4  1  0
  3  5  2  3
  4 46  1  0
  4 47  1  0
  4 48  1  0
  5 39  1  0
  5  6  1  0
  7  6  1  1
  7 22  1  0
  7 38  1  0
  7  8  1  0
  8  9  2  0
  8 10  1  0
 10 17  1  0
 10 11  2  0
 11 39  1  0
 11 12  1  0
 12 13  1  0
 12 49  1  0
 12 50  1  0
 13 14  1  0
 13 15  1  0
 13 51  1  6
 14 52  1  0
 14 53  1  0
 14 54  1  0
 15 16  2  0
 15 17  1  0
 17 18  1  6
 17 19  1  0
 18 55  1  0
 19 20  1  0
 19 21  1  0
 19 56  1  1
 20 57  1  0
 20 58  1  0
 20 59  1  0
 21 22  1  0
 21 39  1  0
 21 60  1  6
 22 23  1  0
 22 61  1  6
 23 24  1  0
 23 62  1  0
 23 63  1  0
 24 25  1  0
 25 33  1  0
 25 26  1  0
 26 27  2  0
 26 34  1  0
 27 28  1  0
 27 75  1  0
 28 33  2  0
 28 29  1  0
 29 30  2  0
 29 64  1  0
 30 31  1  0
 30 65  1  0
 31 32  2  0
 31 66  1  0
 32 33  1  0
 32 67  1  0
 34 38  1  0
 34 35  1  1
 34 37  1  0
 35 36  1  0
 35 68  1  0
 35 69  1  0
 36 70  1  0
 37 38  1  0
 38 71  1  6
 39 40  1  6
 40 72  1  0
 40 73  1  0
 40 74  1  0
M  CHG  1  27   1
M  END
>  <i_m_ct_stereo_status>  (39) 
1

>  <s_m_source_file>  (39) 
/var/tmp/pbs.5076255.sched01/tmpzk3r62u5/0tgg_cfwk.sdf

>  <i_m_source_file_index>  (39) 
17

>  <i_lp_mmshare_version>  (39) 
48012

>  <i_f3d_flags>  (39) 
0

>  <s_epik_input>  (39) 
W0NIMl0xW0NAQEhdKFtDSDNdKUMoPU8pW0NAXShbT0hdKShbQ0BIXTJbQ0gzXSlDKEMzPU8pPUMxW0NAXShbQ0gzXSkoQygvTzQpPUMoW0NIM10pXFtDSDJdW0NIM10pW0NAQEhdMltDQEBIXShbQ0BAXTM0NSlbQ0gyXU9uNmMoW0NAQF03KFtDQEBIXTVPNylbQ0gyXVtPSF0pbmM4YzZbY0hdW2NIXVtjSF1bY0hdOA==

>  <s_epik_cmdline>  (39) 
J2VwaWtfcHl0aG9uJywgJy1waHQnLCAnMi4wJywgJy1waCcsICc3LjAnLCAnLXRuJywgJzgnLCAnLW1hJywgJzIwMCcsICctaW1hZScsICc8aW5maWxlLm1hZT4nLCAnLW9tYWUnLCAnPG91dGZpbGUubWFlPic=

>  <r_lp_tautomer_probability>  (39) 
0.99995

>  <r_epik_Ionization_Penalty>  (39) 
2.1803

>  <r_epik_Ionization_Penalty_Charging>  (39) 
2.1803

>  <r_epik_Ionization_Penalty_Neutral>  (39) 
5.5296e-06

>  <r_epik_State_Penalty>  (39) 
2.32228

>  <r_epik_Charging_Adjusted_Penalty>  (39) 
4.50258

>  <i_epik_Tot_Q>  (39) 
1

>  <i_epik_Tot_abs_Q>  (39) 
1

>  <s_lp_Force_Field>  (39) 
OPLS3e

>  <r_lp_Energy>  (39) 
152.726

>  <b_lp_Chiralities_Consistent>  (39) 
1

>  <s_lp_Variant>  (39) 
10:0-3

>  <s_i_glide_gridfile>  (39) 
pfpi4k_grid

>  <i_i_glide_lignum>  (39) 
17

>  <i_i_glide_rotatable_bonds>  (39) 
4

>  <r_i_docking_score>  (39) 
-2.42213

>  <r_i_glide_ligand_efficiency>  (39) 
-0.0605531

>  <r_i_glide_ligand_efficiency_sa>  (39) 
-0.207089

>  <r_i_glide_ligand_efficiency_ln>  (39) 
-0.516568

>  <r_i_glide_gscore>  (39) 
-2.42213

>  <r_i_glide_lipo>  (39) 
-0.244699

>  <r_i_glide_hbond>  (39) 
-0.180166

>  <r_i_glide_metal>  (39) 
-0

>  <r_i_glide_rewards>  (39) 
-0.0166203

>  <r_i_glide_evdw>  (39) 
-13.8974

>  <r_i_glide_ecoul>  (39) 
-8.59171

>  <r_i_glide_erotb>  (39) 
0.138165

>  <r_i_glide_esite>  (39) 
-0.135177

>  <r_i_glide_emodel>  (39) 
-26.3258

>  <r_i_glide_energy>  (39) 
-22.4891

>  <r_i_glide_einternal>  (39) 
1.54575

>  <r_i_glide_intrahb_reward>  (39) 
-0

>  <i_i_glide_confnum>  (39) 
1

>  <i_i_glide_posenum>  (39) 
7

>  <r_i_glide_eff_state_penalty>  (39) 
0

>  <ligand_id>  (39) 
10

>  <original_smiles>  (39) 
CCC(C)=C1OC23C(=O)C4=C5CC(C)C(=O)C4(O)C(C)C(C2COn2c(nc4ccccc42)C2(CO)OC23)C51C

>  <smiles>  (39) 
[H]OC([H])([H])C12OC1([H])C13OC(=C(C([H])([H])[H])C([H])([H])C([H])([H])[H])C4(C([H])([H])[H])C5=C(C1=O)C(O[H])(C(=O)C([H])(C([H])([H])[H])C5([H])[H])C([H])(C([H])([H])[H])C4([H])C3([H])C([H])([H])On1c2[n+]([H])c2c([H])c([H])c([H])c([H])c21

$$$$
10:2:2
     RDKit          3D

 75 82  0  0  1  0  0  0  0  0999 V2000
   -1.6082   -3.4812   12.9444 C   0  0  0  0  0  0  0  0  0  0  0  0
   -1.3358   -3.8376   11.4665 C   0  0  0  0  0  0  0  0  0  0  0  0
   -0.0804   -4.7057   11.2153 C   0  0  0  0  0  0  0  0  0  0  0  0
   -0.2438   -6.0862   11.8630 C   0  0  0  0  0  0  0  0  0  0  0  0
    1.0396   -4.4176   10.4868 C   0  0  0  0  0  0  0  0  0  0  0  0
    1.8889   -5.4892   10.2176 O   0  0  0  0  0  0  0  0  0  0  0  0
    2.8417   -5.4173    9.1259 C   0  0  2  0  0  0  0  0  0  0  0  0
    4.1238   -4.7063    9.6227 C   0  0  0  0  0  0  0  0  0  0  0  0
    5.1798   -5.3251    9.7132 O   0  0  0  0  0  0  0  0  0  0  0  0
    4.0215   -3.2593    9.9682 C   0  0  0  0  0  0  0  0  0  0  0  0
    2.9391   -2.8603   10.6487 C   0  0  0  0  0  0  0  0  0  0  0  0
    3.1549   -1.5195   11.3773 C   0  0  0  0  0  0  0  0  0  0  0  0
    3.7624   -0.3972   10.4811 C   0  0  1  0  0  0  0  0  0  0  0  0
    4.3891    0.7345   11.3217 C   0  0  0  0  0  0  0  0  0  0  0  0
    4.7196   -0.9732    9.4160 C   0  0  0  0  0  0  0  0  0  0  0  0
    5.7361   -0.3614    9.0601 O   0  0  0  0  0  0  0  0  0  0  0  0
    4.3063   -2.3208    8.7781 C   0  0  1  0  0  0  0  0  0  0  0  0
    5.3403   -2.8136    7.9368 O   0  0  0  0  0  0  0  0  0  0  0  0
    2.9708   -2.1487    7.9389 C   0  0  1  0  0  0  0  0  0  0  0  0
    3.1646   -2.0058    6.4103 C   0  0  0  0  0  0  0  0  0  0  0  0
    1.8566   -3.1763    8.3578 C   0  0  1  0  0  0  0  0  0  0  0  0
    2.2354   -4.6183    7.9306 C   0  0  2  0  0  0  0  0  0  0  0  0
    1.1398   -5.3773    7.1012 C   0  0  0  0  0  0  0  0  0  0  0  0
    1.7783   -6.1556    6.0698 O   0  0  0  0  0  0  0  0  0  0  0  0
    1.5983   -7.5349    6.1158 N   0  0  0  0  0  0  0  0  0  0  0  0
    1.8725   -8.3855    7.1631 C   0  0  0  0  0  0  0  0  0  0  0  0
    1.6865   -9.6629    6.7261 N   0  0  0  0  0  0  0  0  0  0  0  0
    1.2906   -9.6548    5.3911 C   0  0  0  0  0  0  0  0  0  0  0  0
    0.9988  -10.6909    4.5226 C   0  0  0  0  0  0  0  0  0  0  0  0
    0.6209  -10.3332    3.2104 C   0  0  0  0  0  0  0  0  0  0  0  0
    0.5635   -8.9858    2.8119 C   0  0  0  0  0  0  0  0  0  0  0  0
    0.8767   -7.9360    3.7085 C   0  0  0  0  0  0  0  0  0  0  0  0
    1.2271   -8.2981    4.9950 C   0  0  0  0  0  0  0  0  0  0  0  0
    2.2043   -7.9229    8.5589 C   0  0  1  0  0  0  0  0  0  0  0  0
    1.1016   -8.1312    9.5766 C   0  0  0  0  0  0  0  0  0  0  0  0
    0.6226   -9.4551    9.5489 O   0  0  0  0  0  0  0  0  0  0  0  0
    3.5167   -7.9911    9.1444 O   0  0  0  0  0  0  0  0  0  0  0  0
    3.1879   -6.7746    8.4935 C   0  0  2  0  0  0  0  0  0  0  0  0
    1.5745   -3.0717    9.9138 C   0  0  1  0  0  0  0  0  0  0  0  0
    0.6395   -1.8474   10.0974 C   0  0  0  0  0  0  0  0  0  0  0  0
   -2.5208   -2.8975   13.0075 H   0  0  0  0  0  0  0  0  0  0  0  0
   -0.8075   -2.8745   13.3658 H   0  0  0  0  0  0  0  0  0  0  0  0
   -1.7568   -4.3397   13.5929 H   0  0  0  0  0  0  0  0  0  0  0  0
   -2.1785   -4.4200   11.0887 H   0  0  0  0  0  0  0  0  0  0  0  0
   -1.3941   -2.9179   10.8904 H   0  0  0  0  0  0  0  0  0  0  0  0
   -0.6457   -6.0235   12.8751 H   0  0  0  0  0  0  0  0  0  0  0  0
    0.7050   -6.6013   11.9948 H   0  0  0  0  0  0  0  0  0  0  0  0
   -0.9283   -6.7220   11.3015 H   0  0  0  0  0  0  0  0  0  0  0  0
    2.2821   -1.1748   11.9296 H   0  0  0  0  0  0  0  0  0  0  0  0
    3.8847   -1.7397   12.1541 H   0  0  0  0  0  0  0  0  0  0  0  0
    2.9495    0.0686    9.9265 H   0  0  0  0  0  0  0  0  0  0  0  0
    4.6462    1.5899   10.6978 H   0  0  0  0  0  0  0  0  0  0  0  0
    5.2976    0.4109   11.8306 H   0  0  0  0  0  0  0  0  0  0  0  0
    3.6937    1.0930   12.0823 H   0  0  0  0  0  0  0  0  0  0  0  0
    5.4793   -2.1798    7.2448 H   0  0  0  0  0  0  0  0  0  0  0  0
    2.5479   -1.1776    8.1856 H   0  0  0  0  0  0  0  0  0  0  0  0
    3.6360   -2.8747    5.9502 H   0  0  0  0  0  0  0  0  0  0  0  0
    3.7854   -1.1410    6.1742 H   0  0  0  0  0  0  0  0  0  0  0  0
    2.2064   -1.8601    5.9128 H   0  0  0  0  0  0  0  0  0  0  0  0
    0.9498   -2.9023    7.8216 H   0  0  0  0  0  0  0  0  0  0  0  0
    3.0445   -4.5201    7.2111 H   0  0  0  0  0  0  0  0  0  0  0  0
    0.4448   -5.9525    7.7154 H   0  0  0  0  0  0  0  0  0  0  0  0
    0.5189   -4.6560    6.5662 H   0  0  0  0  0  0  0  0  0  0  0  0
    1.0344  -11.7284    4.8395 H   0  0  0  0  0  0  0  0  0  0  0  0
    0.3713  -11.1083    2.5011 H   0  0  0  0  0  0  0  0  0  0  0  0
    0.2811   -8.7430    1.8008 H   0  0  0  0  0  0  0  0  0  0  0  0
    0.8438   -6.9039    3.3912 H   0  0  0  0  0  0  0  0  0  0  0  0
    1.5131   -7.9489   10.5654 H   0  0  0  0  0  0  0  0  0  0  0  0
    0.2702   -7.4549    9.3973 H   0  0  0  0  0  0  0  0  0  0  0  0
    1.3476  -10.0506    9.5493 H   0  0  0  0  0  0  0  0  0  0  0  0
    3.8110   -6.6704    7.6064 H   0  0  0  0  0  0  0  0  0  0  0  0
    0.3419   -1.7099   11.1344 H   0  0  0  0  0  0  0  0  0  0  0  0
   -0.2498   -1.9319    9.4814 H   0  0  0  0  0  0  0  0  0  0  0  0
    1.0970   -0.9097    9.7816 H   0  0  0  0  0  0  0  0  0  0  0  0
    1.7807  -10.5188    7.2790 H   0  0  0  0  0  0  0  0  0  0  0  0
  1  2  1  0
  1 41  1  0
  1 42  1  0
  1 43  1  0
  2  3  1  0
  2 44  1  0
  2 45  1  0
  3  4  1  0
  3  5  2  3
  4 46  1  0
  4 47  1  0
  4 48  1  0
  5 39  1  0
  5  6  1  0
  7  6  1  1
  7 22  1  0
  7 38  1  0
  7  8  1  0
  8  9  2  0
  8 10  1  0
 10 17  1  0
 10 11  2  0
 11 39  1  0
 11 12  1  0
 12 13  1  0
 12 49  1  0
 12 50  1  0
 13 14  1  0
 13 15  1  0
 13 51  1  6
 14 52  1  0
 14 53  1  0
 14 54  1  0
 15 16  2  0
 15 17  1  0
 17 18  1  6
 17 19  1  0
 18 55  1  0
 19 20  1  0
 19 21  1  0
 19 56  1  1
 20 57  1  0
 20 58  1  0
 20 59  1  0
 21 22  1  0
 21 39  1  0
 21 60  1  6
 22 23  1  0
 22 61  1  6
 23 24  1  0
 23 62  1  0
 23 63  1  0
 24 25  1  0
 25 33  1  0
 25 26  1  0
 26 27  2  0
 26 34  1  0
 27 28  1  0
 27 75  1  0
 28 33  2  0
 28 29  1  0
 29 30  2  0
 29 64  1  0
 30 31  1  0
 30 65  1  0
 31 32  2  0
 31 66  1  0
 32 33  1  0
 32 67  1  0
 34 38  1  0
 34 35  1  1
 34 37  1  0
 35 36  1  0
 35 68  1  0
 35 69  1  0
 36 70  1  0
 37 38  1  0
 38 71  1  6
 39 40  1  6
 40 72  1  0
 40 73  1  0
 40 74  1  0
M  CHG  1  27   1
M  END
>  <i_m_ct_stereo_status>  (40) 
1

>  <s_m_source_file>  (40) 
/var/tmp/pbs.5076255.sched01/tmpzk3r62u5/0tgg_cfwk.sdf

>  <i_m_source_file_index>  (40) 
17

>  <i_lp_mmshare_version>  (40) 
48012

>  <i_f3d_flags>  (40) 
0

>  <s_epik_input>  (40) 
W0NIMl0xW0NAQEhdKFtDSDNdKUMoPU8pW0NAXShbT0hdKShbQ0BIXTJbQ0gzXSlDKEMzPU8pPUMxW0NAXShbQ0gzXSkoQygvTzQpPUMoW0NIM10pXFtDSDJdW0NIM10pW0NAQEhdMltDQEBIXShbQ0BAXTM0NSlbQ0gyXU9uNmMoW0NAQF03KFtDQEBIXTVPNylbQ0gyXVtPSF0pbmM4YzZbY0hdW2NIXVtjSF1bY0hdOA==

>  <s_epik_cmdline>  (40) 
J2VwaWtfcHl0aG9uJywgJy1waHQnLCAnMi4wJywgJy1waCcsICc3LjAnLCAnLXRuJywgJzgnLCAnLW1hJywgJzIwMCcsICctaW1hZScsICc8aW5maWxlLm1hZT4nLCAnLW9tYWUnLCAnPG91dGZpbGUubWFlPic=

>  <r_lp_tautomer_probability>  (40) 
0.99995

>  <r_epik_Ionization_Penalty>  (40) 
2.1803

>  <r_epik_Ionization_Penalty_Charging>  (40) 
2.1803

>  <r_epik_Ionization_Penalty_Neutral>  (40) 
5.5296e-06

>  <r_epik_State_Penalty>  (40) 
2.32228

>  <r_epik_Charging_Adjusted_Penalty>  (40) 
4.50258

>  <i_epik_Tot_Q>  (40) 
1

>  <i_epik_Tot_abs_Q>  (40) 
1

>  <s_lp_Force_Field>  (40) 
OPLS3e

>  <r_lp_Energy>  (40) 
152.726

>  <b_lp_Chiralities_Consistent>  (40) 
1

>  <s_lp_Variant>  (40) 
10:0-3

>  <s_i_glide_gridfile>  (40) 
pfpi4k_grid

>  <i_i_glide_lignum>  (40) 
17

>  <i_i_glide_rotatable_bonds>  (40) 
4

>  <r_i_docking_score>  (40) 
-1.89003

>  <r_i_glide_ligand_efficiency>  (40) 
-0.0472508

>  <r_i_glide_ligand_efficiency_sa>  (40) 
-0.161596

>  <r_i_glide_ligand_efficiency_ln>  (40) 
-0.403088

>  <r_i_glide_gscore>  (40) 
-1.89003

>  <r_i_glide_lipo>  (40) 
-0.0414139

>  <r_i_glide_hbond>  (40) 
-0.2

>  <r_i_glide_metal>  (40) 
-0

>  <r_i_glide_rewards>  (40) 
0

>  <r_i_glide_evdw>  (40) 
-16.9348

>  <r_i_glide_ecoul>  (40) 
-5.43669

>  <r_i_glide_erotb>  (40) 
0.138165

>  <r_i_glide_esite>  (40) 
-0.124543

>  <r_i_glide_emodel>  (40) 
-24.6213

>  <r_i_glide_energy>  (40) 
-22.3714

>  <r_i_glide_einternal>  (40) 
3.11302

>  <r_i_glide_intrahb_reward>  (40) 
-0

>  <i_i_glide_confnum>  (40) 
6

>  <i_i_glide_posenum>  (40) 
14

>  <r_i_glide_eff_state_penalty>  (40) 
0

>  <ligand_id>  (40) 
10

>  <original_smiles>  (40) 
CCC(C)=C1OC23C(=O)C4=C5CC(C)C(=O)C4(O)C(C)C(C2COn2c(nc4ccccc42)C2(CO)OC23)C51C

>  <smiles>  (40) 
[H]OC([H])([H])C12OC1([H])C13OC(=C(C([H])([H])[H])C([H])([H])C([H])([H])[H])C4(C([H])([H])[H])C5=C(C1=O)C(O[H])(C(=O)C([H])(C([H])([H])[H])C5([H])[H])C([H])(C([H])([H])[H])C4([H])C3([H])C([H])([H])On1c2[n+]([H])c2c([H])c([H])c([H])c([H])c21

$$$$
10:3:0
     RDKit          3D

 75 82  0  0  1  0  0  0  0  0999 V2000
    7.3996    1.1482    6.0351 C   0  0  0  0  0  0  0  0  0  0  0  0
    6.2302    0.2086    5.7240 C   0  0  0  0  0  0  0  0  0  0  0  0
    4.8847    0.6376    6.3145 C   0  0  0  0  0  0  0  0  0  0  0  0
    4.9776    0.7650    7.8266 C   0  0  0  0  0  0  0  0  0  0  0  0
    3.7693    0.8372    5.5331 C   0  0  0  0  0  0  0  0  0  0  0  0
    3.8536    0.4276    4.2128 O   0  0  0  0  0  0  0  0  0  0  0  0
    2.6329    0.1838    3.4642 C   0  0  2  0  0  0  0  0  0  0  0  0
    2.1388    1.5293    2.8834 C   0  0  0  0  0  0  0  0  0  0  0  0
    2.1176    1.7069    1.6802 O   0  0  0  0  0  0  0  0  0  0  0  0
    1.6394    2.5607    3.8157 C   0  0  0  0  0  0  0  0  0  0  0  0
    2.3214    2.7408    4.9577 C   0  0  0  0  0  0  0  0  0  0  0  0
    2.0333    4.1104    5.6062 C   0  0  0  0  0  0  0  0  0  0  0  0
    0.5165    4.4535    5.7388 C   0  0  1  0  0  0  0  0  0  0  0  0
    0.2850    5.9669    5.9234 C   0  0  0  0  0  0  0  0  0  0  0  0
   -0.3146    3.8544    4.5835 C   0  0  0  0  0  0  0  0  0  0  0  0
   -1.2971    4.4480    4.1240 O   0  0  0  0  0  0  0  0  0  0  0  0
    0.1274    2.4566    4.0879 C   0  0  1  0  0  0  0  0  0  0  0  0
   -0.6103    2.1079    2.9224 O   0  0  0  0  0  0  0  0  0  0  0  0
   -0.0992    1.3802    5.2362 C   0  0  1  0  0  0  0  0  0  0  0  0
   -1.3824    0.5275    5.1098 C   0  0  0  0  0  0  0  0  0  0  0  0
    1.1875    0.5344    5.5515 C   0  0  1  0  0  0  0  0  0  0  0  0
    1.5162   -0.4230    4.3816 C   0  0  2  0  0  0  0  0  0  0  0  0
    1.6977   -1.9320    4.7924 C   0  0  0  0  0  0  0  0  0  0  0  0
    1.1579   -2.7769    3.7509 O   0  0  0  0  0  0  0  0  0  0  0  0
    2.0434   -3.6435    3.1059 N   0  0  0  0  0  0  0  0  0  0  0  0
    3.1799   -3.2961    2.4035 C   0  0  0  0  0  0  0  0  0  0  0  0
    3.6755   -4.4209    1.8006 N   0  0  0  0  0  0  0  0  0  0  0  0
    2.8520   -5.5019    2.1163 C   0  0  0  0  0  0  0  0  0  0  0  0
    2.9178   -6.8354    1.7309 C   0  0  0  0  0  0  0  0  0  0  0  0
    1.9043   -7.6844    2.2208 C   0  0  0  0  0  0  0  0  0  0  0  0
    0.8850   -7.2007    3.0603 C   0  0  0  0  0  0  0  0  0  0  0  0
    0.8350   -5.8457    3.4460 C   0  0  0  0  0  0  0  0  0  0  0  0
    1.8382   -5.0147    2.9556 C   0  0  0  0  0  0  0  0  0  0  0  0
    3.8144   -1.9483    2.4628 C   0  0  1  0  0  0  0  0  0  0  0  0
    5.1699   -1.9605    3.1190 C   0  0  0  0  0  0  0  0  0  0  0  0
    5.0316   -2.2007    4.5008 O   0  0  0  0  0  0  0  0  0  0  0  0
    3.7881   -0.9830    1.3817 O   0  0  0  0  0  0  0  0  0  0  0  0
    2.7632   -0.8734    2.3664 C   0  0  2  0  0  0  0  0  0  0  0  0
    2.4038    1.4917    5.8922 C   0  0  1  0  0  0  0  0  0  0  0  0
    2.2415    1.8879    7.3848 C   0  0  0  0  0  0  0  0  0  0  0  0
    8.2665    0.8066    5.4763 H   0  0  0  0  0  0  0  0  0  0  0  0
    7.6692    1.1577    7.0928 H   0  0  0  0  0  0  0  0  0  0  0  0
    7.1806    2.1621    5.7061 H   0  0  0  0  0  0  0  0  0  0  0  0
    6.1790    0.1657    4.6391 H   0  0  0  0  0  0  0  0  0  0  0  0
    6.4916   -0.7790    6.1057 H   0  0  0  0  0  0  0  0  0  0  0  0
    5.8081    0.1684    8.1941 H   0  0  0  0  0  0  0  0  0  0  0  0
    4.1200    0.3397    8.3284 H   0  0  0  0  0  0  0  0  0  0  0  0
    5.1479    1.7894    8.1453 H   0  0  0  0  0  0  0  0  0  0  0  0
    2.5835    4.2824    6.5378 H   0  0  0  0  0  0  0  0  0  0  0  0
    2.4430    4.8298    4.8969 H   0  0  0  0  0  0  0  0  0  0  0  0
    0.1477    3.9781    6.6430 H   0  0  0  0  0  0  0  0  0  0  0  0
   -0.7470    6.1670    6.1940 H   0  0  0  0  0  0  0  0  0  0  0  0
    0.5088    6.5319    5.0185 H   0  0  0  0  0  0  0  0  0  0  0  0
    0.9032    6.3642    6.7273 H   0  0  0  0  0  0  0  0  0  0  0  0
   -0.4337    2.7654    2.2568 H   0  0  0  0  0  0  0  0  0  0  0  0
   -0.2975    1.9231    6.1589 H   0  0  0  0  0  0  0  0  0  0  0  0
   -1.4271   -0.0728    4.1986 H   0  0  0  0  0  0  0  0  0  0  0  0
   -2.2595    1.1731    5.1022 H   0  0  0  0  0  0  0  0  0  0  0  0
   -1.4809   -0.1570    5.9549 H   0  0  0  0  0  0  0  0  0  0  0  0
    0.9796   -0.0728    6.4330 H   0  0  0  0  0  0  0  0  0  0  0  0
    0.6215   -0.4635    3.7581 H   0  0  0  0  0  0  0  0  0  0  0  0
    2.7131   -2.1909    5.0821 H   0  0  0  0  0  0  0  0  0  0  0  0
    1.1202   -2.1306    5.6987 H   0  0  0  0  0  0  0  0  0  0  0  0
    3.6997   -7.2137    1.0961 H   0  0  0  0  0  0  0  0  0  0  0  0
    1.9157   -8.7331    1.9612 H   0  0  0  0  0  0  0  0  0  0  0  0
    0.1344   -7.8891    3.4272 H   0  0  0  0  0  0  0  0  0  0  0  0
    0.0778   -5.4604    4.1022 H   0  0  0  0  0  0  0  0  0  0  0  0
    5.8196   -2.7221    2.6671 H   0  0  0  0  0  0  0  0  0  0  0  0
    5.6331   -0.9997    2.9465 H   0  0  0  0  0  0  0  0  0  0  0  0
    4.6256   -1.4307    4.8771 H   0  0  0  0  0  0  0  0  0  0  0  0
    1.7967   -1.1118    1.9074 H   0  0  0  0  0  0  0  0  0  0  0  0
    3.0636    2.5150    7.7317 H   0  0  0  0  0  0  0  0  0  0  0  0
    2.1655    1.0126    8.0331 H   0  0  0  0  0  0  0  0  0  0  0  0
    1.3261    2.4505    7.5729 H   0  0  0  0  0  0  0  0  0  0  0  0
    4.5059   -4.4299    1.2199 H   0  0  0  0  0  0  0  0  0  0  0  0
  1  2  1  0
  1 41  1  0
  1 42  1  0
  1 43  1  0
  2  3  1  0
  2 44  1  0
  2 45  1  0
  3  4  1  0
  3  5  2  3
  4 46  1  0
  4 47  1  0
  4 48  1  0
  5 39  1  0
  5  6  1  0
  7  6  1  1
  7 22  1  0
  7 38  1  0
  7  8  1  0
  8  9  2  0
  8 10  1  0
 10 17  1  0
 10 11  2  0
 11 39  1  0
 11 12  1  0
 12 13  1  0
 12 49  1  0
 12 50  1  0
 13 14  1  0
 13 15  1  0
 13 51  1  1
 14 52  1  0
 14 53  1  0
 14 54  1  0
 15 16  2  0
 15 17  1  0
 17 18  1  6
 17 19  1  0
 18 55  1  0
 19 20  1  0
 19 21  1  0
 19 56  1  1
 20 57  1  0
 20 58  1  0
 20 59  1  0
 21 22  1  0
 21 39  1  0
 21 60  1  1
 22 23  1  0
 22 61  1  6
 23 24  1  0
 23 62  1  0
 23 63  1  0
 24 25  1  0
 25 33  1  0
 25 26  1  0
 26 27  2  0
 26 34  1  0
 27 28  1  0
 27 75  1  0
 28 33  2  0
 28 29  1  0
 29 30  2  0
 29 64  1  0
 30 31  1  0
 30 65  1  0
 31 32  2  0
 31 66  1  0
 32 33  1  0
 32 67  1  0
 34 38  1  0
 34 35  1  1
 34 37  1  0
 35 36  1  0
 35 68  1  0
 35 69  1  0
 36 70  1  0
 37 38  1  0
 38 71  1  6
 39 40  1  1
 40 72  1  0
 40 73  1  0
 40 74  1  0
M  CHG  1  27   1
M  END
>  <i_m_ct_stereo_status>  (41) 
1

>  <s_m_source_file>  (41) 
/var/tmp/pbs.5076255.sched01/tmpzk3r62u5/0tgg_cfwk.sdf

>  <i_m_source_file_index>  (41) 
18

>  <i_lp_mmshare_version>  (41) 
48012

>  <i_f3d_flags>  (41) 
0

>  <s_epik_input>  (41) 
W0NIMl0xW0NAQEhdKFtDSDNdKUMoPU8pW0NAXShbT0hdKShbQ0BIXTJbQ0gzXSlDKEMzPU8pPUMxW0NAXShbQ0gzXSkoQygvTzQpPUMoW0NIM10pXFtDSDJdW0NIM10pW0NAQEhdMltDQEBIXShbQ0BAXTM0NSlbQ0gyXU9uNmMoW0NAQF03KFtDQEBIXTVPNylbQ0gyXVtPSF0pbmM4YzZbY0hdW2NIXVtjSF1bY0hdOA==

>  <s_epik_cmdline>  (41) 
J2VwaWtfcHl0aG9uJywgJy1waHQnLCAnMi4wJywgJy1waCcsICc3LjAnLCAnLXRuJywgJzgnLCAnLW1hJywgJzIwMCcsICctaW1hZScsICc8aW5maWxlLm1hZT4nLCAnLW9tYWUnLCAnPG91dGZpbGUubWFlPic=

>  <r_lp_tautomer_probability>  (41) 
0.99995

>  <r_epik_Ionization_Penalty>  (41) 
2.1803

>  <r_epik_Ionization_Penalty_Charging>  (41) 
2.1803

>  <r_epik_Ionization_Penalty_Neutral>  (41) 
5.5296e-06

>  <r_epik_State_Penalty>  (41) 
2.32228

>  <r_epik_Charging_Adjusted_Penalty>  (41) 
4.50258

>  <i_epik_Tot_Q>  (41) 
1

>  <i_epik_Tot_abs_Q>  (41) 
1

>  <s_lp_Force_Field>  (41) 
OPLS3e

>  <r_lp_Energy>  (41) 
150.769

>  <b_lp_Chiralities_Consistent>  (41) 
1

>  <s_lp_Variant>  (41) 
10:0-4

>  <s_i_glide_gridfile>  (41) 
pfpi4k_grid

>  <i_i_glide_lignum>  (41) 
18

>  <i_i_glide_rotatable_bonds>  (41) 
4

>  <r_i_docking_score>  (41) 
-2.21549

>  <r_i_glide_ligand_efficiency>  (41) 
-0.0553872

>  <r_i_glide_ligand_efficiency_sa>  (41) 
-0.189422

>  <r_i_glide_ligand_efficiency_ln>  (41) 
-0.472499

>  <r_i_glide_gscore>  (41) 
-2.21549

>  <r_i_glide_lipo>  (41) 
-0.303672

>  <r_i_glide_hbond>  (41) 
-0.0708187

>  <r_i_glide_metal>  (41) 
-0

>  <r_i_glide_rewards>  (41) 
-0.0328742

>  <r_i_glide_evdw>  (41) 
-27.3227

>  <r_i_glide_ecoul>  (41) 
-3.61859

>  <r_i_glide_erotb>  (41) 
0.138165

>  <r_i_glide_esite>  (41) 
-0.0373669

>  <r_i_glide_emodel>  (41) 
-33.6893

>  <r_i_glide_energy>  (41) 
-30.9413

>  <r_i_glide_einternal>  (41) 
2.28918

>  <r_i_glide_intrahb_reward>  (41) 
-0

>  <i_i_glide_confnum>  (41) 
4

>  <i_i_glide_posenum>  (41) 
20

>  <r_i_glide_eff_state_penalty>  (41) 
0

>  <ligand_id>  (41) 
10

>  <original_smiles>  (41) 
CCC(C)=C1OC23C(=O)C4=C5CC(C)C(=O)C4(O)C(C)C(C2COn2c(nc4ccccc42)C2(CO)OC23)C51C

>  <smiles>  (41) 
[H]OC([H])([H])C12OC1([H])C13OC(=C(C([H])([H])[H])C([H])([H])C([H])([H])[H])C4(C([H])([H])[H])C5=C(C1=O)C(O[H])(C(=O)C([H])(C([H])([H])[H])C5([H])[H])C([H])(C([H])([H])[H])C4([H])C3([H])C([H])([H])On1c2[n+]([H])c2c([H])c([H])c([H])c([H])c21

$$$$
10:3:1
     RDKit          3D

 75 82  0  0  1  0  0  0  0  0999 V2000
    8.0908   -3.0788    7.8240 C   0  0  0  0  0  0  0  0  0  0  0  0
    6.8728   -3.7700    7.2049 C   0  0  0  0  0  0  0  0  0  0  0  0
    5.5920   -2.9322    7.1762 C   0  0  0  0  0  0  0  0  0  0  0  0
    5.2036   -2.5047    8.5830 C   0  0  0  0  0  0  0  0  0  0  0  0
    4.9243   -2.6535    6.0096 C   0  0  0  0  0  0  0  0  0  0  0  0
    5.3361   -3.3221    4.8634 O   0  0  0  0  0  0  0  0  0  0  0  0
    4.4181   -3.4510    3.7436 C   0  0  2  0  0  0  0  0  0  0  0  0
    4.5606   -2.1939    2.8564 C   0  0  0  0  0  0  0  0  0  0  0  0
    5.0452   -2.2771    1.7252 O   0  0  0  0  0  0  0  0  0  0  0  0
    4.0787   -0.9014    3.4120 C   0  0  0  0  0  0  0  0  0  0  0  0
    4.3757   -0.6396    4.7012 C   0  0  0  0  0  0  0  0  0  0  0  0
    4.2950    0.8646    5.0213 C   0  0  0  0  0  0  0  0  0  0  0  0
    2.9896    1.5619    4.5283 C   0  0  1  0  0  0  0  0  0  0  0  0
    3.1490    3.0941    4.4382 C   0  0  0  0  0  0  0  0  0  0  0  0
    2.4576    0.9252    3.2211 C   0  0  0  0  0  0  0  0  0  0  0  0
    1.9084    1.5945    2.3460 O   0  0  0  0  0  0  0  0  0  0  0  0
    2.5958   -0.6109    3.1124 C   0  0  1  0  0  0  0  0  0  0  0  0
    2.2193   -1.0470    1.8097 O   0  0  0  0  0  0  0  0  0  0  0  0
    1.7054   -1.3213    4.2137 C   0  0  1  0  0  0  0  0  0  0  0  0
    0.3542   -1.8635    3.7046 C   0  0  0  0  0  0  0  0  0  0  0  0
    2.5195   -2.3504    5.0809 C   0  0  1  0  0  0  0  0  0  0  0  0
    2.9380   -3.5824    4.2415 C   0  0  2  0  0  0  0  0  0  0  0  0
    2.5405   -4.9658    4.8707 C   0  0  0  0  0  0  0  0  0  0  0  0
    2.1388   -5.8749    3.8235 O   0  0  0  0  0  0  0  0  0  0  0  0
    2.8965   -7.0357    3.6542 N   0  0  0  0  0  0  0  0  0  0  0  0
    4.2491   -7.1170    3.4101 C   0  0  0  0  0  0  0  0  0  0  0  0
    4.5598   -8.4274    3.1732 N   0  0  0  0  0  0  0  0  0  0  0  0
    3.4050   -9.1997    3.2744 C   0  0  0  0  0  0  0  0  0  0  0  0
    3.2005  -10.5685    3.1126 C   0  0  0  0  0  0  0  0  0  0  0  0
    1.8843  -11.0340    3.2811 C   0  0  0  0  0  0  0  0  0  0  0  0
    0.8271  -10.1599    3.5883 C   0  0  0  0  0  0  0  0  0  0  0  0
    1.0453   -8.7737    3.7500 C   0  0  0  0  0  0  0  0  0  0  0  0
    2.3473   -8.3215    3.5904 C   0  0  0  0  0  0  0  0  0  0  0  0
    5.1905   -5.9700    3.5504 C   0  0  1  0  0  0  0  0  0  0  0  0
    6.1785   -6.1439    4.6874 C   0  0  0  0  0  0  0  0  0  0  0  0
    5.5587   -6.0866    5.9603 O   0  0  0  0  0  0  0  0  0  0  0  0
    5.8003   -5.2980    2.4303 O   0  0  0  0  0  0  0  0  0  0  0  0
    4.6005   -4.7267    2.9250 C   0  0  2  0  0  0  0  0  0  0  0  0
    3.7712   -1.6414    5.7372 C   0  0  1  0  0  0  0  0  0  0  0  0
    3.2380   -0.9042    7.0015 C   0  0  0  0  0  0  0  0  0  0  0  0
    8.9623   -3.7221    7.7009 H   0  0  0  0  0  0  0  0  0  0  0  0
    7.9775   -2.8908    8.8923 H   0  0  0  0  0  0  0  0  0  0  0  0
    8.2976   -2.1388    7.3153 H   0  0  0  0  0  0  0  0  0  0  0  0
    7.1707   -4.0390    6.1985 H   0  0  0  0  0  0  0  0  0  0  0  0
    6.6883   -4.6869    7.7681 H   0  0  0  0  0  0  0  0  0  0  0  0
    5.6496   -3.1764    9.3163 H   0  0  0  0  0  0  0  0  0  0  0  0
    4.1396   -2.5999    8.7690 H   0  0  0  0  0  0  0  0  0  0  0  0
    5.5491   -1.5000    8.8189 H   0  0  0  0  0  0  0  0  0  0  0  0
    4.5219    1.0994    6.0643 H   0  0  0  0  0  0  0  0  0  0  0  0
    5.1167    1.3090    4.4600 H   0  0  0  0  0  0  0  0  0  0  0  0
    2.2185    1.3920    5.2769 H   0  0  0  0  0  0  0  0  0  0  0  0
    2.1900    3.5777    4.2560 H   0  0  0  0  0  0  0  0  0  0  0  0
    3.8134    3.3929    3.6314 H   0  0  0  0  0  0  0  0  0  0  0  0
    3.5480    3.5112    5.3650 H   0  0  0  0  0  0  0  0  0  0  0  0
    1.4795   -0.5247    1.5132 H   0  0  0  0  0  0  0  0  0  0  0  0
    1.3757   -0.5631    4.9243 H   0  0  0  0  0  0  0  0  0  0  0  0
    0.4601   -2.6186    2.9258 H   0  0  0  0  0  0  0  0  0  0  0  0
   -0.2348   -1.0510    3.2838 H   0  0  0  0  0  0  0  0  0  0  0  0
   -0.2221   -2.3134    4.5126 H   0  0  0  0  0  0  0  0  0  0  0  0
    1.8588   -2.6928    5.8794 H   0  0  0  0  0  0  0  0  0  0  0  0
    2.3281   -3.5567    3.3414 H   0  0  0  0  0  0  0  0  0  0  0  0
    3.2978   -5.3675    5.5389 H   0  0  0  0  0  0  0  0  0  0  0  0
    1.6625   -4.8411    5.5111 H   0  0  0  0  0  0  0  0  0  0  0  0
    3.9992  -11.2499    2.8580 H   0  0  0  0  0  0  0  0  0  0  0  0
    1.6796  -12.0869    3.1678 H   0  0  0  0  0  0  0  0  0  0  0  0
   -0.1697  -10.5568    3.7078 H   0  0  0  0  0  0  0  0  0  0  0  0
    0.2361   -8.1043    3.9891 H   0  0  0  0  0  0  0  0  0  0  0  0
    6.7174   -7.0851    4.5838 H   0  0  0  0  0  0  0  0  0  0  0  0
    6.9264   -5.3591    4.5811 H   0  0  0  0  0  0  0  0  0  0  0  0
    4.8801   -6.7457    6.0324 H   0  0  0  0  0  0  0  0  0  0  0  0
    3.8141   -4.8423    2.1730 H   0  0  0  0  0  0  0  0  0  0  0  0
    4.0345   -0.4203    7.5637 H   0  0  0  0  0  0  0  0  0  0  0  0
    2.6965   -1.5744    7.6669 H   0  0  0  0  0  0  0  0  0  0  0  0
    2.5180   -0.1225    6.7615 H   0  0  0  0  0  0  0  0  0  0  0  0
    5.4917   -8.7619    2.9612 H   0  0  0  0  0  0  0  0  0  0  0  0
  1  2  1  0
  1 41  1  0
  1 42  1  0
  1 43  1  0
  2  3  1  0
  2 44  1  0
  2 45  1  0
  3  4  1  0
  3  5  2  3
  4 46  1  0
  4 47  1  0
  4 48  1  0
  5 39  1  0
  5  6  1  0
  7  6  1  1
  7 22  1  0
  7 38  1  0
  7  8  1  0
  8  9  2  0
  8 10  1  0
 10 17  1  0
 10 11  2  0
 11 39  1  0
 11 12  1  0
 12 13  1  0
 12 49  1  0
 12 50  1  0
 13 14  1  0
 13 15  1  0
 13 51  1  1
 14 52  1  0
 14 53  1  0
 14 54  1  0
 15 16  2  0
 15 17  1  0
 17 18  1  6
 17 19  1  0
 18 55  1  0
 19 20  1  0
 19 21  1  0
 19 56  1  1
 20 57  1  0
 20 58  1  0
 20 59  1  0
 21 22  1  0
 21 39  1  0
 21 60  1  1
 22 23  1  0
 22 61  1  6
 23 24  1  0
 23 62  1  0
 23 63  1  0
 24 25  1  0
 25 33  1  0
 25 26  1  0
 26 27  2  0
 26 34  1  0
 27 28  1  0
 27 75  1  0
 28 33  2  0
 28 29  1  0
 29 30  2  0
 29 64  1  0
 30 31  1  0
 30 65  1  0
 31 32  2  0
 31 66  1  0
 32 33  1  0
 32 67  1  0
 34 38  1  0
 34 35  1  1
 34 37  1  0
 35 36  1  0
 35 68  1  0
 35 69  1  0
 36 70  1  0
 37 38  1  0
 38 71  1  6
 39 40  1  1
 40 72  1  0
 40 73  1  0
 40 74  1  0
M  CHG  1  27   1
M  END
>  <i_m_ct_stereo_status>  (42) 
1

>  <s_m_source_file>  (42) 
/var/tmp/pbs.5076255.sched01/tmpzk3r62u5/0tgg_cfwk.sdf

>  <i_m_source_file_index>  (42) 
18

>  <i_lp_mmshare_version>  (42) 
48012

>  <i_f3d_flags>  (42) 
0

>  <s_epik_input>  (42) 
W0NIMl0xW0NAQEhdKFtDSDNdKUMoPU8pW0NAXShbT0hdKShbQ0BIXTJbQ0gzXSlDKEMzPU8pPUMxW0NAXShbQ0gzXSkoQygvTzQpPUMoW0NIM10pXFtDSDJdW0NIM10pW0NAQEhdMltDQEBIXShbQ0BAXTM0NSlbQ0gyXU9uNmMoW0NAQF03KFtDQEBIXTVPNylbQ0gyXVtPSF0pbmM4YzZbY0hdW2NIXVtjSF1bY0hdOA==

>  <s_epik_cmdline>  (42) 
J2VwaWtfcHl0aG9uJywgJy1waHQnLCAnMi4wJywgJy1waCcsICc3LjAnLCAnLXRuJywgJzgnLCAnLW1hJywgJzIwMCcsICctaW1hZScsICc8aW5maWxlLm1hZT4nLCAnLW9tYWUnLCAnPG91dGZpbGUubWFlPic=

>  <r_lp_tautomer_probability>  (42) 
0.99995

>  <r_epik_Ionization_Penalty>  (42) 
2.1803

>  <r_epik_Ionization_Penalty_Charging>  (42) 
2.1803

>  <r_epik_Ionization_Penalty_Neutral>  (42) 
5.5296e-06

>  <r_epik_State_Penalty>  (42) 
2.32228

>  <r_epik_Charging_Adjusted_Penalty>  (42) 
4.50258

>  <i_epik_Tot_Q>  (42) 
1

>  <i_epik_Tot_abs_Q>  (42) 
1

>  <s_lp_Force_Field>  (42) 
OPLS3e

>  <r_lp_Energy>  (42) 
150.769

>  <b_lp_Chiralities_Consistent>  (42) 
1

>  <s_lp_Variant>  (42) 
10:0-4

>  <s_i_glide_gridfile>  (42) 
pfpi4k_grid

>  <i_i_glide_lignum>  (42) 
18

>  <i_i_glide_rotatable_bonds>  (42) 
4

>  <r_i_docking_score>  (42) 
-1.84371

>  <r_i_glide_ligand_efficiency>  (42) 
-0.0460929

>  <r_i_glide_ligand_efficiency_sa>  (42) 
-0.157635

>  <r_i_glide_ligand_efficiency_ln>  (42) 
-0.39321

>  <r_i_glide_gscore>  (42) 
-1.84371

>  <r_i_glide_lipo>  (42) 
-0.223645

>  <r_i_glide_hbond>  (42) 
0

>  <r_i_glide_metal>  (42) 
-0

>  <r_i_glide_rewards>  (42) 
-0.042773

>  <r_i_glide_evdw>  (42) 
-23.5505

>  <r_i_glide_ecoul>  (42) 
-3.54379

>  <r_i_glide_erotb>  (42) 
0.138165

>  <r_i_glide_esite>  (42) 
-0.00636827

>  <r_i_glide_emodel>  (42) 
-28.5818

>  <r_i_glide_energy>  (42) 
-27.0943

>  <r_i_glide_einternal>  (42) 
2.74211

>  <r_i_glide_intrahb_reward>  (42) 
-0

>  <i_i_glide_confnum>  (42) 
3

>  <i_i_glide_posenum>  (42) 
23

>  <r_i_glide_eff_state_penalty>  (42) 
0

>  <ligand_id>  (42) 
10

>  <original_smiles>  (42) 
CCC(C)=C1OC23C(=O)C4=C5CC(C)C(=O)C4(O)C(C)C(C2COn2c(nc4ccccc42)C2(CO)OC23)C51C

>  <smiles>  (42) 
[H]OC([H])([H])C12OC1([H])C13OC(=C(C([H])([H])[H])C([H])([H])C([H])([H])[H])C4(C([H])([H])[H])C5=C(C1=O)C(O[H])(C(=O)C([H])(C([H])([H])[H])C5([H])[H])C([H])(C([H])([H])[H])C4([H])C3([H])C([H])([H])On1c2[n+]([H])c2c([H])c([H])c([H])c([H])c21

$$$$
10:3:2
     RDKit          3D

 75 82  0  0  1  0  0  0  0  0999 V2000
    6.9086   -1.1457    6.9235 C   0  0  0  0  0  0  0  0  0  0  0  0
    5.6813   -1.9682    6.4927 C   0  0  0  0  0  0  0  0  0  0  0  0
    4.3396   -1.3592    6.9063 C   0  0  0  0  0  0  0  0  0  0  0  0
    4.2806   -1.1680    8.4150 C   0  0  0  0  0  0  0  0  0  0  0  0
    3.3628   -1.0558    5.9935 C   0  0  0  0  0  0  0  0  0  0  0  0
    3.5545   -1.5038    4.6923 O   0  0  0  0  0  0  0  0  0  0  0  0
    2.4159   -1.6383    3.8043 C   0  0  2  0  0  0  0  0  0  0  0  0
    2.1440   -0.2754    3.1335 C   0  0  0  0  0  0  0  0  0  0  0  0
    2.3202   -0.1295    1.9245 O   0  0  0  0  0  0  0  0  0  0  0  0
    1.6477    0.8333    3.9881 C   0  0  0  0  0  0  0  0  0  0  0  0
    2.2184    0.9828    5.1989 C   0  0  0  0  0  0  0  0  0  0  0  0
    2.0048    2.3996    5.7674 C   0  0  0  0  0  0  0  0  0  0  0  0
    0.5318    2.9079    5.7170 C   0  0  1  0  0  0  0  0  0  0  0  0
    0.4372    4.4429    5.8362 C   0  0  0  0  0  0  0  0  0  0  0  0
   -0.2222    2.3548    4.4888 C   0  0  0  0  0  0  0  0  0  0  0  0
   -1.0835    3.0199    3.9092 O   0  0  0  0  0  0  0  0  0  0  0  0
    0.1134    0.8974    4.0900 C   0  0  1  0  0  0  0  0  0  0  0  0
   -0.5219    0.5745    2.8615 O   0  0  0  0  0  0  0  0  0  0  0  0
   -0.3602   -0.1040    5.2267 C   0  0  1  0  0  0  0  0  0  0  0  0
   -1.7111   -0.8153    4.9732 C   0  0  0  0  0  0  0  0  0  0  0  0
    0.7909   -1.0648    5.7088 C   0  0  1  0  0  0  0  0  0  0  0  0
    1.1609   -2.0958    4.6120 C   0  0  2  0  0  0  0  0  0  0  0  0
    1.1902   -3.5912    5.0886 C   0  0  0  0  0  0  0  0  0  0  0  0
    0.6364   -4.4296    4.0579 O   0  0  0  0  0  0  0  0  0  0  0  0
    1.4755   -5.3988    3.5106 N   0  0  0  0  0  0  0  0  0  0  0  0
    2.7096   -5.1983    2.9321 C   0  0  0  0  0  0  0  0  0  0  0  0
    3.1222   -6.3911    2.4092 N   0  0  0  0  0  0  0  0  0  0  0  0
    2.1606   -7.3687    2.6559 C   0  0  0  0  0  0  0  0  0  0  0  0
    2.1225   -8.7219    2.3233 C   0  0  0  0  0  0  0  0  0  0  0  0
    0.9750   -9.4388    2.7178 C   0  0  0  0  0  0  0  0  0  0  0  0
   -0.0833   -8.8145    3.4030 C   0  0  0  0  0  0  0  0  0  0  0  0
   -0.0340   -7.4397    3.7358 C   0  0  0  0  0  0  0  0  0  0  0  0
    1.1089   -6.7426    3.3551 C   0  0  0  0  0  0  0  0  0  0  0  0
    3.4898   -3.9175    2.9933 C   0  0  1  0  0  0  0  0  0  0  0  0
    4.7272   -3.9753    3.8673 C   0  0  0  0  0  0  0  0  0  0  0  0
    5.6164   -5.0130    3.4919 O   0  0  0  0  0  0  0  0  0  0  0  0
    3.6507   -3.0058    1.8870 O   0  0  0  0  0  0  0  0  0  0  0  0
    2.5621   -2.7483    2.7594 C   0  0  2  0  0  0  0  0  0  0  0  0
    2.0516   -0.2313    6.1674 C   0  0  1  0  0  0  0  0  0  0  0  0
    1.7627    0.2397    7.6232 C   0  0  0  0  0  0  0  0  0  0  0  0
    7.8114   -1.5839    6.4986 H   0  0  0  0  0  0  0  0  0  0  0  0
    7.0459   -1.1143    8.0046 H   0  0  0  0  0  0  0  0  0  0  0  0
    6.8449   -0.1222    6.5535 H   0  0  0  0  0  0  0  0  0  0  0  0
    5.7539   -2.0253    5.4171 H   0  0  0  0  0  0  0  0  0  0  0  0
    5.7610   -2.9858    6.8810 H   0  0  0  0  0  0  0  0  0  0  0  0
    4.9944   -1.8277    8.9091 H   0  0  0  0  0  0  0  0  0  0  0  0
    3.3262   -1.4681    8.8316 H   0  0  0  0  0  0  0  0  0  0  0  0
    4.5259   -0.1498    8.7128 H   0  0  0  0  0  0  0  0  0  0  0  0
    2.4544    2.5464    6.7513 H   0  0  0  0  0  0  0  0  0  0  0  0
    2.5785    3.0511    5.1077 H   0  0  0  0  0  0  0  0  0  0  0  0
    0.0104    2.5100    6.5849 H   0  0  0  0  0  0  0  0  0  0  0  0
   -0.5954    4.7638    5.9688 H   0  0  0  0  0  0  0  0  0  0  0  0
    0.8269    4.9479    4.9513 H   0  0  0  0  0  0  0  0  0  0  0  0
    0.9973    4.8060    6.6988 H   0  0  0  0  0  0  0  0  0  0  0  0
   -0.2423    1.2080    2.2116 H   0  0  0  0  0  0  0  0  0  0  0  0
   -0.5976    0.4896    6.1068 H   0  0  0  0  0  0  0  0  0  0  0  0
   -1.6999   -1.4380    4.0799 H   0  0  0  0  0  0  0  0  0  0  0  0
   -2.5190   -0.0936    4.8452 H   0  0  0  0  0  0  0  0  0  0  0  0
   -1.9790   -1.4611    5.8092 H   0  0  0  0  0  0  0  0  0  0  0  0
    0.4137   -1.6160    6.5706 H   0  0  0  0  0  0  0  0  0  0  0  0
    0.3376   -2.0893    3.9002 H   0  0  0  0  0  0  0  0  0  0  0  0
    2.1729   -3.9156    5.4408 H   0  0  0  0  0  0  0  0  0  0  0  0
    0.5241   -3.7191    5.9427 H   0  0  0  0  0  0  0  0  0  0  0  0
    2.9226   -9.2154    1.7897 H   0  0  0  0  0  0  0  0  0  0  0  0
    0.9017  -10.4930    2.4845 H   0  0  0  0  0  0  0  0  0  0  0  0
   -0.9428   -9.4092    3.6814 H   0  0  0  0  0  0  0  0  0  0  0  0
   -0.8397   -6.9677    4.2748 H   0  0  0  0  0  0  0  0  0  0  0  0
    5.2630   -3.0435    3.7098 H   0  0  0  0  0  0  0  0  0  0  0  0
    4.4511   -4.0680    4.9188 H   0  0  0  0  0  0  0  0  0  0  0  0
    5.2407   -5.8560    3.7052 H   0  0  0  0  0  0  0  0  0  0  0  0
    1.6334   -2.9151    2.2105 H   0  0  0  0  0  0  0  0  0  0  0  0
    2.5982    0.7883    8.0540 H   0  0  0  0  0  0  0  0  0  0  0  0
    1.5149   -0.5909    8.2813 H   0  0  0  0  0  0  0  0  0  0  0  0
    0.9021    0.9038    7.6891 H   0  0  0  0  0  0  0  0  0  0  0  0
    3.9968   -6.5165    1.9143 H   0  0  0  0  0  0  0  0  0  0  0  0
  1  2  1  0
  1 41  1  0
  1 42  1  0
  1 43  1  0
  2  3  1  0
  2 44  1  0
  2 45  1  0
  3  4  1  0
  3  5  2  3
  4 46  1  0
  4 47  1  0
  4 48  1  0
  5 39  1  0
  5  6  1  0
  7  6  1  1
  7 22  1  0
  7 38  1  0
  7  8  1  0
  8  9  2  0
  8 10  1  0
 10 17  1  0
 10 11  2  0
 11 39  1  0
 11 12  1  0
 12 13  1  0
 12 49  1  0
 12 50  1  0
 13 14  1  0
 13 15  1  0
 13 51  1  1
 14 52  1  0
 14 53  1  0
 14 54  1  0
 15 16  2  0
 15 17  1  0
 17 18  1  6
 17 19  1  0
 18 55  1  0
 19 20  1  0
 19 21  1  0
 19 56  1  1
 20 57  1  0
 20 58  1  0
 20 59  1  0
 21 22  1  0
 21 39  1  0
 21 60  1  1
 22 23  1  0
 22 61  1  6
 23 24  1  0
 23 62  1  0
 23 63  1  0
 24 25  1  0
 25 33  1  0
 25 26  1  0
 26 27  2  0
 26 34  1  0
 27 28  1  0
 27 75  1  0
 28 33  2  0
 28 29  1  0
 29 30  2  0
 29 64  1  0
 30 31  1  0
 30 65  1  0
 31 32  2  0
 31 66  1  0
 32 33  1  0
 32 67  1  0
 34 38  1  0
 34 35  1  1
 34 37  1  0
 35 36  1  0
 35 68  1  0
 35 69  1  0
 36 70  1  0
 37 38  1  0
 38 71  1  6
 39 40  1  1
 40 72  1  0
 40 73  1  0
 40 74  1  0
M  CHG  1  27   1
M  END
>  <i_m_ct_stereo_status>  (43) 
1

>  <s_m_source_file>  (43) 
/var/tmp/pbs.5076255.sched01/tmpzk3r62u5/0tgg_cfwk.sdf

>  <i_m_source_file_index>  (43) 
18

>  <i_lp_mmshare_version>  (43) 
48012

>  <i_f3d_flags>  (43) 
0

>  <s_epik_input>  (43) 
W0NIMl0xW0NAQEhdKFtDSDNdKUMoPU8pW0NAXShbT0hdKShbQ0BIXTJbQ0gzXSlDKEMzPU8pPUMxW0NAXShbQ0gzXSkoQygvTzQpPUMoW0NIM10pXFtDSDJdW0NIM10pW0NAQEhdMltDQEBIXShbQ0BAXTM0NSlbQ0gyXU9uNmMoW0NAQF03KFtDQEBIXTVPNylbQ0gyXVtPSF0pbmM4YzZbY0hdW2NIXVtjSF1bY0hdOA==

>  <s_epik_cmdline>  (43) 
J2VwaWtfcHl0aG9uJywgJy1waHQnLCAnMi4wJywgJy1waCcsICc3LjAnLCAnLXRuJywgJzgnLCAnLW1hJywgJzIwMCcsICctaW1hZScsICc8aW5maWxlLm1hZT4nLCAnLW9tYWUnLCAnPG91dGZpbGUubWFlPic=

>  <r_lp_tautomer_probability>  (43) 
0.99995

>  <r_epik_Ionization_Penalty>  (43) 
2.1803

>  <r_epik_Ionization_Penalty_Charging>  (43) 
2.1803

>  <r_epik_Ionization_Penalty_Neutral>  (43) 
5.5296e-06

>  <r_epik_State_Penalty>  (43) 
2.32228

>  <r_epik_Charging_Adjusted_Penalty>  (43) 
4.50258

>  <i_epik_Tot_Q>  (43) 
1

>  <i_epik_Tot_abs_Q>  (43) 
1

>  <s_lp_Force_Field>  (43) 
OPLS3e

>  <r_lp_Energy>  (43) 
150.769

>  <b_lp_Chiralities_Consistent>  (43) 
1

>  <s_lp_Variant>  (43) 
10:0-4

>  <s_i_glide_gridfile>  (43) 
pfpi4k_grid

>  <i_i_glide_lignum>  (43) 
18

>  <i_i_glide_rotatable_bonds>  (43) 
4

>  <r_i_docking_score>  (43) 
-1.46751

>  <r_i_glide_ligand_efficiency>  (43) 
-0.0366879

>  <r_i_glide_ligand_efficiency_sa>  (43) 
-0.125471

>  <r_i_glide_ligand_efficiency_ln>  (43) 
-0.312978

>  <r_i_glide_gscore>  (43) 
-1.46751

>  <r_i_glide_lipo>  (43) 
-0.122043

>  <r_i_glide_hbond>  (43) 
0

>  <r_i_glide_metal>  (43) 
-0

>  <r_i_glide_rewards>  (43) 
0

>  <r_i_glide_evdw>  (43) 
-26.9276

>  <r_i_glide_ecoul>  (43) 
-0.632548

>  <r_i_glide_erotb>  (43) 
0.138165

>  <r_i_glide_esite>  (43) 
-0.0423735

>  <r_i_glide_emodel>  (43) 
-29.1873

>  <r_i_glide_energy>  (43) 
-27.5602

>  <r_i_glide_einternal>  (43) 
2.25344

>  <r_i_glide_intrahb_reward>  (43) 
-0

>  <i_i_glide_confnum>  (43) 
5

>  <i_i_glide_posenum>  (43) 
16

>  <r_i_glide_eff_state_penalty>  (43) 
0

>  <ligand_id>  (43) 
10

>  <original_smiles>  (43) 
CCC(C)=C1OC23C(=O)C4=C5CC(C)C(=O)C4(O)C(C)C(C2COn2c(nc4ccccc42)C2(CO)OC23)C51C

>  <smiles>  (43) 
[H]OC([H])([H])C12OC1([H])C13OC(=C(C([H])([H])[H])C([H])([H])C([H])([H])[H])C4(C([H])([H])[H])C5=C(C1=O)C(O[H])(C(=O)C([H])(C([H])([H])[H])C5([H])[H])C([H])(C([H])([H])[H])C4([H])C3([H])C([H])([H])On1c2[n+]([H])c2c([H])c([H])c([H])c([H])c21

$$$$
11:0:0
     RDKit          3D

 60 64  0  0  1  0  0  0  0  0999 V2000
    5.2244   -3.5892   -3.5204 C   0  0  0  0  0  0  0  0  0  0  0  0
    4.6021   -3.5652   -2.2148 N   0  0  0  0  0  0  0  0  0  0  0  0
    5.0889   -2.9623   -1.1167 C   0  0  0  0  0  0  0  0  0  0  0  0
    6.1302   -2.3092   -1.1061 O   0  0  0  0  0  0  0  0  0  0  0  0
    4.2575   -3.1545    0.0915 C   0  0  0  0  0  0  0  0  0  0  0  0
    3.6207   -4.3428    0.5449 C   0  0  0  0  0  0  0  0  0  0  0  0
    2.9768   -4.0710    1.7224 C   0  0  0  0  0  0  0  0  0  0  0  0
    2.2013   -4.9973    2.5737 C   0  0  0  0  0  0  0  0  0  0  0  0
    1.4245   -4.6264    3.4521 O   0  0  0  0  0  0  0  0  0  0  0  0
    2.4419   -6.2797    2.2929 N   0  0  0  0  0  0  0  0  0  0  0  0
    1.9363   -7.4500    2.9926 C   0  0  2  0  0  0  0  0  0  0  0  0
    2.9707   -7.9102    4.0439 C   0  0  2  0  0  0  0  0  0  0  0  0
    4.2909   -8.3401    3.3515 C   0  0  0  0  0  0  0  0  0  0  0  0
    4.0015   -9.4960    2.3704 C   0  0  1  0  0  0  0  0  0  0  0  0
    3.4131  -10.6875    3.1523 C   0  0  0  0  0  0  0  0  0  0  0  0
    2.0959  -10.2604    3.8340 C   0  0  1  0  0  0  0  0  0  0  0  0
    2.3783   -9.1033    4.8188 C   0  0  0  0  0  0  0  0  0  0  0  0
    1.0856   -9.7979    2.7609 C   0  0  0  0  0  0  0  0  0  0  0  0
    1.6771   -8.5976    1.9917 C   0  0  2  0  0  0  0  0  0  0  0  0
    2.9957   -9.0270    1.3011 C   0  0  0  0  0  0  0  0  0  0  0  0
    3.1543   -2.7181    1.9934 N   0  0  0  0  0  0  0  0  0  0  0  0
    3.9601   -2.1664    1.0033 C   0  0  0  0  0  0  0  0  0  0  0  0
    4.3054   -0.7044    1.0664 C   0  0  0  0  0  0  0  0  0  0  0  0
    4.1953   -0.1276    2.4096 N   0  0  0  0  0  0  0  0  0  0  0  0
    5.3116   -0.5290    3.2643 C   0  0  0  0  0  0  0  0  0  0  0  0
    2.8978   -0.4386    3.0260 C   0  0  1  0  0  0  0  0  0  0  0  0
    1.7345    0.2372    2.2650 C   0  0  0  0  0  0  0  0  0  0  0  0
    2.6931   -1.9693    3.1631 C   0  0  0  0  0  0  0  0  0  0  0  0
    5.3791   -4.6230   -3.8197 H   0  0  0  0  0  0  0  0  0  0  0  0
    6.1869   -3.0783   -3.5171 H   0  0  0  0  0  0  0  0  0  0  0  0
    4.5596   -3.1285   -4.2518 H   0  0  0  0  0  0  0  0  0  0  0  0
    3.7313   -4.0766   -2.1153 H   0  0  0  0  0  0  0  0  0  0  0  0
    3.6394   -5.3023    0.0470 H   0  0  0  0  0  0  0  0  0  0  0  0
    3.1221   -6.4517    1.5679 H   0  0  0  0  0  0  0  0  0  0  0  0
    0.9937   -7.2041    3.4851 H   0  0  0  0  0  0  0  0  0  0  0  0
    3.1741   -7.0931    4.7397 H   0  0  0  0  0  0  0  0  0  0  0  0
    4.7540   -7.5052    2.8228 H   0  0  0  0  0  0  0  0  0  0  0  0
    5.0190   -8.6541    4.0989 H   0  0  0  0  0  0  0  0  0  0  0  0
    4.9248   -9.8045    1.8788 H   0  0  0  0  0  0  0  0  0  0  0  0
    3.2369  -11.5299    2.4826 H   0  0  0  0  0  0  0  0  0  0  0  0
    4.1297  -11.0237    3.9022 H   0  0  0  0  0  0  0  0  0  0  0  0
    1.6823  -11.1092    4.3777 H   0  0  0  0  0  0  0  0  0  0  0  0
    3.0705   -9.4227    5.5984 H   0  0  0  0  0  0  0  0  0  0  0  0
    1.4587   -8.8043    5.3235 H   0  0  0  0  0  0  0  0  0  0  0  0
    0.8610  -10.6151    2.0776 H   0  0  0  0  0  0  0  0  0  0  0  0
    0.1407   -9.5214    3.2303 H   0  0  0  0  0  0  0  0  0  0  0  0
    0.9606   -8.2566    1.2431 H   0  0  0  0  0  0  0  0  0  0  0  0
    3.4346   -8.2044    0.7376 H   0  0  0  0  0  0  0  0  0  0  0  0
    2.8066   -9.8244    0.5812 H   0  0  0  0  0  0  0  0  0  0  0  0
    5.3173   -0.5578    0.6981 H   0  0  0  0  0  0  0  0  0  0  0  0
    3.6490   -0.1482    0.3964 H   0  0  0  0  0  0  0  0  0  0  0  0
    5.2115   -0.0866    4.2608 H   0  0  0  0  0  0  0  0  0  0  0  0
    6.2554   -0.1808    2.8384 H   0  0  0  0  0  0  0  0  0  0  0  0
    5.3758   -1.6145    3.3733 H   0  0  0  0  0  0  0  0  0  0  0  0
    2.8936   -0.0069    4.0326 H   0  0  0  0  0  0  0  0  0  0  0  0
    0.8083    0.1603    2.8410 H   0  0  0  0  0  0  0  0  0  0  0  0
    1.5469   -0.2349    1.2978 H   0  0  0  0  0  0  0  0  0  0  0  0
    1.9280    1.2988    2.0943 H   0  0  0  0  0  0  0  0  0  0  0  0
    1.6364   -2.1687    3.3338 H   0  0  0  0  0  0  0  0  0  0  0  0
    3.2501   -2.3436    4.0257 H   0  0  0  0  0  0  0  0  0  0  0  0
  1  2  1  0
  1 29  1  0
  1 30  1  0
  1 31  1  0
  2  3  1  0
  2 32  1  0
  3  4  2  0
  3  5  1  0
  5 22  2  0
  5  6  1  0
  6  7  2  0
  6 33  1  0
  7  8  1  0
  7 21  1  0
  8  9  2  0
  8 10  1  0
 10 11  1  0
 10 34  1  0
 11 19  1  0
 11 12  1  0
 11 35  1  1
 12 17  1  0
 12 13  1  0
 12 36  1  1
 13 14  1  0
 13 37  1  0
 13 38  1  0
 14 20  1  0
 14 15  1  0
 14 39  1  6
 15 16  1  0
 15 40  1  0
 15 41  1  0
 16 17  1  0
 16 18  1  0
 16 42  1  1
 17 43  1  0
 17 44  1  0
 18 19  1  0
 18 45  1  0
 18 46  1  0
 19 20  1  0
 19 47  1  6
 20 48  1  0
 20 49  1  0
 21 28  1  0
 21 22  1  0
 22 23  1  0
 23 24  1  0
 23 50  1  0
 23 51  1  0
 24 25  1  0
 24 26  1  0
 25 52  1  0
 25 53  1  0
 25 54  1  0
 26 27  1  0
 26 28  1  0
 26 55  1  1
 27 56  1  0
 27 57  1  0
 27 58  1  0
 28 59  1  0
 28 60  1  0
M  END
>  <i_m_ct_stereo_status>  (44) 
1

>  <s_m_source_file>  (44) 
/var/tmp/pbs.5076255.sched01/tmpzk3r62u5/0tgg_cfwk.sdf

>  <i_m_source_file_index>  (44) 
19

>  <i_lp_mmshare_version>  (44) 
48012

>  <i_f3d_flags>  (44) 
0

>  <s_epik_input>  (44) 
W0NIM11bQ0BASF0oW0NIMl0xKU4oW0NIM10pW0NIMl1jKG4xMiljKEMoPU8pW05IXVtDSDNdKVtjSF1jMkMoPU8pW05IXVtDQEhdKFtDQEhdMzQpW0NAQEhdNVtDSDJdW0NASF0oW0NIMl00KVtDSDJdW0NASF0oW0NIMl0zKVtDSDJdNQ==

>  <s_epik_cmdline>  (44) 
J2VwaWtfcHl0aG9uJywgJy1waHQnLCAnMi4wJywgJy1waCcsICc3LjAnLCAnLXRuJywgJzgnLCAnLW1hJywgJzIwMCcsICctaW1hZScsICc8aW5maWxlLm1hZT4nLCAnLW9tYWUnLCAnPG91dGZpbGUubWFlPic=

>  <r_epik_Ionization_Penalty>  (44) 
0.392846

>  <r_epik_Ionization_Penalty_Charging>  (44) 
0

>  <r_epik_Ionization_Penalty_Neutral>  (44) 
0.392846

>  <r_epik_State_Penalty>  (44) 
0.39167

>  <r_epik_Charging_Adjusted_Penalty>  (44) 
0.39167

>  <i_epik_Tot_Q>  (44) 
0

>  <i_epik_Tot_abs_Q>  (44) 
0

>  <s_lp_Force_Field>  (44) 
OPLS3e

>  <r_lp_Energy>  (44) 
21.142

>  <b_lp_Chiralities_Consistent>  (44) 
1

>  <s_lp_Variant>  (44) 
11:0-1

>  <s_i_glide_gridfile>  (44) 
pfpi4k_grid

>  <i_i_glide_lignum>  (44) 
19

>  <i_i_glide_rotatable_bonds>  (44) 
5

>  <r_i_docking_score>  (44) 
-2.65332

>  <r_i_glide_ligand_efficiency>  (44) 
-0.0947616

>  <r_i_glide_ligand_efficiency_sa>  (44) 
-0.287752

>  <r_i_glide_ligand_efficiency_ln>  (44) 
-0.612465

>  <r_i_glide_gscore>  (44) 
-2.65332

>  <r_i_glide_lipo>  (44) 
-0.503866

>  <r_i_glide_hbond>  (44) 
-0.126238

>  <r_i_glide_metal>  (44) 
-0

>  <r_i_glide_rewards>  (44) 
-0.815431

>  <r_i_glide_evdw>  (44) 
-27.6004

>  <r_i_glide_ecoul>  (44) 
-2.16938

>  <r_i_glide_erotb>  (44) 
0.526024

>  <r_i_glide_esite>  (44) 
-0.0283856

>  <r_i_glide_emodel>  (44) 
-34.6487

>  <r_i_glide_energy>  (44) 
-29.7698

>  <r_i_glide_einternal>  (44) 
1.60018

>  <r_i_glide_intrahb_reward>  (44) 
-0

>  <i_i_glide_confnum>  (44) 
1

>  <i_i_glide_posenum>  (44) 
30

>  <r_i_glide_eff_state_penalty>  (44) 
0

>  <ligand_id>  (44) 
11

>  <original_smiles>  (44) 
CNC(=O)c1cc(C(=O)NC2C3CC4CC(C3)CC2C4)n2c1CN(C)C(C)C2

>  <smiles>  (44) 
[H]c1c(C(=O)N([H])C([H])([H])[H])c2n(c1C(=O)N([H])C1([H])C3([H])C([H])([H])C4([H])C([H])([H])C([H])(C3([H])[H])C([H])([H])C1([H])C4([H])[H])C([H])([H])C([H])(C([H])([H])[H])N(C([H])([H])[H])C2([H])[H]

$$$$
11:0:1
     RDKit          3D

 60 64  0  0  1  0  0  0  0  0999 V2000
    2.6087    7.4871    4.1923 C   0  0  0  0  0  0  0  0  0  0  0  0
    2.0574    6.1782    3.8693 N   0  0  0  0  0  0  0  0  0  0  0  0
    2.6377    5.0122    4.1679 C   0  0  0  0  0  0  0  0  0  0  0  0
    3.7676    4.9339    4.6562 O   0  0  0  0  0  0  0  0  0  0  0  0
    1.8744    3.7923    3.8483 C   0  0  0  0  0  0  0  0  0  0  0  0
    2.3771    2.5560    3.3709 C   0  0  0  0  0  0  0  0  0  0  0  0
    1.3315    1.6861    3.2456 C   0  0  0  0  0  0  0  0  0  0  0  0
    1.3647    0.2774    2.8192 C   0  0  0  0  0  0  0  0  0  0  0  0
    0.5456   -0.5521    3.2059 O   0  0  0  0  0  0  0  0  0  0  0  0
    2.3643    0.0033    1.9748 N   0  0  0  0  0  0  0  0  0  0  0  0
    2.7392   -1.3175    1.4875 C   0  0  2  0  0  0  0  0  0  0  0  0
    3.5620   -2.0723    2.5614 C   0  0  2  0  0  0  0  0  0  0  0  0
    4.8807   -1.3148    2.8603 C   0  0  0  0  0  0  0  0  0  0  0  0
    5.7111   -1.2051    1.5644 C   0  0  1  0  0  0  0  0  0  0  0  0
    6.0378   -2.6244    1.0539 C   0  0  0  0  0  0  0  0  0  0  0  0
    4.7252   -3.3786    0.7504 C   0  0  1  0  0  0  0  0  0  0  0  0
    3.8848   -3.4879    2.0418 C   0  0  0  0  0  0  0  0  0  0  0  0
    3.9249   -2.6103   -0.3233 C   0  0  0  0  0  0  0  0  0  0  0  0
    3.5915   -1.1973    0.2002 C   0  0  2  0  0  0  0  0  0  0  0  0
    4.9063   -0.4376    0.4945 C   0  0  0  0  0  0  0  0  0  0  0  0
    0.1774    2.3473    3.6529 N   0  0  0  0  0  0  0  0  0  0  0  0
    0.5151    3.6386    4.0292 C   0  0  0  0  0  0  0  0  0  0  0  0
   -0.5607    4.5722    4.4986 C   0  0  0  0  0  0  0  0  0  0  0  0
   -1.7780    3.9091    4.9756 N   0  0  0  0  0  0  0  0  0  0  0  0
   -1.5697    3.3287    6.3024 C   0  0  0  0  0  0  0  0  0  0  0  0
   -2.2451    2.9055    4.0094 C   0  0  1  0  0  0  0  0  0  0  0  0
   -2.7218    3.5699    2.7025 C   0  0  0  0  0  0  0  0  0  0  0  0
   -1.1759    1.8094    3.7533 C   0  0  0  0  0  0  0  0  0  0  0  0
    2.7652    8.0732    3.2870 H   0  0  0  0  0  0  0  0  0  0  0  0
    3.5592    7.4389    4.7260 H   0  0  0  0  0  0  0  0  0  0  0  0
    1.8963    8.0230    4.8152 H   0  0  0  0  0  0  0  0  0  0  0  0
    1.1812    6.1526    3.3600 H   0  0  0  0  0  0  0  0  0  0  0  0
    3.4088    2.3311    3.1388 H   0  0  0  0  0  0  0  0  0  0  0  0
    2.9661    0.7719    1.7236 H   0  0  0  0  0  0  0  0  0  0  0  0
    1.8279   -1.8728    1.2590 H   0  0  0  0  0  0  0  0  0  0  0  0
    2.9789   -2.1601    3.4798 H   0  0  0  0  0  0  0  0  0  0  0  0
    4.6825   -0.3199    3.2618 H   0  0  0  0  0  0  0  0  0  0  0  0
    5.4459   -1.8372    3.6320 H   0  0  0  0  0  0  0  0  0  0  0  0
    6.6349   -0.6662    1.7733 H   0  0  0  0  0  0  0  0  0  0  0  0
    6.6611   -2.5768    0.1610 H   0  0  0  0  0  0  0  0  0  0  0  0
    6.6104   -3.1647    1.8081 H   0  0  0  0  0  0  0  0  0  0  0  0
    4.9597   -4.3771    0.3800 H   0  0  0  0  0  0  0  0  0  0  0  0
    4.4253   -4.0512    2.8033 H   0  0  0  0  0  0  0  0  0  0  0  0
    2.9615   -4.0356    1.8476 H   0  0  0  0  0  0  0  0  0  0  0  0
    4.4987   -2.5461   -1.2482 H   0  0  0  0  0  0  0  0  0  0  0  0
    3.0070   -3.1468   -0.5681 H   0  0  0  0  0  0  0  0  0  0  0  0
    3.0208   -0.6666   -0.5618 H   0  0  0  0  0  0  0  0  0  0  0  0
    4.6945    0.5710    0.8456 H   0  0  0  0  0  0  0  0  0  0  0  0
    5.4909   -0.3192   -0.4175 H   0  0  0  0  0  0  0  0  0  0  0  0
   -0.1635    5.2021    5.2906 H   0  0  0  0  0  0  0  0  0  0  0  0
   -0.8291    5.2396    3.6797 H   0  0  0  0  0  0  0  0  0  0  0  0
   -2.4736    2.8238    6.6529 H   0  0  0  0  0  0  0  0  0  0  0  0
   -1.3254    4.1074    7.0282 H   0  0  0  0  0  0  0  0  0  0  0  0
   -0.7516    2.6058    6.3123 H   0  0  0  0  0  0  0  0  0  0  0  0
   -3.1245    2.4321    4.4458 H   0  0  0  0  0  0  0  0  0  0  0  0
   -3.2514    2.8396    2.0875 H   0  0  0  0  0  0  0  0  0  0  0  0
   -1.8856    3.9430    2.1092 H   0  0  0  0  0  0  0  0  0  0  0  0
   -3.4086    4.3965    2.8817 H   0  0  0  0  0  0  0  0  0  0  0  0
   -1.4072    1.2604    2.8424 H   0  0  0  0  0  0  0  0  0  0  0  0
   -1.1749    1.0964    4.5779 H   0  0  0  0  0  0  0  0  0  0  0  0
  1  2  1  0
  1 29  1  0
  1 30  1  0
  1 31  1  0
  2  3  1  0
  2 32  1  0
  3  4  2  0
  3  5  1  0
  5 22  2  0
  5  6  1  0
  6  7  2  0
  6 33  1  0
  7  8  1  0
  7 21  1  0
  8  9  2  0
  8 10  1  0
 10 11  1  0
 10 34  1  0
 11 19  1  0
 11 12  1  0
 11 35  1  6
 12 17  1  0
 12 13  1  0
 12 36  1  1
 13 14  1  0
 13 37  1  0
 13 38  1  0
 14 20  1  0
 14 15  1  0
 14 39  1  1
 15 16  1  0
 15 40  1  0
 15 41  1  0
 16 17  1  0
 16 18  1  0
 16 42  1  6
 17 43  1  0
 17 44  1  0
 18 19  1  0
 18 45  1  0
 18 46  1  0
 19 20  1  0
 19 47  1  6
 20 48  1  0
 20 49  1  0
 21 28  1  0
 21 22  1  0
 22 23  1  0
 23 24  1  0
 23 50  1  0
 23 51  1  0
 24 25  1  0
 24 26  1  0
 25 52  1  0
 25 53  1  0
 25 54  1  0
 26 27  1  0
 26 28  1  0
 26 55  1  1
 27 56  1  0
 27 57  1  0
 27 58  1  0
 28 59  1  0
 28 60  1  0
M  END
>  <i_m_ct_stereo_status>  (45) 
1

>  <s_m_source_file>  (45) 
/var/tmp/pbs.5076255.sched01/tmpzk3r62u5/0tgg_cfwk.sdf

>  <i_m_source_file_index>  (45) 
19

>  <i_lp_mmshare_version>  (45) 
48012

>  <i_f3d_flags>  (45) 
0

>  <s_epik_input>  (45) 
W0NIM11bQ0BASF0oW0NIMl0xKU4oW0NIM10pW0NIMl1jKG4xMiljKEMoPU8pW05IXVtDSDNdKVtjSF1jMkMoPU8pW05IXVtDQEhdKFtDQEhdMzQpW0NAQEhdNVtDSDJdW0NASF0oW0NIMl00KVtDSDJdW0NASF0oW0NIMl0zKVtDSDJdNQ==

>  <s_epik_cmdline>  (45) 
J2VwaWtfcHl0aG9uJywgJy1waHQnLCAnMi4wJywgJy1waCcsICc3LjAnLCAnLXRuJywgJzgnLCAnLW1hJywgJzIwMCcsICctaW1hZScsICc8aW5maWxlLm1hZT4nLCAnLW9tYWUnLCAnPG91dGZpbGUubWFlPic=

>  <r_epik_Ionization_Penalty>  (45) 
0.392846

>  <r_epik_Ionization_Penalty_Charging>  (45) 
0

>  <r_epik_Ionization_Penalty_Neutral>  (45) 
0.392846

>  <r_epik_State_Penalty>  (45) 
0.39167

>  <r_epik_Charging_Adjusted_Penalty>  (45) 
0.39167

>  <i_epik_Tot_Q>  (45) 
0

>  <i_epik_Tot_abs_Q>  (45) 
0

>  <s_lp_Force_Field>  (45) 
OPLS3e

>  <r_lp_Energy>  (45) 
21.142

>  <b_lp_Chiralities_Consistent>  (45) 
1

>  <s_lp_Variant>  (45) 
11:0-1

>  <s_i_glide_gridfile>  (45) 
pfpi4k_grid

>  <i_i_glide_lignum>  (45) 
19

>  <i_i_glide_rotatable_bonds>  (45) 
5

>  <r_i_docking_score>  (45) 
-2.56447

>  <r_i_glide_ligand_efficiency>  (45) 
-0.0915883

>  <r_i_glide_ligand_efficiency_sa>  (45) 
-0.278116

>  <r_i_glide_ligand_efficiency_ln>  (45) 
-0.591955

>  <r_i_glide_gscore>  (45) 
-2.56447

>  <r_i_glide_lipo>  (45) 
-0.552541

>  <r_i_glide_hbond>  (45) 
0

>  <r_i_glide_metal>  (45) 
-0

>  <r_i_glide_rewards>  (45) 
-0.787397

>  <r_i_glide_evdw>  (45) 
-28.1999

>  <r_i_glide_ecoul>  (45) 
-1.27512

>  <r_i_glide_erotb>  (45) 
0.526024

>  <r_i_glide_esite>  (45) 
-0.149296

>  <r_i_glide_emodel>  (45) 
-34.7749

>  <r_i_glide_energy>  (45) 
-29.475

>  <r_i_glide_einternal>  (45) 
0.705227

>  <r_i_glide_intrahb_reward>  (45) 
-0

>  <i_i_glide_confnum>  (45) 
2

>  <i_i_glide_posenum>  (45) 
11

>  <r_i_glide_eff_state_penalty>  (45) 
0

>  <ligand_id>  (45) 
11

>  <original_smiles>  (45) 
CNC(=O)c1cc(C(=O)NC2C3CC4CC(C3)CC2C4)n2c1CN(C)C(C)C2

>  <smiles>  (45) 
[H]c1c(C(=O)N([H])C([H])([H])[H])c2n(c1C(=O)N([H])C1([H])C3([H])C([H])([H])C4([H])C([H])([H])C([H])(C3([H])[H])C([H])([H])C1([H])C4([H])[H])C([H])([H])C([H])(C([H])([H])[H])N(C([H])([H])[H])C2([H])[H]

$$$$
11:0:2
     RDKit          3D

 60 64  0  0  1  0  0  0  0  0999 V2000
    3.6563   -1.7216   -3.9988 C   0  0  0  0  0  0  0  0  0  0  0  0
    3.5234   -2.3635   -2.7000 N   0  0  0  0  0  0  0  0  0  0  0  0
    4.1077   -1.9590   -1.5638 C   0  0  0  0  0  0  0  0  0  0  0  0
    4.8664   -0.9942   -1.4985 O   0  0  0  0  0  0  0  0  0  0  0  0
    3.7967   -2.7878   -0.3849 C   0  0  0  0  0  0  0  0  0  0  0  0
    3.7858   -4.2056   -0.3063 C   0  0  0  0  0  0  0  0  0  0  0  0
    3.4705   -4.5662    0.9679 C   0  0  0  0  0  0  0  0  0  0  0  0
    3.3924   -5.9313    1.5237 C   0  0  0  0  0  0  0  0  0  0  0  0
    4.1396   -6.8212    1.1190 O   0  0  0  0  0  0  0  0  0  0  0  0
    2.4137   -6.1309    2.4041 N   0  0  0  0  0  0  0  0  0  0  0  0
    2.0549   -7.3990    3.0238 C   0  0  2  0  0  0  0  0  0  0  0  0
    1.1291   -8.2090    2.0844 C   0  0  2  0  0  0  0  0  0  0  0  0
   -0.1937   -7.4379    1.8397 C   0  0  0  0  0  0  0  0  0  0  0  0
   -0.9067   -7.2024    3.1889 C   0  0  1  0  0  0  0  0  0  0  0  0
   -1.2155   -8.5695    3.8343 C   0  0  0  0  0  0  0  0  0  0  0  0
    0.1020   -9.3318    4.0858 C   0  0  1  0  0  0  0  0  0  0  0  0
    0.8247   -9.5704    2.7424 C   0  0  0  0  0  0  0  0  0  0  0  0
    1.0046   -8.5049    5.0263 C   0  0  0  0  0  0  0  0  0  0  0  0
    1.3211   -7.1464    4.3642 C   0  0  2  0  0  0  0  0  0  0  0  0
    0.0017   -6.3730    4.1233 C   0  0  0  0  0  0  0  0  0  0  0  0
    3.2704   -3.3964    1.7057 N   0  0  0  0  0  0  0  0  0  0  0  0
    3.4900   -2.3045    0.8684 C   0  0  0  0  0  0  0  0  0  0  0  0
    3.3510   -0.9107    1.4240 C   0  0  0  0  0  0  0  0  0  0  0  0
    3.4918   -0.8284    2.8840 N   0  0  0  0  0  0  0  0  0  0  0  0
    4.8875   -0.9608    3.3024 C   0  0  0  0  0  0  0  0  0  0  0  0
    2.6380   -1.8122    3.5639 C   0  0  1  0  0  0  0  0  0  0  0  0
    1.1381   -1.5109    3.3440 C   0  0  0  0  0  0  0  0  0  0  0  0
    3.0024   -3.2555    3.1403 C   0  0  0  0  0  0  0  0  0  0  0  0
    4.0727   -2.4311   -4.7131 H   0  0  0  0  0  0  0  0  0  0  0  0
    4.2974   -0.8399   -3.9751 H   0  0  0  0  0  0  0  0  0  0  0  0
    2.6705   -1.4180   -4.3520 H   0  0  0  0  0  0  0  0  0  0  0  0
    2.9211   -3.1738   -2.6403 H   0  0  0  0  0  0  0  0  0  0  0  0
    3.9940   -4.9052   -1.1042 H   0  0  0  0  0  0  0  0  0  0  0  0
    1.8019   -5.3544    2.5977 H   0  0  0  0  0  0  0  0  0  0  0  0
    2.9666   -7.9645    3.2220 H   0  0  0  0  0  0  0  0  0  0  0  0
    1.6315   -8.3888    1.1326 H   0  0  0  0  0  0  0  0  0  0  0  0
   -0.0026   -6.4898    1.3385 H   0  0  0  0  0  0  0  0  0  0  0  0
   -0.8390   -8.0025    1.1670 H   0  0  0  0  0  0  0  0  0  0  0  0
   -1.8419   -6.6692    3.0253 H   0  0  0  0  0  0  0  0  0  0  0  0
   -1.7585   -8.4438    4.7708 H   0  0  0  0  0  0  0  0  0  0  0  0
   -1.8600   -9.1554    3.1779 H   0  0  0  0  0  0  0  0  0  0  0  0
   -0.1218  -10.2916    4.5519 H   0  0  0  0  0  0  0  0  0  0  0  0
    0.2062  -10.1816    2.0839 H   0  0  0  0  0  0  0  0  0  0  0  0
    1.7498  -10.1283    2.9013 H   0  0  0  0  0  0  0  0  0  0  0  0
    0.5101   -8.3578    5.9870 H   0  0  0  0  0  0  0  0  0  0  0  0
    1.9255   -9.0516    5.2347 H   0  0  0  0  0  0  0  0  0  0  0  0
    1.9667   -6.5735    5.0302 H   0  0  0  0  0  0  0  0  0  0  0  0
    0.2007   -5.3931    3.6877 H   0  0  0  0  0  0  0  0  0  0  0  0
   -0.5006   -6.1775    5.0709 H   0  0  0  0  0  0  0  0  0  0  0  0
    4.0902   -0.2589    0.9628 H   0  0  0  0  0  0  0  0  0  0  0  0
    2.3764   -0.5076    1.1471 H   0  0  0  0  0  0  0  0  0  0  0  0
    4.9738   -0.9091    4.3925 H   0  0  0  0  0  0  0  0  0  0  0  0
    5.4849   -0.1479    2.8849 H   0  0  0  0  0  0  0  0  0  0  0  0
    5.3323   -1.9025    2.9732 H   0  0  0  0  0  0  0  0  0  0  0  0
    2.8112   -1.7288    4.6434 H   0  0  0  0  0  0  0  0  0  0  0  0
    0.5223   -2.1293    4.0020 H   0  0  0  0  0  0  0  0  0  0  0  0
    0.8227   -1.7242    2.3218 H   0  0  0  0  0  0  0  0  0  0  0  0
    0.9056   -0.4681    3.5619 H   0  0  0  0  0  0  0  0  0  0  0  0
    2.1756   -3.8895    3.4462 H   0  0  0  0  0  0  0  0  0  0  0  0
    3.8956   -3.5937    3.6680 H   0  0  0  0  0  0  0  0  0  0  0  0
  1  2  1  0
  1 29  1  0
  1 30  1  0
  1 31  1  0
  2  3  1  0
  2 32  1  0
  3  4  2  0
  3  5  1  0
  5 22  2  0
  5  6  1  0
  6  7  2  0
  6 33  1  0
  7  8  1  0
  7 21  1  0
  8  9  2  0
  8 10  1  0
 10 11  1  0
 10 34  1  0
 11 19  1  0
 11 12  1  0
 11 35  1  1
 12 17  1  0
 12 13  1  0
 12 36  1  6
 13 14  1  0
 13 37  1  0
 13 38  1  0
 14 20  1  0
 14 15  1  0
 14 39  1  6
 15 16  1  0
 15 40  1  0
 15 41  1  0
 16 17  1  0
 16 18  1  0
 16 42  1  1
 17 43  1  0
 17 44  1  0
 18 19  1  0
 18 45  1  0
 18 46  1  0
 19 20  1  0
 19 47  1  1
 20 48  1  0
 20 49  1  0
 21 28  1  0
 21 22  1  0
 22 23  1  0
 23 24  1  0
 23 50  1  0
 23 51  1  0
 24 25  1  0
 24 26  1  0
 25 52  1  0
 25 53  1  0
 25 54  1  0
 26 27  1  0
 26 28  1  0
 26 55  1  1
 27 56  1  0
 27 57  1  0
 27 58  1  0
 28 59  1  0
 28 60  1  0
M  END
>  <i_m_ct_stereo_status>  (46) 
1

>  <s_m_source_file>  (46) 
/var/tmp/pbs.5076255.sched01/tmpzk3r62u5/0tgg_cfwk.sdf

>  <i_m_source_file_index>  (46) 
19

>  <i_lp_mmshare_version>  (46) 
48012

>  <i_f3d_flags>  (46) 
0

>  <s_epik_input>  (46) 
W0NIM11bQ0BASF0oW0NIMl0xKU4oW0NIM10pW0NIMl1jKG4xMiljKEMoPU8pW05IXVtDSDNdKVtjSF1jMkMoPU8pW05IXVtDQEhdKFtDQEhdMzQpW0NAQEhdNVtDSDJdW0NASF0oW0NIMl00KVtDSDJdW0NASF0oW0NIMl0zKVtDSDJdNQ==

>  <s_epik_cmdline>  (46) 
J2VwaWtfcHl0aG9uJywgJy1waHQnLCAnMi4wJywgJy1waCcsICc3LjAnLCAnLXRuJywgJzgnLCAnLW1hJywgJzIwMCcsICctaW1hZScsICc8aW5maWxlLm1hZT4nLCAnLW9tYWUnLCAnPG91dGZpbGUubWFlPic=

>  <r_epik_Ionization_Penalty>  (46) 
0.392846

>  <r_epik_Ionization_Penalty_Charging>  (46) 
0

>  <r_epik_Ionization_Penalty_Neutral>  (46) 
0.392846

>  <r_epik_State_Penalty>  (46) 
0.39167

>  <r_epik_Charging_Adjusted_Penalty>  (46) 
0.39167

>  <i_epik_Tot_Q>  (46) 
0

>  <i_epik_Tot_abs_Q>  (46) 
0

>  <s_lp_Force_Field>  (46) 
OPLS3e

>  <r_lp_Energy>  (46) 
21.142

>  <b_lp_Chiralities_Consistent>  (46) 
1

>  <s_lp_Variant>  (46) 
11:0-1

>  <s_i_glide_gridfile>  (46) 
pfpi4k_grid

>  <i_i_glide_lignum>  (46) 
19

>  <i_i_glide_rotatable_bonds>  (46) 
5

>  <r_i_docking_score>  (46) 
-2.26154

>  <r_i_glide_ligand_efficiency>  (46) 
-0.0807693

>  <r_i_glide_ligand_efficiency_sa>  (46) 
-0.245263

>  <r_i_glide_ligand_efficiency_ln>  (46) 
-0.52203

>  <r_i_glide_gscore>  (46) 
-2.26154

>  <r_i_glide_lipo>  (46) 
-0.16763

>  <r_i_glide_hbond>  (46) 
0

>  <r_i_glide_metal>  (46) 
-0

>  <r_i_glide_rewards>  (46) 
-0.83283

>  <r_i_glide_evdw>  (46) 
-31.6827

>  <r_i_glide_ecoul>  (46) 
-1.04713

>  <r_i_glide_erotb>  (46) 
0.526024

>  <r_i_glide_esite>  (46) 
-0.0459018

>  <r_i_glide_emodel>  (46) 
-35.6597

>  <r_i_glide_energy>  (46) 
-32.7298

>  <r_i_glide_einternal>  (46) 
3.84307

>  <r_i_glide_intrahb_reward>  (46) 
-0

>  <i_i_glide_confnum>  (46) 
6

>  <i_i_glide_posenum>  (46) 
24

>  <r_i_glide_eff_state_penalty>  (46) 
0

>  <ligand_id>  (46) 
11

>  <original_smiles>  (46) 
CNC(=O)c1cc(C(=O)NC2C3CC4CC(C3)CC2C4)n2c1CN(C)C(C)C2

>  <smiles>  (46) 
[H]c1c(C(=O)N([H])C([H])([H])[H])c2n(c1C(=O)N([H])C1([H])C3([H])C([H])([H])C4([H])C([H])([H])C([H])(C3([H])[H])C([H])([H])C1([H])C4([H])[H])C([H])([H])C([H])(C([H])([H])[H])N(C([H])([H])[H])C2([H])[H]

$$$$
11:1:0
     RDKit          3D

 61 65  0  0  1  0  0  0  0  0999 V2000
    6.9465  -12.1830    2.1629 C   0  0  0  0  0  0  0  0  0  0  0  0
    5.8399  -11.2428    2.0950 N   0  0  0  0  0  0  0  0  0  0  0  0
    5.8057  -10.0431    2.6803 C   0  0  0  0  0  0  0  0  0  0  0  0
    6.7463   -9.5728    3.3226 O   0  0  0  0  0  0  0  0  0  0  0  0
    4.5879   -9.2610    2.4395 C   0  0  0  0  0  0  0  0  0  0  0  0
    4.4790   -7.9264    1.9766 C   0  0  0  0  0  0  0  0  0  0  0  0
    3.1551   -7.6044    1.8746 C   0  0  0  0  0  0  0  0  0  0  0  0
    2.5430   -6.3405    1.4122 C   0  0  0  0  0  0  0  0  0  0  0  0
    1.3745   -6.2468    1.0352 O   0  0  0  0  0  0  0  0  0  0  0  0
    3.3849   -5.3063    1.4738 N   0  0  0  0  0  0  0  0  0  0  0  0
    3.1807   -3.9793    0.9136 C   0  0  2  0  0  0  0  0  0  0  0  0
    4.0254   -3.8264   -0.3725 C   0  0  1  0  0  0  0  0  0  0  0  0
    3.7250   -2.4498   -0.9968 C   0  0  0  0  0  0  0  0  0  0  0  0
    4.1258   -1.3427    0.0022 C   0  0  2  0  0  0  0  0  0  0  0  0
    5.6281   -1.4483    0.3420 C   0  0  0  0  0  0  0  0  0  0  0  0
    5.9209   -2.8294    0.9620 C   0  0  2  0  0  0  0  0  0  0  0  0
    5.5363   -3.9318   -0.0492 C   0  0  0  0  0  0  0  0  0  0  0  0
    5.0963   -2.9876    2.2597 C   0  0  0  0  0  0  0  0  0  0  0  0
    3.5879   -2.8805    1.9236 C   0  0  1  0  0  0  0  0  0  0  0  0
    3.2980   -1.4985    1.2948 C   0  0  0  0  0  0  0  0  0  0  0  0
    2.4399   -8.7148    2.3133 N   0  0  0  0  0  0  0  0  0  0  0  0
    3.3160   -9.7178    2.6780 C   0  0  0  0  0  0  0  0  0  0  0  0
    2.7100  -10.9557    3.2634 C   0  0  0  0  0  0  0  0  0  0  0  0
    1.6772  -10.5887    4.2768 N   0  0  2  0  0  0  0  0  0  0  0  0
    0.9980  -11.7619    4.8680 C   0  0  0  0  0  0  0  0  0  0  0  0
    0.7152   -9.5115    3.8651 C   0  0  1  0  0  0  0  0  0  0  0  0
    0.7463   -8.3793    4.9070 C   0  0  0  0  0  0  0  0  0  0  0  0
    1.0128   -8.9550    2.4526 C   0  0  0  0  0  0  0  0  0  0  0  0
    6.5578  -13.1326    2.5253 H   0  0  0  0  0  0  0  0  0  0  0  0
    7.7509  -11.8579    2.8273 H   0  0  0  0  0  0  0  0  0  0  0  0
    7.3575  -12.3326    1.1650 H   0  0  0  0  0  0  0  0  0  0  0  0
    5.0636  -11.4936    1.4726 H   0  0  0  0  0  0  0  0  0  0  0  0
    5.3063   -7.2744    1.7445 H   0  0  0  0  0  0  0  0  0  0  0  0
    4.3042   -5.4937    1.8472 H   0  0  0  0  0  0  0  0  0  0  0  0
    2.1306   -3.8344    0.6601 H   0  0  0  0  0  0  0  0  0  0  0  0
    3.7560   -4.6079   -1.0840 H   0  0  0  0  0  0  0  0  0  0  0  0
    4.2608   -2.3335   -1.9390 H   0  0  0  0  0  0  0  0  0  0  0  0
    2.6616   -2.3731   -1.2311 H   0  0  0  0  0  0  0  0  0  0  0  0
    3.9269   -0.3683   -0.4401 H   0  0  0  0  0  0  0  0  0  0  0  0
    6.2292   -1.3024   -0.5542 H   0  0  0  0  0  0  0  0  0  0  0  0
    5.9070   -0.6592    1.0410 H   0  0  0  0  0  0  0  0  0  0  0  0
    6.9834   -2.9074    1.1934 H   0  0  0  0  0  0  0  0  0  0  0  0
    5.7818   -4.9142    0.3540 H   0  0  0  0  0  0  0  0  0  0  0  0
    6.1231   -3.8361   -0.9641 H   0  0  0  0  0  0  0  0  0  0  0  0
    5.3249   -3.9405    2.7376 H   0  0  0  0  0  0  0  0  0  0  0  0
    5.3739   -2.2204    2.9842 H   0  0  0  0  0  0  0  0  0  0  0  0
    2.9981   -2.9847    2.8357 H   0  0  0  0  0  0  0  0  0  0  0  0
    3.5457   -0.7020    1.9961 H   0  0  0  0  0  0  0  0  0  0  0  0
    2.2346   -1.3931    1.0714 H   0  0  0  0  0  0  0  0  0  0  0  0
    2.2308  -11.5331    2.4845 H   0  0  0  0  0  0  0  0  0  0  0  0
    3.4673  -11.5914    3.7122 H   0  0  0  0  0  0  0  0  0  0  0  0
    0.3951  -12.2921    4.1266 H   0  0  0  0  0  0  0  0  0  0  0  0
    0.3407  -11.4461    5.6788 H   0  0  0  0  0  0  0  0  0  0  0  0
    1.7481  -12.4459    5.2705 H   0  0  0  0  0  0  0  0  0  0  0  0
   -0.3014   -9.9095    3.8425 H   0  0  0  0  0  0  0  0  0  0  0  0
    0.0235   -7.5986    4.6519 H   0  0  0  0  0  0  0  0  0  0  0  0
    1.7341   -7.9093    4.9636 H   0  0  0  0  0  0  0  0  0  0  0  0
    0.4922   -8.7525    5.9025 H   0  0  0  0  0  0  0  0  0  0  0  0
    0.4126   -8.0716    2.2461 H   0  0  0  0  0  0  0  0  0  0  0  0
    0.7475   -9.7060    1.7048 H   0  0  0  0  0  0  0  0  0  0  0  0
    2.2100  -10.1757    5.0304 H   0  0  0  0  0  0  0  0  0  0  0  0
  1  2  1  0
  1 29  1  0
  1 30  1  0
  1 31  1  0
  2  3  1  0
  2 32  1  0
  3  4  2  0
  3  5  1  0
  5 22  2  0
  5  6  1  0
  6  7  2  0
  6 33  1  0
  7  8  1  0
  7 21  1  0
  8  9  2  0
  8 10  1  0
 10 11  1  0
 10 34  1  0
 11 19  1  0
 11 12  1  0
 11 35  1  6
 12 17  1  0
 12 13  1  0
 12 36  1  6
 13 14  1  0
 13 37  1  0
 13 38  1  0
 14 20  1  0
 14 15  1  0
 14 39  1  6
 15 16  1  0
 15 40  1  0
 15 41  1  0
 16 17  1  0
 16 18  1  0
 16 42  1  1
 17 43  1  0
 17 44  1  0
 18 19  1  0
 18 45  1  0
 18 46  1  0
 19 20  1  0
 19 47  1  1
 20 48  1  0
 20 49  1  0
 21 28  1  0
 21 22  1  0
 22 23  1  0
 23 24  1  0
 23 50  1  0
 23 51  1  0
 24 25  1  0
 24 26  1  0
 24 61  1  1
 25 52  1  0
 25 53  1  0
 25 54  1  0
 26 27  1  0
 26 28  1  0
 26 55  1  6
 27 56  1  0
 27 57  1  0
 27 58  1  0
 28 59  1  0
 28 60  1  0
M  CHG  1  24   1
M  END
>  <i_m_ct_stereo_status>  (47) 
1

>  <s_m_source_file>  (47) 
/var/tmp/pbs.5076255.sched01/tmpzk3r62u5/0tgg_cfwk.sdf

>  <i_m_source_file_index>  (47) 
20

>  <i_lp_mmshare_version>  (47) 
48012

>  <i_f3d_flags>  (47) 
0

>  <s_epik_input>  (47) 
W0NIM11bQ0BASF0oW0NIMl0xKU4oW0NIM10pW0NIMl1jKG4xMiljKEMoPU8pW05IXVtDSDNdKVtjSF1jMkMoPU8pW05IXVtDQEhdKFtDQEhdMzQpW0NAQEhdNVtDSDJdW0NASF0oW0NIMl00KVtDSDJdW0NASF0oW0NIMl0zKVtDSDJdNQ==

>  <s_epik_cmdline>  (47) 
J2VwaWtfcHl0aG9uJywgJy1waHQnLCAnMi4wJywgJy1waCcsICc3LjAnLCAnLXRuJywgJzgnLCAnLW1hJywgJzIwMCcsICctaW1hZScsICc8aW5maWxlLm1hZT4nLCAnLW9tYWUnLCAnPG91dGZpbGUubWFlPic=

>  <r_epik_Ionization_Penalty>  (47) 
0.429069

>  <r_epik_Ionization_Penalty_Charging>  (47) 
0.429067

>  <r_epik_Ionization_Penalty_Neutral>  (47) 
1.66697e-06

>  <r_epik_State_Penalty>  (47) 
0.43032

>  <r_epik_Charging_Adjusted_Penalty>  (47) 
0.859387

>  <i_epik_Tot_Q>  (47) 
1

>  <i_epik_Tot_abs_Q>  (47) 
1

>  <s_lp_Force_Field>  (47) 
OPLS3e

>  <r_lp_Energy>  (47) 
24.953

>  <b_lp_Chiralities_Consistent>  (47) 
1

>  <s_lp_Variant>  (47) 
11:0-2

>  <s_i_glide_gridfile>  (47) 
pfpi4k_grid

>  <i_i_glide_lignum>  (47) 
20

>  <i_i_glide_rotatable_bonds>  (47) 
5

>  <r_i_docking_score>  (47) 
-3.73241

>  <r_i_glide_ligand_efficiency>  (47) 
-0.1333

>  <r_i_glide_ligand_efficiency_sa>  (47) 
-0.404778

>  <r_i_glide_ligand_efficiency_ln>  (47) 
-0.861549

>  <r_i_glide_gscore>  (47) 
-3.73241

>  <r_i_glide_lipo>  (47) 
-0.289563

>  <r_i_glide_hbond>  (47) 
-0.261229

>  <r_i_glide_metal>  (47) 
-0

>  <r_i_glide_rewards>  (47) 
-0.780525

>  <r_i_glide_evdw>  (47) 
-26.2725

>  <r_i_glide_ecoul>  (47) 
-9.76298

>  <r_i_glide_erotb>  (47) 
0.523559

>  <r_i_glide_esite>  (47) 
-0.146579

>  <r_i_glide_emodel>  (47) 
-46.4724

>  <r_i_glide_energy>  (47) 
-36.0355

>  <r_i_glide_einternal>  (47) 
2.08434

>  <r_i_glide_intrahb_reward>  (47) 
-0

>  <i_i_glide_confnum>  (47) 
3

>  <i_i_glide_posenum>  (47) 
8

>  <r_i_glide_eff_state_penalty>  (47) 
0

>  <ligand_id>  (47) 
11

>  <original_smiles>  (47) 
CNC(=O)c1cc(C(=O)NC2C3CC4CC(C3)CC2C4)n2c1CN(C)C(C)C2

>  <smiles>  (47) 
[H]c1c(C(=O)N([H])C([H])([H])[H])c2n(c1C(=O)N([H])C1([H])C3([H])C([H])([H])C4([H])C([H])([H])C([H])(C3([H])[H])C([H])([H])C1([H])C4([H])[H])C([H])([H])C([H])(C([H])([H])[H])[N+]([H])(C([H])([H])[H])C2([H])[H]

$$$$
11:1:1
     RDKit          3D

 61 65  0  0  1  0  0  0  0  0999 V2000
    3.1210   -1.1146   -3.4980 C   0  0  0  0  0  0  0  0  0  0  0  0
    3.0663   -1.6654   -2.1525 N   0  0  0  0  0  0  0  0  0  0  0  0
    3.9729   -2.5030   -1.6425 C   0  0  0  0  0  0  0  0  0  0  0  0
    4.9354   -2.9284   -2.2820 O   0  0  0  0  0  0  0  0  0  0  0  0
    3.7498   -2.9429   -0.2581 C   0  0  0  0  0  0  0  0  0  0  0  0
    3.5969   -4.2679    0.2228 C   0  0  0  0  0  0  0  0  0  0  0  0
    3.4584   -4.2249    1.5758 C   0  0  0  0  0  0  0  0  0  0  0  0
    3.2675   -5.3376    2.5120 C   0  0  0  0  0  0  0  0  0  0  0  0
    3.8083   -5.3477    3.6146 O   0  0  0  0  0  0  0  0  0  0  0  0
    2.4185   -6.2763    2.0703 N   0  0  0  0  0  0  0  0  0  0  0  0
    2.0292   -7.4918    2.7821 C   0  0  2  0  0  0  0  0  0  0  0  0
    1.0661   -8.3445    1.9143 C   0  0  1  0  0  0  0  0  0  0  0  0
    0.7880   -9.6821    2.6393 C   0  0  0  0  0  0  0  0  0  0  0  0
    0.1059   -9.3974    3.9921 C   0  0  2  0  0  0  0  0  0  0  0  0
   -1.2195   -8.6362    3.7716 C   0  0  0  0  0  0  0  0  0  0  0  0
   -0.9371   -7.3038    3.0469 C   0  0  2  0  0  0  0  0  0  0  0  0
   -0.2743   -7.5980    1.6840 C   0  0  0  0  0  0  0  0  0  0  0  0
    0.0065   -6.4417    3.9158 C   0  0  0  0  0  0  0  0  0  0  0  0
    1.3308   -7.2073    4.1428 C   0  0  1  0  0  0  0  0  0  0  0  0
    1.0456   -8.5426    4.8610 C   0  0  0  0  0  0  0  0  0  0  0  0
    3.5181   -2.8891    1.9556 N   0  0  0  0  0  0  0  0  0  0  0  0
    3.6812   -2.1041    0.8304 C   0  0  0  0  0  0  0  0  0  0  0  0
    3.7057   -0.6276    1.0606 C   0  0  0  0  0  0  0  0  0  0  0  0
    2.5692   -0.2383    1.9428 N   0  0  2  0  0  0  0  0  0  0  0  0
    2.5264    1.2109    2.2307 C   0  0  0  0  0  0  0  0  0  0  0  0
    2.3980   -1.0762    3.1787 C   0  0  1  0  0  0  0  0  0  0  0  0
    0.9561   -1.6109    3.2240 C   0  0  0  0  0  0  0  0  0  0  0  0
    3.4150   -2.2475    3.2615 C   0  0  0  0  0  0  0  0  0  0  0  0
    2.2170   -1.3675   -4.0506 H   0  0  0  0  0  0  0  0  0  0  0  0
    3.9741   -1.4743   -4.0747 H   0  0  0  0  0  0  0  0  0  0  0  0
    3.1980   -0.0326   -3.4227 H   0  0  0  0  0  0  0  0  0  0  0  0
    2.2481   -1.4406   -1.5846 H   0  0  0  0  0  0  0  0  0  0  0  0
    3.5720   -5.1712   -0.3655 H   0  0  0  0  0  0  0  0  0  0  0  0
    1.9854   -6.1230    1.1713 H   0  0  0  0  0  0  0  0  0  0  0  0
    2.9441   -8.0630    2.9525 H   0  0  0  0  0  0  0  0  0  0  0  0
    1.5349   -8.5611    0.9534 H   0  0  0  0  0  0  0  0  0  0  0  0
    0.1529  -10.3367    2.0430 H   0  0  0  0  0  0  0  0  0  0  0  0
    1.7228  -10.2236    2.7951 H   0  0  0  0  0  0  0  0  0  0  0  0
   -0.0995  -10.3418    4.4966 H   0  0  0  0  0  0  0  0  0  0  0  0
   -1.9191   -9.2459    3.1982 H   0  0  0  0  0  0  0  0  0  0  0  0
   -1.6958   -8.4460    4.7342 H   0  0  0  0  0  0  0  0  0  0  0  0
   -1.8809   -6.7839    2.8884 H   0  0  0  0  0  0  0  0  0  0  0  0
   -0.1101   -6.6748    1.1296 H   0  0  0  0  0  0  0  0  0  0  0  0
   -0.9476   -8.2001    1.0704 H   0  0  0  0  0  0  0  0  0  0  0  0
    0.2111   -5.4834    3.4386 H   0  0  0  0  0  0  0  0  0  0  0  0
   -0.4621   -6.2109    4.8736 H   0  0  0  0  0  0  0  0  0  0  0  0
    1.9757   -6.6235    4.7978 H   0  0  0  0  0  0  0  0  0  0  0  0
    0.5943   -8.3624    5.8366 H   0  0  0  0  0  0  0  0  0  0  0  0
    1.9755   -9.0819    5.0479 H   0  0  0  0  0  0  0  0  0  0  0  0
    4.6477   -0.3537    1.5398 H   0  0  0  0  0  0  0  0  0  0  0  0
    3.6668   -0.0948    0.1119 H   0  0  0  0  0  0  0  0  0  0  0  0
    3.3875    1.5307    2.8254 H   0  0  0  0  0  0  0  0  0  0  0  0
    1.6134    1.4755    2.7701 H   0  0  0  0  0  0  0  0  0  0  0  0
    2.5217    1.7494    1.2860 H   0  0  0  0  0  0  0  0  0  0  0  0
    2.5430   -0.4587    4.0678 H   0  0  0  0  0  0  0  0  0  0  0  0
    0.7843   -2.2008    4.1283 H   0  0  0  0  0  0  0  0  0  0  0  0
    0.7598   -2.2558    2.3658 H   0  0  0  0  0  0  0  0  0  0  0  0
    0.2266   -0.7963    3.2067 H   0  0  0  0  0  0  0  0  0  0  0  0
    3.1626   -2.9586    4.0487 H   0  0  0  0  0  0  0  0  0  0  0  0
    4.4047   -1.8425    3.5024 H   0  0  0  0  0  0  0  0  0  0  0  0
    1.7559   -0.4337    1.3703 H   0  0  0  0  0  0  0  0  0  0  0  0
  1  2  1  0
  1 29  1  0
  1 30  1  0
  1 31  1  0
  2  3  1  0
  2 32  1  0
  3  4  2  0
  3  5  1  0
  5 22  2  0
  5  6  1  0
  6  7  2  0
  6 33  1  0
  7  8  1  0
  7 21  1  0
  8  9  2  0
  8 10  1  0
 10 11  1  0
 10 34  1  0
 11 19  1  0
 11 12  1  0
 11 35  1  1
 12 17  1  0
 12 13  1  0
 12 36  1  6
 13 14  1  0
 13 37  1  0
 13 38  1  0
 14 20  1  0
 14 15  1  0
 14 39  1  1
 15 16  1  0
 15 40  1  0
 15 41  1  0
 16 17  1  0
 16 18  1  0
 16 42  1  6
 17 43  1  0
 17 44  1  0
 18 19  1  0
 18 45  1  0
 18 46  1  0
 19 20  1  0
 19 47  1  1
 20 48  1  0
 20 49  1  0
 21 28  1  0
 21 22  1  0
 22 23  1  0
 23 24  1  0
 23 50  1  0
 23 51  1  0
 24 25  1  0
 24 26  1  0
 24 61  1  6
 25 52  1  0
 25 53  1  0
 25 54  1  0
 26 27  1  0
 26 28  1  0
 26 55  1  1
 27 56  1  0
 27 57  1  0
 27 58  1  0
 28 59  1  0
 28 60  1  0
M  CHG  1  24   1
M  END
>  <i_m_ct_stereo_status>  (48) 
1

>  <s_m_source_file>  (48) 
/var/tmp/pbs.5076255.sched01/tmpzk3r62u5/0tgg_cfwk.sdf

>  <i_m_source_file_index>  (48) 
20

>  <i_lp_mmshare_version>  (48) 
48012

>  <i_f3d_flags>  (48) 
0

>  <s_epik_input>  (48) 
W0NIM11bQ0BASF0oW0NIMl0xKU4oW0NIM10pW0NIMl1jKG4xMiljKEMoPU8pW05IXVtDSDNdKVtjSF1jMkMoPU8pW05IXVtDQEhdKFtDQEhdMzQpW0NAQEhdNVtDSDJdW0NASF0oW0NIMl00KVtDSDJdW0NASF0oW0NIMl0zKVtDSDJdNQ==

>  <s_epik_cmdline>  (48) 
J2VwaWtfcHl0aG9uJywgJy1waHQnLCAnMi4wJywgJy1waCcsICc3LjAnLCAnLXRuJywgJzgnLCAnLW1hJywgJzIwMCcsICctaW1hZScsICc8aW5maWxlLm1hZT4nLCAnLW9tYWUnLCAnPG91dGZpbGUubWFlPic=

>  <r_epik_Ionization_Penalty>  (48) 
0.429069

>  <r_epik_Ionization_Penalty_Charging>  (48) 
0.429067

>  <r_epik_Ionization_Penalty_Neutral>  (48) 
1.66697e-06

>  <r_epik_State_Penalty>  (48) 
0.43032

>  <r_epik_Charging_Adjusted_Penalty>  (48) 
0.859387

>  <i_epik_Tot_Q>  (48) 
1

>  <i_epik_Tot_abs_Q>  (48) 
1

>  <s_lp_Force_Field>  (48) 
OPLS3e

>  <r_lp_Energy>  (48) 
24.953

>  <b_lp_Chiralities_Consistent>  (48) 
1

>  <s_lp_Variant>  (48) 
11:0-2

>  <s_i_glide_gridfile>  (48) 
pfpi4k_grid

>  <i_i_glide_lignum>  (48) 
20

>  <i_i_glide_rotatable_bonds>  (48) 
5

>  <r_i_docking_score>  (48) 
-3.2302

>  <r_i_glide_ligand_efficiency>  (48) 
-0.115364

>  <r_i_glide_ligand_efficiency_sa>  (48) 
-0.350314

>  <r_i_glide_ligand_efficiency_ln>  (48) 
-0.745624

>  <r_i_glide_gscore>  (48) 
-3.2302

>  <r_i_glide_lipo>  (48) 
-0.261777

>  <r_i_glide_hbond>  (48) 
-0.16

>  <r_i_glide_metal>  (48) 
-0

>  <r_i_glide_rewards>  (48) 
-0.780525

>  <r_i_glide_evdw>  (48) 
-28.8072

>  <r_i_glide_ecoul>  (48) 
-6.35095

>  <r_i_glide_erotb>  (48) 
0.523559

>  <r_i_glide_esite>  (48) 
-0.158451

>  <r_i_glide_emodel>  (48) 
-43.2592

>  <r_i_glide_energy>  (48) 
-35.1582

>  <r_i_glide_einternal>  (48) 
3.50048

>  <r_i_glide_intrahb_reward>  (48) 
-0

>  <i_i_glide_confnum>  (48) 
2

>  <i_i_glide_posenum>  (48) 
13

>  <r_i_glide_eff_state_penalty>  (48) 
0

>  <ligand_id>  (48) 
11

>  <original_smiles>  (48) 
CNC(=O)c1cc(C(=O)NC2C3CC4CC(C3)CC2C4)n2c1CN(C)C(C)C2

>  <smiles>  (48) 
[H]c1c(C(=O)N([H])C([H])([H])[H])c2n(c1C(=O)N([H])C1([H])C3([H])C([H])([H])C4([H])C([H])([H])C([H])(C3([H])[H])C([H])([H])C1([H])C4([H])[H])C([H])([H])C([H])(C([H])([H])[H])[N+]([H])(C([H])([H])[H])C2([H])[H]

$$$$
11:1:2
     RDKit          3D

 61 65  0  0  1  0  0  0  0  0999 V2000
    3.7377   -3.2319   -3.9825 C   0  0  0  0  0  0  0  0  0  0  0  0
    3.6848   -3.4146   -2.5489 N   0  0  0  0  0  0  0  0  0  0  0  0
    4.1057   -2.5350   -1.6270 C   0  0  0  0  0  0  0  0  0  0  0  0
    4.6422   -1.4607   -1.9000 O   0  0  0  0  0  0  0  0  0  0  0  0
    3.8652   -2.9629   -0.2348 C   0  0  0  0  0  0  0  0  0  0  0  0
    3.6877   -4.2887    0.2502 C   0  0  0  0  0  0  0  0  0  0  0  0
    3.5265   -4.2402    1.5972 C   0  0  0  0  0  0  0  0  0  0  0  0
    3.3351   -5.3556    2.5273 C   0  0  0  0  0  0  0  0  0  0  0  0
    3.8668   -5.3611    3.6337 O   0  0  0  0  0  0  0  0  0  0  0  0
    2.5050   -6.3053    2.0685 N   0  0  0  0  0  0  0  0  0  0  0  0
    2.1133   -7.5268    2.7702 C   0  0  2  0  0  0  0  0  0  0  0  0
    1.1063   -8.3488    1.9202 C   0  0  1  0  0  0  0  0  0  0  0  0
    0.8262   -9.6928    2.6337 C   0  0  0  0  0  0  0  0  0  0  0  0
    0.1946   -9.4184    4.0129 C   0  0  2  0  0  0  0  0  0  0  0  0
   -1.1225   -8.6283    3.8484 C   0  0  0  0  0  0  0  0  0  0  0  0
   -0.8412   -7.2905    3.1336 C   0  0  2  0  0  0  0  0  0  0  0  0
   -0.2272   -7.5764    1.7454 C   0  0  0  0  0  0  0  0  0  0  0  0
    0.1447   -6.4596    3.9838 C   0  0  0  0  0  0  0  0  0  0  0  0
    1.4614   -7.2542    4.1567 C   0  0  1  0  0  0  0  0  0  0  0  0
    1.1779   -8.5953    4.8622 C   0  0  0  0  0  0  0  0  0  0  0  0
    3.5744   -2.9048    1.9756 N   0  0  0  0  0  0  0  0  0  0  0  0
    3.7650   -2.1227    0.8531 C   0  0  0  0  0  0  0  0  0  0  0  0
    3.7579   -0.6437    1.0839 C   0  0  0  0  0  0  0  0  0  0  0  0
    2.5955   -0.2664    1.9390 N   0  0  2  0  0  0  0  0  0  0  0  0
    2.5291    1.1859    2.2249 C   0  0  0  0  0  0  0  0  0  0  0  0
    2.4054   -1.1050    3.1737 C   0  0  1  0  0  0  0  0  0  0  0  0
    0.9687   -1.6540    3.1912 C   0  0  0  0  0  0  0  0  0  0  0  0
    3.4326   -2.2663    3.2791 C   0  0  0  0  0  0  0  0  0  0  0  0
    4.2814   -4.0613   -4.4303 H   0  0  0  0  0  0  0  0  0  0  0  0
    4.2215   -2.2992   -4.2675 H   0  0  0  0  0  0  0  0  0  0  0  0
    2.7241   -3.2325   -4.3790 H   0  0  0  0  0  0  0  0  0  0  0  0
    3.2865   -4.2960   -2.2345 H   0  0  0  0  0  0  0  0  0  0  0  0
    3.6787   -5.1994   -0.3242 H   0  0  0  0  0  0  0  0  0  0  0  0
    2.0864   -6.1551    1.1624 H   0  0  0  0  0  0  0  0  0  0  0  0
    3.0230   -8.1169    2.8997 H   0  0  0  0  0  0  0  0  0  0  0  0
    1.5381   -8.5595    0.9408 H   0  0  0  0  0  0  0  0  0  0  0  0
    0.1582  -10.3257    2.0500 H   0  0  0  0  0  0  0  0  0  0  0  0
    1.7552  -10.2541    2.7496 H   0  0  0  0  0  0  0  0  0  0  0  0
   -0.0104  -10.3665    4.5107 H   0  0  0  0  0  0  0  0  0  0  0  0
   -1.8521   -9.2144    3.2882 H   0  0  0  0  0  0  0  0  0  0  0  0
   -1.5613   -8.4430    4.8296 H   0  0  0  0  0  0  0  0  0  0  0  0
   -1.7796   -6.7484    3.0159 H   0  0  0  0  0  0  0  0  0  0  0  0
   -0.0632   -6.6495    1.1984 H   0  0  0  0  0  0  0  0  0  0  0  0
   -0.9288   -8.1576    1.1442 H   0  0  0  0  0  0  0  0  0  0  0  0
    0.3393   -5.4961    3.5129 H   0  0  0  0  0  0  0  0  0  0  0  0
   -0.2851   -6.2345    4.9607 H   0  0  0  0  0  0  0  0  0  0  0  0
    2.1331   -6.7002    4.8094 H   0  0  0  0  0  0  0  0  0  0  0  0
    0.7646   -8.4212    5.8556 H   0  0  0  0  0  0  0  0  0  0  0  0
    2.1045   -9.1526    5.0090 H   0  0  0  0  0  0  0  0  0  0  0  0
    4.6833   -0.3540    1.5850 H   0  0  0  0  0  0  0  0  0  0  0  0
    3.7236   -0.1081    0.1377 H   0  0  0  0  0  0  0  0  0  0  0  0
    3.3709    1.5093    2.8428 H   0  0  0  0  0  0  0  0  0  0  0  0
    1.6018    1.4358    2.7458 H   0  0  0  0  0  0  0  0  0  0  0  0
    2.5421    1.7438    1.2916 H   0  0  0  0  0  0  0  0  0  0  0  0
    2.5219   -0.4865    4.0664 H   0  0  0  0  0  0  0  0  0  0  0  0
    0.7810   -2.2489    4.0890 H   0  0  0  0  0  0  0  0  0  0  0  0
    0.8046   -2.2941    2.3258 H   0  0  0  0  0  0  0  0  0  0  0  0
    0.2295   -0.8499    3.1544 H   0  0  0  0  0  0  0  0  0  0  0  0
    3.1676   -2.9797    4.0616 H   0  0  0  0  0  0  0  0  0  0  0  0
    4.4106   -1.8502    3.5470 H   0  0  0  0  0  0  0  0  0  0  0  0
    1.7994   -0.4733    1.3472 H   0  0  0  0  0  0  0  0  0  0  0  0
  1  2  1  0
  1 29  1  0
  1 30  1  0
  1 31  1  0
  2  3  1  0
  2 32  1  0
  3  4  2  0
  3  5  1  0
  5 22  2  0
  5  6  1  0
  6  7  2  0
  6 33  1  0
  7  8  1  0
  7 21  1  0
  8  9  2  0
  8 10  1  0
 10 11  1  0
 10 34  1  0
 11 19  1  0
 11 12  1  0
 11 35  1  1
 12 17  1  0
 12 13  1  0
 12 36  1  6
 13 14  1  0
 13 37  1  0
 13 38  1  0
 14 20  1  0
 14 15  1  0
 14 39  1  1
 15 16  1  0
 15 40  1  0
 15 41  1  0
 16 17  1  0
 16 18  1  0
 16 42  1  6
 17 43  1  0
 17 44  1  0
 18 19  1  0
 18 45  1  0
 18 46  1  0
 19 20  1  0
 19 47  1  1
 20 48  1  0
 20 49  1  0
 21 28  1  0
 21 22  1  0
 22 23  1  0
 23 24  1  0
 23 50  1  0
 23 51  1  0
 24 25  1  0
 24 26  1  0
 24 61  1  6
 25 52  1  0
 25 53  1  0
 25 54  1  0
 26 27  1  0
 26 28  1  0
 26 55  1  1
 27 56  1  0
 27 57  1  0
 27 58  1  0
 28 59  1  0
 28 60  1  0
M  CHG  1  24   1
M  END
>  <i_m_ct_stereo_status>  (49) 
1

>  <s_m_source_file>  (49) 
/var/tmp/pbs.5076255.sched01/tmpzk3r62u5/0tgg_cfwk.sdf

>  <i_m_source_file_index>  (49) 
20

>  <i_lp_mmshare_version>  (49) 
48012

>  <i_f3d_flags>  (49) 
0

>  <s_epik_input>  (49) 
W0NIM11bQ0BASF0oW0NIMl0xKU4oW0NIM10pW0NIMl1jKG4xMiljKEMoPU8pW05IXVtDSDNdKVtjSF1jMkMoPU8pW05IXVtDQEhdKFtDQEhdMzQpW0NAQEhdNVtDSDJdW0NASF0oW0NIMl00KVtDSDJdW0NASF0oW0NIMl0zKVtDSDJdNQ==

>  <s_epik_cmdline>  (49) 
J2VwaWtfcHl0aG9uJywgJy1waHQnLCAnMi4wJywgJy1waCcsICc3LjAnLCAnLXRuJywgJzgnLCAnLW1hJywgJzIwMCcsICctaW1hZScsICc8aW5maWxlLm1hZT4nLCAnLW9tYWUnLCAnPG91dGZpbGUubWFlPic=

>  <r_epik_Ionization_Penalty>  (49) 
0.429069

>  <r_epik_Ionization_Penalty_Charging>  (49) 
0.429067

>  <r_epik_Ionization_Penalty_Neutral>  (49) 
1.66697e-06

>  <r_epik_State_Penalty>  (49) 
0.43032

>  <r_epik_Charging_Adjusted_Penalty>  (49) 
0.859387

>  <i_epik_Tot_Q>  (49) 
1

>  <i_epik_Tot_abs_Q>  (49) 
1

>  <s_lp_Force_Field>  (49) 
OPLS3e

>  <r_lp_Energy>  (49) 
24.953

>  <b_lp_Chiralities_Consistent>  (49) 
1

>  <s_lp_Variant>  (49) 
11:0-2

>  <s_i_glide_gridfile>  (49) 
pfpi4k_grid

>  <i_i_glide_lignum>  (49) 
20

>  <i_i_glide_rotatable_bonds>  (49) 
5

>  <r_i_docking_score>  (49) 
-3.13609

>  <r_i_glide_ligand_efficiency>  (49) 
-0.112003

>  <r_i_glide_ligand_efficiency_sa>  (49) 
-0.340108

>  <r_i_glide_ligand_efficiency_ln>  (49) 
-0.723901

>  <r_i_glide_gscore>  (49) 
-3.13609

>  <r_i_glide_lipo>  (49) 
-0.131065

>  <r_i_glide_hbond>  (49) 
-0.299759

>  <r_i_glide_metal>  (49) 
-0

>  <r_i_glide_rewards>  (49) 
-0.780525

>  <r_i_glide_evdw>  (49) 
-29.5992

>  <r_i_glide_ecoul>  (49) 
-5.74014

>  <r_i_glide_erotb>  (49) 
0.523559

>  <r_i_glide_esite>  (49) 
-0.107319

>  <r_i_glide_emodel>  (49) 
-44.1089

>  <r_i_glide_energy>  (49) 
-35.3393

>  <r_i_glide_einternal>  (49) 
1.75887

>  <r_i_glide_intrahb_reward>  (49) 
-0

>  <i_i_glide_confnum>  (49) 
1

>  <i_i_glide_posenum>  (49) 
22

>  <r_i_glide_eff_state_penalty>  (49) 
0

>  <ligand_id>  (49) 
11

>  <original_smiles>  (49) 
CNC(=O)c1cc(C(=O)NC2C3CC4CC(C3)CC2C4)n2c1CN(C)C(C)C2

>  <smiles>  (49) 
[H]c1c(C(=O)N([H])C([H])([H])[H])c2n(c1C(=O)N([H])C1([H])C3([H])C([H])([H])C4([H])C([H])([H])C([H])(C3([H])[H])C([H])([H])C1([H])C4([H])[H])C([H])([H])C([H])(C([H])([H])[H])[N+]([H])(C([H])([H])[H])C2([H])[H]

$$$$
12:0:0
     RDKit          3D

 70 74  0  0  1  0  0  0  0  0999 V2000
    0.4766   -8.8937    2.4765 C   0  0  0  0  0  0  0  0  0  0  0  0
    0.7333   -7.5263    1.8447 C   0  0  0  0  0  0  0  0  0  0  0  0
   -0.1829   -6.7280    1.5636 O   0  0  0  0  0  0  0  0  0  0  0  0
    2.0175   -7.2758    1.6713 O   0  0  0  0  0  0  0  0  0  0  0  0
    2.5010   -5.9490    1.4553 C   0  0  0  0  0  0  0  0  0  0  0  0
    2.9003   -5.2801    2.8162 C   0  0  1  0  0  0  0  0  0  0  0  0
    1.5351   -5.3643    3.6299 C   0  0  0  0  0  0  0  0  0  0  0  0
    1.2399   -4.3255    4.7237 C   0  0  0  0  0  0  0  0  0  0  0  0
    1.3064   -2.9190    4.1685 C   0  0  1  0  0  0  0  0  0  0  0  0
    1.7577   -2.0735    5.1932 O   0  0  0  0  0  0  0  0  0  0  0  0
    2.1293   -2.8411    2.8428 C   0  0  1  0  0  0  0  0  0  0  0  0
    2.1314   -1.4365    2.1761 C   0  0  1  0  0  0  0  0  0  0  0  0
    2.3612   -0.3910    3.0779 O   0  0  0  0  0  0  0  0  0  0  0  0
    3.0052   -1.3546    1.0990 O   0  0  0  0  0  0  0  0  0  0  0  0
    3.2885   -2.5709    0.4248 C   0  0  0  0  0  0  0  0  0  0  0  0
    4.1887   -3.4197    1.3426 C   0  0  1  0  0  0  0  0  0  0  0  0
    5.6423   -2.8040    1.4018 C   0  0  1  0  0  0  0  0  0  0  0  0
    6.3245   -2.7820    0.0176 C   0  0  0  0  0  0  0  0  0  0  0  0
    5.8083   -1.3993    2.0582 C   0  0  0  0  0  0  0  0  0  0  0  0
    5.3280   -1.2044    3.4994 C   0  0  0  0  0  0  0  0  0  0  0  0
    5.5830    0.1807    4.0596 C   0  0  0  0  0  0  0  0  0  0  0  0
    4.7192   -2.1121    4.2673 C   0  0  0  0  0  0  0  0  0  0  0  0
    4.4319   -3.5473    3.9093 C   0  0  1  0  0  0  0  0  0  0  0  0
    4.1005   -4.2730    5.0777 O   0  0  0  0  0  0  0  0  0  0  0  0
    4.2668   -5.6886    4.9553 C   0  0  2  0  0  0  0  0  0  0  0  0
    5.7216   -6.0776    5.2930 C   0  0  0  0  0  0  0  0  0  0  0  0
    6.1907   -6.9813    4.1447 C   0  0  1  0  0  0  0  0  0  0  0  0
    5.9306   -8.3242    4.5059 O   0  0  0  0  0  0  0  0  0  0  0  0
    5.3343   -6.5558    2.9289 C   0  0  1  0  0  0  0  0  0  0  0  0
    5.3731   -7.6120    1.8017 C   0  0  0  0  0  0  0  0  0  0  0  0
    3.9445   -6.2225    3.5450 C   0  0  2  0  0  0  0  0  0  0  0  0
    3.4338   -3.7593    2.7143 C   0  0  2  0  0  0  0  0  0  0  0  0
    0.7931   -9.7166    1.8085 H   0  0  0  0  0  0  0  0  0  0  0  0
   -0.5595   -9.0962    2.7281 H   0  0  0  0  0  0  0  0  0  0  0  0
    1.0836   -8.9804    3.3624 H   0  0  0  0  0  0  0  0  0  0  0  0
    3.3393   -6.0574    0.7916 H   0  0  0  0  0  0  0  0  0  0  0  0
    1.7846   -5.3146    0.9270 H   0  0  0  0  0  0  0  0  0  0  0  0
    0.6879   -5.3161    2.9397 H   0  0  0  0  0  0  0  0  0  0  0  0
    1.4508   -6.3268    4.1134 H   0  0  0  0  0  0  0  0  0  0  0  0
    0.2314   -4.5138    5.0846 H   0  0  0  0  0  0  0  0  0  0  0  0
    1.8256   -4.4548    5.6385 H   0  0  0  0  0  0  0  0  0  0  0  0
    0.2950   -2.6102    3.9188 H   0  0  0  0  0  0  0  0  0  0  0  0
    1.9247   -1.2182    4.8010 H   0  0  0  0  0  0  0  0  0  0  0  0
    1.4819   -3.3481    2.1362 H   0  0  0  0  0  0  0  0  0  0  0  0
    1.1357   -1.2546    1.7621 H   0  0  0  0  0  0  0  0  0  0  0  0
    2.2881    0.4161    2.5905 H   0  0  0  0  0  0  0  0  0  0  0  0
    2.3767   -3.1080    0.1370 H   0  0  0  0  0  0  0  0  0  0  0  0
    3.7687   -2.3503   -0.5301 H   0  0  0  0  0  0  0  0  0  0  0  0
    4.3713   -4.3542    0.8183 H   0  0  0  0  0  0  0  0  0  0  0  0
    6.2876   -3.4884    1.9438 H   0  0  0  0  0  0  0  0  0  0  0  0
    5.9350   -1.9868   -0.6210 H   0  0  0  0  0  0  0  0  0  0  0  0
    6.1958   -3.7297   -0.5043 H   0  0  0  0  0  0  0  0  0  0  0  0
    7.3996   -2.6102    0.1201 H   0  0  0  0  0  0  0  0  0  0  0  0
    6.8662   -1.1280    2.0518 H   0  0  0  0  0  0  0  0  0  0  0  0
    5.3269   -0.6382    1.4421 H   0  0  0  0  0  0  0  0  0  0  0  0
    5.0776    0.9282    3.4504 H   0  0  0  0  0  0  0  0  0  0  0  0
    6.6500    0.4018    4.0743 H   0  0  0  0  0  0  0  0  0  0  0  0
    5.1992    0.2731    5.0761 H   0  0  0  0  0  0  0  0  0  0  0  0
    4.4246   -1.8531    5.2798 H   0  0  0  0  0  0  0  0  0  0  0  0
    5.4232   -3.9302    3.6973 H   0  0  0  0  0  0  0  0  0  0  0  0
    3.6087   -6.1786    5.6785 H   0  0  0  0  0  0  0  0  0  0  0  0
    6.3661   -5.1955    5.3584 H   0  0  0  0  0  0  0  0  0  0  0  0
    5.8010   -6.5791    6.2629 H   0  0  0  0  0  0  0  0  0  0  0  0
    7.2630   -6.8686    3.9472 H   0  0  0  0  0  0  0  0  0  0  0  0
    6.1599   -8.8747    3.7634 H   0  0  0  0  0  0  0  0  0  0  0  0
    5.7852   -5.6562    2.5175 H   0  0  0  0  0  0  0  0  0  0  0  0
    4.7338   -8.4751    2.0177 H   0  0  0  0  0  0  0  0  0  0  0  0
    6.3882   -7.9902    1.6551 H   0  0  0  0  0  0  0  0  0  0  0  0
    5.0637   -7.2030    0.8379 H   0  0  0  0  0  0  0  0  0  0  0  0
    3.4841   -7.1920    3.7077 H   0  0  0  0  0  0  0  0  0  0  0  0
  1  2  1  0
  1 33  1  0
  1 34  1  0
  1 35  1  0
  2  3  2  0
  2  4  1  0
  4  5  1  0
  6  5  1  6
  5 36  1  0
  5 37  1  0
  6 31  1  0
 32  6  1  6
  6  7  1  0
  7  8  1  0
  7 38  1  0
  7 39  1  0
  8  9  1  0
  8 40  1  0
  8 41  1  0
  9 10  1  0
  9 11  1  0
  9 42  1  6
 10 43  1  0
 11 32  1  0
 11 12  1  0
 11 44  1  6
 12 13  1  0
 12 14  1  0
 12 45  1  6
 13 46  1  0
 14 15  1  0
 15 16  1  0
 15 47  1  0
 15 48  1  0
 16 32  1  0
 16 17  1  0
 16 49  1  6
 17 18  1  0
 17 19  1  0
 17 50  1  1
 18 51  1  0
 18 52  1  0
 18 53  1  0
 19 20  1  0
 19 54  1  0
 19 55  1  0
 20 21  1  0
 20 22  2  0
 21 56  1  0
 21 57  1  0
 21 58  1  0
 22 23  1  0
 22 59  1  0
 23 24  1  0
 23 32  1  0
 23 60  1  6
 24 25  1  0
 25 31  1  0
 25 26  1  0
 25 61  1  1
 26 27  1  0
 26 62  1  0
 26 63  1  0
 27 28  1  0
 27 29  1  0
 27 64  1  6
 28 65  1  0
 29 30  1  0
 29 31  1  0
 29 66  1  6
 30 67  1  0
 30 68  1  0
 30 69  1  0
 31 70  1  1
M  END
>  <i_m_ct_stereo_status>  (50) 
1

>  <s_m_source_file>  (50) 
/var/tmp/pbs.5076255.sched01/tmpzk3r62u5/0tgg_cfwk.sdf

>  <i_m_source_file_index>  (50) 
21

>  <i_lp_mmshare_version>  (50) 
48012

>  <i_f3d_flags>  (50) 
0

>  <s_epik_input>  (50) 
W0NIM11DKD1PKU9bQ0gyXVtDQF0xKFtDQF0yMzQpW0NAQEhdNVtDQEBIXShbQ0gyXVtDQEBIXShbT0hdKVtDQEhdNVtDSDNdKU9bQ0BASF00W0NIXT1DKFtDSDNdKVtDSDJdW0NASF0oW0NIM10pW0NAQEhdM1tDSDJdT1tDQEhdKFtPSF0pW0NAQEhdMltDQEhdKFtPSF0pW0NIMl1bQ0gyXTE=

>  <s_epik_cmdline>  (50) 
J2VwaWtfcHl0aG9uJywgJy1waHQnLCAnMi4wJywgJy1waCcsICc3LjAnLCAnLXRuJywgJzgnLCAnLW1hJywgJzIwMCcsICctaW1hZScsICc8aW5maWxlLm1hZT4nLCAnLW9tYWUnLCAnPG91dGZpbGUubWFlPic=

>  <r_lp_tautomer_probability>  (50) 
1

>  <r_epik_Ionization_Penalty>  (50) 
7.37497e-07

>  <r_epik_Ionization_Penalty_Charging>  (50) 
0

>  <r_epik_Ionization_Penalty_Neutral>  (50) 
7.37497e-07

>  <r_epik_State_Penalty>  (50) 
-0

>  <r_epik_Charging_Adjusted_Penalty>  (50) 
0

>  <i_epik_Tot_Q>  (50) 
0

>  <i_epik_Tot_abs_Q>  (50) 
0

>  <s_epik_Chemistry_Notes>  (50) 
This compound has an ester and may undergo hydrolysis at high or low pH. This compound contains an acetal/aminal-like group ( X-CH(R)-Y where X, Y are N, S, or O) that may be acid/base labile, releasing an aldehyde.

>  <s_lp_Force_Field>  (50) 
OPLS3e

>  <r_lp_Energy>  (50) 
87.0221

>  <b_lp_Chiralities_Consistent>  (50) 
1

>  <s_lp_Variant>  (50) 
12:0-1

>  <s_i_glide_gridfile>  (50) 
pfpi4k_grid

>  <i_i_glide_lignum>  (50) 
21

>  <i_i_glide_rotatable_bonds>  (50) 
6

>  <r_i_docking_score>  (50) 
-3.59799

>  <r_i_glide_ligand_efficiency>  (50) 
-0.112437

>  <r_i_glide_ligand_efficiency_sa>  (50) 
-0.356966

>  <r_i_glide_ligand_efficiency_ln>  (50) 
-0.805689

>  <r_i_glide_gscore>  (50) 
-3.59799

>  <r_i_glide_lipo>  (50) 
-0.581458

>  <r_i_glide_hbond>  (50) 
-0.184765

>  <r_i_glide_metal>  (50) 
-0

>  <r_i_glide_rewards>  (50) 
-0.837057

>  <r_i_glide_evdw>  (50) 
-27.0391

>  <r_i_glide_ecoul>  (50) 
-4.98274

>  <r_i_glide_erotb>  (50) 
0.197529

>  <r_i_glide_esite>  (50) 
-0.0928731

>  <r_i_glide_emodel>  (50) 
-40.8115

>  <r_i_glide_energy>  (50) 
-32.0219

>  <r_i_glide_einternal>  (50) 
3.53921

>  <r_i_glide_intrahb_reward>  (50) 
-0.5

>  <i_i_glide_confnum>  (50) 
1

>  <i_i_glide_posenum>  (50) 
26

>  <r_i_glide_eff_state_penalty>  (50) 
0

>  <ligand_id>  (50) 
12

>  <original_smiles>  (50) 
CC(=O)OCC12CCC(O)C3C(O)OCC4C(C)CC(C)=CC(OC5CC(O)C(C)C51)C432

>  <smiles>  (50) 
[H]OC1([H])OC([H])([H])C2([H])C([H])(C([H])([H])[H])C([H])([H])C(C([H])([H])[H])=C([H])C3([H])OC4([H])C([H])([H])C([H])(O[H])C([H])(C([H])([H])[H])C4([H])C4(C([H])([H])OC(=O)C([H])([H])[H])C([H])([H])C([H])([H])C([H])(O[H])C1([H])C324

$$$$
12:0:1
     RDKit          3D

 70 74  0  0  1  0  0  0  0  0999 V2000
   -0.4356   -9.0317    2.6904 C   0  0  0  0  0  0  0  0  0  0  0  0
    0.1018   -7.7590    2.0286 C   0  0  0  0  0  0  0  0  0  0  0  0
   -0.6119   -6.8143    1.7104 O   0  0  0  0  0  0  0  0  0  0  0  0
    1.4543   -7.7573    1.9396 O   0  0  0  0  0  0  0  0  0  0  0  0
    2.1611   -6.5468    1.5951 C   0  0  0  0  0  0  0  0  0  0  0  0
    2.8287   -5.8818    2.8529 C   0  0  1  0  0  0  0  0  0  0  0  0
    1.6429   -5.8828    3.9262 C   0  0  0  0  0  0  0  0  0  0  0  0
    1.5884   -4.8124    5.0228 C   0  0  0  0  0  0  0  0  0  0  0  0
    1.5700   -3.4363    4.3737 C   0  0  1  0  0  0  0  0  0  0  0  0
    2.2280   -2.5562    5.2565 O   0  0  0  0  0  0  0  0  0  0  0  0
    2.1297   -3.4501    2.9098 C   0  0  1  0  0  0  0  0  0  0  0  0
    2.0445   -2.0561    2.1998 C   0  0  1  0  0  0  0  0  0  0  0  0
    2.5241   -1.0004    3.0196 O   0  0  0  0  0  0  0  0  0  0  0  0
    2.6699   -2.0462    0.9598 O   0  0  0  0  0  0  0  0  0  0  0  0
    2.8180   -3.2886    0.3002 C   0  0  0  0  0  0  0  0  0  0  0  0
    3.8528   -4.1157    1.0847 C   0  0  1  0  0  0  0  0  0  0  0  0
    5.3033   -3.5344    0.8499 C   0  0  1  0  0  0  0  0  0  0  0  0
    5.7166   -3.5757   -0.6405 C   0  0  0  0  0  0  0  0  0  0  0  0
    5.6122   -2.1085    1.4010 C   0  0  0  0  0  0  0  0  0  0  0  0
    5.3941   -1.8317    2.8906 C   0  0  0  0  0  0  0  0  0  0  0  0
    5.7706   -0.4267    3.3168 C   0  0  0  0  0  0  0  0  0  0  0  0
    4.9460   -2.7072    3.7967 C   0  0  0  0  0  0  0  0  0  0  0  0
    4.5709   -4.1431    3.5648 C   0  0  1  0  0  0  0  0  0  0  0  0
    4.4426   -4.8206    4.7970 O   0  0  0  0  0  0  0  0  0  0  0  0
    4.5618   -6.2392    4.7069 C   0  0  2  0  0  0  0  0  0  0  0  0
    6.0412   -6.6547    4.7888 C   0  0  0  0  0  0  0  0  0  0  0  0
    6.2670   -7.6071    3.6111 C   0  0  1  0  0  0  0  0  0  0  0  0
    6.0577   -8.9335    4.0673 O   0  0  0  0  0  0  0  0  0  0  0  0
    5.2088   -7.2141    2.5496 C   0  0  1  0  0  0  0  0  0  0  0  0
    5.0370   -8.3179    1.4819 C   0  0  0  0  0  0  0  0  0  0  0  0
    3.9674   -6.8230    3.4047 C   0  0  2  0  0  0  0  0  0  0  0  0
    3.3702   -4.3817    2.5829 C   0  0  2  0  0  0  0  0  0  0  0  0
   -0.2670   -9.9275    2.0872 H   0  0  0  0  0  0  0  0  0  0  0  0
   -1.5070   -8.9640    2.8887 H   0  0  0  0  0  0  0  0  0  0  0  0
    0.0603   -9.1716    3.6476 H   0  0  0  0  0  0  0  0  0  0  0  0
    2.8978   -6.8314    0.8621 H   0  0  0  0  0  0  0  0  0  0  0  0
    1.5058   -5.8239    1.0910 H   0  0  0  0  0  0  0  0  0  0  0  0
    0.7173   -5.7549    3.4139 H   0  0  0  0  0  0  0  0  0  0  0  0
    1.6134   -6.8530    4.4451 H   0  0  0  0  0  0  0  0  0  0  0  0
    0.6502   -4.9565    5.5410 H   0  0  0  0  0  0  0  0  0  0  0  0
    2.3250   -4.9122    5.8231 H   0  0  0  0  0  0  0  0  0  0  0  0
    0.5312   -3.0998    4.3012 H   0  0  0  0  0  0  0  0  0  0  0  0
    2.2130   -1.6996    4.8610 H   0  0  0  0  0  0  0  0  0  0  0  0
    1.3462   -3.9592    2.3605 H   0  0  0  0  0  0  0  0  0  0  0  0
    0.9960   -1.8115    2.0152 H   0  0  0  0  0  0  0  0  0  0  0  0
    3.4483   -1.1334    3.1201 H   0  0  0  0  0  0  0  0  0  0  0  0
    1.8667   -3.8062    0.1989 H   0  0  0  0  0  0  0  0  0  0  0  0
    3.1274   -3.0962   -0.7227 H   0  0  0  0  0  0  0  0  0  0  0  0
    3.9127   -5.0737    0.5755 H   0  0  0  0  0  0  0  0  0  0  0  0
    6.0310   -4.2146    1.2866 H   0  0  0  0  0  0  0  0  0  0  0  0
    5.2341   -2.7908   -1.2270 H   0  0  0  0  0  0  0  0  0  0  0  0
    5.4680   -4.5376   -1.0927 H   0  0  0  0  0  0  0  0  0  0  0  0
    6.7953   -3.4310   -0.7473 H   0  0  0  0  0  0  0  0  0  0  0  0
    6.6632   -1.8835    1.2054 H   0  0  0  0  0  0  0  0  0  0  0  0
    5.0559   -1.3580    0.8402 H   0  0  0  0  0  0  0  0  0  0  0  0
    5.2029    0.3185    2.7683 H   0  0  0  0  0  0  0  0  0  0  0  0
    6.8317   -0.2546    3.1487 H   0  0  0  0  0  0  0  0  0  0  0  0
    5.5808   -0.2811    4.3822 H   0  0  0  0  0  0  0  0  0  0  0  0
    4.8390   -2.3954    4.8337 H   0  0  0  0  0  0  0  0  0  0  0  0
    5.4939   -4.5554    3.1893 H   0  0  0  0  0  0  0  0  0  0  0  0
    4.0300   -6.6810    5.5566 H   0  0  0  0  0  0  0  0  0  0  0  0
    6.6949   -5.7851    4.6989 H   0  0  0  0  0  0  0  0  0  0  0  0
    6.2811   -7.1063    5.7525 H   0  0  0  0  0  0  0  0  0  0  0  0
    7.2895   -7.5326    3.2214 H   0  0  0  0  0  0  0  0  0  0  0  0
    6.6896   -9.1303    4.7351 H   0  0  0  0  0  0  0  0  0  0  0  0
    5.5967   -6.3387    2.0349 H   0  0  0  0  0  0  0  0  0  0  0  0
    4.4250   -9.1457    1.8471 H   0  0  0  0  0  0  0  0  0  0  0  0
    6.0078   -8.7395    1.2067 H   0  0  0  0  0  0  0  0  0  0  0  0
    4.5910   -7.9435    0.5617 H   0  0  0  0  0  0  0  0  0  0  0  0
    3.5179   -7.7768    3.6749 H   0  0  0  0  0  0  0  0  0  0  0  0
  1  2  1  0
  1 33  1  0
  1 34  1  0
  1 35  1  0
  2  3  2  0
  2  4  1  0
  4  5  1  0
  6  5  1  6
  5 36  1  0
  5 37  1  0
  6 31  1  0
 32  6  1  6
  6  7  1  0
  7  8  1  0
  7 38  1  0
  7 39  1  0
  8  9  1  0
  8 40  1  0
  8 41  1  0
  9 10  1  0
  9 11  1  0
  9 42  1  6
 10 43  1  0
 11 32  1  0
 11 12  1  0
 11 44  1  6
 12 13  1  0
 12 14  1  0
 12 45  1  6
 13 46  1  0
 14 15  1  0
 15 16  1  0
 15 47  1  0
 15 48  1  0
 16 32  1  0
 16 17  1  0
 16 49  1  6
 17 18  1  0
 17 19  1  0
 17 50  1  1
 18 51  1  0
 18 52  1  0
 18 53  1  0
 19 20  1  0
 19 54  1  0
 19 55  1  0
 20 21  1  0
 20 22  2  0
 21 56  1  0
 21 57  1  0
 21 58  1  0
 22 23  1  0
 22 59  1  0
 23 24  1  0
 23 32  1  0
 23 60  1  6
 24 25  1  0
 25 31  1  0
 25 26  1  0
 25 61  1  1
 26 27  1  0
 26 62  1  0
 26 63  1  0
 27 28  1  0
 27 29  1  0
 27 64  1  6
 28 65  1  0
 29 30  1  0
 29 31  1  0
 29 66  1  6
 30 67  1  0
 30 68  1  0
 30 69  1  0
 31 70  1  1
M  END
>  <i_m_ct_stereo_status>  (51) 
1

>  <s_m_source_file>  (51) 
/var/tmp/pbs.5076255.sched01/tmpzk3r62u5/0tgg_cfwk.sdf

>  <i_m_source_file_index>  (51) 
21

>  <i_lp_mmshare_version>  (51) 
48012

>  <i_f3d_flags>  (51) 
0

>  <s_epik_input>  (51) 
W0NIM11DKD1PKU9bQ0gyXVtDQF0xKFtDQF0yMzQpW0NAQEhdNVtDQEBIXShbQ0gyXVtDQEBIXShbT0hdKVtDQEhdNVtDSDNdKU9bQ0BASF00W0NIXT1DKFtDSDNdKVtDSDJdW0NASF0oW0NIM10pW0NAQEhdM1tDSDJdT1tDQEhdKFtPSF0pW0NAQEhdMltDQEhdKFtPSF0pW0NIMl1bQ0gyXTE=

>  <s_epik_cmdline>  (51) 
J2VwaWtfcHl0aG9uJywgJy1waHQnLCAnMi4wJywgJy1waCcsICc3LjAnLCAnLXRuJywgJzgnLCAnLW1hJywgJzIwMCcsICctaW1hZScsICc8aW5maWxlLm1hZT4nLCAnLW9tYWUnLCAnPG91dGZpbGUubWFlPic=

>  <r_lp_tautomer_probability>  (51) 
1

>  <r_epik_Ionization_Penalty>  (51) 
7.37497e-07

>  <r_epik_Ionization_Penalty_Charging>  (51) 
0

>  <r_epik_Ionization_Penalty_Neutral>  (51) 
7.37497e-07

>  <r_epik_State_Penalty>  (51) 
-0

>  <r_epik_Charging_Adjusted_Penalty>  (51) 
0

>  <i_epik_Tot_Q>  (51) 
0

>  <i_epik_Tot_abs_Q>  (51) 
0

>  <s_epik_Chemistry_Notes>  (51) 
This compound has an ester and may undergo hydrolysis at high or low pH. This compound contains an acetal/aminal-like group ( X-CH(R)-Y where X, Y are N, S, or O) that may be acid/base labile, releasing an aldehyde.

>  <s_lp_Force_Field>  (51) 
OPLS3e

>  <r_lp_Energy>  (51) 
87.0221

>  <b_lp_Chiralities_Consistent>  (51) 
1

>  <s_lp_Variant>  (51) 
12:0-1

>  <s_i_glide_gridfile>  (51) 
pfpi4k_grid

>  <i_i_glide_lignum>  (51) 
21

>  <i_i_glide_rotatable_bonds>  (51) 
6

>  <r_i_docking_score>  (51) 
-3.34469

>  <r_i_glide_ligand_efficiency>  (51) 
-0.104521

>  <r_i_glide_ligand_efficiency_sa>  (51) 
-0.331835

>  <r_i_glide_ligand_efficiency_ln>  (51) 
-0.748966

>  <r_i_glide_gscore>  (51) 
-3.34469

>  <r_i_glide_lipo>  (51) 
-0.561231

>  <r_i_glide_hbond>  (51) 
-0.165035

>  <r_i_glide_metal>  (51) 
-0

>  <r_i_glide_rewards>  (51) 
-0.837057

>  <r_i_glide_evdw>  (51) 
-26.0345

>  <r_i_glide_ecoul>  (51) 
-3.9046

>  <r_i_glide_erotb>  (51) 
0.197529

>  <r_i_glide_esite>  (51) 
-0.0914735

>  <r_i_glide_emodel>  (51) 
-39.2736

>  <r_i_glide_energy>  (51) 
-29.9391

>  <r_i_glide_einternal>  (51) 
2.51635

>  <r_i_glide_intrahb_reward>  (51) 
-0.5

>  <i_i_glide_confnum>  (51) 
1

>  <i_i_glide_posenum>  (51) 
2

>  <r_i_glide_eff_state_penalty>  (51) 
0

>  <ligand_id>  (51) 
12

>  <original_smiles>  (51) 
CC(=O)OCC12CCC(O)C3C(O)OCC4C(C)CC(C)=CC(OC5CC(O)C(C)C51)C432

>  <smiles>  (51) 
[H]OC1([H])OC([H])([H])C2([H])C([H])(C([H])([H])[H])C([H])([H])C(C([H])([H])[H])=C([H])C3([H])OC4([H])C([H])([H])C([H])(O[H])C([H])(C([H])([H])[H])C4([H])C4(C([H])([H])OC(=O)C([H])([H])[H])C([H])([H])C([H])([H])C([H])(O[H])C1([H])C324

$$$$
12:0:2
     RDKit          3D

 70 74  0  0  1  0  0  0  0  0999 V2000
   -0.2641   -9.3295    2.7792 C   0  0  0  0  0  0  0  0  0  0  0  0
   -0.0160   -7.8286    2.6695 C   0  0  0  0  0  0  0  0  0  0  0  0
   -0.9480   -7.0410    2.4762 O   0  0  0  0  0  0  0  0  0  0  0  0
    1.2835   -7.4828    2.8310 O   0  0  0  0  0  0  0  0  0  0  0  0
    1.6689   -6.1054    2.8966 C   0  0  0  0  0  0  0  0  0  0  0  0
    2.8621   -5.8519    3.8776 C   0  0  1  0  0  0  0  0  0  0  0  0
    2.3884   -6.6340    5.1815 C   0  0  0  0  0  0  0  0  0  0  0  0
    2.8561   -6.1319    6.5580 C   0  0  0  0  0  0  0  0  0  0  0  0
    2.5248   -4.6581    6.7722 C   0  0  1  0  0  0  0  0  0  0  0  0
    3.5542   -4.0887    7.5551 O   0  0  0  0  0  0  0  0  0  0  0  0
    2.2250   -3.9283    5.4301 C   0  0  1  0  0  0  0  0  0  0  0  0
    1.7456   -2.4491    5.6264 C   0  0  1  0  0  0  0  0  0  0  0  0
    2.5183   -1.7000    6.5352 O   0  0  0  0  0  0  0  0  0  0  0  0
    1.6054   -1.7657    4.4130 O   0  0  0  0  0  0  0  0  0  0  0  0
    1.4278   -2.5607    3.2520 C   0  0  0  0  0  0  0  0  0  0  0  0
    2.7483   -3.3015    2.9709 C   0  0  1  0  0  0  0  0  0  0  0  0
    3.8437   -2.3182    2.3974 C   0  0  1  0  0  0  0  0  0  0  0  0
    3.3967   -1.6619    1.0684 C   0  0  0  0  0  0  0  0  0  0  0  0
    4.3817   -1.2042    3.3399 C   0  0  0  0  0  0  0  0  0  0  0  0
    4.9984   -1.6135    4.6798 C   0  0  0  0  0  0  0  0  0  0  0  0
    5.5110   -0.4373    5.4980 C   0  0  0  0  0  0  0  0  0  0  0  0
    5.0893   -2.8529    5.1556 C   0  0  0  0  0  0  0  0  0  0  0  0
    4.6729   -4.1324    4.4702 C   0  0  1  0  0  0  0  0  0  0  0  0
    5.2320   -5.2524    5.1310 O   0  0  0  0  0  0  0  0  0  0  0  0
    5.3374   -6.4302    4.3289 C   0  0  2  0  0  0  0  0  0  0  0  0
    6.6375   -6.4331    3.5068 C   0  0  0  0  0  0  0  0  0  0  0  0
    6.2186   -6.7323    2.0673 C   0  0  1  0  0  0  0  0  0  0  0  0
    6.3235   -8.1249    1.8446 O   0  0  0  0  0  0  0  0  0  0  0  0
    4.7559   -6.2526    1.9566 C   0  0  1  0  0  0  0  0  0  0  0  0
    4.0608   -6.8432    0.7129 C   0  0  0  0  0  0  0  0  0  0  0  0
    4.1548   -6.5872    3.3491 C   0  0  2  0  0  0  0  0  0  0  0  0
    3.1420   -4.2785    4.1712 C   0  0  2  0  0  0  0  0  0  0  0  0
    0.3767   -9.8774    2.0896 H   0  0  0  0  0  0  0  0  0  0  0  0
   -1.2996   -9.5692    2.5381 H   0  0  0  0  0  0  0  0  0  0  0  0
   -0.0695   -9.6771    3.7928 H   0  0  0  0  0  0  0  0  0  0  0  0
    1.8767   -5.7937    1.8737 H   0  0  0  0  0  0  0  0  0  0  0  0
    0.8327   -5.4856    3.2275 H   0  0  0  0  0  0  0  0  0  0  0  0
    1.2867   -6.6562    5.2277 H   0  0  0  0  0  0  0  0  0  0  0  0
    2.6819   -7.6743    5.1183 H   0  0  0  0  0  0  0  0  0  0  0  0
    2.3679   -6.7187    7.3363 H   0  0  0  0  0  0  0  0  0  0  0  0
    3.9149   -6.3462    6.7196 H   0  0  0  0  0  0  0  0  0  0  0  0
    1.6177   -4.6007    7.3843 H   0  0  0  0  0  0  0  0  0  0  0  0
    3.3532   -3.1638    7.6656 H   0  0  0  0  0  0  0  0  0  0  0  0
    1.2676   -4.3804    5.1447 H   0  0  0  0  0  0  0  0  0  0  0  0
    0.7467   -2.4673    6.0699 H   0  0  0  0  0  0  0  0  0  0  0  0
    2.1625   -0.8229    6.5613 H   0  0  0  0  0  0  0  0  0  0  0  0
    0.5866   -3.2402    3.3706 H   0  0  0  0  0  0  0  0  0  0  0  0
    1.1450   -1.9028    2.4342 H   0  0  0  0  0  0  0  0  0  0  0  0
    2.5487   -3.9111    2.1024 H   0  0  0  0  0  0  0  0  0  0  0  0
    4.6973   -2.9023    2.0550 H   0  0  0  0  0  0  0  0  0  0  0  0
    2.6547   -0.8748    1.2141 H   0  0  0  0  0  0  0  0  0  0  0  0
    2.9703   -2.3896    0.3747 H   0  0  0  0  0  0  0  0  0  0  0  0
    4.2431   -1.1952    0.5594 H   0  0  0  0  0  0  0  0  0  0  0  0
    5.1467   -0.6404    2.8021 H   0  0  0  0  0  0  0  0  0  0  0  0
    3.5894   -0.4858    3.5467 H   0  0  0  0  0  0  0  0  0  0  0  0
    4.7088    0.2685    5.7074 H   0  0  0  0  0  0  0  0  0  0  0  0
    6.3095    0.0884    4.9742 H   0  0  0  0  0  0  0  0  0  0  0  0
    5.9091   -0.7810    6.4513 H   0  0  0  0  0  0  0  0  0  0  0  0
    5.5466   -3.0171    6.1202 H   0  0  0  0  0  0  0  0  0  0  0  0
    5.2597   -4.0960    3.5712 H   0  0  0  0  0  0  0  0  0  0  0  0
    5.3431   -7.2773    5.0037 H   0  0  0  0  0  0  0  0  0  0  0  0
    7.1213   -5.4599    3.5530 H   0  0  0  0  0  0  0  0  0  0  0  0
    7.3683   -7.1420    3.8965 H   0  0  0  0  0  0  0  0  0  0  0  0
    6.8722   -6.2366    1.3526 H   0  0  0  0  0  0  0  0  0  0  0  0
    5.7490   -8.5776    2.4506 H   0  0  0  0  0  0  0  0  0  0  0  0
    4.7887   -5.1788    1.8082 H   0  0  0  0  0  0  0  0  0  0  0  0
    3.7627   -7.8791    0.8740 H   0  0  0  0  0  0  0  0  0  0  0  0
    4.7249   -6.8207   -0.1531 H   0  0  0  0  0  0  0  0  0  0  0  0
    3.1857   -6.2753    0.4122 H   0  0  0  0  0  0  0  0  0  0  0  0
    3.9340   -7.6543    3.2999 H   0  0  0  0  0  0  0  0  0  0  0  0
  1  2  1  0
  1 33  1  0
  1 34  1  0
  1 35  1  0
  2  3  2  0
  2  4  1  0
  4  5  1  0
  6  5  1  6
  5 36  1  0
  5 37  1  0
  6 31  1  0
 32  6  1  6
  6  7  1  0
  7  8  1  0
  7 38  1  0
  7 39  1  0
  8  9  1  0
  8 40  1  0
  8 41  1  0
  9 10  1  0
  9 11  1  0
  9 42  1  1
 10 43  1  0
 11 32  1  0
 11 12  1  0
 11 44  1  6
 12 13  1  0
 12 14  1  0
 12 45  1  1
 13 46  1  0
 14 15  1  0
 15 16  1  0
 15 47  1  0
 15 48  1  0
 16 32  1  0
 16 17  1  0
 16 49  1  6
 17 18  1  0
 17 19  1  0
 17 50  1  6
 18 51  1  0
 18 52  1  0
 18 53  1  0
 19 20  1  0
 19 54  1  0
 19 55  1  0
 20 21  1  0
 20 22  2  0
 21 56  1  0
 21 57  1  0
 21 58  1  0
 22 23  1  0
 22 59  1  0
 23 24  1  0
 23 32  1  0
 23 60  1  6
 24 25  1  0
 25 31  1  0
 25 26  1  0
 25 61  1  1
 26 27  1  0
 26 62  1  0
 26 63  1  0
 27 28  1  0
 27 29  1  0
 27 64  1  6
 28 65  1  0
 29 30  1  0
 29 31  1  0
 29 66  1  6
 30 67  1  0
 30 68  1  0
 30 69  1  0
 31 70  1  6
M  END
>  <i_m_ct_stereo_status>  (52) 
1

>  <s_m_source_file>  (52) 
/var/tmp/pbs.5076255.sched01/tmpzk3r62u5/0tgg_cfwk.sdf

>  <i_m_source_file_index>  (52) 
21

>  <i_lp_mmshare_version>  (52) 
48012

>  <i_f3d_flags>  (52) 
0

>  <s_epik_input>  (52) 
W0NIM11DKD1PKU9bQ0gyXVtDQF0xKFtDQF0yMzQpW0NAQEhdNVtDQEBIXShbQ0gyXVtDQEBIXShbT0hdKVtDQEhdNVtDSDNdKU9bQ0BASF00W0NIXT1DKFtDSDNdKVtDSDJdW0NASF0oW0NIM10pW0NAQEhdM1tDSDJdT1tDQEhdKFtPSF0pW0NAQEhdMltDQEhdKFtPSF0pW0NIMl1bQ0gyXTE=

>  <s_epik_cmdline>  (52) 
J2VwaWtfcHl0aG9uJywgJy1waHQnLCAnMi4wJywgJy1waCcsICc3LjAnLCAnLXRuJywgJzgnLCAnLW1hJywgJzIwMCcsICctaW1hZScsICc8aW5maWxlLm1hZT4nLCAnLW9tYWUnLCAnPG91dGZpbGUubWFlPic=

>  <r_lp_tautomer_probability>  (52) 
1

>  <r_epik_Ionization_Penalty>  (52) 
7.37497e-07

>  <r_epik_Ionization_Penalty_Charging>  (52) 
0

>  <r_epik_Ionization_Penalty_Neutral>  (52) 
7.37497e-07

>  <r_epik_State_Penalty>  (52) 
-0

>  <r_epik_Charging_Adjusted_Penalty>  (52) 
0

>  <i_epik_Tot_Q>  (52) 
0

>  <i_epik_Tot_abs_Q>  (52) 
0

>  <s_epik_Chemistry_Notes>  (52) 
This compound has an ester and may undergo hydrolysis at high or low pH. This compound contains an acetal/aminal-like group ( X-CH(R)-Y where X, Y are N, S, or O) that may be acid/base labile, releasing an aldehyde.

>  <s_lp_Force_Field>  (52) 
OPLS3e

>  <r_lp_Energy>  (52) 
87.0221

>  <b_lp_Chiralities_Consistent>  (52) 
1

>  <s_lp_Variant>  (52) 
12:0-1

>  <s_i_glide_gridfile>  (52) 
pfpi4k_grid

>  <i_i_glide_lignum>  (52) 
21

>  <i_i_glide_rotatable_bonds>  (52) 
6

>  <r_i_docking_score>  (52) 
-3.02623

>  <r_i_glide_ligand_efficiency>  (52) 
-0.0945698

>  <r_i_glide_ligand_efficiency_sa>  (52) 
-0.30024

>  <r_i_glide_ligand_efficiency_ln>  (52) 
-0.677656

>  <r_i_glide_gscore>  (52) 
-3.02623

>  <r_i_glide_lipo>  (52) 
-0.387792

>  <r_i_glide_hbond>  (52) 
-0.16

>  <r_i_glide_metal>  (52) 
-0

>  <r_i_glide_rewards>  (52) 
-0.837057

>  <r_i_glide_evdw>  (52) 
-23.8861

>  <r_i_glide_ecoul>  (52) 
-3.95796

>  <r_i_glide_erotb>  (52) 
0.197529

>  <r_i_glide_esite>  (52) 
-0.050915

>  <r_i_glide_emodel>  (52) 
-37.3381

>  <r_i_glide_energy>  (52) 
-27.844

>  <r_i_glide_einternal>  (52) 
2.7704

>  <r_i_glide_intrahb_reward>  (52) 
-0.5

>  <i_i_glide_confnum>  (52) 
1

>  <i_i_glide_posenum>  (52) 
12

>  <r_i_glide_eff_state_penalty>  (52) 
0

>  <ligand_id>  (52) 
12

>  <original_smiles>  (52) 
CC(=O)OCC12CCC(O)C3C(O)OCC4C(C)CC(C)=CC(OC5CC(O)C(C)C51)C432

>  <smiles>  (52) 
[H]OC1([H])OC([H])([H])C2([H])C([H])(C([H])([H])[H])C([H])([H])C(C([H])([H])[H])=C([H])C3([H])OC4([H])C([H])([H])C([H])(O[H])C([H])(C([H])([H])[H])C4([H])C4(C([H])([H])OC(=O)C([H])([H])[H])C([H])([H])C([H])([H])C([H])(O[H])C1([H])C324

$$$$
13:0:0
     RDKit          3D

 33 35  0  0  1  0  0  0  0  0999 V2000
   -3.1356    3.5970    2.9398 C   0  0  0  0  0  0  0  0  0  0  0  0
   -2.1851    4.3814    3.6529 O   0  0  0  0  0  0  0  0  0  0  0  0
   -1.7011    3.7659    4.8430 C   0  0  0  0  0  0  0  0  0  0  0  0
   -0.8805    2.5096    4.5546 C   0  0  2  0  0  0  0  0  0  0  0  0
    0.1475    2.0018    5.5267 C   0  0  0  0  0  0  0  0  0  0  0  0
    0.5858    2.5963    4.2071 C   0  0  1  0  0  0  0  0  0  0  0  0
    1.1677    1.7436    3.1355 C   0  0  0  0  0  0  0  0  0  0  0  0
    0.6976    1.3499    1.9012 C   0  0  0  0  0  0  0  0  0  0  0  0
    1.6185    0.5055    1.2875 N   0  0  0  0  0  0  0  0  0  0  0  0
    2.6604    0.4011    2.1058 C   0  0  0  0  0  0  0  0  0  0  0  0
    3.8213   -0.3407    1.9476 C   0  0  0  0  0  0  0  0  0  0  0  0
    4.1045   -1.1732    0.7247 C   0  0  0  0  0  0  0  0  0  0  0  0
    4.7270   -0.2785    2.9843 C   0  0  0  0  0  0  0  0  0  0  0  0
    4.4411    0.5060    4.1326 C   0  0  0  0  0  0  0  0  0  0  0  0
    3.2632    1.2100    4.2229 C   0  0  0  0  0  0  0  0  0  0  0  0
    2.3914    1.1285    3.1646 N   0  0  0  0  0  0  0  0  0  0  0  0
   -3.4962    4.1483    2.0767 H   0  0  0  0  0  0  0  0  0  0  0  0
   -3.9850    3.3346    3.5735 H   0  0  0  0  0  0  0  0  0  0  0  0
   -2.7340    2.6766    2.5172 H   0  0  0  0  0  0  0  0  0  0  0  0
   -1.0731    4.4896    5.3607 H   0  0  0  0  0  0  0  0  0  0  0  0
   -2.5231    3.5397    5.5277 H   0  0  0  0  0  0  0  0  0  0  0  0
   -1.4328    1.6910    4.1123 H   0  0  0  0  0  0  0  0  0  0  0  0
    0.2762    2.5759    6.4455 H   0  0  0  0  0  0  0  0  0  0  0  0
    0.1990    0.9156    5.6180 H   0  0  0  0  0  0  0  0  0  0  0  0
    1.0317    3.5851    4.1884 H   0  0  0  0  0  0  0  0  0  0  0  0
   -0.2421    1.5778    1.4180 H   0  0  0  0  0  0  0  0  0  0  0  0
    5.0773   -1.6526    0.8291 H   0  0  0  0  0  0  0  0  0  0  0  0
    4.1463   -0.5530   -0.1730 H   0  0  0  0  0  0  0  0  0  0  0  0
    3.3658   -1.9684    0.5981 H   0  0  0  0  0  0  0  0  0  0  0  0
    5.6618   -0.8165    2.9057 H   0  0  0  0  0  0  0  0  0  0  0  0
    5.1593    0.5758    4.9464 H   0  0  0  0  0  0  0  0  0  0  0  0
    2.9537    1.8351    5.0464 H   0  0  0  0  0  0  0  0  0  0  0  0
    1.4605   -0.0174    0.4185 H   0  0  0  0  0  0  0  0  0  0  0  0
  1  2  1  0
  1 17  1  0
  1 18  1  0
  1 19  1  0
  2  3  1  0
  3  4  1  0
  3 20  1  0
  3 21  1  0
  4  6  1  0
  4  5  1  0
  4 22  1  6
  5  6  1  0
  5 23  1  0
  5 24  1  0
  6  7  1  0
  6 25  1  1
  7 16  1  0
  7  8  2  0
  8  9  1  0
  8 26  1  0
  9 10  2  0
  9 33  1  0
 10 16  1  0
 10 11  1  0
 11 12  1  0
 11 13  2  0
 12 27  1  0
 12 28  1  0
 12 29  1  0
 13 14  1  0
 13 30  1  0
 14 15  2  0
 14 31  1  0
 15 16  1  0
 15 32  1  0
M  CHG  1   9   1
M  END
>  <i_m_ct_stereo_status>  (53) 
1

>  <s_m_source_file>  (53) 
/var/tmp/pbs.5076255.sched01/tmpzk3r62u5/0tgg_cfwk.sdf

>  <i_m_source_file_index>  (53) 
22

>  <i_lp_mmshare_version>  (53) 
48012

>  <i_f3d_flags>  (53) 
0

>  <s_epik_input>  (53) 
W0NIM11PW0NIMl1bQ0BASF0xW0NIMl1bQ0BIXTFjKFtjSF1uMiluKGMyMylbY0hdW2NIXVtjSF1jM1tDSDNd

>  <s_epik_cmdline>  (53) 
J2VwaWtfcHl0aG9uJywgJy1waHQnLCAnMi4wJywgJy1waCcsICc3LjAnLCAnLXRuJywgJzgnLCAnLW1hJywgJzIwMCcsICctaW1hZScsICc8aW5maWxlLm1hZT4nLCAnLW9tYWUnLCAnPG91dGZpbGUubWFlPic=

>  <r_epik_Ionization_Penalty>  (53) 
0.229556

>  <r_epik_Ionization_Penalty_Charging>  (53) 
0

>  <r_epik_Ionization_Penalty_Neutral>  (53) 
0.229556

>  <r_epik_State_Penalty>  (53) 
0.220165

>  <r_epik_Charging_Adjusted_Penalty>  (53) 
0.220165

>  <i_epik_Tot_Q>  (53) 
1

>  <i_epik_Tot_abs_Q>  (53) 
1

>  <s_lp_Force_Field>  (53) 
OPLS3e

>  <r_lp_Energy>  (53) 
22.7048

>  <b_lp_Chiralities_Consistent>  (53) 
1

>  <s_lp_Variant>  (53) 
13:0-1

>  <s_i_glide_gridfile>  (53) 
pfpi4k_grid

>  <i_i_glide_lignum>  (53) 
22

>  <i_i_glide_rotatable_bonds>  (53) 
3

>  <r_i_docking_score>  (53) 
-3.64674

>  <r_i_glide_ligand_efficiency>  (53) 
-0.227921

>  <r_i_glide_ligand_efficiency_sa>  (53) 
-0.574325

>  <r_i_glide_ligand_efficiency_ln>  (53) 
-0.96664

>  <r_i_glide_gscore>  (53) 
-3.64674

>  <r_i_glide_lipo>  (53) 
-0.160506

>  <r_i_glide_hbond>  (53) 
-0.36

>  <r_i_glide_metal>  (53) 
-0

>  <r_i_glide_rewards>  (53) 
-1.92759

>  <r_i_glide_evdw>  (53) 
-15.8763

>  <r_i_glide_ecoul>  (53) 
-6.89591

>  <r_i_glide_erotb>  (53) 
0.71074

>  <r_i_glide_esite>  (53) 
-0.08118

>  <r_i_glide_emodel>  (53) 
-28.9032

>  <r_i_glide_energy>  (53) 
-22.7722

>  <r_i_glide_einternal>  (53) 
1.44672

>  <r_i_glide_intrahb_reward>  (53) 
-0

>  <i_i_glide_confnum>  (53) 
6

>  <i_i_glide_posenum>  (53) 
32

>  <r_i_glide_eff_state_penalty>  (53) 
0

>  <ligand_id>  (53) 
13

>  <original_smiles>  (53) 
COCC1CC1c1cnc2c(C)cccn12

>  <smiles>  (53) 
[H]c1c([H])c([H])n2c(C3([H])C([H])([H])C3([H])C([H])([H])OC([H])([H])[H])c([H])[n+]([H])c2c1C([H])([H])[H]

$$$$
13:0:1
     RDKit          3D

 33 35  0  0  1  0  0  0  0  0999 V2000
    2.9430   -3.3529   -0.7379 C   0  0  0  0  0  0  0  0  0  0  0  0
    3.5097   -3.7002    0.5203 O   0  0  0  0  0  0  0  0  0  0  0  0
    2.8941   -3.0748    1.6383 C   0  0  0  0  0  0  0  0  0  0  0  0
    3.2087   -1.5853    1.6949 C   0  0  2  0  0  0  0  0  0  0  0  0
    4.3540   -1.0836    2.5380 C   0  0  0  0  0  0  0  0  0  0  0  0
    2.9303   -0.7609    2.9237 C   0  0  1  0  0  0  0  0  0  0  0  0
    2.4053    0.6274    2.7796 C   0  0  0  0  0  0  0  0  0  0  0  0
    1.5515    1.1920    1.8604 C   0  0  0  0  0  0  0  0  0  0  0  0
    1.4105    2.5473    2.1447 N   0  0  0  0  0  0  0  0  0  0  0  0
    2.1507    2.8298    3.2110 C   0  0  0  0  0  0  0  0  0  0  0  0
    2.3566    4.0279    3.8742 C   0  0  0  0  0  0  0  0  0  0  0  0
    1.7032    5.3299    3.4532 C   0  0  0  0  0  0  0  0  0  0  0  0
    3.1884    4.0033    4.9692 C   0  0  0  0  0  0  0  0  0  0  0  0
    3.8005    2.7808    5.3710 C   0  0  0  0  0  0  0  0  0  0  0  0
    3.5608    1.6266    4.6621 C   0  0  0  0  0  0  0  0  0  0  0  0
    2.7206    1.6858    3.5861 N   0  0  0  0  0  0  0  0  0  0  0  0
    3.4763   -3.8684   -1.5367 H   0  0  0  0  0  0  0  0  0  0  0  0
    3.0209   -2.2928   -0.9758 H   0  0  0  0  0  0  0  0  0  0  0  0
    1.8884   -3.6272   -0.7704 H   0  0  0  0  0  0  0  0  0  0  0  0
    1.8158   -3.2378    1.6330 H   0  0  0  0  0  0  0  0  0  0  0  0
    3.2609   -3.5554    2.5452 H   0  0  0  0  0  0  0  0  0  0  0  0
    3.0088   -1.0365    0.7811 H   0  0  0  0  0  0  0  0  0  0  0  0
    4.8960   -1.8232    3.1304 H   0  0  0  0  0  0  0  0  0  0  0  0
    4.9543   -0.2783    2.1134 H   0  0  0  0  0  0  0  0  0  0  0  0
    2.4661   -1.2693    3.7648 H   0  0  0  0  0  0  0  0  0  0  0  0
    1.0549    0.7630    1.0013 H   0  0  0  0  0  0  0  0  0  0  0  0
    2.0032    6.1360    4.1245 H   0  0  0  0  0  0  0  0  0  0  0  0
    0.6152    5.2594    3.4997 H   0  0  0  0  0  0  0  0  0  0  0  0
    2.0101    5.6230    2.4487 H   0  0  0  0  0  0  0  0  0  0  0  0
    3.3707    4.9102    5.5313 H   0  0  0  0  0  0  0  0  0  0  0  0
    4.4553    2.7563    6.2379 H   0  0  0  0  0  0  0  0  0  0  0  0
    3.9943    0.6557    4.8865 H   0  0  0  0  0  0  0  0  0  0  0  0
    0.8785    3.2508    1.5949 H   0  0  0  0  0  0  0  0  0  0  0  0
  1  2  1  0
  1 17  1  0
  1 18  1  0
  1 19  1  0
  2  3  1  0
  3  4  1  0
  3 20  1  0
  3 21  1  0
  4  6  1  0
  4  5  1  0
  4 22  1  6
  5  6  1  0
  5 23  1  0
  5 24  1  0
  6  7  1  0
  6 25  1  1
  7 16  1  0
  7  8  2  0
  8  9  1  0
  8 26  1  0
  9 10  2  0
  9 33  1  0
 10 16  1  0
 10 11  1  0
 11 12  1  0
 11 13  2  0
 12 27  1  0
 12 28  1  0
 12 29  1  0
 13 14  1  0
 13 30  1  0
 14 15  2  0
 14 31  1  0
 15 16  1  0
 15 32  1  0
M  CHG  1   9   1
M  END
>  <i_m_ct_stereo_status>  (54) 
1

>  <s_m_source_file>  (54) 
/var/tmp/pbs.5076255.sched01/tmpzk3r62u5/0tgg_cfwk.sdf

>  <i_m_source_file_index>  (54) 
22

>  <i_lp_mmshare_version>  (54) 
48012

>  <i_f3d_flags>  (54) 
0

>  <s_epik_input>  (54) 
W0NIM11PW0NIMl1bQ0BASF0xW0NIMl1bQ0BIXTFjKFtjSF1uMiluKGMyMylbY0hdW2NIXVtjSF1jM1tDSDNd

>  <s_epik_cmdline>  (54) 
J2VwaWtfcHl0aG9uJywgJy1waHQnLCAnMi4wJywgJy1waCcsICc3LjAnLCAnLXRuJywgJzgnLCAnLW1hJywgJzIwMCcsICctaW1hZScsICc8aW5maWxlLm1hZT4nLCAnLW9tYWUnLCAnPG91dGZpbGUubWFlPic=

>  <r_epik_Ionization_Penalty>  (54) 
0.229556

>  <r_epik_Ionization_Penalty_Charging>  (54) 
0

>  <r_epik_Ionization_Penalty_Neutral>  (54) 
0.229556

>  <r_epik_State_Penalty>  (54) 
0.220165

>  <r_epik_Charging_Adjusted_Penalty>  (54) 
0.220165

>  <i_epik_Tot_Q>  (54) 
1

>  <i_epik_Tot_abs_Q>  (54) 
1

>  <s_lp_Force_Field>  (54) 
OPLS3e

>  <r_lp_Energy>  (54) 
22.7048

>  <b_lp_Chiralities_Consistent>  (54) 
1

>  <s_lp_Variant>  (54) 
13:0-1

>  <s_i_glide_gridfile>  (54) 
pfpi4k_grid

>  <i_i_glide_lignum>  (54) 
22

>  <i_i_glide_rotatable_bonds>  (54) 
3

>  <r_i_docking_score>  (54) 
-3.37301

>  <r_i_glide_ligand_efficiency>  (54) 
-0.210813

>  <r_i_glide_ligand_efficiency_sa>  (54) 
-0.531215

>  <r_i_glide_ligand_efficiency_ln>  (54) 
-0.894083

>  <r_i_glide_gscore>  (54) 
-3.37301

>  <r_i_glide_lipo>  (54) 
-0.0792938

>  <r_i_glide_hbond>  (54) 
-0.2

>  <r_i_glide_metal>  (54) 
-0

>  <r_i_glide_rewards>  (54) 
-1.92759

>  <r_i_glide_evdw>  (54) 
-13.6953

>  <r_i_glide_ecoul>  (54) 
-7.00994

>  <r_i_glide_erotb>  (54) 
0.71074

>  <r_i_glide_esite>  (54) 
-0.140608

>  <r_i_glide_emodel>  (54) 
-26.3428

>  <r_i_glide_energy>  (54) 
-20.7052

>  <r_i_glide_einternal>  (54) 
1.22825

>  <r_i_glide_intrahb_reward>  (54) 
-0

>  <i_i_glide_confnum>  (54) 
6

>  <i_i_glide_posenum>  (54) 
37

>  <r_i_glide_eff_state_penalty>  (54) 
0

>  <ligand_id>  (54) 
13

>  <original_smiles>  (54) 
COCC1CC1c1cnc2c(C)cccn12

>  <smiles>  (54) 
[H]c1c([H])c([H])n2c(C3([H])C([H])([H])C3([H])C([H])([H])OC([H])([H])[H])c([H])[n+]([H])c2c1C([H])([H])[H]

$$$$
13:0:2
     RDKit          3D

 33 35  0  0  1  0  0  0  0  0999 V2000
   -0.8591   -3.8771   10.3401 C   0  0  0  0  0  0  0  0  0  0  0  0
   -0.9899   -3.4528    8.9940 O   0  0  0  0  0  0  0  0  0  0  0  0
   -0.4106   -4.3549    8.0698 C   0  0  0  0  0  0  0  0  0  0  0  0
   -0.6457   -3.8271    6.6719 C   0  0  2  0  0  0  0  0  0  0  0  0
    0.2510   -4.2793    5.5371 C   0  0  0  0  0  0  0  0  0  0  0  0
    0.3251   -2.8569    6.0274 C   0  0  1  0  0  0  0  0  0  0  0  0
   -0.1550   -1.7294    5.1615 C   0  0  0  0  0  0  0  0  0  0  0  0
   -1.3626   -1.0704    5.0991 C   0  0  0  0  0  0  0  0  0  0  0  0
   -1.3192   -0.1001    4.0938 N   0  0  0  0  0  0  0  0  0  0  0  0
   -0.1103   -0.1491    3.5435 C   0  0  0  0  0  0  0  0  0  0  0  0
    0.3981    0.5950    2.4899 C   0  0  0  0  0  0  0  0  0  0  0  0
   -0.3978    1.6649    1.7702 C   0  0  0  0  0  0  0  0  0  0  0  0
    1.6887    0.3104    2.0995 C   0  0  0  0  0  0  0  0  0  0  0  0
    2.4295   -0.7004    2.7695 C   0  0  0  0  0  0  0  0  0  0  0  0
    1.8578   -1.4098    3.8089 C   0  0  0  0  0  0  0  0  0  0  0  0
    0.5690   -1.1009    4.1693 N   0  0  0  0  0  0  0  0  0  0  0  0
   -1.3226   -3.1413   10.9987 H   0  0  0  0  0  0  0  0  0  0  0  0
    0.1896   -3.9732   10.6257 H   0  0  0  0  0  0  0  0  0  0  0  0
   -1.3591   -4.8339   10.5003 H   0  0  0  0  0  0  0  0  0  0  0  0
    0.6601   -4.4532    8.2527 H   0  0  0  0  0  0  0  0  0  0  0  0
   -0.8671   -5.3415    8.1585 H   0  0  0  0  0  0  0  0  0  0  0  0
   -1.7019   -3.6889    6.4418 H   0  0  0  0  0  0  0  0  0  0  0  0
    1.0710   -4.9515    5.7898 H   0  0  0  0  0  0  0  0  0  0  0  0
   -0.1861   -4.4357    4.5511 H   0  0  0  0  0  0  0  0  0  0  0  0
    1.1822   -2.5536    6.6258 H   0  0  0  0  0  0  0  0  0  0  0  0
   -2.2663   -1.2250    5.6685 H   0  0  0  0  0  0  0  0  0  0  0  0
    0.2060    2.1047    0.9760 H   0  0  0  0  0  0  0  0  0  0  0  0
   -0.6788    2.4720    2.4520 H   0  0  0  0  0  0  0  0  0  0  0  0
   -1.2929    1.2495    1.3058 H   0  0  0  0  0  0  0  0  0  0  0  0
    2.1362    0.8619    1.2776 H   0  0  0  0  0  0  0  0  0  0  0  0
    3.4488   -0.9155    2.4637 H   0  0  0  0  0  0  0  0  0  0  0  0
    2.3506   -2.2011    4.3622 H   0  0  0  0  0  0  0  0  0  0  0  0
   -2.0830    0.5021    3.7979 H   0  0  0  0  0  0  0  0  0  0  0  0
  1  2  1  0
  1 17  1  0
  1 18  1  0
  1 19  1  0
  2  3  1  0
  3  4  1  0
  3 20  1  0
  3 21  1  0
  4  6  1  0
  4  5  1  0
  4 22  1  6
  5  6  1  0
  5 23  1  0
  5 24  1  0
  6  7  1  0
  6 25  1  1
  7 16  1  0
  7  8  2  0
  8  9  1  0
  8 26  1  0
  9 10  2  0
  9 33  1  0
 10 16  1  0
 10 11  1  0
 11 12  1  0
 11 13  2  0
 12 27  1  0
 12 28  1  0
 12 29  1  0
 13 14  1  0
 13 30  1  0
 14 15  2  0
 14 31  1  0
 15 16  1  0
 15 32  1  0
M  CHG  1   9   1
M  END
>  <i_m_ct_stereo_status>  (55) 
1

>  <s_m_source_file>  (55) 
/var/tmp/pbs.5076255.sched01/tmpzk3r62u5/0tgg_cfwk.sdf

>  <i_m_source_file_index>  (55) 
22

>  <i_lp_mmshare_version>  (55) 
48012

>  <i_f3d_flags>  (55) 
0

>  <s_epik_input>  (55) 
W0NIM11PW0NIMl1bQ0BASF0xW0NIMl1bQ0BIXTFjKFtjSF1uMiluKGMyMylbY0hdW2NIXVtjSF1jM1tDSDNd

>  <s_epik_cmdline>  (55) 
J2VwaWtfcHl0aG9uJywgJy1waHQnLCAnMi4wJywgJy1waCcsICc3LjAnLCAnLXRuJywgJzgnLCAnLW1hJywgJzIwMCcsICctaW1hZScsICc8aW5maWxlLm1hZT4nLCAnLW9tYWUnLCAnPG91dGZpbGUubWFlPic=

>  <r_epik_Ionization_Penalty>  (55) 
0.229556

>  <r_epik_Ionization_Penalty_Charging>  (55) 
0

>  <r_epik_Ionization_Penalty_Neutral>  (55) 
0.229556

>  <r_epik_State_Penalty>  (55) 
0.220165

>  <r_epik_Charging_Adjusted_Penalty>  (55) 
0.220165

>  <i_epik_Tot_Q>  (55) 
1

>  <i_epik_Tot_abs_Q>  (55) 
1

>  <s_lp_Force_Field>  (55) 
OPLS3e

>  <r_lp_Energy>  (55) 
22.7048

>  <b_lp_Chiralities_Consistent>  (55) 
1

>  <s_lp_Variant>  (55) 
13:0-1

>  <s_i_glide_gridfile>  (55) 
pfpi4k_grid

>  <i_i_glide_lignum>  (55) 
22

>  <i_i_glide_rotatable_bonds>  (55) 
3

>  <r_i_docking_score>  (55) 
-2.72746

>  <r_i_glide_ligand_efficiency>  (55) 
-0.170466

>  <r_i_glide_ligand_efficiency_sa>  (55) 
-0.429547

>  <r_i_glide_ligand_efficiency_ln>  (55) 
-0.722967

>  <r_i_glide_gscore>  (55) 
-2.72746

>  <r_i_glide_lipo>  (55) 
0

>  <r_i_glide_hbond>  (55) 
-0.140298

>  <r_i_glide_metal>  (55) 
-0

>  <r_i_glide_rewards>  (55) 
-1.92759

>  <r_i_glide_evdw>  (55) 
-14.6866

>  <r_i_glide_ecoul>  (55) 
-3.82538

>  <r_i_glide_erotb>  (55) 
0.71074

>  <r_i_glide_esite>  (55) 
-0.0621714

>  <r_i_glide_emodel>  (55) 
-23.6517

>  <r_i_glide_energy>  (55) 
-18.512

>  <r_i_glide_einternal>  (55) 
0.197075

>  <r_i_glide_intrahb_reward>  (55) 
-0

>  <i_i_glide_confnum>  (55) 
6

>  <i_i_glide_posenum>  (55) 
4

>  <r_i_glide_eff_state_penalty>  (55) 
0

>  <ligand_id>  (55) 
13

>  <original_smiles>  (55) 
COCC1CC1c1cnc2c(C)cccn12

>  <smiles>  (55) 
[H]c1c([H])c([H])n2c(C3([H])C([H])([H])C3([H])C([H])([H])OC([H])([H])[H])c([H])[n+]([H])c2c1C([H])([H])[H]

$$$$
13:1:0
     RDKit          3D

 32 34  0  0  1  0  0  0  0  0999 V2000
  -11.1362   -2.5667   -6.9578 C   0  0  0  0  0  0  0  0  0  0  0  0
  -10.3220   -3.6453   -7.3457 O   0  0  0  0  0  0  0  0  0  0  0  0
   -9.0813   -3.6796   -6.6527 C   0  0  0  0  0  0  0  0  0  0  0  0
   -8.1947   -4.6876   -7.3416 C   0  0  2  0  0  0  0  0  0  0  0  0
   -8.5519   -5.2186   -8.7298 C   0  0  0  0  0  0  0  0  0  0  0  0
   -8.6567   -6.1170   -7.5388 C   0  0  1  0  0  0  0  0  0  0  0  0
   -7.7177   -7.2593   -7.4103 C   0  0  0  0  0  0  0  0  0  0  0  0
   -7.4950   -8.3131   -8.2486 C   0  0  0  0  0  0  0  0  0  0  0  0
   -6.5067   -9.1665   -7.7536 N   0  0  0  0  0  0  0  0  0  0  0  0
   -6.1149   -8.6108   -6.6164 C   0  0  0  0  0  0  0  0  0  0  0  0
   -5.1314   -8.9917   -5.6537 C   0  0  0  0  0  0  0  0  0  0  0  0
   -4.3345  -10.2628   -5.8075 C   0  0  0  0  0  0  0  0  0  0  0  0
   -4.9324   -8.1996   -4.5479 C   0  0  0  0  0  0  0  0  0  0  0  0
   -5.7090   -7.0354   -4.3379 C   0  0  0  0  0  0  0  0  0  0  0  0
   -6.6779   -6.6763   -5.2320 C   0  0  0  0  0  0  0  0  0  0  0  0
   -6.8528   -7.4312   -6.3541 N   0  0  0  0  0  0  0  0  0  0  0  0
  -12.0839   -2.5755   -7.4916 H   0  0  0  0  0  0  0  0  0  0  0  0
  -10.6581   -1.5951   -7.1078 H   0  0  0  0  0  0  0  0  0  0  0  0
  -11.3704   -2.7115   -5.9215 H   0  0  0  0  0  0  0  0  0  0  0  0
   -8.5971   -2.7042   -6.6816 H   0  0  0  0  0  0  0  0  0  0  0  0
   -9.1971   -3.9509   -5.5978 H   0  0  0  0  0  0  0  0  0  0  0  0
   -7.1343   -4.5810   -7.0868 H   0  0  0  0  0  0  0  0  0  0  0  0
   -9.5072   -4.9690   -9.1625 H   0  0  0  0  0  0  0  0  0  0  0  0
   -7.7561   -5.4246   -9.4455 H   0  0  0  0  0  0  0  0  0  0  0  0
   -9.6509   -6.3798   -7.1713 H   0  0  0  0  0  0  0  0  0  0  0  0
   -7.9594   -8.5278   -9.1916 H   0  0  0  0  0  0  0  0  0  0  0  0
   -3.6294  -10.4138   -4.9885 H   0  0  0  0  0  0  0  0  0  0  0  0
   -3.7604  -10.2198   -6.7270 H   0  0  0  0  0  0  0  0  0  0  0  0
   -4.9919  -11.1279   -5.8672 H   0  0  0  0  0  0  0  0  0  0  0  0
   -4.2233   -8.5629   -3.8035 H   0  0  0  0  0  0  0  0  0  0  0  0
   -5.6237   -6.4288   -3.4435 H   0  0  0  0  0  0  0  0  0  0  0  0
   -7.3241   -5.8158   -5.0732 H   0  0  0  0  0  0  0  0  0  0  0  0
  1  2  1  0
  1 17  1  0
  1 18  1  0
  1 19  1  0
  2  3  1  0
  3  4  1  0
  3 20  1  0
  3 21  1  0
  4  6  1  0
  4  5  1  0
  4 22  1  6
  5  6  1  0
  5 23  1  0
  5 24  1  0
  6  7  1  0
  6 25  1  1
  7 16  1  0
  7  8  2  0
  8  9  1  0
  8 26  1  0
  9 10  2  0
 10 16  1  0
 10 11  1  0
 11 12  1  0
 11 13  2  0
 12 27  1  0
 12 28  1  0
 12 29  1  0
 13 14  1  0
 13 30  1  0
 14 15  2  0
 14 31  1  0
 15 16  1  0
 15 32  1  0
M  END
>  <i_m_ct_stereo_status>  (56) 
1

>  <s_m_source_file>  (56) 
/var/tmp/pbs.5076255.sched01/tmpzk3r62u5/0tgg_cfwk.sdf

>  <i_m_source_file_index>  (56) 
23

>  <i_lp_mmshare_version>  (56) 
48012

>  <i_f3d_flags>  (56) 
0

>  <s_epik_input>  (56) 
W0NIM11PW0NIMl1bQ0BASF0xW0NIMl1bQ0BIXTFjKFtjSF1uMiluKGMyMylbY0hdW2NIXVtjSF1jM1tDSDNd

>  <s_epik_cmdline>  (56) 
J2VwaWtfcHl0aG9uJywgJy1waHQnLCAnMi4wJywgJy1waCcsICc3LjAnLCAnLXRuJywgJzgnLCAnLW1hJywgJzIwMCcsICctaW1hZScsICc8aW5maWxlLm1hZT4nLCAnLW9tYWUnLCAnPG91dGZpbGUubWFlPic=

>  <r_epik_Ionization_Penalty>  (56) 
0.672861

>  <r_epik_Ionization_Penalty_Charging>  (56) 
0.672861

>  <r_epik_Ionization_Penalty_Neutral>  (56) 
2.01831e-11

>  <r_epik_State_Penalty>  (56) 
0.693208

>  <r_epik_Charging_Adjusted_Penalty>  (56) 
1.36607

>  <i_epik_Tot_Q>  (56) 
0

>  <i_epik_Tot_abs_Q>  (56) 
0

>  <s_lp_Force_Field>  (56) 
OPLS3e

>  <r_lp_Energy>  (56) 
19.0376

>  <b_lp_Chiralities_Consistent>  (56) 
1

>  <s_lp_Variant>  (56) 
13:0-2

>  <s_i_glide_gridfile>  (56) 
pfpi4k_grid

>  <i_i_glide_lignum>  (56) 
23

>  <i_i_glide_rotatable_bonds>  (56) 
3

>  <r_i_docking_score>  (56) 
-5.34771

>  <r_i_glide_ligand_efficiency>  (56) 
-0.334232

>  <r_i_glide_ligand_efficiency_sa>  (56) 
-0.842212

>  <r_i_glide_ligand_efficiency_ln>  (56) 
-1.41752

>  <r_i_glide_gscore>  (56) 
-5.34771

>  <r_i_glide_lipo>  (56) 
-2.25112

>  <r_i_glide_hbond>  (56) 
-0.0387413

>  <r_i_glide_metal>  (56) 
-0

>  <r_i_glide_rewards>  (56) 
-2.71579

>  <r_i_glide_evdw>  (56) 
-15.4116

>  <r_i_glide_ecoul>  (56) 
-1.91875

>  <r_i_glide_erotb>  (56) 
0.716327

>  <r_i_glide_esite>  (56) 
0

>  <r_i_glide_emodel>  (56) 
-24.1929

>  <r_i_glide_energy>  (56) 
-17.3304

>  <r_i_glide_einternal>  (56) 
1.74895

>  <r_i_glide_intrahb_reward>  (56) 
-0

>  <i_i_glide_confnum>  (56) 
1

>  <i_i_glide_posenum>  (56) 
19

>  <r_i_glide_eff_state_penalty>  (56) 
0

>  <ligand_id>  (56) 
13

>  <original_smiles>  (56) 
COCC1CC1c1cnc2c(C)cccn12

>  <smiles>  (56) 
[H]c1nc2c(C([H])([H])[H])c([H])c([H])c([H])n2c1C1([H])C([H])([H])C1([H])C([H])([H])OC([H])([H])[H]

$$$$
13:1:1
     RDKit          3D

 32 34  0  0  1  0  0  0  0  0999 V2000
  -10.3470   -2.7502   -6.6882 C   0  0  0  0  0  0  0  0  0  0  0  0
  -10.0004   -3.8876   -7.4407 O   0  0  0  0  0  0  0  0  0  0  0  0
   -8.6654   -3.8896   -7.9213 C   0  0  0  0  0  0  0  0  0  0  0  0
   -8.3658   -5.2574   -8.4953 C   0  0  2  0  0  0  0  0  0  0  0  0
   -9.4916   -6.1502   -8.9952 C   0  0  0  0  0  0  0  0  0  0  0  0
   -8.7624   -6.4876   -7.7213 C   0  0  1  0  0  0  0  0  0  0  0  0
   -7.8678   -7.6872   -7.6608 C   0  0  0  0  0  0  0  0  0  0  0  0
   -7.8815   -8.8224   -8.4247 C   0  0  0  0  0  0  0  0  0  0  0  0
   -6.8534   -9.6880   -8.0677 N   0  0  0  0  0  0  0  0  0  0  0  0
   -6.2160   -9.0920   -7.0632 C   0  0  0  0  0  0  0  0  0  0  0  0
   -5.0860   -9.4786   -6.2837 C   0  0  0  0  0  0  0  0  0  0  0  0
   -4.4008  -10.8041   -6.5564 C   0  0  0  0  0  0  0  0  0  0  0  0
   -4.6161   -8.6507   -5.2891 C   0  0  0  0  0  0  0  0  0  0  0  0
   -5.2535   -7.4116   -5.0433 C   0  0  0  0  0  0  0  0  0  0  0  0
   -6.3491   -7.0262   -5.7799 C   0  0  0  0  0  0  0  0  0  0  0  0
   -6.8156   -7.8417   -6.7690 N   0  0  0  0  0  0  0  0  0  0  0  0
  -11.3818   -2.8487   -6.3546 H   0  0  0  0  0  0  0  0  0  0  0  0
  -10.2821   -1.8518   -7.2916 H   0  0  0  0  0  0  0  0  0  0  0  0
   -9.7152   -2.6515   -5.8053 H   0  0  0  0  0  0  0  0  0  0  0  0
   -8.5460   -3.1565   -8.7172 H   0  0  0  0  0  0  0  0  0  0  0  0
   -7.9511   -3.6574   -7.1275 H   0  0  0  0  0  0  0  0  0  0  0  0
   -7.4158   -5.3286   -9.0219 H   0  0  0  0  0  0  0  0  0  0  0  0
  -10.5123   -5.7834   -8.9168 H   0  0  0  0  0  0  0  0  0  0  0  0
   -9.2927   -6.7718   -9.8674 H   0  0  0  0  0  0  0  0  0  0  0  0
   -9.2368   -6.2829   -6.7649 H   0  0  0  0  0  0  0  0  0  0  0  0
   -8.5541   -9.0727   -9.2323 H   0  0  0  0  0  0  0  0  0  0  0  0
   -3.5617  -10.9717   -5.8790 H   0  0  0  0  0  0  0  0  0  0  0  0
   -4.0220  -10.8321   -7.5787 H   0  0  0  0  0  0  0  0  0  0  0  0
   -5.1064  -11.6265   -6.4333 H   0  0  0  0  0  0  0  0  0  0  0  0
   -3.7618   -8.9564   -4.6878 H   0  0  0  0  0  0  0  0  0  0  0  0
   -4.8986   -6.7532   -4.2556 H   0  0  0  0  0  0  0  0  0  0  0  0
   -6.8714   -6.0880   -5.6252 H   0  0  0  0  0  0  0  0  0  0  0  0
  1  2  1  0
  1 17  1  0
  1 18  1  0
  1 19  1  0
  2  3  1  0
  3  4  1  0
  3 20  1  0
  3 21  1  0
  4  6  1  0
  4  5  1  0
  4 22  1  6
  5  6  1  0
  5 23  1  0
  5 24  1  0
  6  7  1  0
  6 25  1  1
  7 16  1  0
  7  8  2  0
  8  9  1  0
  8 26  1  0
  9 10  2  0
 10 16  1  0
 10 11  1  0
 11 12  1  0
 11 13  2  0
 12 27  1  0
 12 28  1  0
 12 29  1  0
 13 14  1  0
 13 30  1  0
 14 15  2  0
 14 31  1  0
 15 16  1  0
 15 32  1  0
M  END
>  <i_m_ct_stereo_status>  (57) 
1

>  <s_m_source_file>  (57) 
/var/tmp/pbs.5076255.sched01/tmpzk3r62u5/0tgg_cfwk.sdf

>  <i_m_source_file_index>  (57) 
23

>  <i_lp_mmshare_version>  (57) 
48012

>  <i_f3d_flags>  (57) 
0

>  <s_epik_input>  (57) 
W0NIM11PW0NIMl1bQ0BASF0xW0NIMl1bQ0BIXTFjKFtjSF1uMiluKGMyMylbY0hdW2NIXVtjSF1jM1tDSDNd

>  <s_epik_cmdline>  (57) 
J2VwaWtfcHl0aG9uJywgJy1waHQnLCAnMi4wJywgJy1waCcsICc3LjAnLCAnLXRuJywgJzgnLCAnLW1hJywgJzIwMCcsICctaW1hZScsICc8aW5maWxlLm1hZT4nLCAnLW9tYWUnLCAnPG91dGZpbGUubWFlPic=

>  <r_epik_Ionization_Penalty>  (57) 
0.672861

>  <r_epik_Ionization_Penalty_Charging>  (57) 
0.672861

>  <r_epik_Ionization_Penalty_Neutral>  (57) 
2.01831e-11

>  <r_epik_State_Penalty>  (57) 
0.693208

>  <r_epik_Charging_Adjusted_Penalty>  (57) 
1.36607

>  <i_epik_Tot_Q>  (57) 
0

>  <i_epik_Tot_abs_Q>  (57) 
0

>  <s_lp_Force_Field>  (57) 
OPLS3e

>  <r_lp_Energy>  (57) 
19.0376

>  <b_lp_Chiralities_Consistent>  (57) 
1

>  <s_lp_Variant>  (57) 
13:0-2

>  <s_i_glide_gridfile>  (57) 
pfpi4k_grid

>  <i_i_glide_lignum>  (57) 
23

>  <i_i_glide_rotatable_bonds>  (57) 
3

>  <r_i_docking_score>  (57) 
-4.67532

>  <r_i_glide_ligand_efficiency>  (57) 
-0.292208

>  <r_i_glide_ligand_efficiency_sa>  (57) 
-0.736317

>  <r_i_glide_ligand_efficiency_ln>  (57) 
-1.23929

>  <r_i_glide_gscore>  (57) 
-4.67532

>  <r_i_glide_lipo>  (57) 
-1.5562

>  <r_i_glide_hbond>  (57) 
-0.00654136

>  <r_i_glide_metal>  (57) 
-0

>  <r_i_glide_rewards>  (57) 
-2.55552

>  <r_i_glide_evdw>  (57) 
-23.0162

>  <r_i_glide_ecoul>  (57) 
-0.817143

>  <r_i_glide_erotb>  (57) 
0.716327

>  <r_i_glide_esite>  (57) 
0

>  <r_i_glide_emodel>  (57) 
-30.4849

>  <r_i_glide_energy>  (57) 
-23.8333

>  <r_i_glide_einternal>  (57) 
0.368356

>  <r_i_glide_intrahb_reward>  (57) 
-0

>  <i_i_glide_confnum>  (57) 
1

>  <i_i_glide_posenum>  (57) 
8

>  <r_i_glide_eff_state_penalty>  (57) 
0

>  <ligand_id>  (57) 
13

>  <original_smiles>  (57) 
COCC1CC1c1cnc2c(C)cccn12

>  <smiles>  (57) 
[H]c1nc2c(C([H])([H])[H])c([H])c([H])c([H])n2c1C1([H])C([H])([H])C1([H])C([H])([H])OC([H])([H])[H]

$$$$
13:1:2
     RDKit          3D

 32 34  0  0  1  0  0  0  0  0999 V2000
    2.1366    0.3384    1.9040 C   0  0  0  0  0  0  0  0  0  0  0  0
    1.0358    0.6348    2.7473 O   0  0  0  0  0  0  0  0  0  0  0  0
    0.3300    1.7882    2.3243 C   0  0  0  0  0  0  0  0  0  0  0  0
   -0.7545    2.0971    3.3304 C   0  0  2  0  0  0  0  0  0  0  0  0
   -1.2559    3.5182    3.5069 C   0  0  0  0  0  0  0  0  0  0  0  0
   -0.4356    2.8692    4.5928 C   0  0  1  0  0  0  0  0  0  0  0  0
   -1.0663    2.5071    5.8969 C   0  0  0  0  0  0  0  0  0  0  0  0
   -1.7025    1.3572    6.2777 C   0  0  0  0  0  0  0  0  0  0  0  0
   -2.1787    1.4496    7.5796 N   0  0  0  0  0  0  0  0  0  0  0  0
   -1.8272    2.6640    8.0092 C   0  0  0  0  0  0  0  0  0  0  0  0
   -2.0273    3.3499    9.2421 C   0  0  0  0  0  0  0  0  0  0  0  0
   -2.7670    2.6643   10.3743 C   0  0  0  0  0  0  0  0  0  0  0  0
   -1.5505    4.6293    9.4117 C   0  0  0  0  0  0  0  0  0  0  0  0
   -0.8533    5.2740    8.3631 C   0  0  0  0  0  0  0  0  0  0  0  0
   -0.6451    4.6265    7.1670 C   0  0  0  0  0  0  0  0  0  0  0  0
   -1.1220    3.3584    6.9905 N   0  0  0  0  0  0  0  0  0  0  0  0
    2.6420   -0.5569    2.2688 H   0  0  0  0  0  0  0  0  0  0  0  0
    2.8629    1.1541    1.8967 H   0  0  0  0  0  0  0  0  0  0  0  0
    1.8128    0.1519    0.8795 H   0  0  0  0  0  0  0  0  0  0  0  0
    1.0096    2.6382    2.2487 H   0  0  0  0  0  0  0  0  0  0  0  0
   -0.1222    1.6317    1.3434 H   0  0  0  0  0  0  0  0  0  0  0  0
   -1.4957    1.3046    3.4232 H   0  0  0  0  0  0  0  0  0  0  0  0
   -0.7869    4.2846    2.8928 H   0  0  0  0  0  0  0  0  0  0  0  0
   -2.3165    3.6625    3.7096 H   0  0  0  0  0  0  0  0  0  0  0  0
    0.5948    3.1963    4.7291 H   0  0  0  0  0  0  0  0  0  0  0  0
   -1.8710    0.4648    5.6901 H   0  0  0  0  0  0  0  0  0  0  0  0
   -2.8505    3.3063   11.2531 H   0  0  0  0  0  0  0  0  0  0  0  0
   -2.2416    1.7585   10.6797 H   0  0  0  0  0  0  0  0  0  0  0  0
   -3.7759    2.3990   10.0596 H   0  0  0  0  0  0  0  0  0  0  0  0
   -1.7000    5.1434   10.3608 H   0  0  0  0  0  0  0  0  0  0  0  0
   -0.4697    6.2835    8.5023 H   0  0  0  0  0  0  0  0  0  0  0  0
   -0.1172    5.0779    6.3317 H   0  0  0  0  0  0  0  0  0  0  0  0
  1  2  1  0
  1 17  1  0
  1 18  1  0
  1 19  1  0
  2  3  1  0
  3  4  1  0
  3 20  1  0
  3 21  1  0
  4  6  1  0
  4  5  1  0
  4 22  1  1
  5  6  1  0
  5 23  1  0
  5 24  1  0
  6  7  1  0
  6 25  1  1
  7 16  1  0
  7  8  2  0
  8  9  1  0
  8 26  1  0
  9 10  2  0
 10 16  1  0
 10 11  1  0
 11 12  1  0
 11 13  2  0
 12 27  1  0
 12 28  1  0
 12 29  1  0
 13 14  1  0
 13 30  1  0
 14 15  2  0
 14 31  1  0
 15 16  1  0
 15 32  1  0
M  END
>  <i_m_ct_stereo_status>  (58) 
1

>  <s_m_source_file>  (58) 
/var/tmp/pbs.5076255.sched01/tmpzk3r62u5/0tgg_cfwk.sdf

>  <i_m_source_file_index>  (58) 
23

>  <i_lp_mmshare_version>  (58) 
48012

>  <i_f3d_flags>  (58) 
0

>  <s_epik_input>  (58) 
W0NIM11PW0NIMl1bQ0BASF0xW0NIMl1bQ0BIXTFjKFtjSF1uMiluKGMyMylbY0hdW2NIXVtjSF1jM1tDSDNd

>  <s_epik_cmdline>  (58) 
J2VwaWtfcHl0aG9uJywgJy1waHQnLCAnMi4wJywgJy1waCcsICc3LjAnLCAnLXRuJywgJzgnLCAnLW1hJywgJzIwMCcsICctaW1hZScsICc8aW5maWxlLm1hZT4nLCAnLW9tYWUnLCAnPG91dGZpbGUubWFlPic=

>  <r_epik_Ionization_Penalty>  (58) 
0.672861

>  <r_epik_Ionization_Penalty_Charging>  (58) 
0.672861

>  <r_epik_Ionization_Penalty_Neutral>  (58) 
2.01831e-11

>  <r_epik_State_Penalty>  (58) 
0.693208

>  <r_epik_Charging_Adjusted_Penalty>  (58) 
1.36607

>  <i_epik_Tot_Q>  (58) 
0

>  <i_epik_Tot_abs_Q>  (58) 
0

>  <s_lp_Force_Field>  (58) 
OPLS3e

>  <r_lp_Energy>  (58) 
19.0376

>  <b_lp_Chiralities_Consistent>  (58) 
1

>  <s_lp_Variant>  (58) 
13:0-2

>  <s_i_glide_gridfile>  (58) 
pfpi4k_grid

>  <i_i_glide_lignum>  (58) 
23

>  <i_i_glide_rotatable_bonds>  (58) 
3

>  <r_i_docking_score>  (58) 
-2.72996

>  <r_i_glide_ligand_efficiency>  (58) 
-0.170623

>  <r_i_glide_ligand_efficiency_sa>  (58) 
-0.429942

>  <r_i_glide_ligand_efficiency_ln>  (58) 
-0.723632

>  <r_i_glide_gscore>  (58) 
-2.72996

>  <r_i_glide_lipo>  (58) 
0

>  <r_i_glide_hbond>  (58) 
-0.120241

>  <r_i_glide_metal>  (58) 
-0

>  <r_i_glide_rewards>  (58) 
-1.95313

>  <r_i_glide_evdw>  (58) 
-15.9276

>  <r_i_glide_ecoul>  (58) 
-3.80326

>  <r_i_glide_erotb>  (58) 
0.716327

>  <r_i_glide_esite>  (58) 
-0.00604674

>  <r_i_glide_emodel>  (58) 
-23.7222

>  <r_i_glide_energy>  (58) 
-19.7309

>  <r_i_glide_einternal>  (58) 
0.25438

>  <r_i_glide_intrahb_reward>  (58) 
-0

>  <i_i_glide_confnum>  (58) 
6

>  <i_i_glide_posenum>  (58) 
1

>  <r_i_glide_eff_state_penalty>  (58) 
0

>  <ligand_id>  (58) 
13

>  <original_smiles>  (58) 
COCC1CC1c1cnc2c(C)cccn12

>  <smiles>  (58) 
[H]c1nc2c(C([H])([H])[H])c([H])c([H])c([H])n2c1C1([H])C([H])([H])C1([H])C([H])([H])OC([H])([H])[H]

$$$$
14:0:0
     RDKit          3D

 39 42  0  0  1  0  0  0  0  0999 V2000
    2.9027   -2.1597    2.8096 C   0  0  0  0  0  0  0  0  0  0  0  0
    4.4063   -2.3592    2.5452 C   0  0  2  0  0  0  0  0  0  0  0  0
    5.1642   -1.0092    2.4425 C   0  0  0  0  0  0  0  0  0  0  0  0
    5.4202   -0.4164    3.4892 O   0  0  0  0  0  0  0  0  0  0  0  0
    5.4706   -0.4533    1.2380 O   0  0  0  0  0  0  0  0  0  0  0  0
    5.2995   -0.9857   -0.0662 C   0  0  2  0  0  0  0  0  0  0  0  0
    3.8245   -1.1359   -0.4312 C   0  0  0  0  0  0  0  0  0  0  0  0
    3.5466   -2.6467   -0.4627 C   0  0  1  0  0  0  0  0  0  0  0  0
    3.1409   -3.0565   -1.8878 C   0  0  0  0  0  0  0  0  0  0  0  0
    4.8424   -3.3080    0.0814 C   0  0  1  0  0  0  0  0  0  0  0  0
    5.0891   -4.5200   -0.6191 O   0  0  0  0  0  0  0  0  0  0  0  0
    5.7924   -5.5374    0.2696 O   0  0  0  0  0  0  0  0  0  0  0  0
    6.6898   -4.8933    1.1607 C   0  0  1  0  0  0  0  0  0  0  0  0
    7.3519   -6.0508    1.9256 C   0  0  0  0  0  0  0  0  0  0  0  0
    7.7648   -4.0199    0.4741 C   0  0  0  0  0  0  0  0  0  0  0  0
    7.3492   -2.5476    0.2939 C   0  0  0  0  0  0  0  0  0  0  0  0
    5.9500   -2.3444   -0.3191 C   0  0  2  0  0  0  0  0  0  0  0  0
    5.9968   -4.0950    2.1050 O   0  0  0  0  0  0  0  0  0  0  0  0
    4.7748   -3.5643    1.6166 C   0  0  1  0  0  0  0  0  0  0  0  0
    2.7633   -1.6194    3.7401 H   0  0  0  0  0  0  0  0  0  0  0  0
    2.4086   -3.1192    2.9205 H   0  0  0  0  0  0  0  0  0  0  0  0
    2.3998   -1.6013    2.0306 H   0  0  0  0  0  0  0  0  0  0  0  0
    4.7709   -2.7195    3.5156 H   0  0  0  0  0  0  0  0  0  0  0  0
    5.7437   -0.2587   -0.7447 H   0  0  0  0  0  0  0  0  0  0  0  0
    3.1763   -0.5972    0.2559 H   0  0  0  0  0  0  0  0  0  0  0  0
    3.6462   -0.7027   -1.4140 H   0  0  0  0  0  0  0  0  0  0  0  0
    2.6990   -2.8907    0.1809 H   0  0  0  0  0  0  0  0  0  0  0  0
    3.9350   -2.8976   -2.6155 H   0  0  0  0  0  0  0  0  0  0  0  0
    2.2682   -2.4928   -2.2126 H   0  0  0  0  0  0  0  0  0  0  0  0
    2.8593   -4.1014   -1.8898 H   0  0  0  0  0  0  0  0  0  0  0  0
    6.5881   -6.6910    2.3643 H   0  0  0  0  0  0  0  0  0  0  0  0
    7.9914   -5.6939    2.7361 H   0  0  0  0  0  0  0  0  0  0  0  0
    7.9617   -6.6707    1.2665 H   0  0  0  0  0  0  0  0  0  0  0  0
    8.6599   -4.0031    1.1029 H   0  0  0  0  0  0  0  0  0  0  0  0
    8.0897   -4.4540   -0.4686 H   0  0  0  0  0  0  0  0  0  0  0  0
    7.3981   -2.0745    1.2816 H   0  0  0  0  0  0  0  0  0  0  0  0
    8.1039   -2.0196   -0.2933 H   0  0  0  0  0  0  0  0  0  0  0  0
    6.0691   -2.4612   -1.4004 H   0  0  0  0  0  0  0  0  0  0  0  0
    4.0250   -4.3328    1.7740 H   0  0  0  0  0  0  0  0  0  0  0  0
  1  2  1  0
  1 20  1  0
  1 21  1  0
  1 22  1  0
  2 19  1  0
  2  3  1  0
  2 23  1  1
  3  4  2  0
  3  5  1  0
  5  6  1  0
  6 17  1  0
  6  7  1  0
  6 24  1  6
  7  8  1  0
  7 25  1  0
  7 26  1  0
  8  9  1  0
  8 10  1  0
  8 27  1  1
  9 28  1  0
  9 29  1  0
  9 30  1  0
 10 17  1  0
 10 19  1  0
 10 11  1  6
 11 12  1  0
 12 13  1  0
 13 14  1  1
 13 15  1  0
 13 18  1  0
 14 31  1  0
 14 32  1  0
 14 33  1  0
 15 16  1  0
 15 34  1  0
 15 35  1  0
 16 17  1  0
 16 36  1  0
 16 37  1  0
 17 38  1  6
 18 19  1  0
 19 39  1  6
M  END
>  <i_m_ct_stereo_status>  (59) 
1

>  <s_m_source_file>  (59) 
/var/tmp/pbs.5076255.sched01/tmpzk3r62u5/0tgg_cfwk.sdf

>  <i_m_source_file_index>  (59) 
24

>  <i_lp_mmshare_version>  (59) 
48012

>  <i_f3d_flags>  (59) 
0

>  <s_epik_input>  (59) 
TzFPW0NAQF0oW0NIM10pKFtDSDJdW0NIMl0yKU9bQ0BIXTNbQ0BIXShbQ0gzXSlDKD1PKU9bQ0BASF0oW0NAQEhdMltDQEBdMTM0KVtDSDJdW0NASF00W0NIM10=

>  <s_epik_cmdline>  (59) 
J2VwaWtfcHl0aG9uJywgJy1waHQnLCAnMi4wJywgJy1waCcsICc3LjAnLCAnLXRuJywgJzgnLCAnLW1hJywgJzIwMCcsICctaW1hZScsICc8aW5maWxlLm1hZT4nLCAnLW9tYWUnLCAnPG91dGZpbGUubWFlPic=

>  <r_lp_tautomer_probability>  (59) 
1

>  <r_epik_Ionization_Penalty>  (59) 
4.07831e-15

>  <r_epik_Ionization_Penalty_Charging>  (59) 
0

>  <r_epik_Ionization_Penalty_Neutral>  (59) 
4.07831e-15

>  <r_epik_State_Penalty>  (59) 
-0

>  <r_epik_Charging_Adjusted_Penalty>  (59) 
0

>  <i_epik_Tot_Q>  (59) 
0

>  <i_epik_Tot_abs_Q>  (59) 
0

>  <s_epik_Chemistry_Notes>  (59) 
This compound has an ester and may undergo hydrolysis at high or low pH.

>  <s_lp_Force_Field>  (59) 
OPLS3e

>  <r_lp_Energy>  (59) 
35.1628

>  <b_lp_Chiralities_Consistent>  (59) 
1

>  <s_lp_Variant>  (59) 
14:0-1

>  <s_i_glide_gridfile>  (59) 
pfpi4k_grid

>  <i_i_glide_lignum>  (59) 
24

>  <i_i_glide_rotatable_bonds>  (59) 
0

>  <r_i_docking_score>  (59) 
-3.54099

>  <r_i_glide_ligand_efficiency>  (59) 
-0.186368

>  <r_i_glide_ligand_efficiency_sa>  (59) 
-0.497305

>  <r_i_glide_ligand_efficiency_ln>  (59) 
-0.897718

>  <r_i_glide_gscore>  (59) 
-3.54099

>  <r_i_glide_lipo>  (59) 
-0.425207

>  <r_i_glide_hbond>  (59) 
-0.046681

>  <r_i_glide_metal>  (59) 
-0

>  <r_i_glide_rewards>  (59) 
-1.87619

>  <r_i_glide_evdw>  (59) 
-21.9553

>  <r_i_glide_ecoul>  (59) 
-0.63436

>  <r_i_glide_erotb>  (59) 
0

>  <r_i_glide_esite>  (59) 
0

>  <r_i_glide_emodel>  (59) 
-27.7273

>  <r_i_glide_energy>  (59) 
-22.5897

>  <r_i_glide_einternal>  (59) 
0

>  <r_i_glide_intrahb_reward>  (59) 
-0

>  <i_i_glide_confnum>  (59) 
1

>  <i_i_glide_posenum>  (59) 
19

>  <r_i_glide_eff_state_penalty>  (59) 
0

>  <ligand_id>  (59) 
14

>  <original_smiles>  (59) 
CC1C(=O)OC2CC(C)C34OOC(C)(CCC23)OC14

>  <smiles>  (59) 
[H]C([H])([H])C12OOC34C([H])(O1)C([H])(C([H])([H])[H])C(=O)OC([H])(C([H])([H])C3([H])C([H])([H])[H])C4([H])C([H])([H])C2([H])[H]

$$$$
14:0:1
     RDKit          3D

 39 42  0  0  1  0  0  0  0  0999 V2000
    3.8064   -0.2077    0.8795 C   0  0  0  0  0  0  0  0  0  0  0  0
    4.2940   -1.6339    1.1650 C   0  0  2  0  0  0  0  0  0  0  0  0
    5.8178   -1.7515    0.9272 C   0  0  0  0  0  0  0  0  0  0  0  0
    6.5574   -1.2645    1.7725 O   0  0  0  0  0  0  0  0  0  0  0  0
    6.3460   -2.3009   -0.2106 O   0  0  0  0  0  0  0  0  0  0  0  0
    5.6769   -2.9063   -1.3099 C   0  0  2  0  0  0  0  0  0  0  0  0
    4.8380   -1.8874   -2.0792 C   0  0  0  0  0  0  0  0  0  0  0  0
    3.3750   -2.2571   -1.7943 C   0  0  1  0  0  0  0  0  0  0  0  0
    2.6679   -2.6735   -3.1066 C   0  0  0  0  0  0  0  0  0  0  0  0
    3.4173   -3.3512   -0.6840 C   0  0  1  0  0  0  0  0  0  0  0  0
    2.3184   -4.2449   -0.8872 O   0  0  0  0  0  0  0  0  0  0  0  0
    1.9314   -5.0230    0.3589 O   0  0  0  0  0  0  0  0  0  0  0  0
    2.9808   -5.0749    1.3142 C   0  0  1  0  0  0  0  0  0  0  0  0
    2.3194   -5.7421    2.5263 C   0  0  0  0  0  0  0  0  0  0  0  0
    4.1844   -5.8924    0.8034 C   0  0  0  0  0  0  0  0  0  0  0  0
    5.2694   -5.0383    0.1314 C   0  0  0  0  0  0  0  0  0  0  0  0
    4.7455   -4.0656   -0.9453 C   0  0  2  0  0  0  0  0  0  0  0  0
    3.4093   -3.7864    1.7373 O   0  0  0  0  0  0  0  0  0  0  0  0
    3.3144   -2.7668    0.7455 C   0  0  1  0  0  0  0  0  0  0  0  0
    4.2897    0.5048    1.5452 H   0  0  0  0  0  0  0  0  0  0  0  0
    2.7304   -0.1170    1.0297 H   0  0  0  0  0  0  0  0  0  0  0  0
    4.0440    0.1047   -0.1328 H   0  0  0  0  0  0  0  0  0  0  0  0
    4.2362   -1.6783    2.2541 H   0  0  0  0  0  0  0  0  0  0  0  0
    6.4648   -3.2800   -1.9659 H   0  0  0  0  0  0  0  0  0  0  0  0
    5.0710   -0.8653   -1.7858 H   0  0  0  0  0  0  0  0  0  0  0  0
    5.0538   -1.9519   -3.1440 H   0  0  0  0  0  0  0  0  0  0  0  0
    2.8424   -1.3792   -1.4308 H   0  0  0  0  0  0  0  0  0  0  0  0
    3.1161   -3.5615   -3.5569 H   0  0  0  0  0  0  0  0  0  0  0  0
    2.7177   -1.8656   -3.8377 H   0  0  0  0  0  0  0  0  0  0  0  0
    1.6097   -2.8807   -2.9368 H   0  0  0  0  0  0  0  0  0  0  0  0
    1.4429   -5.1745    2.8390 H   0  0  0  0  0  0  0  0  0  0  0  0
    2.9970   -5.8019    3.3788 H   0  0  0  0  0  0  0  0  0  0  0  0
    1.9870   -6.7565    2.2890 H   0  0  0  0  0  0  0  0  0  0  0  0
    4.6597   -6.3877    1.6529 H   0  0  0  0  0  0  0  0  0  0  0  0
    3.8444   -6.6933    0.1457 H   0  0  0  0  0  0  0  0  0  0  0  0
    5.7907   -4.5010    0.9208 H   0  0  0  0  0  0  0  0  0  0  0  0
    6.0207   -5.6929   -0.3052 H   0  0  0  0  0  0  0  0  0  0  0  0
    4.6164   -4.6546   -1.8516 H   0  0  0  0  0  0  0  0  0  0  0  0
    2.3003   -2.3732    0.8449 H   0  0  0  0  0  0  0  0  0  0  0  0
  1  2  1  0
  1 20  1  0
  1 21  1  0
  1 22  1  0
  2 19  1  0
  2  3  1  0
  2 23  1  1
  3  4  2  0
  3  5  1  0
  5  6  1  0
  6 17  1  0
  6  7  1  0
  6 24  1  6
  7  8  1  0
  7 25  1  0
  7 26  1  0
  8  9  1  0
  8 10  1  0
  8 27  1  1
  9 28  1  0
  9 29  1  0
  9 30  1  0
 10 17  1  0
 10 19  1  0
 10 11  1  6
 11 12  1  0
 12 13  1  0
 13 14  1  1
 13 15  1  0
 13 18  1  0
 14 31  1  0
 14 32  1  0
 14 33  1  0
 15 16  1  0
 15 34  1  0
 15 35  1  0
 16 17  1  0
 16 36  1  0
 16 37  1  0
 17 38  1  6
 18 19  1  0
 19 39  1  6
M  END
>  <i_m_ct_stereo_status>  (60) 
1

>  <s_m_source_file>  (60) 
/var/tmp/pbs.5076255.sched01/tmpzk3r62u5/0tgg_cfwk.sdf

>  <i_m_source_file_index>  (60) 
24

>  <i_lp_mmshare_version>  (60) 
48012

>  <i_f3d_flags>  (60) 
0

>  <s_epik_input>  (60) 
TzFPW0NAQF0oW0NIM10pKFtDSDJdW0NIMl0yKU9bQ0BIXTNbQ0BIXShbQ0gzXSlDKD1PKU9bQ0BASF0oW0NAQEhdMltDQEBdMTM0KVtDSDJdW0NASF00W0NIM10=

>  <s_epik_cmdline>  (60) 
J2VwaWtfcHl0aG9uJywgJy1waHQnLCAnMi4wJywgJy1waCcsICc3LjAnLCAnLXRuJywgJzgnLCAnLW1hJywgJzIwMCcsICctaW1hZScsICc8aW5maWxlLm1hZT4nLCAnLW9tYWUnLCAnPG91dGZpbGUubWFlPic=

>  <r_lp_tautomer_probability>  (60) 
1

>  <r_epik_Ionization_Penalty>  (60) 
4.07831e-15

>  <r_epik_Ionization_Penalty_Charging>  (60) 
0

>  <r_epik_Ionization_Penalty_Neutral>  (60) 
4.07831e-15

>  <r_epik_State_Penalty>  (60) 
-0

>  <r_epik_Charging_Adjusted_Penalty>  (60) 
0

>  <i_epik_Tot_Q>  (60) 
0

>  <i_epik_Tot_abs_Q>  (60) 
0

>  <s_epik_Chemistry_Notes>  (60) 
This compound has an ester and may undergo hydrolysis at high or low pH.

>  <s_lp_Force_Field>  (60) 
OPLS3e

>  <r_lp_Energy>  (60) 
35.1628

>  <b_lp_Chiralities_Consistent>  (60) 
1

>  <s_lp_Variant>  (60) 
14:0-1

>  <s_i_glide_gridfile>  (60) 
pfpi4k_grid

>  <i_i_glide_lignum>  (60) 
24

>  <i_i_glide_rotatable_bonds>  (60) 
0

>  <r_i_docking_score>  (60) 
-3.38855

>  <r_i_glide_ligand_efficiency>  (60) 
-0.178345

>  <r_i_glide_ligand_efficiency_sa>  (60) 
-0.475896

>  <r_i_glide_ligand_efficiency_ln>  (60) 
-0.859071

>  <r_i_glide_gscore>  (60) 
-3.38855

>  <r_i_glide_lipo>  (60) 
-0.32845

>  <r_i_glide_hbond>  (60) 
-0.0643073

>  <r_i_glide_metal>  (60) 
-0

>  <r_i_glide_rewards>  (60) 
-1.73796

>  <r_i_glide_evdw>  (60) 
-22.4655

>  <r_i_glide_ecoul>  (60) 
-0.854776

>  <r_i_glide_erotb>  (60) 
0

>  <r_i_glide_esite>  (60) 
-0.00634183

>  <r_i_glide_emodel>  (60) 
-27.7205

>  <r_i_glide_energy>  (60) 
-23.3203

>  <r_i_glide_einternal>  (60) 
0

>  <r_i_glide_intrahb_reward>  (60) 
-0

>  <i_i_glide_confnum>  (60) 
2

>  <i_i_glide_posenum>  (60) 
39

>  <r_i_glide_eff_state_penalty>  (60) 
0

>  <ligand_id>  (60) 
14

>  <original_smiles>  (60) 
CC1C(=O)OC2CC(C)C34OOC(C)(CCC23)OC14

>  <smiles>  (60) 
[H]C([H])([H])C12OOC34C([H])(O1)C([H])(C([H])([H])[H])C(=O)OC([H])(C([H])([H])C3([H])C([H])([H])[H])C4([H])C([H])([H])C2([H])[H]

$$$$
14:0:2
     RDKit          3D

 39 42  0  0  1  0  0  0  0  0999 V2000
    2.8446   -0.6038    1.6427 C   0  0  0  0  0  0  0  0  0  0  0  0
    3.9663   -1.6275    1.9216 C   0  0  2  0  0  0  0  0  0  0  0  0
    5.3751   -1.0069    1.7942 C   0  0  0  0  0  0  0  0  0  0  0  0
    5.7894   -0.3367    2.7439 O   0  0  0  0  0  0  0  0  0  0  0  0
    6.1289   -1.1398    0.6516 O   0  0  0  0  0  0  0  0  0  0  0  0
    5.8630   -1.9188   -0.5100 C   0  0  2  0  0  0  0  0  0  0  0  0
    4.6533   -1.3972   -1.2846 C   0  0  0  0  0  0  0  0  0  0  0  0
    3.5453   -2.4501   -1.0933 C   0  0  1  0  0  0  0  0  0  0  0  0
    3.1743   -3.0604   -2.4617 C   0  0  0  0  0  0  0  0  0  0  0  0
    4.1067   -3.4454   -0.0293 C   0  0  1  0  0  0  0  0  0  0  0  0
    3.6572   -4.7626   -0.3334 O   0  0  0  0  0  0  0  0  0  0  0  0
    3.5335   -5.6349    0.9041 O   0  0  0  0  0  0  0  0  0  0  0  0
    4.4958   -5.2655    1.8815 C   0  0  1  0  0  0  0  0  0  0  0  0
    4.2278   -6.2551    3.0240 C   0  0  0  0  0  0  0  0  0  0  0  0
    5.9597   -5.3792    1.3888 C   0  0  0  0  0  0  0  0  0  0  0  0
    6.5193   -4.0671    0.8076 C   0  0  0  0  0  0  0  0  0  0  0  0
    5.6129   -3.4046   -0.2505 C   0  0  2  0  0  0  0  0  0  0  0  0
    4.2655   -3.9597    2.3745 O   0  0  0  0  0  0  0  0  0  0  0  0
    3.6885   -3.0750    1.4168 C   0  0  1  0  0  0  0  0  0  0  0  0
    2.9184    0.2195    2.3500 H   0  0  0  0  0  0  0  0  0  0  0  0
    1.8661   -1.0588    1.7747 H   0  0  0  0  0  0  0  0  0  0  0  0
    2.8833   -0.1804    0.6433 H   0  0  0  0  0  0  0  0  0  0  0  0
    3.8896   -1.7631    3.0023 H   0  0  0  0  0  0  0  0  0  0  0  0
    6.7478   -1.8357   -1.1441 H   0  0  0  0  0  0  0  0  0  0  0  0
    4.3572   -0.4077   -0.9455 H   0  0  0  0  0  0  0  0  0  0  0  0
    4.9071   -1.2895   -2.3402 H   0  0  0  0  0  0  0  0  0  0  0  0
    2.6331   -1.9915   -0.7123 H   0  0  0  0  0  0  0  0  0  0  0  0
    4.0155   -3.5877   -2.9184 H   0  0  0  0  0  0  0  0  0  0  0  0
    2.8474   -2.2840   -3.1532 H   0  0  0  0  0  0  0  0  0  0  0  0
    2.3507   -3.7691   -2.3612 H   0  0  0  0  0  0  0  0  0  0  0  0
    3.1762   -6.2103    3.3108 H   0  0  0  0  0  0  0  0  0  0  0  0
    4.8295   -6.0293    3.9047 H   0  0  0  0  0  0  0  0  0  0  0  0
    4.4444   -7.2819    2.7193 H   0  0  0  0  0  0  0  0  0  0  0  0
    6.6002   -5.6271    2.2407 H   0  0  0  0  0  0  0  0  0  0  0  0
    6.0760   -6.2069    0.6890 H   0  0  0  0  0  0  0  0  0  0  0  0
    6.6902   -3.3962    1.6462 H   0  0  0  0  0  0  0  0  0  0  0  0
    7.5116   -4.2412    0.3904 H   0  0  0  0  0  0  0  0  0  0  0  0
    5.7953   -3.9370   -1.1841 H   0  0  0  0  0  0  0  0  0  0  0  0
    2.6149   -3.2404    1.4784 H   0  0  0  0  0  0  0  0  0  0  0  0
  1  2  1  0
  1 20  1  0
  1 21  1  0
  1 22  1  0
  2 19  1  0
  2  3  1  0
  2 23  1  1
  3  4  2  0
  3  5  1  0
  5  6  1  0
  6 17  1  0
  6  7  1  0
  6 24  1  6
  7  8  1  0
  7 25  1  0
  7 26  1  0
  8  9  1  0
  8 10  1  0
  8 27  1  1
  9 28  1  0
  9 29  1  0
  9 30  1  0
 10 17  1  0
 10 19  1  0
 10 11  1  6
 11 12  1  0
 12 13  1  0
 13 14  1  1
 13 15  1  0
 13 18  1  0
 14 31  1  0
 14 32  1  0
 14 33  1  0
 15 16  1  0
 15 34  1  0
 15 35  1  0
 16 17  1  0
 16 36  1  0
 16 37  1  0
 17 38  1  6
 18 19  1  0
 19 39  1  6
M  END
>  <i_m_ct_stereo_status>  (61) 
1

>  <s_m_source_file>  (61) 
/var/tmp/pbs.5076255.sched01/tmpzk3r62u5/0tgg_cfwk.sdf

>  <i_m_source_file_index>  (61) 
24

>  <i_lp_mmshare_version>  (61) 
48012

>  <i_f3d_flags>  (61) 
0

>  <s_epik_input>  (61) 
TzFPW0NAQF0oW0NIM10pKFtDSDJdW0NIMl0yKU9bQ0BIXTNbQ0BIXShbQ0gzXSlDKD1PKU9bQ0BASF0oW0NAQEhdMltDQEBdMTM0KVtDSDJdW0NASF00W0NIM10=

>  <s_epik_cmdline>  (61) 
J2VwaWtfcHl0aG9uJywgJy1waHQnLCAnMi4wJywgJy1waCcsICc3LjAnLCAnLXRuJywgJzgnLCAnLW1hJywgJzIwMCcsICctaW1hZScsICc8aW5maWxlLm1hZT4nLCAnLW9tYWUnLCAnPG91dGZpbGUubWFlPic=

>  <r_lp_tautomer_probability>  (61) 
1

>  <r_epik_Ionization_Penalty>  (61) 
4.07831e-15

>  <r_epik_Ionization_Penalty_Charging>  (61) 
0

>  <r_epik_Ionization_Penalty_Neutral>  (61) 
4.07831e-15

>  <r_epik_State_Penalty>  (61) 
-0

>  <r_epik_Charging_Adjusted_Penalty>  (61) 
0

>  <i_epik_Tot_Q>  (61) 
0

>  <i_epik_Tot_abs_Q>  (61) 
0

>  <s_epik_Chemistry_Notes>  (61) 
This compound has an ester and may undergo hydrolysis at high or low pH.

>  <s_lp_Force_Field>  (61) 
OPLS3e

>  <r_lp_Energy>  (61) 
35.1628

>  <b_lp_Chiralities_Consistent>  (61) 
1

>  <s_lp_Variant>  (61) 
14:0-1

>  <s_i_glide_gridfile>  (61) 
pfpi4k_grid

>  <i_i_glide_lignum>  (61) 
24

>  <i_i_glide_rotatable_bonds>  (61) 
0

>  <r_i_docking_score>  (61) 
-3.22956

>  <r_i_glide_ligand_efficiency>  (61) 
-0.169977

>  <r_i_glide_ligand_efficiency_sa>  (61) 
-0.453567

>  <r_i_glide_ligand_efficiency_ln>  (61) 
-0.818763

>  <r_i_glide_gscore>  (61) 
-3.22956

>  <r_i_glide_lipo>  (61) 
-0.266388

>  <r_i_glide_hbond>  (61) 
-0.0994864

>  <r_i_glide_metal>  (61) 
-0

>  <r_i_glide_rewards>  (61) 
-1.7639

>  <r_i_glide_evdw>  (61) 
-21.9966

>  <r_i_glide_ecoul>  (61) 
0.000275847

>  <r_i_glide_erotb>  (61) 
0

>  <r_i_glide_esite>  (61) 
0

>  <r_i_glide_emodel>  (61) 
-26.7139

>  <r_i_glide_energy>  (61) 
-21.9963

>  <r_i_glide_einternal>  (61) 
0

>  <r_i_glide_intrahb_reward>  (61) 
-0

>  <i_i_glide_confnum>  (61) 
2

>  <i_i_glide_posenum>  (61) 
23

>  <r_i_glide_eff_state_penalty>  (61) 
0

>  <ligand_id>  (61) 
14

>  <original_smiles>  (61) 
CC1C(=O)OC2CC(C)C34OOC(C)(CCC23)OC14

>  <smiles>  (61) 
[H]C([H])([H])C12OOC34C([H])(O1)C([H])(C([H])([H])[H])C(=O)OC([H])(C([H])([H])C3([H])C([H])([H])[H])C4([H])C([H])([H])C2([H])[H]

$$$$
15:0:0
     RDKit          3D

 53 57  0  0  1  0  0  0  0  0999 V2000
    3.7539   -7.3200    1.9828 C   0  0  0  0  0  0  0  0  0  0  0  0
    2.8631   -6.1785    2.5067 C   0  0  2  0  0  0  0  0  0  0  0  0
    2.2998   -5.2345    1.3958 C   0  0  0  0  0  0  0  0  0  0  0  0
    3.1979   -4.8204    0.1961 C   0  0  0  0  0  0  0  0  0  0  0  0
    3.7071   -3.3492    0.2082 C   0  0  1  0  0  0  0  0  0  0  0  0
    4.4392   -3.0333    1.4352 N   0  0  0  0  0  0  0  0  0  0  0  0
    4.7090   -1.6762    1.5934 C   0  0  0  0  0  0  0  0  0  0  0  0
    4.9695   -0.8620    0.5498 C   0  0  0  0  0  0  0  0  0  0  0  0
    4.9655   -1.4237   -0.8200 C   0  0  0  0  0  0  0  0  0  0  0  0
    5.2322   -0.7496   -1.8154 O   0  0  0  0  0  0  0  0  0  0  0  0
    4.6566   -2.9370   -0.9640 C   0  0  2  0  0  0  0  0  0  0  0  0
    4.0277   -3.1770   -2.3560 C   0  0  0  0  0  0  0  0  0  0  0  0
    5.9858   -3.7433   -0.8525 C   0  0  0  0  0  0  0  0  0  0  0  0
    6.4973   -3.9900    0.5815 C   0  0  0  0  0  0  0  0  0  0  0  0
    7.6766   -4.2947    0.7466 O   0  0  0  0  0  0  0  0  0  0  0  0
    5.5099   -3.8720    1.6910 C   0  0  0  0  0  0  0  0  0  0  0  0
    5.6297   -4.6434    2.7925 C   0  0  0  0  0  0  0  0  0  0  0  0
    4.7268   -4.7757    3.9861 C   0  0  1  0  0  0  0  0  0  0  0  0
    5.5458   -4.9714    5.2577 C   0  0  0  0  0  0  0  0  0  0  0  0
    3.3779   -4.0591    4.1008 C   0  0  2  0  0  0  0  0  0  0  0  0
    2.7908   -3.9463    5.3865 O   0  0  0  0  0  0  0  0  0  0  0  0
    2.1624   -5.1512    5.6368 C   0  0  0  0  0  0  0  0  0  0  0  0
    2.1904   -5.4208    7.1505 C   0  0  0  0  0  0  0  0  0  0  0  0
    0.7146   -5.1005    5.1054 C   0  0  0  0  0  0  0  0  0  0  0  0
    2.8715   -6.1396    4.9720 O   0  0  0  0  0  0  0  0  0  0  0  0
    3.4105   -5.5381    3.7985 C   0  0  1  0  0  0  0  0  0  0  0  0
    4.7263   -6.9644    1.6479 H   0  0  0  0  0  0  0  0  0  0  0  0
    3.2857   -7.8366    1.1429 H   0  0  0  0  0  0  0  0  0  0  0  0
    3.9335   -8.0614    2.7607 H   0  0  0  0  0  0  0  0  0  0  0  0
    1.9656   -6.6936    2.8499 H   0  0  0  0  0  0  0  0  0  0  0  0
    1.4762   -5.7899    0.9459 H   0  0  0  0  0  0  0  0  0  0  0  0
    1.8140   -4.3600    1.8263 H   0  0  0  0  0  0  0  0  0  0  0  0
    4.0112   -5.5308    0.0434 H   0  0  0  0  0  0  0  0  0  0  0  0
    2.5890   -4.9226   -0.7017 H   0  0  0  0  0  0  0  0  0  0  0  0
    2.8203   -2.7136    0.1749 H   0  0  0  0  0  0  0  0  0  0  0  0
    4.7031   -1.3438    2.6223 H   0  0  0  0  0  0  0  0  0  0  0  0
    5.1752    0.1912    0.6793 H   0  0  0  0  0  0  0  0  0  0  0  0
    3.8602   -4.2373   -2.5333 H   0  0  0  0  0  0  0  0  0  0  0  0
    4.6752   -2.8390   -3.1684 H   0  0  0  0  0  0  0  0  0  0  0  0
    3.0706   -2.6612   -2.4624 H   0  0  0  0  0  0  0  0  0  0  0  0
    5.8119   -4.7291   -1.2846 H   0  0  0  0  0  0  0  0  0  0  0  0
    6.7750   -3.2849   -1.4511 H   0  0  0  0  0  0  0  0  0  0  0  0
    6.4946   -5.2936    2.8482 H   0  0  0  0  0  0  0  0  0  0  0  0
    4.9227   -5.0077    6.1465 H   0  0  0  0  0  0  0  0  0  0  0  0
    6.2556   -4.1524    5.3854 H   0  0  0  0  0  0  0  0  0  0  0  0
    6.1056   -5.9075    5.2088 H   0  0  0  0  0  0  0  0  0  0  0  0
    2.9960   -3.3467    3.3822 H   0  0  0  0  0  0  0  0  0  0  0  0
    3.2125   -5.4489    7.5273 H   0  0  0  0  0  0  0  0  0  0  0  0
    1.7029   -6.3691    7.3754 H   0  0  0  0  0  0  0  0  0  0  0  0
    1.6583   -4.6234    7.6694 H   0  0  0  0  0  0  0  0  0  0  0  0
    0.6917   -4.8713    4.0399 H   0  0  0  0  0  0  0  0  0  0  0  0
    0.1543   -4.3316    5.6404 H   0  0  0  0  0  0  0  0  0  0  0  0
    0.2358   -6.0660    5.2698 H   0  0  0  0  0  0  0  0  0  0  0  0
  1  2  1  0
  1 27  1  0
  1 28  1  0
  1 29  1  0
  2 26  1  0
  2  3  1  0
  2 30  1  1
  3  4  1  0
  3 31  1  0
  3 32  1  0
  4  5  1  0
  4 33  1  0
  4 34  1  0
  5 11  1  0
  5  6  1  0
  5 35  1  1
  6 16  1  0
  6  7  1  0
  7  8  2  0
  7 36  1  0
  8  9  1  0
  8 37  1  0
  9 10  2  0
  9 11  1  0
 11 12  1  6
 11 13  1  0
 12 38  1  0
 12 39  1  0
 12 40  1  0
 13 14  1  0
 13 41  1  0
 13 42  1  0
 14 15  2  0
 14 16  1  0
 16 17  2  3
 17 18  1  0
 17 43  1  0
 18 26  1  0
 18 19  1  1
 18 20  1  0
 19 44  1  0
 19 45  1  0
 19 46  1  0
 20 26  1  0
 20 21  1  0
 20 47  1  6
 21 22  1  0
 22 23  1  0
 22 24  1  0
 22 25  1  0
 23 48  1  0
 23 49  1  0
 23 50  1  0
 24 51  1  0
 24 52  1  0
 24 53  1  0
 26 25  1  1
M  END
>  <i_m_ct_stereo_status>  (62) 
1

>  <s_m_source_file>  (62) 
/var/tmp/pbs.5076255.sched01/tmpzk3r62u5/0tgg_cfwk.sdf

>  <i_m_source_file_index>  (62) 
25

>  <i_lp_mmshare_version>  (62) 
48012

>  <i_f3d_flags>  (62) 
0

>  <s_epik_input>  (62) 
W0NIM11bQ0BASF0xW0NIMl1bQ0gyXVtDQEhdKFtDQF0oW0NIM10pKFtDSDJdQzI9TylDKD1PKVtDSF09W0NIXTMpTjMvQzI9W0NIXVxbQ0BAXShbQ0BdMTQ1KShbQ0gzXSlbQ0hdNE9DKE81KShbQ0gzXSlbQ0gzXQ==

>  <s_epik_cmdline>  (62) 
J2VwaWtfcHl0aG9uJywgJy1waHQnLCAnMi4wJywgJy1waCcsICc3LjAnLCAnLXRuJywgJzgnLCAnLW1hJywgJzIwMCcsICctaW1hZScsICc8aW5maWxlLm1hZT4nLCAnLW9tYWUnLCAnPG91dGZpbGUubWFlPic=

>  <r_lp_tautomer_probability>  (62) 
1

>  <r_epik_Ionization_Penalty>  (62) 
2.357e-07

>  <r_epik_Ionization_Penalty_Charging>  (62) 
9.0679e-10

>  <r_epik_Ionization_Penalty_Neutral>  (62) 
2.34793e-07

>  <r_epik_State_Penalty>  (62) 
-0

>  <r_epik_Charging_Adjusted_Penalty>  (62) 
9.0679e-10

>  <i_epik_Tot_Q>  (62) 
0

>  <i_epik_Tot_abs_Q>  (62) 
0

>  <s_epik_Chemistry_Notes>  (62) 
This compound has an imine and may undergo hydrolysis.

>  <s_lp_Force_Field>  (62) 
OPLS3e

>  <r_lp_Energy>  (62) 
65.6178

>  <b_lp_Chiralities_Consistent>  (62) 
1

>  <s_lp_Variant>  (62) 
15:0-1

>  <s_i_glide_gridfile>  (62) 
pfpi4k_grid

>  <i_i_glide_lignum>  (62) 
25

>  <i_i_glide_rotatable_bonds>  (62) 
0

>  <r_i_docking_score>  (62) 
-2.93278

>  <r_i_glide_ligand_efficiency>  (62) 
-0.112799

>  <r_i_glide_ligand_efficiency_sa>  (62) 
-0.334168

>  <r_i_glide_ligand_efficiency_ln>  (62) 
-0.688755

>  <r_i_glide_gscore>  (62) 
-2.93278

>  <r_i_glide_lipo>  (62) 
-0.323952

>  <r_i_glide_hbond>  (62) 
0

>  <r_i_glide_metal>  (62) 
-0

>  <r_i_glide_rewards>  (62) 
-1.13693

>  <r_i_glide_evdw>  (62) 
-22.7273

>  <r_i_glide_ecoul>  (62) 
-2.00092

>  <r_i_glide_erotb>  (62) 
0

>  <r_i_glide_esite>  (62) 
-0.0353974

>  <r_i_glide_emodel>  (62) 
-29.3121

>  <r_i_glide_energy>  (62) 
-24.7282

>  <r_i_glide_einternal>  (62) 
0

>  <r_i_glide_intrahb_reward>  (62) 
-0

>  <i_i_glide_confnum>  (62) 
1

>  <i_i_glide_posenum>  (62) 
9

>  <r_i_glide_eff_state_penalty>  (62) 
0

>  <ligand_id>  (62) 
15

>  <original_smiles>  (62) 
CC1CCC2N3C=CC(=O)C2(C)CC(=O)C3=CC2(C)C3OC(C)(C)OC132

>  <smiles>  (62) 
[H]C1=C([H])N2C3=C([H])C4(C([H])([H])[H])C5([H])OC(C([H])([H])[H])(C([H])([H])[H])OC54C([H])(C([H])([H])[H])C([H])([H])C([H])([H])C2([H])C(C([H])([H])[H])(C1=O)C([H])([H])C3=O

$$$$
15:0:1
     RDKit          3D

 53 57  0  0  1  0  0  0  0  0999 V2000
    4.5152   -8.2620    1.3323 C   0  0  0  0  0  0  0  0  0  0  0  0
    3.6619   -7.4342    2.3118 C   0  0  2  0  0  0  0  0  0  0  0  0
    2.8425   -6.2796    1.6481 C   0  0  0  0  0  0  0  0  0  0  0  0
    3.4819   -5.4335    0.5102 C   0  0  0  0  0  0  0  0  0  0  0  0
    3.8921   -3.9816    0.8978 C   0  0  1  0  0  0  0  0  0  0  0  0
    4.8130   -3.9557    2.0355 N   0  0  0  0  0  0  0  0  0  0  0  0
    5.0134   -2.6865    2.5676 C   0  0  0  0  0  0  0  0  0  0  0  0
    5.0302   -1.5724    1.8007 C   0  0  0  0  0  0  0  0  0  0  0  0
    4.8214   -1.6990    0.3416 C   0  0  0  0  0  0  0  0  0  0  0  0
    4.8625   -0.7276   -0.4140 O   0  0  0  0  0  0  0  0  0  0  0  0
    4.5834   -3.1332   -0.2192 C   0  0  2  0  0  0  0  0  0  0  0  0
    3.7181   -3.0301   -1.4974 C   0  0  0  0  0  0  0  0  0  0  0  0
    5.9588   -3.7796   -0.5759 C   0  0  0  0  0  0  0  0  0  0  0  0
    6.7390   -4.3715    0.6193 C   0  0  0  0  0  0  0  0  0  0  0  0
    7.9461   -4.5705    0.5003 O   0  0  0  0  0  0  0  0  0  0  0  0
    5.9636   -4.6982    1.8506 C   0  0  0  0  0  0  0  0  0  0  0  0
    6.3373   -5.7364    2.6309 C   0  0  0  0  0  0  0  0  0  0  0  0
    5.6737   -6.3207    3.8473 C   0  0  1  0  0  0  0  0  0  0  0  0
    6.7229   -6.7861    4.8534 C   0  0  0  0  0  0  0  0  0  0  0  0
    4.3258   -5.8345    4.3855 C   0  0  2  0  0  0  0  0  0  0  0  0
    3.9794   -6.1767    5.7168 O   0  0  0  0  0  0  0  0  0  0  0  0
    3.4841   -7.4675    5.6774 C   0  0  0  0  0  0  0  0  0  0  0  0
    3.8068   -8.1640    7.0075 C   0  0  0  0  0  0  0  0  0  0  0  0
    1.9652   -7.4318    5.4179 C   0  0  0  0  0  0  0  0  0  0  0  0
    4.1246   -8.1223    4.6354 O   0  0  0  0  0  0  0  0  0  0  0  0
    4.3970   -7.1451    3.6395 C   0  0  1  0  0  0  0  0  0  0  0  0
    5.3846   -7.7128    0.9758 H   0  0  0  0  0  0  0  0  0  0  0  0
    3.9337   -8.5650    0.4609 H   0  0  0  0  0  0  0  0  0  0  0  0
    4.8812   -9.1730    1.8048 H   0  0  0  0  0  0  0  0  0  0  0  0
    2.8780   -8.1306    2.6148 H   0  0  0  0  0  0  0  0  0  0  0  0
    1.9849   -6.7690    1.1839 H   0  0  0  0  0  0  0  0  0  0  0  0
    2.3860   -5.6327    2.3962 H   0  0  0  0  0  0  0  0  0  0  0  0
    4.2988   -5.9690    0.0258 H   0  0  0  0  0  0  0  0  0  0  0  0
    2.7310   -5.3435   -0.2759 H   0  0  0  0  0  0  0  0  0  0  0  0
    2.9774   -3.4729    1.2025 H   0  0  0  0  0  0  0  0  0  0  0  0
    5.1742   -2.6752    3.6359 H   0  0  0  0  0  0  0  0  0  0  0  0
    5.1930   -0.5906    2.2216 H   0  0  0  0  0  0  0  0  0  0  0  0
    3.5763   -4.0026   -1.9647 H   0  0  0  0  0  0  0  0  0  0  0  0
    4.1811   -2.3954   -2.2554 H   0  0  0  0  0  0  0  0  0  0  0  0
    2.7309   -2.6134   -1.2866 H   0  0  0  0  0  0  0  0  0  0  0  0
    5.7860   -4.6066   -1.2670 H   0  0  0  0  0  0  0  0  0  0  0  0
    6.5937   -3.0703   -1.1077 H   0  0  0  0  0  0  0  0  0  0  0  0
    7.2349   -6.2691    2.3505 H   0  0  0  0  0  0  0  0  0  0  0  0
    6.2753   -7.1546    5.7710 H   0  0  0  0  0  0  0  0  0  0  0  0
    7.3906   -5.9637    5.1158 H   0  0  0  0  0  0  0  0  0  0  0  0
    7.3218   -7.5945    4.4296 H   0  0  0  0  0  0  0  0  0  0  0  0
    3.7714   -4.9944    3.9911 H   0  0  0  0  0  0  0  0  0  0  0  0
    4.8799   -8.1827    7.1970 H   0  0  0  0  0  0  0  0  0  0  0  0
    3.4287   -9.1864    7.0018 H   0  0  0  0  0  0  0  0  0  0  0  0
    3.3274   -7.6228    7.8236 H   0  0  0  0  0  0  0  0  0  0  0  0
    1.7304   -6.9053    4.4922 H   0  0  0  0  0  0  0  0  0  0  0  0
    1.4636   -6.9265    6.2452 H   0  0  0  0  0  0  0  0  0  0  0  0
    1.5868   -8.4519    5.3481 H   0  0  0  0  0  0  0  0  0  0  0  0
  1  2  1  0
  1 27  1  0
  1 28  1  0
  1 29  1  0
  2 26  1  0
  2  3  1  0
  2 30  1  1
  3  4  1  0
  3 31  1  0
  3 32  1  0
  4  5  1  0
  4 33  1  0
  4 34  1  0
  5 11  1  0
  5  6  1  0
  5 35  1  1
  6 16  1  0
  6  7  1  0
  7  8  2  0
  7 36  1  0
  8  9  1  0
  8 37  1  0
  9 10  2  0
  9 11  1  0
 11 12  1  6
 11 13  1  0
 12 38  1  0
 12 39  1  0
 12 40  1  0
 13 14  1  0
 13 41  1  0
 13 42  1  0
 14 15  2  0
 14 16  1  0
 16 17  2  3
 17 18  1  0
 17 43  1  0
 18 26  1  0
 18 19  1  1
 18 20  1  0
 19 44  1  0
 19 45  1  0
 19 46  1  0
 20 26  1  0
 20 21  1  0
 20 47  1  6
 21 22  1  0
 22 23  1  0
 22 24  1  0
 22 25  1  0
 23 48  1  0
 23 49  1  0
 23 50  1  0
 24 51  1  0
 24 52  1  0
 24 53  1  0
 26 25  1  1
M  END
>  <i_m_ct_stereo_status>  (63) 
1

>  <s_m_source_file>  (63) 
/var/tmp/pbs.5076255.sched01/tmpzk3r62u5/0tgg_cfwk.sdf

>  <i_m_source_file_index>  (63) 
25

>  <i_lp_mmshare_version>  (63) 
48012

>  <i_f3d_flags>  (63) 
0

>  <s_epik_input>  (63) 
W0NIM11bQ0BASF0xW0NIMl1bQ0gyXVtDQEhdKFtDQF0oW0NIM10pKFtDSDJdQzI9TylDKD1PKVtDSF09W0NIXTMpTjMvQzI9W0NIXVxbQ0BAXShbQ0BdMTQ1KShbQ0gzXSlbQ0hdNE9DKE81KShbQ0gzXSlbQ0gzXQ==

>  <s_epik_cmdline>  (63) 
J2VwaWtfcHl0aG9uJywgJy1waHQnLCAnMi4wJywgJy1waCcsICc3LjAnLCAnLXRuJywgJzgnLCAnLW1hJywgJzIwMCcsICctaW1hZScsICc8aW5maWxlLm1hZT4nLCAnLW9tYWUnLCAnPG91dGZpbGUubWFlPic=

>  <r_lp_tautomer_probability>  (63) 
1

>  <r_epik_Ionization_Penalty>  (63) 
2.357e-07

>  <r_epik_Ionization_Penalty_Charging>  (63) 
9.0679e-10

>  <r_epik_Ionization_Penalty_Neutral>  (63) 
2.34793e-07

>  <r_epik_State_Penalty>  (63) 
-0

>  <r_epik_Charging_Adjusted_Penalty>  (63) 
9.0679e-10

>  <i_epik_Tot_Q>  (63) 
0

>  <i_epik_Tot_abs_Q>  (63) 
0

>  <s_epik_Chemistry_Notes>  (63) 
This compound has an imine and may undergo hydrolysis.

>  <s_lp_Force_Field>  (63) 
OPLS3e

>  <r_lp_Energy>  (63) 
65.6178

>  <b_lp_Chiralities_Consistent>  (63) 
1

>  <s_lp_Variant>  (63) 
15:0-1

>  <s_i_glide_gridfile>  (63) 
pfpi4k_grid

>  <i_i_glide_lignum>  (63) 
25

>  <i_i_glide_rotatable_bonds>  (63) 
0

>  <r_i_docking_score>  (63) 
-2.78256

>  <r_i_glide_ligand_efficiency>  (63) 
-0.107021

>  <r_i_glide_ligand_efficiency_sa>  (63) 
-0.317051

>  <r_i_glide_ligand_efficiency_ln>  (63) 
-0.653475

>  <r_i_glide_gscore>  (63) 
-2.78256

>  <r_i_glide_lipo>  (63) 
-0.302035

>  <r_i_glide_hbond>  (63) 
0

>  <r_i_glide_metal>  (63) 
-0

>  <r_i_glide_rewards>  (63) 
-1.19212

>  <r_i_glide_evdw>  (63) 
-23.0171

>  <r_i_glide_ecoul>  (63) 
-0.9164

>  <r_i_glide_erotb>  (63) 
0

>  <r_i_glide_esite>  (63) 
-8.99878e-05

>  <r_i_glide_emodel>  (63) 
-28.2973

>  <r_i_glide_energy>  (63) 
-23.9335

>  <r_i_glide_einternal>  (63) 
0

>  <r_i_glide_intrahb_reward>  (63) 
-0

>  <i_i_glide_confnum>  (63) 
1

>  <i_i_glide_posenum>  (63) 
18

>  <r_i_glide_eff_state_penalty>  (63) 
0

>  <ligand_id>  (63) 
15

>  <original_smiles>  (63) 
CC1CCC2N3C=CC(=O)C2(C)CC(=O)C3=CC2(C)C3OC(C)(C)OC132

>  <smiles>  (63) 
[H]C1=C([H])N2C3=C([H])C4(C([H])([H])[H])C5([H])OC(C([H])([H])[H])(C([H])([H])[H])OC54C([H])(C([H])([H])[H])C([H])([H])C([H])([H])C2([H])C(C([H])([H])[H])(C1=O)C([H])([H])C3=O

$$$$
15:0:2
     RDKit          3D

 53 57  0  0  1  0  0  0  0  0999 V2000
    4.4375   -6.6840    2.4377 C   0  0  0  0  0  0  0  0  0  0  0  0
    2.9522   -6.4364    2.1181 C   0  0  2  0  0  0  0  0  0  0  0  0
    2.6971   -5.3270    1.0464 C   0  0  0  0  0  0  0  0  0  0  0  0
    3.5565   -4.0305    1.0511 C   0  0  0  0  0  0  0  0  0  0  0  0
    2.8389   -2.7402    1.5487 C   0  0  1  0  0  0  0  0  0  0  0  0
    2.2812   -2.9052    2.8912 N   0  0  0  0  0  0  0  0  0  0  0  0
    1.4282   -1.8766    3.2791 C   0  0  0  0  0  0  0  0  0  0  0  0
    1.6195   -0.5953    2.8976 C   0  0  0  0  0  0  0  0  0  0  0  0
    2.7757   -0.2675    2.0347 C   0  0  0  0  0  0  0  0  0  0  0  0
    3.0188    0.8867    1.6832 O   0  0  0  0  0  0  0  0  0  0  0  0
    3.7086   -1.4419    1.6094 C   0  0  2  0  0  0  0  0  0  0  0  0
    4.3523   -1.1053    0.2422 C   0  0  0  0  0  0  0  0  0  0  0  0
    4.8327   -1.6254    2.6786 C   0  0  0  0  0  0  0  0  0  0  0  0
    4.4098   -2.4069    3.9431 C   0  0  0  0  0  0  0  0  0  0  0  0
    5.0830   -2.2954    4.9633 O   0  0  0  0  0  0  0  0  0  0  0  0
    3.2076   -3.2822    3.8456 C   0  0  0  0  0  0  0  0  0  0  0  0
    3.1375   -4.4166    4.5768 C   0  0  0  0  0  0  0  0  0  0  0  0
    2.1015   -5.5041    4.5818 C   0  0  1  0  0  0  0  0  0  0  0  0
    1.8997   -6.0473    5.9928 C   0  0  0  0  0  0  0  0  0  0  0  0
    0.9091   -5.5204    3.6263 C   0  0  2  0  0  0  0  0  0  0  0  0
   -0.1978   -6.3462    3.9453 O   0  0  0  0  0  0  0  0  0  0  0  0
    0.1374   -7.6253    3.5386 C   0  0  0  0  0  0  0  0  0  0  0  0
   -0.5392   -8.6439    4.4694 C   0  0  0  0  0  0  0  0  0  0  0  0
   -0.3019   -7.8288    2.0779 C   0  0  0  0  0  0  0  0  0  0  0  0
    1.5162   -7.7460    3.6342 O   0  0  0  0  0  0  0  0  0  0  0  0
    2.0637   -6.4583    3.3806 C   0  0  1  0  0  0  0  0  0  0  0  0
    4.8729   -5.8766    3.0236 H   0  0  0  0  0  0  0  0  0  0  0  0
    5.0273   -6.7852    1.5250 H   0  0  0  0  0  0  0  0  0  0  0  0
    4.5639   -7.6010    3.0125 H   0  0  0  0  0  0  0  0  0  0  0  0
    2.6500   -7.3422    1.5898 H   0  0  0  0  0  0  0  0  0  0  0  0
    2.9084   -5.7993    0.0851 H   0  0  0  0  0  0  0  0  0  0  0  0
    1.6408   -5.0829    0.9762 H   0  0  0  0  0  0  0  0  0  0  0  0
    4.5047   -4.1854    1.5653 H   0  0  0  0  0  0  0  0  0  0  0  0
    3.8449   -3.8444    0.0159 H   0  0  0  0  0  0  0  0  0  0  0  0
    2.0083   -2.5622    0.8650 H   0  0  0  0  0  0  0  0  0  0  0  0
    0.6187   -2.1906    3.9214 H   0  0  0  0  0  0  0  0  0  0  0  0
    0.9565    0.2021    3.2032 H   0  0  0  0  0  0  0  0  0  0  0  0
    5.0574   -1.8736   -0.0763 H   0  0  0  0  0  0  0  0  0  0  0  0
    4.9112   -0.1674    0.2749 H   0  0  0  0  0  0  0  0  0  0  0  0
    3.5969   -1.0013   -0.5395 H   0  0  0  0  0  0  0  0  0  0  0  0
    5.6578   -2.1850    2.2336 H   0  0  0  0  0  0  0  0  0  0  0  0
    5.2498   -0.6598    2.9689 H   0  0  0  0  0  0  0  0  0  0  0  0
    3.9565   -4.6187    5.2533 H   0  0  0  0  0  0  0  0  0  0  0  0
    1.1072   -6.7881    6.0374 H   0  0  0  0  0  0  0  0  0  0  0  0
    1.6391   -5.2394    6.6787 H   0  0  0  0  0  0  0  0  0  0  0  0
    2.8155   -6.5218    6.3505 H   0  0  0  0  0  0  0  0  0  0  0  0
    0.6746   -4.7295    2.9293 H   0  0  0  0  0  0  0  0  0  0  0  0
   -0.2365   -8.5018    5.5056 H   0  0  0  0  0  0  0  0  0  0  0  0
   -0.2868   -9.6599    4.1658 H   0  0  0  0  0  0  0  0  0  0  0  0
   -1.6220   -8.5312    4.4128 H   0  0  0  0  0  0  0  0  0  0  0  0
    0.1494   -7.0896    1.4154 H   0  0  0  0  0  0  0  0  0  0  0  0
   -1.3874   -7.7577    2.0049 H   0  0  0  0  0  0  0  0  0  0  0  0
    0.0038   -8.8205    1.7489 H   0  0  0  0  0  0  0  0  0  0  0  0
  1  2  1  0
  1 27  1  0
  1 28  1  0
  1 29  1  0
  2 26  1  0
  2  3  1  0
  2 30  1  6
  3  4  1  0
  3 31  1  0
  3 32  1  0
  4  5  1  0
  4 33  1  0
  4 34  1  0
  5 11  1  0
  5  6  1  0
  5 35  1  6
  6 16  1  0
  6  7  1  0
  7  8  2  0
  7 36  1  0
  8  9  1  0
  8 37  1  0
  9 10  2  0
  9 11  1  0
 11 12  1  6
 11 13  1  0
 12 38  1  0
 12 39  1  0
 12 40  1  0
 13 14  1  0
 13 41  1  0
 13 42  1  0
 14 15  2  0
 14 16  1  0
 16 17  2  3
 17 18  1  0
 17 43  1  0
 18 26  1  0
 18 19  1  1
 18 20  1  0
 19 44  1  0
 19 45  1  0
 19 46  1  0
 20 26  1  0
 20 21  1  0
 20 47  1  6
 21 22  1  0
 22 23  1  0
 22 24  1  0
 22 25  1  0
 23 48  1  0
 23 49  1  0
 23 50  1  0
 24 51  1  0
 24 52  1  0
 24 53  1  0
 26 25  1  1
M  END
>  <i_m_ct_stereo_status>  (64) 
1

>  <s_m_source_file>  (64) 
/var/tmp/pbs.5076255.sched01/tmpzk3r62u5/0tgg_cfwk.sdf

>  <i_m_source_file_index>  (64) 
25

>  <i_lp_mmshare_version>  (64) 
48012

>  <i_f3d_flags>  (64) 
0

>  <s_epik_input>  (64) 
W0NIM11bQ0BASF0xW0NIMl1bQ0gyXVtDQEhdKFtDQF0oW0NIM10pKFtDSDJdQzI9TylDKD1PKVtDSF09W0NIXTMpTjMvQzI9W0NIXVxbQ0BAXShbQ0BdMTQ1KShbQ0gzXSlbQ0hdNE9DKE81KShbQ0gzXSlbQ0gzXQ==

>  <s_epik_cmdline>  (64) 
J2VwaWtfcHl0aG9uJywgJy1waHQnLCAnMi4wJywgJy1waCcsICc3LjAnLCAnLXRuJywgJzgnLCAnLW1hJywgJzIwMCcsICctaW1hZScsICc8aW5maWxlLm1hZT4nLCAnLW9tYWUnLCAnPG91dGZpbGUubWFlPic=

>  <r_lp_tautomer_probability>  (64) 
1

>  <r_epik_Ionization_Penalty>  (64) 
2.357e-07

>  <r_epik_Ionization_Penalty_Charging>  (64) 
9.0679e-10

>  <r_epik_Ionization_Penalty_Neutral>  (64) 
2.34793e-07

>  <r_epik_State_Penalty>  (64) 
-0

>  <r_epik_Charging_Adjusted_Penalty>  (64) 
9.0679e-10

>  <i_epik_Tot_Q>  (64) 
0

>  <i_epik_Tot_abs_Q>  (64) 
0

>  <s_epik_Chemistry_Notes>  (64) 
This compound has an imine and may undergo hydrolysis.

>  <s_lp_Force_Field>  (64) 
OPLS3e

>  <r_lp_Energy>  (64) 
65.6178

>  <b_lp_Chiralities_Consistent>  (64) 
1

>  <s_lp_Variant>  (64) 
15:0-1

>  <s_i_glide_gridfile>  (64) 
pfpi4k_grid

>  <i_i_glide_lignum>  (64) 
25

>  <i_i_glide_rotatable_bonds>  (64) 
0

>  <r_i_docking_score>  (64) 
-2.67056

>  <r_i_glide_ligand_efficiency>  (64) 
-0.102714

>  <r_i_glide_ligand_efficiency_sa>  (64) 
-0.304289

>  <r_i_glide_ligand_efficiency_ln>  (64) 
-0.627171

>  <r_i_glide_gscore>  (64) 
-2.67056

>  <r_i_glide_lipo>  (64) 
-0.0781067

>  <r_i_glide_hbond>  (64) 
-0.0314608

>  <r_i_glide_metal>  (64) 
-0

>  <r_i_glide_rewards>  (64) 
-0.993432

>  <r_i_glide_evdw>  (64) 
-25.1594

>  <r_i_glide_ecoul>  (64) 
-1.63739

>  <r_i_glide_erotb>  (64) 
0

>  <r_i_glide_esite>  (64) 
-0.0639748

>  <r_i_glide_emodel>  (64) 
-30.9703

>  <r_i_glide_energy>  (64) 
-26.7968

>  <r_i_glide_einternal>  (64) 
0

>  <r_i_glide_intrahb_reward>  (64) 
-0

>  <i_i_glide_confnum>  (64) 
1

>  <i_i_glide_posenum>  (64) 
2

>  <r_i_glide_eff_state_penalty>  (64) 
0

>  <ligand_id>  (64) 
15

>  <original_smiles>  (64) 
CC1CCC2N3C=CC(=O)C2(C)CC(=O)C3=CC2(C)C3OC(C)(C)OC132

>  <smiles>  (64) 
[H]C1=C([H])N2C3=C([H])C4(C([H])([H])[H])C5([H])OC(C([H])([H])[H])(C([H])([H])[H])OC54C([H])(C([H])([H])[H])C([H])([H])C([H])([H])C2([H])C(C([H])([H])[H])(C1=O)C([H])([H])C3=O

$$$$
15:1:0
     RDKit          3D

 53 57  0  0  1  0  0  0  0  0999 V2000
    2.8215   -6.1960    1.9211 C   0  0  0  0  0  0  0  0  0  0  0  0
    3.7247   -5.1672    1.2262 C   0  0  2  0  0  0  0  0  0  0  0  0
    3.3539   -5.0333   -0.2809 C   0  0  0  0  0  0  0  0  0  0  0  0
    2.5030   -3.7926   -0.6817 C   0  0  0  0  0  0  0  0  0  0  0  0
    3.1659   -2.5998   -1.4466 C   0  0  1  0  0  0  0  0  0  0  0  0
    4.2055   -1.9123   -0.6712 N   0  0  0  0  0  0  0  0  0  0  0  0
    4.4893   -0.6556   -1.1694 C   0  0  0  0  0  0  0  0  0  0  0  0
    4.3814   -0.3123   -2.4772 C   0  0  0  0  0  0  0  0  0  0  0  0
    3.9569   -1.3270   -3.4515 C   0  0  0  0  0  0  0  0  0  0  0  0
    3.8424   -1.0634   -4.6529 O   0  0  0  0  0  0  0  0  0  0  0  0
    3.6848   -2.7478   -2.9067 C   0  0  2  0  0  0  0  0  0  0  0  0
    2.6350   -3.3550   -3.8550 C   0  0  0  0  0  0  0  0  0  0  0  0
    5.0345   -3.5279   -2.8793 C   0  0  0  0  0  0  0  0  0  0  0  0
    5.9524   -3.2340   -1.6609 C   0  0  0  0  0  0  0  0  0  0  0  0
    7.1700   -3.3440   -1.7947 O   0  0  0  0  0  0  0  0  0  0  0  0
    5.3250   -2.6733   -0.4265 C   0  0  0  0  0  0  0  0  0  0  0  0
    5.6365   -3.0201    0.8416 C   0  0  0  0  0  0  0  0  0  0  0  0
    6.2770   -4.2804    1.3140 C   0  0  1  0  0  0  0  0  0  0  0  0
    7.7297   -4.5038    0.9001 C   0  0  0  0  0  0  0  0  0  0  0  0
    5.8727   -4.8695    2.6774 C   0  0  2  0  0  0  0  0  0  0  0  0
    6.6771   -5.9220    3.1825 O   0  0  0  0  0  0  0  0  0  0  0  0
    6.3604   -7.0745    2.4728 C   0  0  0  0  0  0  0  0  0  0  0  0
    7.6605   -7.8192    2.1380 C   0  0  0  0  0  0  0  0  0  0  0  0
    5.4344   -7.9509    3.3318 C   0  0  0  0  0  0  0  0  0  0  0  0
    5.7135   -6.7213    1.2884 O   0  0  0  0  0  0  0  0  0  0  0  0
    5.2318   -5.4006    1.4520 C   0  0  1  0  0  0  0  0  0  0  0  0
    3.0440   -7.2149    1.6082 H   0  0  0  0  0  0  0  0  0  0  0  0
    1.7715   -6.0097    1.7022 H   0  0  0  0  0  0  0  0  0  0  0  0
    2.9318   -6.1342    2.9993 H   0  0  0  0  0  0  0  0  0  0  0  0
    3.4732   -4.2159    1.6961 H   0  0  0  0  0  0  0  0  0  0  0  0
    4.2331   -5.1515   -0.8964 H   0  0  0  0  0  0  0  0  0  0  0  0
    2.7309   -5.8983   -0.4806 H   0  0  0  0  0  0  0  0  0  0  0  0
    1.6805   -4.1387   -1.3084 H   0  0  0  0  0  0  0  0  0  0  0  0
    2.0158   -3.3820    0.2060 H   0  0  0  0  0  0  0  0  0  0  0  0
    2.3462   -1.8914   -1.5498 H   0  0  0  0  0  0  0  0  0  0  0  0
    4.7636    0.0520   -0.4136 H   0  0  0  0  0  0  0  0  0  0  0  0
    4.5565    0.6873   -2.8273 H   0  0  0  0  0  0  0  0  0  0  0  0
    2.3603   -4.3594   -3.6011 H   0  0  0  0  0  0  0  0  0  0  0  0
    3.0320   -3.3923   -4.8634 H   0  0  0  0  0  0  0  0  0  0  0  0
    1.6964   -2.7991   -3.8519 H   0  0  0  0  0  0  0  0  0  0  0  0
    4.8225   -4.5923   -2.8770 H   0  0  0  0  0  0  0  0  0  0  0  0
    5.5938   -3.3219   -3.7891 H   0  0  0  0  0  0  0  0  0  0  0  0
    5.0770   -2.5248    1.6258 H   0  0  0  0  0  0  0  0  0  0  0  0
    8.3192   -4.8914    1.7272 H   0  0  0  0  0  0  0  0  0  0  0  0
    8.1946   -3.5660    0.6001 H   0  0  0  0  0  0  0  0  0  0  0  0
    7.7808   -5.2115    0.0787 H   0  0  0  0  0  0  0  0  0  0  0  0
    5.2865   -4.3129    3.4037 H   0  0  0  0  0  0  0  0  0  0  0  0
    8.3134   -7.2161    1.5040 H   0  0  0  0  0  0  0  0  0  0  0  0
    7.4280   -8.7530    1.6248 H   0  0  0  0  0  0  0  0  0  0  0  0
    8.2008   -8.0473    3.0600 H   0  0  0  0  0  0  0  0  0  0  0  0
    4.5899   -7.3763    3.7065 H   0  0  0  0  0  0  0  0  0  0  0  0
    5.9840   -8.3370    4.1909 H   0  0  0  0  0  0  0  0  0  0  0  0
    5.0661   -8.7922    2.7444 H   0  0  0  0  0  0  0  0  0  0  0  0
  1  2  1  0
  1 27  1  0
  1 28  1  0
  1 29  1  0
  2 26  1  0
  2  3  1  0
  2 30  1  1
  3  4  1  0
  3 31  1  0
  3 32  1  0
  4  5  1  0
  4 33  1  0
  4 34  1  0
  5 11  1  0
  5  6  1  0
  5 35  1  6
  6 16  1  0
  6  7  1  0
  7  8  2  0
  7 36  1  0
  8  9  1  0
  8 37  1  0
  9 10  2  0
  9 11  1  0
 11 12  1  6
 11 13  1  0
 12 38  1  0
 12 39  1  0
 12 40  1  0
 13 14  1  0
 13 41  1  0
 13 42  1  0
 14 15  2  0
 14 16  1  0
 16 17  2  3
 17 18  1  0
 17 43  1  0
 18 26  1  0
 18 19  1  6
 18 20  1  0
 19 44  1  0
 19 45  1  0
 19 46  1  0
 20 26  1  0
 20 21  1  0
 20 47  1  1
 21 22  1  0
 22 23  1  0
 22 24  1  0
 22 25  1  0
 23 48  1  0
 23 49  1  0
 23 50  1  0
 24 51  1  0
 24 52  1  0
 24 53  1  0
 26 25  1  6
M  END
>  <i_m_ct_stereo_status>  (65) 
1

>  <s_m_source_file>  (65) 
/var/tmp/pbs.5076255.sched01/tmpzk3r62u5/0tgg_cfwk.sdf

>  <i_m_source_file_index>  (65) 
26

>  <i_lp_mmshare_version>  (65) 
48012

>  <i_f3d_flags>  (65) 
0

>  <s_epik_input>  (65) 
W0NIM11bQ0BASF0xW0NIMl1bQ0gyXVtDQEhdKFtDQF0oW0NIM10pKFtDSDJdQzI9TylDKD1PKVtDSF09W0NIXTMpTjMvQzI9W0NIXVxbQ0BAXShbQ0BdMTQ1KShbQ0gzXSlbQ0hdNE9DKE81KShbQ0gzXSlbQ0gzXQ==

>  <s_epik_cmdline>  (65) 
J2VwaWtfcHl0aG9uJywgJy1waHQnLCAnMi4wJywgJy1waCcsICc3LjAnLCAnLXRuJywgJzgnLCAnLW1hJywgJzIwMCcsICctaW1hZScsICc8aW5maWxlLm1hZT4nLCAnLW9tYWUnLCAnPG91dGZpbGUubWFlPic=

>  <r_lp_tautomer_probability>  (65) 
1

>  <r_epik_Ionization_Penalty>  (65) 
2.357e-07

>  <r_epik_Ionization_Penalty_Charging>  (65) 
9.0679e-10

>  <r_epik_Ionization_Penalty_Neutral>  (65) 
2.34793e-07

>  <r_epik_State_Penalty>  (65) 
-0

>  <r_epik_Charging_Adjusted_Penalty>  (65) 
9.0679e-10

>  <i_epik_Tot_Q>  (65) 
0

>  <i_epik_Tot_abs_Q>  (65) 
0

>  <s_epik_Chemistry_Notes>  (65) 
This compound has an imine and may undergo hydrolysis.

>  <s_lp_Force_Field>  (65) 
OPLS3e

>  <r_lp_Energy>  (65) 
78.2223

>  <b_lp_Chiralities_Consistent>  (65) 
1

>  <s_lp_Variant>  (65) 
15:0-2

>  <s_i_glide_gridfile>  (65) 
pfpi4k_grid

>  <i_i_glide_lignum>  (65) 
26

>  <i_i_glide_rotatable_bonds>  (65) 
0

>  <r_i_docking_score>  (65) 
-4.26661

>  <r_i_glide_ligand_efficiency>  (65) 
-0.1641

>  <r_i_glide_ligand_efficiency_sa>  (65) 
-0.486146

>  <r_i_glide_ligand_efficiency_ln>  (65) 
-1.002

>  <r_i_glide_gscore>  (65) 
-4.26661

>  <r_i_glide_lipo>  (65) 
-0.768259

>  <r_i_glide_hbond>  (65) 
-0.31625

>  <r_i_glide_metal>  (65) 
-0

>  <r_i_glide_rewards>  (65) 
-1.41407

>  <r_i_glide_evdw>  (65) 
-21.5436

>  <r_i_glide_ecoul>  (65) 
-4.39607

>  <r_i_glide_erotb>  (65) 
0

>  <r_i_glide_esite>  (65) 
-0.0314419

>  <r_i_glide_emodel>  (65) 
-32.928

>  <r_i_glide_energy>  (65) 
-25.9396

>  <r_i_glide_einternal>  (65) 
0

>  <r_i_glide_intrahb_reward>  (65) 
-0

>  <i_i_glide_confnum>  (65) 
1

>  <i_i_glide_posenum>  (65) 
3

>  <r_i_glide_eff_state_penalty>  (65) 
0

>  <ligand_id>  (65) 
15

>  <original_smiles>  (65) 
CC1CCC2N3C=CC(=O)C2(C)CC(=O)C3=CC2(C)C3OC(C)(C)OC132

>  <smiles>  (65) 
[H]C1=C([H])N2C3=C([H])C4(C([H])([H])[H])C5([H])OC(C([H])([H])[H])(C([H])([H])[H])OC54C([H])(C([H])([H])[H])C([H])([H])C([H])([H])C2([H])C(C([H])([H])[H])(C1=O)C([H])([H])C3=O

$$$$
15:1:1
     RDKit          3D

 53 57  0  0  1  0  0  0  0  0999 V2000
    3.3017    0.1556    4.0095 C   0  0  0  0  0  0  0  0  0  0  0  0
    3.7570   -1.0512    3.1793 C   0  0  2  0  0  0  0  0  0  0  0  0
    3.2939   -0.9348    1.7017 C   0  0  0  0  0  0  0  0  0  0  0  0
    4.4173   -0.4930    0.7076 C   0  0  0  0  0  0  0  0  0  0  0  0
    5.0963   -1.5058   -0.2748 C   0  0  1  0  0  0  0  0  0  0  0  0
    5.8828   -2.5714    0.3639 N   0  0  0  0  0  0  0  0  0  0  0  0
    6.7820   -3.1846   -0.5053 C   0  0  0  0  0  0  0  0  0  0  0  0
    6.5234   -3.3342   -1.8203 C   0  0  0  0  0  0  0  0  0  0  0  0
    5.2374   -2.8671   -2.3734 C   0  0  0  0  0  0  0  0  0  0  0  0
    4.9294   -3.0254   -3.5532 O   0  0  0  0  0  0  0  0  0  0  0  0
    4.2495   -2.1820   -1.3976 C   0  0  2  0  0  0  0  0  0  0  0  0
    3.4155   -1.1678   -2.2074 C   0  0  0  0  0  0  0  0  0  0  0  0
    3.3247   -3.2761   -0.7929 C   0  0  0  0  0  0  0  0  0  0  0  0
    3.9379   -4.0513    0.3922 C   0  0  0  0  0  0  0  0  0  0  0  0
    3.4747   -5.1597    0.6504 O   0  0  0  0  0  0  0  0  0  0  0  0
    5.1007   -3.4371    1.1173 C   0  0  0  0  0  0  0  0  0  0  0  0
    5.2478   -3.4525    2.4610 C   0  0  0  0  0  0  0  0  0  0  0  0
    4.2207   -3.6970    3.5207 C   0  0  1  0  0  0  0  0  0  0  0  0
    3.6304   -5.1003    3.5808 C   0  0  0  0  0  0  0  0  0  0  0  0
    4.3419   -2.9824    4.8742 C   0  0  2  0  0  0  0  0  0  0  0  0
    3.4878   -3.4286    5.9166 O   0  0  0  0  0  0  0  0  0  0  0  0
    2.2080   -2.9586    5.6594 C   0  0  0  0  0  0  0  0  0  0  0  0
    1.1950   -4.0824    5.9436 C   0  0  0  0  0  0  0  0  0  0  0  0
    1.9352   -1.7367    6.5545 C   0  0  0  0  0  0  0  0  0  0  0  0
    2.1127   -2.5954    4.3218 O   0  0  0  0  0  0  0  0  0  0  0  0
    3.4366   -2.4109    3.8372 C   0  0  1  0  0  0  0  0  0  0  0  0
    2.2252    0.1441    4.1821 H   0  0  0  0  0  0  0  0  0  0  0  0
    3.5483    1.0905    3.5015 H   0  0  0  0  0  0  0  0  0  0  0  0
    3.8098    0.1776    4.9718 H   0  0  0  0  0  0  0  0  0  0  0  0
    4.8469   -0.9690    3.1742 H   0  0  0  0  0  0  0  0  0  0  0  0
    2.7966   -1.8441    1.3872 H   0  0  0  0  0  0  0  0  0  0  0  0
    2.4952   -0.1921    1.6421 H   0  0  0  0  0  0  0  0  0  0  0  0
    3.9931    0.2925    0.0876 H   0  0  0  0  0  0  0  0  0  0  0  0
    5.2060    0.0295    1.2484 H   0  0  0  0  0  0  0  0  0  0  0  0
    5.8168   -0.8684   -0.7933 H   0  0  0  0  0  0  0  0  0  0  0  0
    7.6977   -3.5324   -0.0417 H   0  0  0  0  0  0  0  0  0  0  0  0
    7.2153   -3.8105   -2.5038 H   0  0  0  0  0  0  0  0  0  0  0  0
    2.6690   -0.6986   -1.5722 H   0  0  0  0  0  0  0  0  0  0  0  0
    2.8504   -1.6546   -3.0061 H   0  0  0  0  0  0  0  0  0  0  0  0
    4.0184   -0.3754   -2.6540 H   0  0  0  0  0  0  0  0  0  0  0  0
    2.3924   -2.8248   -0.4544 H   0  0  0  0  0  0  0  0  0  0  0  0
    3.0468   -3.9967   -1.5606 H   0  0  0  0  0  0  0  0  0  0  0  0
    6.1047   -2.9160    2.8434 H   0  0  0  0  0  0  0  0  0  0  0  0
    3.5443   -5.4564    4.6053 H   0  0  0  0  0  0  0  0  0  0  0  0
    4.2677   -5.8126    3.0554 H   0  0  0  0  0  0  0  0  0  0  0  0
    2.6394   -5.1041    3.1293 H   0  0  0  0  0  0  0  0  0  0  0  0
    5.2373   -2.4462    5.1822 H   0  0  0  0  0  0  0  0  0  0  0  0
    1.3686   -4.9392    5.2930 H   0  0  0  0  0  0  0  0  0  0  0  0
    0.1766   -3.7209    5.7940 H   0  0  0  0  0  0  0  0  0  0  0  0
    1.3048   -4.4082    6.9782 H   0  0  0  0  0  0  0  0  0  0  0  0
    2.7378   -1.0069    6.4759 H   0  0  0  0  0  0  0  0  0  0  0  0
    1.8710   -2.0543    7.5958 H   0  0  0  0  0  0  0  0  0  0  0  0
    0.9933   -1.2698    6.2680 H   0  0  0  0  0  0  0  0  0  0  0  0
  1  2  1  0
  1 27  1  0
  1 28  1  0
  1 29  1  0
  2 26  1  0
  2  3  1  0
  2 30  1  6
  3  4  1  0
  3 31  1  0
  3 32  1  0
  4  5  1  0
  4 33  1  0
  4 34  1  0
  5 11  1  0
  5  6  1  0
  5 35  1  6
  6 16  1  0
  6  7  1  0
  7  8  2  0
  7 36  1  0
  8  9  1  0
  8 37  1  0
  9 10  2  0
  9 11  1  0
 11 12  1  6
 11 13  1  0
 12 38  1  0
 12 39  1  0
 12 40  1  0
 13 14  1  0
 13 41  1  0
 13 42  1  0
 14 15  2  0
 14 16  1  0
 16 17  2  3
 17 18  1  0
 17 43  1  0
 18 26  1  0
 18 19  1  1
 18 20  1  0
 19 44  1  0
 19 45  1  0
 19 46  1  0
 20 26  1  0
 20 21  1  0
 20 47  1  1
 21 22  1  0
 22 23  1  0
 22 24  1  0
 22 25  1  0
 23 48  1  0
 23 49  1  0
 23 50  1  0
 24 51  1  0
 24 52  1  0
 24 53  1  0
 26 25  1  1
M  END
>  <i_m_ct_stereo_status>  (66) 
1

>  <s_m_source_file>  (66) 
/var/tmp/pbs.5076255.sched01/tmpzk3r62u5/0tgg_cfwk.sdf

>  <i_m_source_file_index>  (66) 
26

>  <i_lp_mmshare_version>  (66) 
48012

>  <i_f3d_flags>  (66) 
0

>  <s_epik_input>  (66) 
W0NIM11bQ0BASF0xW0NIMl1bQ0gyXVtDQEhdKFtDQF0oW0NIM10pKFtDSDJdQzI9TylDKD1PKVtDSF09W0NIXTMpTjMvQzI9W0NIXVxbQ0BAXShbQ0BdMTQ1KShbQ0gzXSlbQ0hdNE9DKE81KShbQ0gzXSlbQ0gzXQ==

>  <s_epik_cmdline>  (66) 
J2VwaWtfcHl0aG9uJywgJy1waHQnLCAnMi4wJywgJy1waCcsICc3LjAnLCAnLXRuJywgJzgnLCAnLW1hJywgJzIwMCcsICctaW1hZScsICc8aW5maWxlLm1hZT4nLCAnLW9tYWUnLCAnPG91dGZpbGUubWFlPic=

>  <r_lp_tautomer_probability>  (66) 
1

>  <r_epik_Ionization_Penalty>  (66) 
2.357e-07

>  <r_epik_Ionization_Penalty_Charging>  (66) 
9.0679e-10

>  <r_epik_Ionization_Penalty_Neutral>  (66) 
2.34793e-07

>  <r_epik_State_Penalty>  (66) 
-0

>  <r_epik_Charging_Adjusted_Penalty>  (66) 
9.0679e-10

>  <i_epik_Tot_Q>  (66) 
0

>  <i_epik_Tot_abs_Q>  (66) 
0

>  <s_epik_Chemistry_Notes>  (66) 
This compound has an imine and may undergo hydrolysis.

>  <s_lp_Force_Field>  (66) 
OPLS3e

>  <r_lp_Energy>  (66) 
78.2223

>  <b_lp_Chiralities_Consistent>  (66) 
1

>  <s_lp_Variant>  (66) 
15:0-2

>  <s_i_glide_gridfile>  (66) 
pfpi4k_grid

>  <i_i_glide_lignum>  (66) 
26

>  <i_i_glide_rotatable_bonds>  (66) 
0

>  <r_i_docking_score>  (66) 
-3.24233

>  <r_i_glide_ligand_efficiency>  (66) 
-0.124705

>  <r_i_glide_ligand_efficiency_sa>  (66) 
-0.369438

>  <r_i_glide_ligand_efficiency_ln>  (66) 
-0.761449

>  <r_i_glide_gscore>  (66) 
-3.24233

>  <r_i_glide_lipo>  (66) 
-0.516536

>  <r_i_glide_hbond>  (66) 
0

>  <r_i_glide_metal>  (66) 
-0

>  <r_i_glide_rewards>  (66) 
-1.26275

>  <r_i_glide_evdw>  (66) 
-24.8525

>  <r_i_glide_ecoul>  (66) 
-1.46944

>  <r_i_glide_erotb>  (66) 
0

>  <r_i_glide_esite>  (66) 
0

>  <r_i_glide_emodel>  (66) 
-31.8365

>  <r_i_glide_energy>  (66) 
-26.3219

>  <r_i_glide_einternal>  (66) 
0

>  <r_i_glide_intrahb_reward>  (66) 
-0

>  <i_i_glide_confnum>  (66) 
1

>  <i_i_glide_posenum>  (66) 
1

>  <r_i_glide_eff_state_penalty>  (66) 
0

>  <ligand_id>  (66) 
15

>  <original_smiles>  (66) 
CC1CCC2N3C=CC(=O)C2(C)CC(=O)C3=CC2(C)C3OC(C)(C)OC132

>  <smiles>  (66) 
[H]C1=C([H])N2C3=C([H])C4(C([H])([H])[H])C5([H])OC(C([H])([H])[H])(C([H])([H])[H])OC54C([H])(C([H])([H])[H])C([H])([H])C([H])([H])C2([H])C(C([H])([H])[H])(C1=O)C([H])([H])C3=O

$$$$
15:1:2
     RDKit          3D

 53 57  0  0  1  0  0  0  0  0999 V2000
    5.0994   -5.4247    0.4787 C   0  0  0  0  0  0  0  0  0  0  0  0
    4.5537   -4.2994    1.3697 C   0  0  2  0  0  0  0  0  0  0  0  0
    3.2574   -4.7353    2.1103 C   0  0  0  0  0  0  0  0  0  0  0  0
    3.4534   -5.1166    3.6179 C   0  0  0  0  0  0  0  0  0  0  0  0
    3.0119   -4.1509    4.7777 C   0  0  1  0  0  0  0  0  0  0  0  0
    3.7221   -2.8635    4.8429 N   0  0  0  0  0  0  0  0  0  0  0  0
    3.5918   -2.2213    6.0746 C   0  0  0  0  0  0  0  0  0  0  0  0
    2.4838   -2.3214    6.8389 C   0  0  0  0  0  0  0  0  0  0  0  0
    1.3437   -3.1436    6.3647 C   0  0  0  0  0  0  0  0  0  0  0  0
    0.3005   -3.2636    7.0111 O   0  0  0  0  0  0  0  0  0  0  0  0
    1.4956   -3.8346    4.9764 C   0  0  2  0  0  0  0  0  0  0  0  0
    0.6177   -5.1091    4.9437 C   0  0  0  0  0  0  0  0  0  0  0  0
    1.0100   -2.8471    3.8784 C   0  0  0  0  0  0  0  0  0  0  0  0
    2.0500   -1.7993    3.4349 C   0  0  0  0  0  0  0  0  0  0  0  0
    1.6301   -0.7671    2.9204 O   0  0  0  0  0  0  0  0  0  0  0  0
    3.4942   -2.0639    3.7313 C   0  0  0  0  0  0  0  0  0  0  0  0
    4.5093   -1.8022    2.8745 C   0  0  0  0  0  0  0  0  0  0  0  0
    4.4601   -1.5901    1.3929 C   0  0  1  0  0  0  0  0  0  0  0  0
    3.7420   -0.3368    0.9094 C   0  0  0  0  0  0  0  0  0  0  0  0
    5.6392   -2.0447    0.5176 C   0  0  2  0  0  0  0  0  0  0  0  0
    5.6517   -1.6126   -0.8384 O   0  0  0  0  0  0  0  0  0  0  0  0
    4.7007   -2.3517   -1.5326 C   0  0  0  0  0  0  0  0  0  0  0  0
    3.9144   -1.4149   -2.4656 C   0  0  0  0  0  0  0  0  0  0  0  0
    5.4161   -3.4480   -2.3378 C   0  0  0  0  0  0  0  0  0  0  0  0
    3.8218   -2.9353   -0.6270 O   0  0  0  0  0  0  0  0  0  0  0  0
    4.4500   -2.9359    0.6464 C   0  0  1  0  0  0  0  0  0  0  0  0
    4.4713   -5.5922   -0.3973 H   0  0  0  0  0  0  0  0  0  0  0  0
    5.1567   -6.3639    1.0319 H   0  0  0  0  0  0  0  0  0  0  0  0
    6.1098   -5.1985    0.1433 H   0  0  0  0  0  0  0  0  0  0  0  0
    5.3224   -4.1725    2.1344 H   0  0  0  0  0  0  0  0  0  0  0  0
    2.4799   -3.9947    1.9706 H   0  0  0  0  0  0  0  0  0  0  0  0
    2.8526   -5.6131    1.6035 H   0  0  0  0  0  0  0  0  0  0  0  0
    2.9340   -6.0626    3.7798 H   0  0  0  0  0  0  0  0  0  0  0  0
    4.4969   -5.3820    3.7877 H   0  0  0  0  0  0  0  0  0  0  0  0
    3.3210   -4.7043    5.6685 H   0  0  0  0  0  0  0  0  0  0  0  0
    4.4573   -1.6404    6.3690 H   0  0  0  0  0  0  0  0  0  0  0  0
    2.3959   -1.8226    7.7977 H   0  0  0  0  0  0  0  0  0  0  0  0
    0.6561   -5.6001    3.9709 H   0  0  0  0  0  0  0  0  0  0  0  0
   -0.4324   -4.8799    5.1342 H   0  0  0  0  0  0  0  0  0  0  0  0
    0.9264   -5.8343    5.6985 H   0  0  0  0  0  0  0  0  0  0  0  0
    0.7147   -3.4036    2.9911 H   0  0  0  0  0  0  0  0  0  0  0  0
    0.1135   -2.3251    4.2095 H   0  0  0  0  0  0  0  0  0  0  0  0
    5.4962   -2.0859    3.2123 H   0  0  0  0  0  0  0  0  0  0  0  0
    4.2873    0.1464    0.1019 H   0  0  0  0  0  0  0  0  0  0  0  0
    3.6458    0.3970    1.7110 H   0  0  0  0  0  0  0  0  0  0  0  0
    2.7488   -0.5945    0.5413 H   0  0  0  0  0  0  0  0  0  0  0  0
    6.5961   -2.3502    0.9351 H   0  0  0  0  0  0  0  0  0  0  0  0
    3.3723   -0.6627   -1.8930 H   0  0  0  0  0  0  0  0  0  0  0  0
    3.1985   -1.9862   -3.0584 H   0  0  0  0  0  0  0  0  0  0  0  0
    4.6073   -0.9088   -3.1381 H   0  0  0  0  0  0  0  0  0  0  0  0
    6.0923   -4.0058   -1.6971 H   0  0  0  0  0  0  0  0  0  0  0  0
    6.0051   -2.9984   -3.1370 H   0  0  0  0  0  0  0  0  0  0  0  0
    4.6849   -4.1299   -2.7745 H   0  0  0  0  0  0  0  0  0  0  0  0
  1  2  1  0
  1 27  1  0
  1 28  1  0
  1 29  1  0
  2 26  1  0
  2  3  1  0
  2 30  1  1
  3  4  1  0
  3 31  1  0
  3 32  1  0
  4  5  1  0
  4 33  1  0
  4 34  1  0
  5 11  1  0
  5  6  1  0
  5 35  1  1
  6 16  1  0
  6  7  1  0
  7  8  2  0
  7 36  1  0
  8  9  1  0
  8 37  1  0
  9 10  2  0
  9 11  1  0
 11 12  1  1
 11 13  1  0
 12 38  1  0
 12 39  1  0
 12 40  1  0
 13 14  1  0
 13 41  1  0
 13 42  1  0
 14 15  2  0
 14 16  1  0
 16 17  2  3
 17 18  1  0
 17 43  1  0
 18 26  1  0
 18 19  1  1
 18 20  1  0
 19 44  1  0
 19 45  1  0
 19 46  1  0
 20 26  1  0
 20 21  1  0
 20 47  1  1
 21 22  1  0
 22 23  1  0
 22 24  1  0
 22 25  1  0
 23 48  1  0
 23 49  1  0
 23 50  1  0
 24 51  1  0
 24 52  1  0
 24 53  1  0
 26 25  1  6
M  END
>  <i_m_ct_stereo_status>  (67) 
1

>  <s_m_source_file>  (67) 
/var/tmp/pbs.5076255.sched01/tmpzk3r62u5/0tgg_cfwk.sdf

>  <i_m_source_file_index>  (67) 
26

>  <i_lp_mmshare_version>  (67) 
48012

>  <i_f3d_flags>  (67) 
0

>  <s_epik_input>  (67) 
W0NIM11bQ0BASF0xW0NIMl1bQ0gyXVtDQEhdKFtDQF0oW0NIM10pKFtDSDJdQzI9TylDKD1PKVtDSF09W0NIXTMpTjMvQzI9W0NIXVxbQ0BAXShbQ0BdMTQ1KShbQ0gzXSlbQ0hdNE9DKE81KShbQ0gzXSlbQ0gzXQ==

>  <s_epik_cmdline>  (67) 
J2VwaWtfcHl0aG9uJywgJy1waHQnLCAnMi4wJywgJy1waCcsICc3LjAnLCAnLXRuJywgJzgnLCAnLW1hJywgJzIwMCcsICctaW1hZScsICc8aW5maWxlLm1hZT4nLCAnLW9tYWUnLCAnPG91dGZpbGUubWFlPic=

>  <r_lp_tautomer_probability>  (67) 
1

>  <r_epik_Ionization_Penalty>  (67) 
2.357e-07

>  <r_epik_Ionization_Penalty_Charging>  (67) 
9.0679e-10

>  <r_epik_Ionization_Penalty_Neutral>  (67) 
2.34793e-07

>  <r_epik_State_Penalty>  (67) 
-0

>  <r_epik_Charging_Adjusted_Penalty>  (67) 
9.0679e-10

>  <i_epik_Tot_Q>  (67) 
0

>  <i_epik_Tot_abs_Q>  (67) 
0

>  <s_epik_Chemistry_Notes>  (67) 
This compound has an imine and may undergo hydrolysis.

>  <s_lp_Force_Field>  (67) 
OPLS3e

>  <r_lp_Energy>  (67) 
78.2223

>  <b_lp_Chiralities_Consistent>  (67) 
1

>  <s_lp_Variant>  (67) 
15:0-2

>  <s_i_glide_gridfile>  (67) 
pfpi4k_grid

>  <i_i_glide_lignum>  (67) 
26

>  <i_i_glide_rotatable_bonds>  (67) 
0

>  <r_i_docking_score>  (67) 
-2.8834

>  <r_i_glide_ligand_efficiency>  (67) 
-0.1109

>  <r_i_glide_ligand_efficiency_sa>  (67) 
-0.328541

>  <r_i_glide_ligand_efficiency_ln>  (67) 
-0.677158

>  <r_i_glide_gscore>  (67) 
-2.8834

>  <r_i_glide_lipo>  (67) 
-0.477024

>  <r_i_glide_hbond>  (67) 
0

>  <r_i_glide_metal>  (67) 
-0

>  <r_i_glide_rewards>  (67) 
-0.973384

>  <r_i_glide_evdw>  (67) 
-25.5762

>  <r_i_glide_ecoul>  (67) 
-0.876259

>  <r_i_glide_erotb>  (67) 
0

>  <r_i_glide_esite>  (67) 
-0.0227482

>  <r_i_glide_emodel>  (67) 
-31.3957

>  <r_i_glide_energy>  (67) 
-26.4524

>  <r_i_glide_einternal>  (67) 
0

>  <r_i_glide_intrahb_reward>  (67) 
-0

>  <i_i_glide_confnum>  (67) 
1

>  <i_i_glide_posenum>  (67) 
2

>  <r_i_glide_eff_state_penalty>  (67) 
0

>  <ligand_id>  (67) 
15

>  <original_smiles>  (67) 
CC1CCC2N3C=CC(=O)C2(C)CC(=O)C3=CC2(C)C3OC(C)(C)OC132

>  <smiles>  (67) 
[H]C1=C([H])N2C3=C([H])C4(C([H])([H])[H])C5([H])OC(C([H])([H])[H])(C([H])([H])[H])OC54C([H])(C([H])([H])[H])C([H])([H])C([H])([H])C2([H])C(C([H])([H])[H])(C1=O)C([H])([H])C3=O

$$$$
16:0:0
     RDKit          3D

 56 60  0  0  1  0  0  0  0  0999 V2000
    8.8827   -2.1651    0.0879 C   0  0  0  0  0  0  0  0  0  0  0  0
    7.5030   -1.9564   -0.1776 O   0  0  0  0  0  0  0  0  0  0  0  0
    6.6951   -3.1058   -0.1308 C   0  0  2  0  0  0  0  0  0  0  0  0
    6.0334   -3.4559   -1.4057 O   0  0  0  0  0  0  0  0  0  0  0  0
    4.6564   -3.3934   -1.9834 C   0  0  2  0  0  0  0  0  0  0  0  0
    4.5156   -2.4043   -3.1512 C   0  0  1  0  0  0  0  0  0  0  0  0
    3.8314   -2.9486   -4.3306 O   0  0  0  0  0  0  0  0  0  0  0  0
    2.6006   -2.2585   -3.9015 C   0  0  0  0  0  0  0  0  0  0  0  0
    3.2248   -1.8548   -2.5542 C   0  0  1  0  0  0  0  0  0  0  0  0
    3.3697   -2.7930   -1.3018 C   0  0  1  0  0  0  0  0  0  0  0  0
    2.1726   -3.7497   -1.1365 C   0  0  0  0  0  0  0  0  0  0  0  0
    3.9276   -2.3289    0.0583 C   0  0  1  0  0  0  0  0  0  0  0  0
    4.9119   -1.0772   -0.4291 C   0  0  0  0  0  0  0  0  0  0  0  0
    3.5900   -1.3984    1.1700 C   0  0  1  0  0  0  0  0  0  0  0  0
    2.1999   -1.4439    1.4519 O   0  0  0  0  0  0  0  0  0  0  0  0
    4.8172   -2.1052    2.0014 C   0  0  1  0  0  0  0  0  0  0  0  0
    3.9243   -3.0809    2.6175 C   0  0  0  0  0  0  0  0  0  0  0  0
    3.9359   -3.6599    1.1825 C   0  0  2  0  0  0  0  0  0  0  0  0
    5.1853   -4.5675    1.2581 C   0  0  1  0  0  0  0  0  0  0  0  0
    5.5696   -5.3926    2.5407 C   0  0  0  0  0  0  0  0  0  0  0  0
    5.1995   -5.6644    0.1493 C   0  0  0  0  0  0  0  0  0  0  0  0
    4.3478   -6.7747    0.4266 O   0  0  0  0  0  0  0  0  0  0  0  0
    4.7867   -7.8639    1.0490 C   0  0  0  0  0  0  0  0  0  0  0  0
    3.6828   -8.9149    1.2515 C   0  0  0  0  0  0  0  0  0  0  0  0
    5.9477   -8.0537    1.4333 O   0  0  0  0  0  0  0  0  0  0  0  0
    5.9373   -3.2253    1.2944 C   0  0  1  0  0  0  0  0  0  0  0  0
    9.4051   -1.2048    0.1124 H   0  0  0  0  0  0  0  0  0  0  0  0
    9.3332   -2.7829   -0.6929 H   0  0  0  0  0  0  0  0  0  0  0  0
    9.0507   -2.6579    1.0367 H   0  0  0  0  0  0  0  0  0  0  0  0
    7.3939   -3.9449   -0.1322 H   0  0  0  0  0  0  0  0  0  0  0  0
    4.4533   -4.3428   -2.4610 H   0  0  0  0  0  0  0  0  0  0  0  0
    5.3166   -1.7016   -3.3673 H   0  0  0  0  0  0  0  0  0  0  0  0
    2.4004   -1.3942   -4.5355 H   0  0  0  0  0  0  0  0  0  0  0  0
    1.7477   -2.9300   -3.8813 H   0  0  0  0  0  0  0  0  0  0  0  0
    3.1638   -0.7952   -2.3919 H   0  0  0  0  0  0  0  0  0  0  0  0
    1.4377   -3.3285   -0.4577 H   0  0  0  0  0  0  0  0  0  0  0  0
    2.4646   -4.7406   -0.7883 H   0  0  0  0  0  0  0  0  0  0  0  0
    1.6513   -3.9322   -2.0657 H   0  0  0  0  0  0  0  0  0  0  0  0
    5.6029   -0.6330    0.2969 H   0  0  0  0  0  0  0  0  0  0  0  0
    4.3089   -0.2241   -0.7514 H   0  0  0  0  0  0  0  0  0  0  0  0
    5.5423   -1.1856   -1.2937 H   0  0  0  0  0  0  0  0  0  0  0  0
    3.7285   -0.3055    1.1961 H   0  0  0  0  0  0  0  0  0  0  0  0
    1.7262   -1.1197    0.6881 H   0  0  0  0  0  0  0  0  0  0  0  0
    5.2583   -1.4457    2.7544 H   0  0  0  0  0  0  0  0  0  0  0  0
    4.3648   -3.5520    3.4761 H   0  0  0  0  0  0  0  0  0  0  0  0
    2.9643   -2.7905    3.0518 H   0  0  0  0  0  0  0  0  0  0  0  0
    3.0461   -4.2788    1.1355 H   0  0  0  0  0  0  0  0  0  0  0  0
    6.2888   -6.1159    2.3173 H   0  0  0  0  0  0  0  0  0  0  0  0
    4.6777   -5.8976    2.9214 H   0  0  0  0  0  0  0  0  0  0  0  0
    5.9389   -4.7812    3.3924 H   0  0  0  0  0  0  0  0  0  0  0  0
    4.7339   -5.3085   -0.7683 H   0  0  0  0  0  0  0  0  0  0  0  0
    6.2174   -5.9637   -0.1096 H   0  0  0  0  0  0  0  0  0  0  0  0
    3.3290   -9.3323    0.2997 H   0  0  0  0  0  0  0  0  0  0  0  0
    2.8148   -8.4894    1.7727 H   0  0  0  0  0  0  0  0  0  0  0  0
    4.0355   -9.7421    1.8499 H   0  0  0  0  0  0  0  0  0  0  0  0
    6.7480   -3.2954    2.0097 H   0  0  0  0  0  0  0  0  0  0  0  0
  1  2  1  0
  1 27  1  0
  1 28  1  0
  1 29  1  0
  2  3  1  0
  3 26  1  0
  3  4  1  0
  3 30  1  1
  4  5  1  0
  5 10  1  0
  5  6  1  0
  5 31  1  6
  6  9  1  0
  6  7  1  0
  6 32  1  6
  7  8  1  0
  8  9  1  0
  8 33  1  0
  8 34  1  0
  9 10  1  0
  9 35  1  1
 10 11  1  1
 10 12  1  0
 11 36  1  0
 11 37  1  0
 11 38  1  0
 12 18  1  0
 12 13  1  6
 12 14  1  0
 13 39  1  0
 13 40  1  0
 13 41  1  0
 14 15  1  0
 14 16  1  0
 14 42  1  6
 15 43  1  0
 16 26  1  0
 16 17  1  0
 16 44  1  1
 17 18  1  0
 17 45  1  0
 17 46  1  0
 18 19  1  0
 18 47  1  6
 19 20  1  1
 19 21  1  0
 19 26  1  0
 20 48  1  0
 20 49  1  0
 20 50  1  0
 21 22  1  0
 21 51  1  0
 21 52  1  0
 22 23  1  0
 23 24  1  0
 23 25  2  0
 24 53  1  0
 24 54  1  0
 24 55  1  0
 26 56  1  1
M  END
>  <i_m_ct_stereo_status>  (68) 
1

>  <s_m_source_file>  (68) 
/var/tmp/pbs.5076255.sched01/tmpzk3r62u5/0tgg_cfwk.sdf

>  <i_m_source_file_index>  (68) 
27

>  <i_lp_mmshare_version>  (68) 
48012

>  <i_f3d_flags>  (68) 
0

>  <s_epik_input>  (68) 
TzFbQ0gyXVtDQEBIXTJbQ0BIXTFbQ0BIXShbQ0BdMjNbQ0gzXSlPW0NAQEhdKE9bQ0gzXSlbQ0BIXTRbQ0BIXTVbQ0BIXShbT0hdKVtDQEBdMyhbQ0gzXSlbQ0BIXShbQ0gyXTUpW0NAQF00KFtDSDNdKVtDSDJdT0MoPU8pW0NIM10=

>  <s_epik_cmdline>  (68) 
J2VwaWtfcHl0aG9uJywgJy1waHQnLCAnMi4wJywgJy1waCcsICc3LjAnLCAnLXRuJywgJzgnLCAnLW1hJywgJzIwMCcsICctaW1hZScsICc8aW5maWxlLm1hZT4nLCAnLW9tYWUnLCAnPG91dGZpbGUubWFlPic=

>  <r_lp_tautomer_probability>  (68) 
1

>  <r_epik_Ionization_Penalty>  (68) 
3.08231e-07

>  <r_epik_Ionization_Penalty_Charging>  (68) 
0

>  <r_epik_Ionization_Penalty_Neutral>  (68) 
3.08231e-07

>  <r_epik_State_Penalty>  (68) 
-0

>  <r_epik_Charging_Adjusted_Penalty>  (68) 
0

>  <i_epik_Tot_Q>  (68) 
0

>  <i_epik_Tot_abs_Q>  (68) 
0

>  <s_epik_Chemistry_Notes>  (68) 
This compound has an ester and may undergo hydrolysis at high or low pH. This compound contains an acetal/aminal-like group ( X-CH(R)-Y where X, Y are N, S, or O) that may be acid/base labile, releasing an aldehyde.

>  <s_lp_Force_Field>  (68) 
OPLS3e

>  <r_lp_Energy>  (68) 
315.726

>  <b_lp_Chiralities_Consistent>  (68) 
1

>  <s_lp_Variant>  (68) 
16:0-1

>  <s_i_glide_gridfile>  (68) 
pfpi4k_grid

>  <i_i_glide_lignum>  (68) 
27

>  <i_i_glide_rotatable_bonds>  (68) 
5

>  <r_i_docking_score>  (68) 
-4.26285

>  <r_i_glide_ligand_efficiency>  (68) 
-0.163956

>  <r_i_glide_ligand_efficiency_sa>  (68) 
-0.485718

>  <r_i_glide_ligand_efficiency_ln>  (68) 
-1.00112

>  <r_i_glide_gscore>  (68) 
-4.26285

>  <r_i_glide_lipo>  (68) 
-0.574748

>  <r_i_glide_hbond>  (68) 
-0.54278

>  <r_i_glide_metal>  (68) 
-0

>  <r_i_glide_rewards>  (68) 
-1.08987

>  <r_i_glide_evdw>  (68) 
-24.2732

>  <r_i_glide_ecoul>  (68) 
-7.52302

>  <r_i_glide_erotb>  (68) 
0.286668

>  <r_i_glide_esite>  (68) 
0

>  <r_i_glide_emodel>  (68) 
-36.7199

>  <r_i_glide_energy>  (68) 
-31.7963

>  <r_i_glide_einternal>  (68) 
5.41725

>  <r_i_glide_intrahb_reward>  (68) 
-0

>  <i_i_glide_confnum>  (68) 
2

>  <i_i_glide_posenum>  (68) 
10

>  <r_i_glide_eff_state_penalty>  (68) 
0

>  <ligand_id>  (68) 
16

>  <original_smiles>  (68) 
COC1OC2C3OCC3C2(C)C2(C)C(O)C3CC2C(C)(COC(C)=O)C13

>  <smiles>  (68) 
[H]OC1([H])C2([H])C([H])([H])C3([H])C(C([H])([H])[H])(C([H])([H])OC(=O)C([H])([H])[H])C2([H])C([H])(OC([H])([H])[H])OC2([H])C4([H])OC([H])([H])C4([H])C2(C([H])([H])[H])C13C([H])([H])[H]

$$$$
16:0:1
     RDKit          3D

 56 60  0  0  1  0  0  0  0  0999 V2000
    3.5400   -6.3735    2.7817 C   0  0  0  0  0  0  0  0  0  0  0  0
    4.5152   -5.3861    2.4746 O   0  0  0  0  0  0  0  0  0  0  0  0
    4.0182   -4.0808    2.4108 C   0  0  2  0  0  0  0  0  0  0  0  0
    2.8812   -3.8872    1.4955 O   0  0  0  0  0  0  0  0  0  0  0  0
    2.6543   -3.2800    0.1483 C   0  0  2  0  0  0  0  0  0  0  0  0
    2.2169   -4.2530   -0.9135 C   0  0  1  0  0  0  0  0  0  0  0  0
    1.0481   -3.8435   -1.6399 O   0  0  0  0  0  0  0  0  0  0  0  0
    1.9015   -3.4338   -2.7442 C   0  0  0  0  0  0  0  0  0  0  0  0
    3.1722   -3.6075   -1.9075 C   0  0  1  0  0  0  0  0  0  0  0  0
    3.7080   -2.6355   -0.8206 C   0  0  1  0  0  0  0  0  0  0  0  0
    3.4981   -1.1794   -1.2154 C   0  0  0  0  0  0  0  0  0  0  0  0
    4.9803   -2.8332   -0.0254 C   0  0  1  0  0  0  0  0  0  0  0  0
    5.1218   -4.4900   -0.0572 C   0  0  0  0  0  0  0  0  0  0  0  0
    6.4387   -2.8920   -0.2320 C   0  0  1  0  0  0  0  0  0  0  0  0
    6.8588   -1.9093   -1.1573 O   0  0  0  0  0  0  0  0  0  0  0  0
    6.5696   -2.8579    1.3854 C   0  0  1  0  0  0  0  0  0  0  0  0
    6.6705   -1.4009    1.4425 C   0  0  0  0  0  0  0  0  0  0  0  0
    5.1821   -1.5064    1.0728 C   0  0  2  0  0  0  0  0  0  0  0  0
    4.5607   -1.6228    2.4716 C   0  0  1  0  0  0  0  0  0  0  0  0
    5.0702   -0.7401    3.6687 C   0  0  0  0  0  0  0  0  0  0  0  0
    3.0354   -1.3007    2.5173 C   0  0  0  0  0  0  0  0  0  0  0  0
    2.8223    0.1068    2.4421 O   0  0  0  0  0  0  0  0  0  0  0  0
    1.5728    0.5804    2.5449 C   0  0  0  0  0  0  0  0  0  0  0  0
    1.4807    2.0878    2.3565 C   0  0  0  0  0  0  0  0  0  0  0  0
    0.5728   -0.0972    2.8034 O   0  0  0  0  0  0  0  0  0  0  0  0
    5.2295   -3.0086    2.4683 C   0  0  1  0  0  0  0  0  0  0  0  0
    4.0134   -7.3538    2.8322 H   0  0  0  0  0  0  0  0  0  0  0  0
    2.7561   -6.4237    2.0240 H   0  0  0  0  0  0  0  0  0  0  0  0
    3.0781   -6.1841    3.7510 H   0  0  0  0  0  0  0  0  0  0  0  0
    3.5020   -3.9747    3.3686 H   0  0  0  0  0  0  0  0  0  0  0  0
    1.7911   -2.6526    0.1869 H   0  0  0  0  0  0  0  0  0  0  0  0
    2.2989   -5.3276   -0.7152 H   0  0  0  0  0  0  0  0  0  0  0  0
    1.9013   -4.1377   -3.5709 H   0  0  0  0  0  0  0  0  0  0  0  0
    1.7092   -2.4356   -3.1265 H   0  0  0  0  0  0  0  0  0  0  0  0
    3.8890   -4.2516   -2.3623 H   0  0  0  0  0  0  0  0  0  0  0  0
    4.3826   -0.7255   -1.6665 H   0  0  0  0  0  0  0  0  0  0  0  0
    3.1542   -0.6225   -0.3520 H   0  0  0  0  0  0  0  0  0  0  0  0
    2.7032   -1.0560   -1.9395 H   0  0  0  0  0  0  0  0  0  0  0  0
    5.8652   -4.9780    0.5841 H   0  0  0  0  0  0  0  0  0  0  0  0
    5.3952   -4.8354   -1.0561 H   0  0  0  0  0  0  0  0  0  0  0  0
    4.2667   -5.1197    0.1086 H   0  0  0  0  0  0  0  0  0  0  0  0
    7.0341   -3.7326   -0.6194 H   0  0  0  0  0  0  0  0  0  0  0  0
    6.8006   -2.3147   -2.0077 H   0  0  0  0  0  0  0  0  0  0  0  0
    7.4701   -3.3990    1.6663 H   0  0  0  0  0  0  0  0  0  0  0  0
    7.0082   -1.0331    2.3981 H   0  0  0  0  0  0  0  0  0  0  0  0
    7.3335   -0.8731    0.7639 H   0  0  0  0  0  0  0  0  0  0  0  0
    4.9487   -0.5234    0.6645 H   0  0  0  0  0  0  0  0  0  0  0  0
    4.3323   -0.7025    4.4700 H   0  0  0  0  0  0  0  0  0  0  0  0
    5.2731    0.2875    3.3668 H   0  0  0  0  0  0  0  0  0  0  0  0
    5.9461   -1.1120    4.1789 H   0  0  0  0  0  0  0  0  0  0  0  0
    2.4776   -1.5785    1.6511 H   0  0  0  0  0  0  0  0  0  0  0  0
    2.5803   -1.7059    3.4346 H   0  0  0  0  0  0  0  0  0  0  0  0
    1.8520    2.3905    1.3767 H   0  0  0  0  0  0  0  0  0  0  0  0
    2.0639    2.6002    3.1224 H   0  0  0  0  0  0  0  0  0  0  0  0
    0.4484    2.4326    2.4306 H   0  0  0  0  0  0  0  0  0  0  0  0
    5.6840   -3.1911    3.4387 H   0  0  0  0  0  0  0  0  0  0  0  0
  1  2  1  0
  1 27  1  0
  1 28  1  0
  1 29  1  0
  2  3  1  0
  3 26  1  0
  3  4  1  0
  3 30  1  1
  4  5  1  0
  5 10  1  0
  5  6  1  0
  5 31  1  1
  6  9  1  0
  6  7  1  0
  6 32  1  1
  7  8  1  0
  8  9  1  0
  8 33  1  0
  8 34  1  0
  9 10  1  0
  9 35  1  6
 10 11  1  6
 10 12  1  0
 11 36  1  0
 11 37  1  0
 11 38  1  0
 12 18  1  0
 12 13  1  1
 12 14  1  0
 13 39  1  0
 13 40  1  0
 13 41  1  0
 14 15  1  0
 14 16  1  0
 14 42  1  6
 15 43  1  0
 16 26  1  0
 16 17  1  0
 16 44  1  1
 17 18  1  0
 17 45  1  0
 17 46  1  0
 18 19  1  0
 18 47  1  6
 19 20  1  1
 19 21  1  0
 19 26  1  0
 20 48  1  0
 20 49  1  0
 20 50  1  0
 21 22  1  0
 21 51  1  0
 21 52  1  0
 22 23  1  0
 23 24  1  0
 23 25  2  0
 24 53  1  0
 24 54  1  0
 24 55  1  0
 26 56  1  1
M  END
>  <i_m_ct_stereo_status>  (69) 
1

>  <s_m_source_file>  (69) 
/var/tmp/pbs.5076255.sched01/tmpzk3r62u5/0tgg_cfwk.sdf

>  <i_m_source_file_index>  (69) 
27

>  <i_lp_mmshare_version>  (69) 
48012

>  <i_f3d_flags>  (69) 
0

>  <s_epik_input>  (69) 
TzFbQ0gyXVtDQEBIXTJbQ0BIXTFbQ0BIXShbQ0BdMjNbQ0gzXSlPW0NAQEhdKE9bQ0gzXSlbQ0BIXTRbQ0BIXTVbQ0BIXShbT0hdKVtDQEBdMyhbQ0gzXSlbQ0BIXShbQ0gyXTUpW0NAQF00KFtDSDNdKVtDSDJdT0MoPU8pW0NIM10=

>  <s_epik_cmdline>  (69) 
J2VwaWtfcHl0aG9uJywgJy1waHQnLCAnMi4wJywgJy1waCcsICc3LjAnLCAnLXRuJywgJzgnLCAnLW1hJywgJzIwMCcsICctaW1hZScsICc8aW5maWxlLm1hZT4nLCAnLW9tYWUnLCAnPG91dGZpbGUubWFlPic=

>  <r_lp_tautomer_probability>  (69) 
1

>  <r_epik_Ionization_Penalty>  (69) 
3.08231e-07

>  <r_epik_Ionization_Penalty_Charging>  (69) 
0

>  <r_epik_Ionization_Penalty_Neutral>  (69) 
3.08231e-07

>  <r_epik_State_Penalty>  (69) 
-0

>  <r_epik_Charging_Adjusted_Penalty>  (69) 
0

>  <i_epik_Tot_Q>  (69) 
0

>  <i_epik_Tot_abs_Q>  (69) 
0

>  <s_epik_Chemistry_Notes>  (69) 
This compound has an ester and may undergo hydrolysis at high or low pH. This compound contains an acetal/aminal-like group ( X-CH(R)-Y where X, Y are N, S, or O) that may be acid/base labile, releasing an aldehyde.

>  <s_lp_Force_Field>  (69) 
OPLS3e

>  <r_lp_Energy>  (69) 
315.726

>  <b_lp_Chiralities_Consistent>  (69) 
1

>  <s_lp_Variant>  (69) 
16:0-1

>  <s_i_glide_gridfile>  (69) 
pfpi4k_grid

>  <i_i_glide_lignum>  (69) 
27

>  <i_i_glide_rotatable_bonds>  (69) 
5

>  <r_i_docking_score>  (69) 
-2.94715

>  <r_i_glide_ligand_efficiency>  (69) 
-0.113352

>  <r_i_glide_ligand_efficiency_sa>  (69) 
-0.335805

>  <r_i_glide_ligand_efficiency_ln>  (69) 
-0.692128

>  <r_i_glide_gscore>  (69) 
-2.94715

>  <r_i_glide_lipo>  (69) 
-0.750069

>  <r_i_glide_hbond>  (69) 
-0.187685

>  <r_i_glide_metal>  (69) 
-0

>  <r_i_glide_rewards>  (69) 
-0.911498

>  <r_i_glide_evdw>  (69) 
-14.2706

>  <r_i_glide_ecoul>  (69) 
-4.3123

>  <r_i_glide_erotb>  (69) 
0.286668

>  <r_i_glide_esite>  (69) 
-0.0241923

>  <r_i_glide_emodel>  (69) 
-23.0385

>  <r_i_glide_energy>  (69) 
-18.5829

>  <r_i_glide_einternal>  (69) 
3.05939

>  <r_i_glide_intrahb_reward>  (69) 
-0

>  <i_i_glide_confnum>  (69) 
1

>  <i_i_glide_posenum>  (69) 
13

>  <r_i_glide_eff_state_penalty>  (69) 
0

>  <ligand_id>  (69) 
16

>  <original_smiles>  (69) 
COC1OC2C3OCC3C2(C)C2(C)C(O)C3CC2C(C)(COC(C)=O)C13

>  <smiles>  (69) 
[H]OC1([H])C2([H])C([H])([H])C3([H])C(C([H])([H])[H])(C([H])([H])OC(=O)C([H])([H])[H])C2([H])C([H])(OC([H])([H])[H])OC2([H])C4([H])OC([H])([H])C4([H])C2(C([H])([H])[H])C13C([H])([H])[H]

$$$$
16:0:2
     RDKit          3D

 56 60  0  0  1  0  0  0  0  0999 V2000
    3.1012   -5.8665    2.2933 C   0  0  0  0  0  0  0  0  0  0  0  0
    3.2941   -5.2094    1.0411 O   0  0  0  0  0  0  0  0  0  0  0  0
    3.2661   -3.7968    1.0612 C   0  0  2  0  0  0  0  0  0  0  0  0
    2.6001   -3.1362   -0.0805 O   0  0  0  0  0  0  0  0  0  0  0  0
    3.0099   -2.4651   -1.3731 C   0  0  2  0  0  0  0  0  0  0  0  0
    2.6983   -3.2185   -2.6372 C   0  0  1  0  0  0  0  0  0  0  0  0
    2.0217   -2.4315   -3.6241 O   0  0  0  0  0  0  0  0  0  0  0  0
    3.2846   -2.2204   -4.3062 C   0  0  0  0  0  0  0  0  0  0  0  0
    4.0814   -2.8747   -3.1815 C   0  0  1  0  0  0  0  0  0  0  0  0
    4.4597   -2.1506   -1.8428 C   0  0  1  0  0  0  0  0  0  0  0  0
    4.7604   -0.6604   -2.0349 C   0  0  0  0  0  0  0  0  0  0  0  0
    5.2911   -2.7723   -0.7256 C   0  0  1  0  0  0  0  0  0  0  0  0
    4.9677   -4.3758   -0.9676 C   0  0  0  0  0  0  0  0  0  0  0  0
    6.6786   -3.2395   -0.4705 C   0  0  1  0  0  0  0  0  0  0  0  0
    7.6142   -2.3439   -1.0766 O   0  0  0  0  0  0  0  0  0  0  0  0
    6.2445   -3.3607    1.1043 C   0  0  1  0  0  0  0  0  0  0  0  0
    6.6735   -2.0023    1.4023 C   0  0  0  0  0  0  0  0  0  0  0  0
    5.4294   -1.6364    0.5923 C   0  0  2  0  0  0  0  0  0  0  0  0
    4.3805   -1.6572    1.7123 C   0  0  1  0  0  0  0  0  0  0  0  0
    4.6896   -1.1004    3.1626 C   0  0  0  0  0  0  0  0  0  0  0  0
    3.0722   -0.8841    1.3123 C   0  0  0  0  0  0  0  0  0  0  0  0
    3.1011    0.5141    1.6016 O   0  0  0  0  0  0  0  0  0  0  0  0
    2.3221    1.0447    2.5754 C   0  0  0  0  0  0  0  0  0  0  0  0
    2.4045    2.5662    2.6233 C   0  0  0  0  0  0  0  0  0  0  0  0
    1.6275    0.4129    3.3682 O   0  0  0  0  0  0  0  0  0  0  0  0
    4.6243   -3.1745    1.6958 C   0  0  1  0  0  0  0  0  0  0  0  0
    3.1790   -6.9482    2.1627 H   0  0  0  0  0  0  0  0  0  0  0  0
    2.1095   -5.6519    2.6987 H   0  0  0  0  0  0  0  0  0  0  0  0
    3.8527   -5.5739    3.0295 H   0  0  0  0  0  0  0  0  0  0  0  0
    2.4850   -3.5962    1.8017 H   0  0  0  0  0  0  0  0  0  0  0  0
    2.4811   -1.5354   -1.5128 H   0  0  0  0  0  0  0  0  0  0  0  0
    2.3406   -4.2550   -2.6035 H   0  0  0  0  0  0  0  0  0  0  0  0
    3.3618   -2.9066   -5.1200 H   0  0  0  0  0  0  0  0  0  0  0  0
    3.4647   -1.1819   -4.5669 H   0  0  0  0  0  0  0  0  0  0  0  0
    4.7052   -3.6944   -3.5310 H   0  0  0  0  0  0  0  0  0  0  0  0
    5.8130   -0.4635   -2.1188 H   0  0  0  0  0  0  0  0  0  0  0  0
    4.3613   -0.0321   -1.2374 H   0  0  0  0  0  0  0  0  0  0  0  0
    4.3143   -0.2321   -2.9226 H   0  0  0  0  0  0  0  0  0  0  0  0
    5.3046   -5.1175   -0.2322 H   0  0  0  0  0  0  0  0  0  0  0  0
    5.4165   -4.7132   -1.9054 H   0  0  0  0  0  0  0  0  0  0  0  0
    3.9539   -4.7021   -1.1330 H   0  0  0  0  0  0  0  0  0  0  0  0
    7.1214   -4.2008   -0.7791 H   0  0  0  0  0  0  0  0  0  0  0  0
    8.4993   -2.6511   -0.8577 H   0  0  0  0  0  0  0  0  0  0  0  0
    6.8213   -4.1147    1.6384 H   0  0  0  0  0  0  0  0  0  0  0  0
    6.7317   -1.8219    2.4514 H   0  0  0  0  0  0  0  0  0  0  0  0
    7.6414   -1.6495    1.0672 H   0  0  0  0  0  0  0  0  0  0  0  0
    5.6182   -0.6081    0.2939 H   0  0  0  0  0  0  0  0  0  0  0  0
    3.7864   -0.9393    3.7438 H   0  0  0  0  0  0  0  0  0  0  0  0
    5.2384   -0.1584    3.1113 H   0  0  0  0  0  0  0  0  0  0  0  0
    5.2586   -1.7724    3.8117 H   0  0  0  0  0  0  0  0  0  0  0  0
    2.9633   -0.8598    0.2418 H   0  0  0  0  0  0  0  0  0  0  0  0
    2.1846   -1.3646    1.7267 H   0  0  0  0  0  0  0  0  0  0  0  0
    2.1241    2.9893    1.6609 H   0  0  0  0  0  0  0  0  0  0  0  0
    3.4085    2.9049    2.8807 H   0  0  0  0  0  0  0  0  0  0  0  0
    1.7116    2.9505    3.3680 H   0  0  0  0  0  0  0  0  0  0  0  0
    4.6570   -3.5485    2.7193 H   0  0  0  0  0  0  0  0  0  0  0  0
  1  2  1  0
  1 27  1  0
  1 28  1  0
  1 29  1  0
  2  3  1  0
  3 26  1  0
  3  4  1  0
  3 30  1  1
  4  5  1  0
  5 10  1  0
  5  6  1  0
  5 31  1  6
  6  9  1  0
  6  7  1  0
  6 32  1  1
  7  8  1  0
  8  9  1  0
  8 33  1  0
  8 34  1  0
  9 10  1  0
  9 35  1  6
 10 11  1  6
 10 12  1  0
 11 36  1  0
 11 37  1  0
 11 38  1  0
 12 18  1  0
 12 13  1  1
 12 14  1  0
 13 39  1  0
 13 40  1  0
 13 41  1  0
 14 15  1  0
 14 16  1  0
 14 42  1  6
 15 43  1  0
 16 26  1  0
 16 17  1  0
 16 44  1  1
 17 18  1  0
 17 45  1  0
 17 46  1  0
 18 19  1  0
 18 47  1  6
 19 20  1  1
 19 21  1  0
 19 26  1  0
 20 48  1  0
 20 49  1  0
 20 50  1  0
 21 22  1  0
 21 51  1  0
 21 52  1  0
 22 23  1  0
 23 24  1  0
 23 25  2  0
 24 53  1  0
 24 54  1  0
 24 55  1  0
 26 56  1  1
M  END
>  <i_m_ct_stereo_status>  (70) 
1

>  <s_m_source_file>  (70) 
/var/tmp/pbs.5076255.sched01/tmpzk3r62u5/0tgg_cfwk.sdf

>  <i_m_source_file_index>  (70) 
27

>  <i_lp_mmshare_version>  (70) 
48012

>  <i_f3d_flags>  (70) 
0

>  <s_epik_input>  (70) 
TzFbQ0gyXVtDQEBIXTJbQ0BIXTFbQ0BIXShbQ0BdMjNbQ0gzXSlPW0NAQEhdKE9bQ0gzXSlbQ0BIXTRbQ0BIXTVbQ0BIXShbT0hdKVtDQEBdMyhbQ0gzXSlbQ0BIXShbQ0gyXTUpW0NAQF00KFtDSDNdKVtDSDJdT0MoPU8pW0NIM10=

>  <s_epik_cmdline>  (70) 
J2VwaWtfcHl0aG9uJywgJy1waHQnLCAnMi4wJywgJy1waCcsICc3LjAnLCAnLXRuJywgJzgnLCAnLW1hJywgJzIwMCcsICctaW1hZScsICc8aW5maWxlLm1hZT4nLCAnLW9tYWUnLCAnPG91dGZpbGUubWFlPic=

>  <r_lp_tautomer_probability>  (70) 
1

>  <r_epik_Ionization_Penalty>  (70) 
3.08231e-07

>  <r_epik_Ionization_Penalty_Charging>  (70) 
0

>  <r_epik_Ionization_Penalty_Neutral>  (70) 
3.08231e-07

>  <r_epik_State_Penalty>  (70) 
-0

>  <r_epik_Charging_Adjusted_Penalty>  (70) 
0

>  <i_epik_Tot_Q>  (70) 
0

>  <i_epik_Tot_abs_Q>  (70) 
0

>  <s_epik_Chemistry_Notes>  (70) 
This compound has an ester and may undergo hydrolysis at high or low pH. This compound contains an acetal/aminal-like group ( X-CH(R)-Y where X, Y are N, S, or O) that may be acid/base labile, releasing an aldehyde.

>  <s_lp_Force_Field>  (70) 
OPLS3e

>  <r_lp_Energy>  (70) 
315.726

>  <b_lp_Chiralities_Consistent>  (70) 
1

>  <s_lp_Variant>  (70) 
16:0-1

>  <s_i_glide_gridfile>  (70) 
pfpi4k_grid

>  <i_i_glide_lignum>  (70) 
27

>  <i_i_glide_rotatable_bonds>  (70) 
5

>  <r_i_docking_score>  (70) 
-2.60548

>  <r_i_glide_ligand_efficiency>  (70) 
-0.100211

>  <r_i_glide_ligand_efficiency_sa>  (70) 
-0.296874

>  <r_i_glide_ligand_efficiency_ln>  (70) 
-0.611889

>  <r_i_glide_gscore>  (70) 
-2.60548

>  <r_i_glide_lipo>  (70) 
-0.566184

>  <r_i_glide_hbond>  (70) 
-0.16

>  <r_i_glide_metal>  (70) 
-0

>  <r_i_glide_rewards>  (70) 
-0.918029

>  <r_i_glide_evdw>  (70) 
-16.8384

>  <r_i_glide_ecoul>  (70) 
-2.6919

>  <r_i_glide_erotb>  (70) 
0.286668

>  <r_i_glide_esite>  (70) 
-0.00223204

>  <r_i_glide_emodel>  (70) 
-21.0256

>  <r_i_glide_energy>  (70) 
-19.5303

>  <r_i_glide_einternal>  (70) 
6.93152

>  <r_i_glide_intrahb_reward>  (70) 
-0

>  <i_i_glide_confnum>  (70) 
1

>  <i_i_glide_posenum>  (70) 
28

>  <r_i_glide_eff_state_penalty>  (70) 
0

>  <ligand_id>  (70) 
16

>  <original_smiles>  (70) 
COC1OC2C3OCC3C2(C)C2(C)C(O)C3CC2C(C)(COC(C)=O)C13

>  <smiles>  (70) 
[H]OC1([H])C2([H])C([H])([H])C3([H])C(C([H])([H])[H])(C([H])([H])OC(=O)C([H])([H])[H])C2([H])C([H])(OC([H])([H])[H])OC2([H])C4([H])OC([H])([H])C4([H])C2(C([H])([H])[H])C13C([H])([H])[H]

$$$$
17:0:0
     RDKit          3D

 58 62  0  0  1  0  0  0  0  0999 V2000
    2.3074   -7.6459    1.6838 C   0  0  0  0  0  0  0  0  0  0  0  0
    2.0688   -6.2539    1.1105 C   0  0  0  0  0  0  0  0  0  0  0  0
    1.0350   -5.9900    0.4899 O   0  0  0  0  0  0  0  0  0  0  0  0
    3.0852   -5.4049    1.3731 O   0  0  0  0  0  0  0  0  0  0  0  0
    3.0111   -4.0288    0.9889 C   0  0  2  0  0  0  0  0  0  0  0  0
    3.8401   -3.8157   -0.3124 C   0  0  0  0  0  0  0  0  0  0  0  0
    4.2660   -2.3672   -0.5802 C   0  0  0  0  0  0  0  0  0  0  0  0
    5.0189   -2.1385   -1.8793 C   0  0  0  0  0  0  0  0  0  0  0  0
    4.0106   -1.3695    0.2895 C   0  0  0  0  0  0  0  0  0  0  0  0
    3.2254   -1.6090    1.5646 C   0  0  2  0  0  0  0  0  0  0  0  0
    3.2471   -0.4714    2.6809 C   0  0  2  0  0  0  0  0  0  0  0  0
    3.6420   -1.1760    3.8048 O   0  0  0  0  0  0  0  0  0  0  0  0
    2.4538   -1.8682    4.0623 C   0  0  1  0  0  0  0  0  0  0  0  0
    2.0294   -1.3558    5.4098 C   0  0  0  0  0  0  0  0  0  0  0  0
    1.7534    0.0944    4.8981 C   0  0  2  0  0  0  0  0  0  0  0  0
    0.3824    0.6187    5.3825 C   0  0  0  0  0  0  0  0  0  0  0  0
   -0.1150    1.8418    4.5785 C   0  0  0  0  0  0  0  0  0  0  0  0
   -1.4873    2.2779    5.1244 C   0  0  0  0  0  0  0  0  0  0  0  0
    0.8644    3.0318    4.7049 C   0  0  0  0  0  0  0  0  0  0  0  0
   -0.2959    1.4082    3.1059 C   0  0  0  0  0  0  0  0  0  0  0  0
    0.9776    0.8435    2.4703 C   0  0  0  0  0  0  0  0  0  0  0  0
    1.2735    1.0975    1.3100 O   0  0  0  0  0  0  0  0  0  0  0  0
    1.8666   -0.0662    3.3232 C   0  0  1  0  0  0  0  0  0  0  0  0
    1.4092   -1.3622    3.2999 O   0  0  0  0  0  0  0  0  0  0  0  0
    2.7030   -3.2881    3.5389 C   0  0  1  0  0  0  0  0  0  0  0  0
    1.5004   -4.0306    3.4805 O   0  0  0  0  0  0  0  0  0  0  0  0
    3.4572   -3.0836    2.1407 C   0  0  1  0  0  0  0  0  0  0  0  0
    4.9677   -3.3564    2.4312 C   0  0  0  0  0  0  0  0  0  0  0  0
    2.5041   -7.5896    2.7517 H   0  0  0  0  0  0  0  0  0  0  0  0
    3.1624   -8.1095    1.1921 H   0  0  0  0  0  0  0  0  0  0  0  0
    1.4339   -8.2788    1.5244 H   0  0  0  0  0  0  0  0  0  0  0  0
    1.9826   -3.7625    0.7578 H   0  0  0  0  0  0  0  0  0  0  0  0
    4.7488   -4.4172   -0.2630 H   0  0  0  0  0  0  0  0  0  0  0  0
    3.2667   -4.1921   -1.1587 H   0  0  0  0  0  0  0  0  0  0  0  0
    5.9178   -2.7559   -1.9201 H   0  0  0  0  0  0  0  0  0  0  0  0
    5.3162   -1.0952   -1.9810 H   0  0  0  0  0  0  0  0  0  0  0  0
    4.3949   -2.3966   -2.7362 H   0  0  0  0  0  0  0  0  0  0  0  0
    4.3053   -0.3517    0.0799 H   0  0  0  0  0  0  0  0  0  0  0  0
    2.2203   -1.5798    1.1396 H   0  0  0  0  0  0  0  0  0  0  0  0
    3.9174    0.3654    2.4784 H   0  0  0  0  0  0  0  0  0  0  0  0
    1.1355   -1.8840    5.7447 H   0  0  0  0  0  0  0  0  0  0  0  0
    2.8338   -1.4298    6.1406 H   0  0  0  0  0  0  0  0  0  0  0  0
    2.5355    0.7613    5.2556 H   0  0  0  0  0  0  0  0  0  0  0  0
   -0.3538   -0.1840    5.2796 H   0  0  0  0  0  0  0  0  0  0  0  0
    0.4195    0.8569    6.4468 H   0  0  0  0  0  0  0  0  0  0  0  0
   -1.8919    3.1191    4.5581 H   0  0  0  0  0  0  0  0  0  0  0  0
   -1.4343    2.5783    6.1729 H   0  0  0  0  0  0  0  0  0  0  0  0
   -2.2031    1.4603    5.0499 H   0  0  0  0  0  0  0  0  0  0  0  0
    0.4967    3.9058    4.1634 H   0  0  0  0  0  0  0  0  0  0  0  0
    1.8488    2.8024    4.2933 H   0  0  0  0  0  0  0  0  0  0  0  0
    1.0130    3.3213    5.7480 H   0  0  0  0  0  0  0  0  0  0  0  0
   -1.0554    0.6300    3.0476 H   0  0  0  0  0  0  0  0  0  0  0  0
   -0.6591    2.2428    2.5048 H   0  0  0  0  0  0  0  0  0  0  0  0
    3.3549   -3.7930    4.2523 H   0  0  0  0  0  0  0  0  0  0  0  0
    1.1275   -4.0580    4.3482 H   0  0  0  0  0  0  0  0  0  0  0  0
    5.3547   -2.7369    3.2387 H   0  0  0  0  0  0  0  0  0  0  0  0
    5.6138   -3.1694    1.5773 H   0  0  0  0  0  0  0  0  0  0  0  0
    5.1239   -4.3948    2.7287 H   0  0  0  0  0  0  0  0  0  0  0  0
  1  2  1  0
  1 29  1  0
  1 30  1  0
  1 31  1  0
  2  3  2  0
  2  4  1  0
  4  5  1  0
  5 27  1  0
  5  6  1  0
  5 32  1  6
  6  7  1  0
  6 33  1  0
  6 34  1  0
  7  8  1  0
  7  9  2  0
  8 35  1  0
  8 36  1  0
  8 37  1  0
  9 10  1  0
  9 38  1  0
 10 27  1  0
 10 11  1  0
 10 39  1  6
 11 23  1  0
 11 12  1  0
 11 40  1  6
 12 13  1  0
 13 24  1  0
 13 14  1  1
 13 25  1  0
 14 15  1  0
 14 41  1  0
 14 42  1  0
 15 23  1  0
 15 16  1  0
 15 43  1  1
 16 17  1  0
 16 44  1  0
 16 45  1  0
 17 18  1  0
 17 19  1  0
 17 20  1  0
 18 46  1  0
 18 47  1  0
 18 48  1  0
 19 49  1  0
 19 50  1  0
 19 51  1  0
 20 21  1  0
 20 52  1  0
 20 53  1  0
 21 22  2  0
 23 21  1  6
 23 24  1  0
 25 26  1  0
 25 27  1  0
 25 54  1  1
 26 55  1  0
 27 28  1  1
 28 56  1  0
 28 57  1  0
 28 58  1  0
M  END
>  <i_m_ct_stereo_status>  (71) 
1

>  <s_m_source_file>  (71) 
/var/tmp/pbs.5076255.sched01/tmpzk3r62u5/0tgg_cfwk.sdf

>  <i_m_source_file_index>  (71) 
28

>  <i_lp_mmshare_version>  (71) 
48012

>  <i_f3d_flags>  (71) 
0

>  <s_epik_input>  (71) 
W0NIM11DKD1PKU9bQ0BIXShbQ0gyXUMoW0NIM10pPVtDSF0xKVtDQF0oW0NIM10pKFtDQEBIXTJbT0hdKVtDQEhdMVtDQEhdKE9bQ0BAXTIzNClbQ0BAXTUoTzQpW0NASF0oW0NIMl0zKVtDSDJdQyhbQ0gzXSkoW0NIM10pW0NIMl1DNT1P

>  <s_epik_cmdline>  (71) 
J2VwaWtfcHl0aG9uJywgJy1waHQnLCAnMi4wJywgJy1waCcsICc3LjAnLCAnLXRuJywgJzgnLCAnLW1hJywgJzIwMCcsICctaW1hZScsICc8aW5maWxlLm1hZT4nLCAnLW9tYWUnLCAnPG91dGZpbGUubWFlPic=

>  <r_lp_tautomer_probability>  (71) 
1

>  <r_epik_Ionization_Penalty>  (71) 
2.36698e-07

>  <r_epik_Ionization_Penalty_Charging>  (71) 
0

>  <r_epik_Ionization_Penalty_Neutral>  (71) 
2.36698e-07

>  <r_epik_State_Penalty>  (71) 
-0

>  <r_epik_Charging_Adjusted_Penalty>  (71) 
0

>  <i_epik_Tot_Q>  (71) 
0

>  <i_epik_Tot_abs_Q>  (71) 
0

>  <s_epik_Chemistry_Notes>  (71) 
This compound has an ester and may undergo hydrolysis at high or low pH.

>  <s_lp_Force_Field>  (71) 
OPLS3e

>  <r_lp_Energy>  (71) 
86.6305

>  <b_lp_Chiralities_Consistent>  (71) 
1

>  <s_lp_Variant>  (71) 
17:0-1

>  <s_i_glide_gridfile>  (71) 
pfpi4k_grid

>  <i_i_glide_lignum>  (71) 
28

>  <i_i_glide_rotatable_bonds>  (71) 
3

>  <r_i_docking_score>  (71) 
-2.57934

>  <r_i_glide_ligand_efficiency>  (71) 
-0.0921193

>  <r_i_glide_ligand_efficiency_sa>  (71) 
-0.279728

>  <r_i_glide_ligand_efficiency_ln>  (71) 
-0.595387

>  <r_i_glide_gscore>  (71) 
-2.57934

>  <r_i_glide_lipo>  (71) 
-0.0432482

>  <r_i_glide_hbond>  (71) 
-0.16

>  <r_i_glide_metal>  (71) 
-0

>  <r_i_glide_rewards>  (71) 
-0.746795

>  <r_i_glide_evdw>  (71) 
-26.929

>  <r_i_glide_ecoul>  (71) 
-2.27684

>  <r_i_glide_erotb>  (71) 
0.127928

>  <r_i_glide_esite>  (71) 
-0.0692515

>  <r_i_glide_emodel>  (71) 
-33.6453

>  <r_i_glide_energy>  (71) 
-29.2058

>  <r_i_glide_einternal>  (71) 
0.532848

>  <r_i_glide_intrahb_reward>  (71) 
-0

>  <i_i_glide_confnum>  (71) 
1

>  <i_i_glide_posenum>  (71) 
8

>  <r_i_glide_eff_state_penalty>  (71) 
0

>  <ligand_id>  (71) 
17

>  <original_smiles>  (71) 
CC(=O)OC1CC(C)=CC2C3OC4(CC5CC(C)(C)CC(=O)C53O4)C(O)C12C

>  <smiles>  (71) 
[H]OC1([H])C23OC([H])(C4([H])C([H])=C(C([H])([H])[H])C([H])([H])C([H])(OC(=O)C([H])([H])[H])C14C([H])([H])[H])C1(O2)C(=O)C([H])([H])C(C([H])([H])[H])(C([H])([H])[H])C([H])([H])C1([H])C3([H])[H]

$$$$
17:0:1
     RDKit          3D

 58 62  0  0  1  0  0  0  0  0999 V2000
    0.6028   -7.2891    4.8924 C   0  0  0  0  0  0  0  0  0  0  0  0
    0.8403   -6.2067    3.8467 C   0  0  0  0  0  0  0  0  0  0  0  0
    0.2593   -6.2307    2.7596 O   0  0  0  0  0  0  0  0  0  0  0  0
    1.7116   -5.2660    4.2715 O   0  0  0  0  0  0  0  0  0  0  0  0
    1.9839   -4.1046    3.4863 C   0  0  2  0  0  0  0  0  0  0  0  0
    3.1658   -4.3937    2.5121 C   0  0  0  0  0  0  0  0  0  0  0  0
    3.8875   -3.1512    1.9759 C   0  0  0  0  0  0  0  0  0  0  0  0
    5.0008   -3.4246    0.9799 C   0  0  0  0  0  0  0  0  0  0  0  0
    3.5724   -1.9056    2.3797 C   0  0  0  0  0  0  0  0  0  0  0  0
    2.4364   -1.6501    3.3497 C   0  0  2  0  0  0  0  0  0  0  0  0
    2.3404   -0.2091    4.0210 C   0  0  2  0  0  0  0  0  0  0  0  0
    2.2821   -0.5218    5.3681 O   0  0  0  0  0  0  0  0  0  0  0  0
    0.9719   -1.0024    5.4308 C   0  0  1  0  0  0  0  0  0  0  0  0
    0.2835   -0.0379    6.3553 C   0  0  0  0  0  0  0  0  0  0  0  0
    0.4090    1.1689    5.3719 C   0  0  2  0  0  0  0  0  0  0  0  0
   -0.9345    1.9188    5.2236 C   0  0  0  0  0  0  0  0  0  0  0  0
   -0.9739    2.8302    3.9786 C   0  0  0  0  0  0  0  0  0  0  0  0
   -2.3496    3.5134    3.8962 C   0  0  0  0  0  0  0  0  0  0  0  0
    0.1139    3.9277    4.0553 C   0  0  0  0  0  0  0  0  0  0  0  0
   -0.8078    1.9373    2.7276 C   0  0  0  0  0  0  0  0  0  0  0  0
    0.4842    1.1184    2.7138 C   0  0  0  0  0  0  0  0  0  0  0  0
    1.1350    0.9652    1.6827 O   0  0  0  0  0  0  0  0  0  0  0  0
    0.9256    0.4803    4.0367 C   0  0  1  0  0  0  0  0  0  0  0  0
    0.2801   -0.7170    4.2584 O   0  0  0  0  0  0  0  0  0  0  0  0
    1.1123   -2.5273    5.4649 C   0  0  1  0  0  0  0  0  0  0  0  0
   -0.1340   -3.1434    5.2229 O   0  0  0  0  0  0  0  0  0  0  0  0
    2.2464   -2.8594    4.3820 C   0  0  1  0  0  0  0  0  0  0  0  0
    3.5495   -3.1198    5.2042 C   0  0  0  0  0  0  0  0  0  0  0  0
    0.2809   -6.8412    5.8320 H   0  0  0  0  0  0  0  0  0  0  0  0
    1.5186   -7.8520    5.0689 H   0  0  0  0  0  0  0  0  0  0  0  0
   -0.1703   -7.9818    4.5586 H   0  0  0  0  0  0  0  0  0  0  0  0
    1.1060   -3.8730    2.8815 H   0  0  0  0  0  0  0  0  0  0  0  0
    3.9139   -4.9991    3.0274 H   0  0  0  0  0  0  0  0  0  0  0  0
    2.8068   -4.9927    1.6763 H   0  0  0  0  0  0  0  0  0  0  0  0
    5.7581   -4.0784    1.4159 H   0  0  0  0  0  0  0  0  0  0  0  0
    5.4893   -2.4998    0.6736 H   0  0  0  0  0  0  0  0  0  0  0  0
    4.6084   -3.9123    0.0858 H   0  0  0  0  0  0  0  0  0  0  0  0
    4.0828   -1.0411    1.9843 H   0  0  0  0  0  0  0  0  0  0  0  0
    1.6107   -1.6955    2.6372 H   0  0  0  0  0  0  0  0  0  0  0  0
    3.1708    0.4648    3.8050 H   0  0  0  0  0  0  0  0  0  0  0  0
   -0.7433   -0.3611    6.5288 H   0  0  0  0  0  0  0  0  0  0  0  0
    0.8297    0.0836    7.2891 H   0  0  0  0  0  0  0  0  0  0  0  0
    1.1611    1.8616    5.7432 H   0  0  0  0  0  0  0  0  0  0  0  0
   -1.7409    1.1843    5.1369 H   0  0  0  0  0  0  0  0  0  0  0  0
   -1.1531    2.4999    6.1210 H   0  0  0  0  0  0  0  0  0  0  0  0
   -2.4244    4.1438    3.0082 H   0  0  0  0  0  0  0  0  0  0  0  0
   -2.5372    4.1418    4.7683 H   0  0  0  0  0  0  0  0  0  0  0  0
   -3.1542    2.7784    3.8404 H   0  0  0  0  0  0  0  0  0  0  0  0
    0.0619    4.5955    3.1935 H   0  0  0  0  0  0  0  0  0  0  0  0
    1.1219    3.5101    4.0579 H   0  0  0  0  0  0  0  0  0  0  0  0
    0.0157    4.5394    4.9544 H   0  0  0  0  0  0  0  0  0  0  0  0
   -1.6433    1.2425    2.6631 H   0  0  0  0  0  0  0  0  0  0  0  0
   -0.8445    2.5423    1.8243 H   0  0  0  0  0  0  0  0  0  0  0  0
    1.4376   -2.8106    6.4679 H   0  0  0  0  0  0  0  0  0  0  0  0
   -0.4092   -2.8773    4.3559 H   0  0  0  0  0  0  0  0  0  0  0  0
    3.7953   -2.2934    5.8678 H   0  0  0  0  0  0  0  0  0  0  0  0
    4.4295   -3.2739    4.5853 H   0  0  0  0  0  0  0  0  0  0  0  0
    3.4413   -4.0049    5.8324 H   0  0  0  0  0  0  0  0  0  0  0  0
  1  2  1  0
  1 29  1  0
  1 30  1  0
  1 31  1  0
  2  3  2  0
  2  4  1  0
  4  5  1  0
  5 27  1  0
  5  6  1  0
  5 32  1  6
  6  7  1  0
  6 33  1  0
  6 34  1  0
  7  8  1  0
  7  9  2  0
  8 35  1  0
  8 36  1  0
  8 37  1  0
  9 10  1  0
  9 38  1  0
 10 27  1  0
 10 11  1  0
 10 39  1  6
 11 23  1  0
 11 12  1  0
 11 40  1  1
 12 13  1  0
 13 24  1  0
 13 14  1  1
 13 25  1  0
 14 15  1  0
 14 41  1  0
 14 42  1  0
 15 23  1  0
 15 16  1  0
 15 43  1  1
 16 17  1  0
 16 44  1  0
 16 45  1  0
 17 18  1  0
 17 19  1  0
 17 20  1  0
 18 46  1  0
 18 47  1  0
 18 48  1  0
 19 49  1  0
 19 50  1  0
 19 51  1  0
 20 21  1  0
 20 52  1  0
 20 53  1  0
 21 22  2  0
 23 21  1  6
 23 24  1  0
 25 26  1  0
 25 27  1  0
 25 54  1  1
 26 55  1  0
 27 28  1  1
 28 56  1  0
 28 57  1  0
 28 58  1  0
M  END
>  <i_m_ct_stereo_status>  (72) 
1

>  <s_m_source_file>  (72) 
/var/tmp/pbs.5076255.sched01/tmpzk3r62u5/0tgg_cfwk.sdf

>  <i_m_source_file_index>  (72) 
28

>  <i_lp_mmshare_version>  (72) 
48012

>  <i_f3d_flags>  (72) 
0

>  <s_epik_input>  (72) 
W0NIM11DKD1PKU9bQ0BIXShbQ0gyXUMoW0NIM10pPVtDSF0xKVtDQF0oW0NIM10pKFtDQEBIXTJbT0hdKVtDQEhdMVtDQEhdKE9bQ0BAXTIzNClbQ0BAXTUoTzQpW0NASF0oW0NIMl0zKVtDSDJdQyhbQ0gzXSkoW0NIM10pW0NIMl1DNT1P

>  <s_epik_cmdline>  (72) 
J2VwaWtfcHl0aG9uJywgJy1waHQnLCAnMi4wJywgJy1waCcsICc3LjAnLCAnLXRuJywgJzgnLCAnLW1hJywgJzIwMCcsICctaW1hZScsICc8aW5maWxlLm1hZT4nLCAnLW9tYWUnLCAnPG91dGZpbGUubWFlPic=

>  <r_lp_tautomer_probability>  (72) 
1

>  <r_epik_Ionization_Penalty>  (72) 
2.36698e-07

>  <r_epik_Ionization_Penalty_Charging>  (72) 
0

>  <r_epik_Ionization_Penalty_Neutral>  (72) 
2.36698e-07

>  <r_epik_State_Penalty>  (72) 
-0

>  <r_epik_Charging_Adjusted_Penalty>  (72) 
0

>  <i_epik_Tot_Q>  (72) 
0

>  <i_epik_Tot_abs_Q>  (72) 
0

>  <s_epik_Chemistry_Notes>  (72) 
This compound has an ester and may undergo hydrolysis at high or low pH.

>  <s_lp_Force_Field>  (72) 
OPLS3e

>  <r_lp_Energy>  (72) 
86.6305

>  <b_lp_Chiralities_Consistent>  (72) 
1

>  <s_lp_Variant>  (72) 
17:0-1

>  <s_i_glide_gridfile>  (72) 
pfpi4k_grid

>  <i_i_glide_lignum>  (72) 
28

>  <i_i_glide_rotatable_bonds>  (72) 
3

>  <r_i_docking_score>  (72) 
-2.55422

>  <r_i_glide_ligand_efficiency>  (72) 
-0.0912223

>  <r_i_glide_ligand_efficiency_sa>  (72) 
-0.277005

>  <r_i_glide_ligand_efficiency_ln>  (72) 
-0.58959

>  <r_i_glide_gscore>  (72) 
-2.55422

>  <r_i_glide_lipo>  (72) 
-0.0354814

>  <r_i_glide_hbond>  (72) 
-0.127298

>  <r_i_glide_metal>  (72) 
-0

>  <r_i_glide_rewards>  (72) 
-0.746795

>  <r_i_glide_evdw>  (72) 
-24.4956

>  <r_i_glide_ecoul>  (72) 
-3.18965

>  <r_i_glide_erotb>  (72) 
0.127928

>  <r_i_glide_esite>  (72) 
-0.0693504

>  <r_i_glide_emodel>  (72) 
-32.305

>  <r_i_glide_energy>  (72) 
-27.6852

>  <r_i_glide_einternal>  (72) 
0.0790876

>  <r_i_glide_intrahb_reward>  (72) 
-0

>  <i_i_glide_confnum>  (72) 
1

>  <i_i_glide_posenum>  (72) 
16

>  <r_i_glide_eff_state_penalty>  (72) 
0

>  <ligand_id>  (72) 
17

>  <original_smiles>  (72) 
CC(=O)OC1CC(C)=CC2C3OC4(CC5CC(C)(C)CC(=O)C53O4)C(O)C12C

>  <smiles>  (72) 
[H]OC1([H])C23OC([H])(C4([H])C([H])=C(C([H])([H])[H])C([H])([H])C([H])(OC(=O)C([H])([H])[H])C14C([H])([H])[H])C1(O2)C(=O)C([H])([H])C(C([H])([H])[H])(C([H])([H])[H])C([H])([H])C1([H])C3([H])[H]

$$$$
17:0:2
     RDKit          3D

 58 62  0  0  1  0  0  0  0  0999 V2000
    5.9530   -4.2129    6.7650 C   0  0  0  0  0  0  0  0  0  0  0  0
    4.6446   -3.6247    7.2807 C   0  0  0  0  0  0  0  0  0  0  0  0
    4.5918   -3.0247    8.3543 O   0  0  0  0  0  0  0  0  0  0  0  0
    3.6133   -3.8433    6.4427 O   0  0  0  0  0  0  0  0  0  0  0  0
    2.3266   -3.2933    6.7249 C   0  0  2  0  0  0  0  0  0  0  0  0
    1.4999   -4.3258    7.5482 C   0  0  0  0  0  0  0  0  0  0  0  0
   -0.0182   -4.1287    7.4998 C   0  0  0  0  0  0  0  0  0  0  0  0
   -0.8278   -5.0925    8.3439 C   0  0  0  0  0  0  0  0  0  0  0  0
   -0.5969   -3.1837    6.7352 C   0  0  0  0  0  0  0  0  0  0  0  0
    0.2266   -2.2016    5.9318 C   0  0  2  0  0  0  0  0  0  0  0  0
   -0.5240   -1.3341    4.8293 C   0  0  2  0  0  0  0  0  0  0  0  0
    0.2342   -1.5879    3.7020 O   0  0  0  0  0  0  0  0  0  0  0  0
    1.3617   -0.8192    4.0097 C   0  0  1  0  0  0  0  0  0  0  0  0
    1.3908    0.2200    2.9251 C   0  0  0  0  0  0  0  0  0  0  0  0
    0.0727    0.9115    3.3966 C   0  0  2  0  0  0  0  0  0  0  0  0
    0.2431    2.4427    3.4877 C   0  0  0  0  0  0  0  0  0  0  0  0
   -0.8588    3.1226    4.3290 C   0  0  0  0  0  0  0  0  0  0  0  0
   -0.5879    4.6361    4.3721 C   0  0  0  0  0  0  0  0  0  0  0  0
   -2.2565    2.8882    3.7130 C   0  0  0  0  0  0  0  0  0  0  0  0
   -0.7765    2.5782    5.7727 C   0  0  0  0  0  0  0  0  0  0  0  0
   -0.9201    1.0572    5.8672 C   0  0  0  0  0  0  0  0  0  0  0  0
   -1.5684    0.5434    6.7794 O   0  0  0  0  0  0  0  0  0  0  0  0
   -0.2194    0.2083    4.7921 C   0  0  1  0  0  0  0  0  0  0  0  0
    1.1068    0.0060    5.0997 O   0  0  0  0  0  0  0  0  0  0  0  0
    2.4083   -1.8360    4.4847 C   0  0  1  0  0  0  0  0  0  0  0  0
    3.5046   -1.1954    5.1029 O   0  0  0  0  0  0  0  0  0  0  0  0
    1.5988   -2.8494    5.4251 C   0  0  1  0  0  0  0  0  0  0  0  0
    1.3452   -4.1220    4.5551 C   0  0  0  0  0  0  0  0  0  0  0  0
    6.1754   -3.8283    5.7700 H   0  0  0  0  0  0  0  0  0  0  0  0
    5.8806   -5.2983    6.7142 H   0  0  0  0  0  0  0  0  0  0  0  0
    6.7793   -3.9523    7.4267 H   0  0  0  0  0  0  0  0  0  0  0  0
    2.4409   -2.3994    7.3404 H   0  0  0  0  0  0  0  0  0  0  0  0
    1.7038   -5.3277    7.1656 H   0  0  0  0  0  0  0  0  0  0  0  0
    1.8374   -4.3155    8.5841 H   0  0  0  0  0  0  0  0  0  0  0  0
   -0.6175   -6.1221    8.0494 H   0  0  0  0  0  0  0  0  0  0  0  0
   -1.8978   -4.9227    8.2283 H   0  0  0  0  0  0  0  0  0  0  0  0
   -0.5768   -4.9880    9.4003 H   0  0  0  0  0  0  0  0  0  0  0  0
   -1.6678   -3.0651    6.7068 H   0  0  0  0  0  0  0  0  0  0  0  0
    0.4780   -1.5063    6.7343 H   0  0  0  0  0  0  0  0  0  0  0  0
   -1.5723   -1.5869    4.6672 H   0  0  0  0  0  0  0  0  0  0  0  0
    2.2786    0.8442    3.0320 H   0  0  0  0  0  0  0  0  0  0  0  0
    1.3361   -0.2265    1.9337 H   0  0  0  0  0  0  0  0  0  0  0  0
   -0.7240    0.6857    2.6926 H   0  0  0  0  0  0  0  0  0  0  0  0
    1.2130    2.6639    3.9423 H   0  0  0  0  0  0  0  0  0  0  0  0
    0.2784    2.8831    2.4886 H   0  0  0  0  0  0  0  0  0  0  0  0
   -1.3290    5.1403    4.9918 H   0  0  0  0  0  0  0  0  0  0  0  0
   -0.6186    5.0817    3.3745 H   0  0  0  0  0  0  0  0  0  0  0  0
    0.3924    4.8559    4.7968 H   0  0  0  0  0  0  0  0  0  0  0  0
   -3.0358    3.3858    4.2909 H   0  0  0  0  0  0  0  0  0  0  0  0
   -2.5210    1.8300    3.6865 H   0  0  0  0  0  0  0  0  0  0  0  0
   -2.3087    3.2546    2.6840 H   0  0  0  0  0  0  0  0  0  0  0  0
    0.1924    2.8333    6.1973 H   0  0  0  0  0  0  0  0  0  0  0  0
   -1.5293    3.0509    6.4028 H   0  0  0  0  0  0  0  0  0  0  0  0
    2.7918   -2.3535    3.6053 H   0  0  0  0  0  0  0  0  0  0  0  0
    3.8424   -0.5420    4.5079 H   0  0  0  0  0  0  0  0  0  0  0  0
    0.8469   -3.8880    3.6163 H   0  0  0  0  0  0  0  0  0  0  0  0
    0.7250   -4.8668    5.0470 H   0  0  0  0  0  0  0  0  0  0  0  0
    2.2888   -4.6080    4.2994 H   0  0  0  0  0  0  0  0  0  0  0  0
  1  2  1  0
  1 29  1  0
  1 30  1  0
  1 31  1  0
  2  3  2  0
  2  4  1  0
  4  5  1  0
  5 27  1  0
  5  6  1  0
  5 32  1  1
  6  7  1  0
  6 33  1  0
  6 34  1  0
  7  8  1  0
  7  9  2  0
  8 35  1  0
  8 36  1  0
  8 37  1  0
  9 10  1  0
  9 38  1  0
 10 27  1  0
 10 11  1  0
 10 39  1  1
 11 23  1  0
 11 12  1  0
 11 40  1  6
 12 13  1  0
 13 24  1  0
 13 14  1  6
 13 25  1  0
 14 15  1  0
 14 41  1  0
 14 42  1  0
 15 23  1  0
 15 16  1  0
 15 43  1  6
 16 17  1  0
 16 44  1  0
 16 45  1  0
 17 18  1  0
 17 19  1  0
 17 20  1  0
 18 46  1  0
 18 47  1  0
 18 48  1  0
 19 49  1  0
 19 50  1  0
 19 51  1  0
 20 21  1  0
 20 52  1  0
 20 53  1  0
 21 22  2  0
 23 21  1  1
 23 24  1  0
 25 26  1  0
 25 27  1  0
 25 54  1  6
 26 55  1  0
 27 28  1  6
 28 56  1  0
 28 57  1  0
 28 58  1  0
M  END
>  <i_m_ct_stereo_status>  (73) 
1

>  <s_m_source_file>  (73) 
/var/tmp/pbs.5076255.sched01/tmpzk3r62u5/0tgg_cfwk.sdf

>  <i_m_source_file_index>  (73) 
28

>  <i_lp_mmshare_version>  (73) 
48012

>  <i_f3d_flags>  (73) 
0

>  <s_epik_input>  (73) 
W0NIM11DKD1PKU9bQ0BIXShbQ0gyXUMoW0NIM10pPVtDSF0xKVtDQF0oW0NIM10pKFtDQEBIXTJbT0hdKVtDQEhdMVtDQEhdKE9bQ0BAXTIzNClbQ0BAXTUoTzQpW0NASF0oW0NIMl0zKVtDSDJdQyhbQ0gzXSkoW0NIM10pW0NIMl1DNT1P

>  <s_epik_cmdline>  (73) 
J2VwaWtfcHl0aG9uJywgJy1waHQnLCAnMi4wJywgJy1waCcsICc3LjAnLCAnLXRuJywgJzgnLCAnLW1hJywgJzIwMCcsICctaW1hZScsICc8aW5maWxlLm1hZT4nLCAnLW9tYWUnLCAnPG91dGZpbGUubWFlPic=

>  <r_lp_tautomer_probability>  (73) 
1

>  <r_epik_Ionization_Penalty>  (73) 
2.36698e-07

>  <r_epik_Ionization_Penalty_Charging>  (73) 
0

>  <r_epik_Ionization_Penalty_Neutral>  (73) 
2.36698e-07

>  <r_epik_State_Penalty>  (73) 
-0

>  <r_epik_Charging_Adjusted_Penalty>  (73) 
0

>  <i_epik_Tot_Q>  (73) 
0

>  <i_epik_Tot_abs_Q>  (73) 
0

>  <s_epik_Chemistry_Notes>  (73) 
This compound has an ester and may undergo hydrolysis at high or low pH.

>  <s_lp_Force_Field>  (73) 
OPLS3e

>  <r_lp_Energy>  (73) 
86.6305

>  <b_lp_Chiralities_Consistent>  (73) 
1

>  <s_lp_Variant>  (73) 
17:0-1

>  <s_i_glide_gridfile>  (73) 
pfpi4k_grid

>  <i_i_glide_lignum>  (73) 
28

>  <i_i_glide_rotatable_bonds>  (73) 
3

>  <r_i_docking_score>  (73) 
-2.35725

>  <r_i_glide_ligand_efficiency>  (73) 
-0.0841873

>  <r_i_glide_ligand_efficiency_sa>  (73) 
-0.255642

>  <r_i_glide_ligand_efficiency_ln>  (73) 
-0.544121

>  <r_i_glide_gscore>  (73) 
-2.35725

>  <r_i_glide_lipo>  (73) 
-0.0652081

>  <r_i_glide_hbond>  (73) 
-0.16

>  <r_i_glide_metal>  (73) 
-0

>  <r_i_glide_rewards>  (73) 
-0.746795

>  <r_i_glide_evdw>  (73) 
-22.2349

>  <r_i_glide_ecoul>  (73) 
-2.48977

>  <r_i_glide_erotb>  (73) 
0.127928

>  <r_i_glide_esite>  (73) 
-0.0279599

>  <r_i_glide_emodel>  (73) 
-28.859

>  <r_i_glide_energy>  (73) 
-24.7247

>  <r_i_glide_einternal>  (73) 
0.344127

>  <r_i_glide_intrahb_reward>  (73) 
-0

>  <i_i_glide_confnum>  (73) 
1

>  <i_i_glide_posenum>  (73) 
3

>  <r_i_glide_eff_state_penalty>  (73) 
0

>  <ligand_id>  (73) 
17

>  <original_smiles>  (73) 
CC(=O)OC1CC(C)=CC2C3OC4(CC5CC(C)(C)CC(=O)C53O4)C(O)C12C

>  <smiles>  (73) 
[H]OC1([H])C23OC([H])(C4([H])C([H])=C(C([H])([H])[H])C([H])([H])C([H])(OC(=O)C([H])([H])[H])C14C([H])([H])[H])C1(O2)C(=O)C([H])([H])C(C([H])([H])[H])(C([H])([H])[H])C([H])([H])C1([H])C3([H])[H]

$$$$
18:0:0
     RDKit          3D

 76 82  0  0  1  0  0  0  0  0999 V2000
    7.4528   -1.5894    0.8557 C   0  0  0  0  0  0  0  0  0  0  0  0
    6.2966   -2.4853    0.4964 C   0  0  0  0  0  0  0  0  0  0  0  0
    6.3737   -3.7704    0.1180 C   0  0  0  0  0  0  0  0  0  0  0  0
    7.0690   -4.5753    1.0761 C   0  0  0  0  0  0  0  0  0  0  0  0
    6.4976   -4.7332    2.2834 C   0  0  0  0  0  0  0  0  0  0  0  0
    5.2328   -4.1214    2.8572 C   0  0  1  0  0  0  0  0  0  0  0  0
    4.9635   -2.6290    2.5433 C   0  0  0  0  0  0  0  0  0  0  0  0
    4.9306   -2.1796    1.0340 C   0  0  1  0  0  0  0  0  0  0  0  0
    4.5560   -0.6892    0.9666 C   0  0  0  0  0  0  0  0  0  0  0  0
    4.0374   -3.1438    0.1873 C   0  0  1  0  0  0  0  0  0  0  0  0
    3.2506   -2.4943   -0.9733 C   0  0  1  0  0  0  0  0  0  0  0  0
    4.0309   -1.8785   -2.1168 C   0  0  0  0  0  0  0  0  0  0  0  0
    3.4551   -2.5703   -3.3182 C   0  0  0  0  0  0  0  0  0  0  0  0
    3.8927   -2.3149   -4.4260 O   0  0  0  0  0  0  0  0  0  0  0  0
    2.4687   -3.4041   -3.0316 O   0  0  0  0  0  0  0  0  0  0  0  0
    2.2786   -3.4572   -1.6937 C   0  0  0  0  0  0  0  0  0  0  0  0
    1.4448   -4.1238   -1.0907 O   0  0  0  0  0  0  0  0  0  0  0  0
    5.0055   -4.2480   -0.3031 C   0  0  2  0  0  0  0  0  0  0  0  0
    4.6855   -5.7408   -0.0573 C   0  0  0  0  0  0  0  0  0  0  0  0
    3.5920   -6.1881    0.9454 C   0  0  0  0  0  0  0  0  0  0  0  0
    4.0233   -6.3994    2.4300 C   0  0  2  0  0  0  0  0  0  0  0  0
    3.2168   -7.5056    3.1997 C   0  0  1  0  0  0  0  0  0  0  0  0
    3.4010   -8.8134    2.3764 C   0  0  0  0  0  0  0  0  0  0  0  0
    3.8047   -7.7734    4.6200 C   0  0  0  0  0  0  0  0  0  0  0  0
    2.9631   -8.7489    5.4665 C   0  0  0  0  0  0  0  0  0  0  0  0
    1.4900   -8.3329    5.5640 C   0  0  0  0  0  0  0  0  0  0  0  0
    0.8356   -8.0295    4.1987 C   0  0  0  0  0  0  0  0  0  0  0  0
    0.5466   -9.3527    3.4402 C   0  0  0  0  0  0  0  0  0  0  0  0
   -0.5702   -7.4320    4.4479 C   0  0  0  0  0  0  0  0  0  0  0  0
    1.7307   -7.0449    3.3699 C   0  0  1  0  0  0  0  0  0  0  0  0
    1.6960   -5.6202    3.9954 C   0  0  0  0  0  0  0  0  0  0  0  0
    2.6060   -4.5783    3.3441 C   0  0  0  0  0  0  0  0  0  0  0  0
    4.0429   -5.0443    3.1347 C   0  0  2  0  0  0  0  0  0  0  0  0
    4.9835   -4.6649    4.2498 C   0  0  0  0  0  0  0  0  0  0  0  0
    7.5068   -0.8010    0.1075 H   0  0  0  0  0  0  0  0  0  0  0  0
    8.3872   -2.1421    0.8050 H   0  0  0  0  0  0  0  0  0  0  0  0
    7.3212   -1.0945    1.8088 H   0  0  0  0  0  0  0  0  0  0  0  0
    7.9972   -5.0983    0.8340 H   0  0  0  0  0  0  0  0  0  0  0  0
    7.0500   -5.3294    2.9846 H   0  0  0  0  0  0  0  0  0  0  0  0
    4.0172   -2.3632    3.0071 H   0  0  0  0  0  0  0  0  0  0  0  0
    5.7075   -2.0555    3.0948 H   0  0  0  0  0  0  0  0  0  0  0  0
    3.5152   -0.5380    1.2336 H   0  0  0  0  0  0  0  0  0  0  0  0
    4.7154   -0.2690   -0.0201 H   0  0  0  0  0  0  0  0  0  0  0  0
    5.1446   -0.1003    1.6653 H   0  0  0  0  0  0  0  0  0  0  0  0
    3.2742   -3.5330    0.8365 H   0  0  0  0  0  0  0  0  0  0  0  0
    5.1098   -2.0286   -2.0885 H   0  0  0  0  0  0  0  0  0  0  0  0
    3.8096   -0.8196   -2.2542 H   0  0  0  0  0  0  0  0  0  0  0  0
    2.6874   -1.6688   -0.5572 H   0  0  0  0  0  0  0  0  0  0  0  0
    5.1306   -4.1470   -1.3760 H   0  0  0  0  0  0  0  0  0  0  0  0
    4.3480   -6.0287   -1.0425 H   0  0  0  0  0  0  0  0  0  0  0  0
    5.5797   -6.3596    0.0312 H   0  0  0  0  0  0  0  0  0  0  0  0
    2.6828   -5.6038    0.8446 H   0  0  0  0  0  0  0  0  0  0  0  0
    3.2894   -7.1366    0.5404 H   0  0  0  0  0  0  0  0  0  0  0  0
    5.0466   -6.7725    2.4118 H   0  0  0  0  0  0  0  0  0  0  0  0
    3.3965   -9.7134    2.9821 H   0  0  0  0  0  0  0  0  0  0  0  0
    4.3661   -8.8382    1.8663 H   0  0  0  0  0  0  0  0  0  0  0  0
    2.6306   -8.9345    1.6145 H   0  0  0  0  0  0  0  0  0  0  0  0
    4.8350   -8.1254    4.5510 H   0  0  0  0  0  0  0  0  0  0  0  0
    3.8431   -6.8501    5.1903 H   0  0  0  0  0  0  0  0  0  0  0  0
    3.0351   -9.7650    5.0852 H   0  0  0  0  0  0  0  0  0  0  0  0
    3.3778   -8.7955    6.4716 H   0  0  0  0  0  0  0  0  0  0  0  0
    0.9312   -9.1194    6.0736 H   0  0  0  0  0  0  0  0  0  0  0  0
    1.4190   -7.4600    6.2106 H   0  0  0  0  0  0  0  0  0  0  0  0
    0.3625   -9.1907    2.3736 H   0  0  0  0  0  0  0  0  0  0  0  0
   -0.3223   -9.8822    3.8463 H   0  0  0  0  0  0  0  0  0  0  0  0
    1.3648  -10.0670    3.5302 H   0  0  0  0  0  0  0  0  0  0  0  0
   -1.0315   -7.0815    3.5228 H   0  0  0  0  0  0  0  0  0  0  0  0
   -0.5316   -6.5984    5.1511 H   0  0  0  0  0  0  0  0  0  0  0  0
   -1.2428   -8.1706    4.8934 H   0  0  0  0  0  0  0  0  0  0  0  0
    1.2880   -6.9599    2.3801 H   0  0  0  0  0  0  0  0  0  0  0  0
    0.6967   -5.2001    3.9128 H   0  0  0  0  0  0  0  0  0  0  0  0
    1.9267   -5.6479    5.0601 H   0  0  0  0  0  0  0  0  0  0  0  0
    2.1763   -4.2451    2.4098 H   0  0  0  0  0  0  0  0  0  0  0  0
    2.6215   -3.7024    3.9930 H   0  0  0  0  0  0  0  0  0  0  0  0
    5.6154   -5.4613    4.6451 H   0  0  0  0  0  0  0  0  0  0  0  0
    4.6302   -3.9592    5.0006 H   0  0  0  0  0  0  0  0  0  0  0  0
  1  2  1  0
  1 35  1  0
  1 36  1  0
  1 37  1  0
  2  8  1  0
  2  3  2  0
  3 18  1  0
  3  4  1  0
  4  5  2  0
  4 38  1  0
  5  6  1  0
  5 39  1  0
  6 33  1  0
  6 34  1  1
  6  7  1  0
  7  8  1  0
  7 40  1  0
  7 41  1  0
  8  9  1  1
  8 10  1  0
  9 42  1  0
  9 43  1  0
  9 44  1  0
 10 18  1  0
 10 45  1  1
 10 11  1  0
 11 12  1  0
 11 48  1  1
 11 16  1  0
 12 13  1  0
 12 46  1  0
 12 47  1  0
 13 14  2  0
 13 15  1  0
 15 16  1  0
 16 17  2  0
 18 19  1  0
 18 49  1  6
 19 20  1  0
 19 50  1  0
 19 51  1  0
 20 21  1  0
 20 52  1  0
 20 53  1  0
 21 33  1  0
 21 22  1  0
 21 54  1  6
 22 30  1  0
 22 23  1  6
 22 24  1  0
 23 55  1  0
 23 56  1  0
 23 57  1  0
 24 25  1  0
 24 58  1  0
 24 59  1  0
 25 26  1  0
 25 60  1  0
 25 61  1  0
 26 27  1  0
 26 62  1  0
 26 63  1  0
 27 28  1  0
 27 29  1  0
 27 30  1  0
 28 64  1  0
 28 65  1  0
 28 66  1  0
 29 67  1  0
 29 68  1  0
 29 69  1  0
 30 31  1  0
 30 70  1  6
 31 32  1  0
 31 71  1  0
 31 72  1  0
 33 32  1  1
 32 73  1  0
 32 74  1  0
 33 34  1  0
 34 75  1  0
 34 76  1  0
M  END
>  <i_m_ct_stereo_status>  (74) 
1

>  <s_m_source_file>  (74) 
/var/tmp/pbs.5076255.sched01/tmpzk3r62u5/0tgg_cfwk.sdf

>  <i_m_source_file_index>  (74) 
29

>  <i_lp_mmshare_version>  (74) 
48012

>  <i_f3d_flags>  (74) 
0

>  <s_epik_input>  (74) 
W09IXWMxb2MoW09IXSlbY0hdYzFbQ0BASF0yW0NAXShbQ0gyXTMpKFtDSDNdKUMoW0NIM10pPUMoW0NIXT1bQ0hdNClbQ0BIXTJbQ0gyXVtDSDJdW0NASF0oW0NAXTUoW0NAXTM0NilbQ0gyXTYpW0NAXTcoW0NIM10pW0NASF0oW0NIMl1bQ0gyXTUpQyhbQ0gzXSkoW0NIM10pW0NIMl1bQ0gyXVtDSDJdNw==

>  <s_epik_cmdline>  (74) 
J2VwaWtfcHl0aG9uJywgJy1waHQnLCAnMi4wJywgJy1waCcsICc3LjAnLCAnLXRuJywgJzgnLCAnLW1hJywgJzIwMCcsICctaW1hZScsICc8aW5maWxlLm1hZT4nLCAnLW9tYWUnLCAnPG91dGZpbGUubWFlPic=

>  <r_lp_tautomer_probability>  (74) 
1

>  <r_epik_Ionization_Penalty>  (74) 
0

>  <r_epik_Ionization_Penalty_Charging>  (74) 
0

>  <r_epik_Ionization_Penalty_Neutral>  (74) 
0

>  <r_epik_State_Penalty>  (74) 
-0

>  <r_epik_Charging_Adjusted_Penalty>  (74) 
0

>  <i_epik_Tot_Q>  (74) 
0

>  <i_epik_Tot_abs_Q>  (74) 
0

>  <s_lp_Force_Field>  (74) 
OPLS3e

>  <r_lp_Energy>  (74) 
114.78

>  <b_lp_Chiralities_Consistent>  (74) 
1

>  <s_lp_Variant>  (74) 
18:0-1

>  <s_i_glide_gridfile>  (74) 
pfpi4k_grid

>  <i_i_glide_lignum>  (74) 
29

>  <i_i_glide_rotatable_bonds>  (74) 
1

>  <r_i_docking_score>  (74) 
-3.69422

>  <r_i_glide_ligand_efficiency>  (74) 
-0.108653

>  <r_i_glide_ligand_efficiency_sa>  (74) 
-0.351995

>  <r_i_glide_ligand_efficiency_ln>  (74) 
-0.816156

>  <r_i_glide_gscore>  (74) 
-3.69422

>  <r_i_glide_lipo>  (74) 
-0.637398

>  <r_i_glide_hbond>  (74) 
-0.328228

>  <r_i_glide_metal>  (74) 
-0

>  <r_i_glide_rewards>  (74) 
-0.644873

>  <r_i_glide_evdw>  (74) 
-27.2598

>  <r_i_glide_ecoul>  (74) 
-5.43228

>  <r_i_glide_erotb>  (74) 
0.0941136

>  <r_i_glide_esite>  (74) 
0

>  <r_i_glide_emodel>  (74) 
-38.753

>  <r_i_glide_energy>  (74) 
-32.6921

>  <r_i_glide_einternal>  (74) 
0.135435

>  <r_i_glide_intrahb_reward>  (74) 
-0

>  <i_i_glide_confnum>  (74) 
1

>  <i_i_glide_posenum>  (74) 
14

>  <r_i_glide_eff_state_penalty>  (74) 
0

>  <ligand_id>  (74) 
18

>  <original_smiles>  (74) 
CC1=C2C=CC34CC1(C)C(c1cc(O)oc1O)C2CCC1C2(C)CCCC(C)(C)C2CCC13C4

>  <smiles>  (74) 
[H]C1=C([H])C23C([H])([H])C4(C([H])([H])[H])C(C([H])([H])[H])=C1C([H])(C([H])([H])C([H])([H])C1([H])C5(C([H])([H])[H])C([H])([H])C([H])([H])C([H])([H])C(C([H])([H])[H])(C([H])([H])[H])C5([H])C([H])([H])C([H])([H])C12C3([H])[H])C4([H])C1([H])C(=O)OC(=O)C1([H])[H]

$$$$
18:0:1
     RDKit          3D

 76 82  0  0  1  0  0  0  0  0999 V2000
    7.9136   -2.6674    0.0638 C   0  0  0  0  0  0  0  0  0  0  0  0
    6.5001   -3.2373    0.0463 C   0  0  0  0  0  0  0  0  0  0  0  0
    6.1640   -4.5233   -0.0604 C   0  0  0  0  0  0  0  0  0  0  0  0
    6.8711   -5.4148    0.8120 C   0  0  0  0  0  0  0  0  0  0  0  0
    6.6427   -5.2718    2.1289 C   0  0  0  0  0  0  0  0  0  0  0  0
    5.6577   -4.3199    2.7958 C   0  0  1  0  0  0  0  0  0  0  0  0
    5.6256   -2.8385    2.2930 C   0  0  0  0  0  0  0  0  0  0  0  0
    5.3777   -2.5303    0.7690 C   0  0  1  0  0  0  0  0  0  0  0  0
    5.3855   -0.9893    0.6117 C   0  0  0  0  0  0  0  0  0  0  0  0
    4.1096   -3.2905    0.2331 C   0  0  1  0  0  0  0  0  0  0  0  0
    3.2420   -2.5599   -0.8454 C   0  0  1  0  0  0  0  0  0  0  0  0
    3.9747   -1.8538   -1.9729 C   0  0  0  0  0  0  0  0  0  0  0  0
    3.4186   -2.4625   -3.2253 C   0  0  0  0  0  0  0  0  0  0  0  0
    3.8612   -2.1781   -4.3332 O   0  0  0  0  0  0  0  0  0  0  0  0
    2.4445   -3.3184   -2.9663 O   0  0  0  0  0  0  0  0  0  0  0  0
    2.2664   -3.4520   -1.6413 C   0  0  0  0  0  0  0  0  0  0  0  0
    1.4500   -4.2256   -1.1292 O   0  0  0  0  0  0  0  0  0  0  0  0
    4.6700   -4.6606   -0.2218 C   0  0  2  0  0  0  0  0  0  0  0  0
    4.0092   -5.9794    0.2872 C   0  0  0  0  0  0  0  0  0  0  0  0
    3.1428   -6.0548    1.5646 C   0  0  0  0  0  0  0  0  0  0  0  0
    3.8655   -6.2252    2.9388 C   0  0  2  0  0  0  0  0  0  0  0  0
    3.0142   -6.9982    4.0165 C   0  0  1  0  0  0  0  0  0  0  0  0
    2.6826   -8.3861    3.3871 C   0  0  0  0  0  0  0  0  0  0  0  0
    3.8236   -7.2596    5.3257 C   0  0  0  0  0  0  0  0  0  0  0  0
    2.9929   -7.9012    6.4575 C   0  0  0  0  0  0  0  0  0  0  0  0
    1.7194   -7.1034    6.7759 C   0  0  0  0  0  0  0  0  0  0  0  0
    0.8554   -6.7803    5.5320 C   0  0  0  0  0  0  0  0  0  0  0  0
    0.1148   -8.0589    5.0549 C   0  0  0  0  0  0  0  0  0  0  0  0
   -0.2518   -5.7956    5.9700 C   0  0  0  0  0  0  0  0  0  0  0  0
    1.7537   -6.1409    4.4065 C   0  0  1  0  0  0  0  0  0  0  0  0
    2.1986   -4.6943    4.7941 C   0  0  0  0  0  0  0  0  0  0  0  0
    3.1660   -4.0009    3.8299 C   0  0  0  0  0  0  0  0  0  0  0  0
    4.3647   -4.8657    3.4331 C   0  0  2  0  0  0  0  0  0  0  0  0
    5.5864   -4.6429    4.2813 C   0  0  0  0  0  0  0  0  0  0  0  0
    8.0245   -2.0754   -0.8390 H   0  0  0  0  0  0  0  0  0  0  0  0
    8.6769   -3.4462    0.0379 H   0  0  0  0  0  0  0  0  0  0  0  0
    8.1018   -1.9974    0.8935 H   0  0  0  0  0  0  0  0  0  0  0  0
    7.5573   -6.1647    0.4418 H   0  0  0  0  0  0  0  0  0  0  0  0
    7.1829   -5.9352    2.7810 H   0  0  0  0  0  0  0  0  0  0  0  0
    4.9113   -2.2821    2.8930 H   0  0  0  0  0  0  0  0  0  0  0  0
    6.5901   -2.3997    2.5346 H   0  0  0  0  0  0  0  0  0  0  0  0
    4.4763   -0.5631    1.0326 H   0  0  0  0  0  0  0  0  0  0  0  0
    5.4798   -0.6419   -0.4131 H   0  0  0  0  0  0  0  0  0  0  0  0
    6.2235   -0.5394    1.1472 H   0  0  0  0  0  0  0  0  0  0  0  0
    3.4374   -3.4259    1.0654 H   0  0  0  0  0  0  0  0  0  0  0  0
    5.0486   -2.0191   -1.9799 H   0  0  0  0  0  0  0  0  0  0  0  0
    3.7495   -0.7888   -1.9846 H   0  0  0  0  0  0  0  0  0  0  0  0
    2.6375   -1.8151   -0.3256 H   0  0  0  0  0  0  0  0  0  0  0  0
    4.6219   -4.7106   -1.3088 H   0  0  0  0  0  0  0  0  0  0  0  0
    3.2697   -6.1904   -0.4729 H   0  0  0  0  0  0  0  0  0  0  0  0
    4.6858   -6.8340    0.2076 H   0  0  0  0  0  0  0  0  0  0  0  0
    2.4009   -5.2601    1.5708 H   0  0  0  0  0  0  0  0  0  0  0  0
    2.5220   -6.9245    1.3838 H   0  0  0  0  0  0  0  0  0  0  0  0
    4.7367   -6.8517    2.7603 H   0  0  0  0  0  0  0  0  0  0  0  0
    2.6071   -9.1896    4.1111 H   0  0  0  0  0  0  0  0  0  0  0  0
    3.4646   -8.7151    2.7019 H   0  0  0  0  0  0  0  0  0  0  0  0
    1.7494   -8.3715    2.8238 H   0  0  0  0  0  0  0  0  0  0  0  0
    4.7000   -7.8714    5.1128 H   0  0  0  0  0  0  0  0  0  0  0  0
    4.2037   -6.3272    5.7284 H   0  0  0  0  0  0  0  0  0  0  0  0
    2.7381   -8.9352    6.2258 H   0  0  0  0  0  0  0  0  0  0  0  0
    3.6033   -7.9566    7.3568 H   0  0  0  0  0  0  0  0  0  0  0  0
    1.1232   -7.6484    7.5086 H   0  0  0  0  0  0  0  0  0  0  0  0
    2.0121   -6.1808    7.2751 H   0  0  0  0  0  0  0  0  0  0  0  0
   -0.2644   -7.9587    4.0383 H   0  0  0  0  0  0  0  0  0  0  0  0
   -0.7388   -8.3041    5.6858 H   0  0  0  0  0  0  0  0  0  0  0  0
    0.7390   -8.9470    5.0957 H   0  0  0  0  0  0  0  0  0  0  0  0
   -0.8173   -5.4461    5.1103 H   0  0  0  0  0  0  0  0  0  0  0  0
    0.1448   -4.9336    6.5071 H   0  0  0  0  0  0  0  0  0  0  0  0
   -0.9606   -6.2521    6.6573 H   0  0  0  0  0  0  0  0  0  0  0  0
    1.1345   -6.0411    3.5188 H   0  0  0  0  0  0  0  0  0  0  0  0
    1.3321   -4.0412    4.8599 H   0  0  0  0  0  0  0  0  0  0  0  0
    2.6521   -4.6823    5.7852 H   0  0  0  0  0  0  0  0  0  0  0  0
    2.6214   -3.6576    2.9598 H   0  0  0  0  0  0  0  0  0  0  0  0
    3.5228   -3.0965    4.3242 H   0  0  0  0  0  0  0  0  0  0  0  0
    6.0912   -5.5282    4.6652 H   0  0  0  0  0  0  0  0  0  0  0  0
    5.5982   -3.8019    4.9718 H   0  0  0  0  0  0  0  0  0  0  0  0
  1  2  1  0
  1 35  1  0
  1 36  1  0
  1 37  1  0
  2  8  1  0
  2  3  2  0
  3 18  1  0
  3  4  1  0
  4  5  2  0
  4 38  1  0
  5  6  1  0
  5 39  1  0
  6 33  1  0
  6 34  1  1
  6  7  1  0
  7  8  1  0
  7 40  1  0
  7 41  1  0
  8  9  1  1
  8 10  1  0
  9 42  1  0
  9 43  1  0
  9 44  1  0
 10 18  1  0
 10 45  1  1
 10 11  1  0
 11 12  1  0
 11 48  1  1
 11 16  1  0
 12 13  1  0
 12 46  1  0
 12 47  1  0
 13 14  2  0
 13 15  1  0
 15 16  1  0
 16 17  2  0
 18 19  1  0
 18 49  1  6
 19 20  1  0
 19 50  1  0
 19 51  1  0
 20 21  1  0
 20 52  1  0
 20 53  1  0
 21 33  1  0
 21 22  1  0
 21 54  1  6
 22 30  1  0
 22 23  1  6
 22 24  1  0
 23 55  1  0
 23 56  1  0
 23 57  1  0
 24 25  1  0
 24 58  1  0
 24 59  1  0
 25 26  1  0
 25 60  1  0
 25 61  1  0
 26 27  1  0
 26 62  1  0
 26 63  1  0
 27 28  1  0
 27 29  1  0
 27 30  1  0
 28 64  1  0
 28 65  1  0
 28 66  1  0
 29 67  1  0
 29 68  1  0
 29 69  1  0
 30 31  1  0
 30 70  1  6
 31 32  1  0
 31 71  1  0
 31 72  1  0
 33 32  1  1
 32 73  1  0
 32 74  1  0
 33 34  1  0
 34 75  1  0
 34 76  1  0
M  END
>  <i_m_ct_stereo_status>  (75) 
1

>  <s_m_source_file>  (75) 
/var/tmp/pbs.5076255.sched01/tmpzk3r62u5/0tgg_cfwk.sdf

>  <i_m_source_file_index>  (75) 
29

>  <i_lp_mmshare_version>  (75) 
48012

>  <i_f3d_flags>  (75) 
0

>  <s_epik_input>  (75) 
W09IXWMxb2MoW09IXSlbY0hdYzFbQ0BASF0yW0NAXShbQ0gyXTMpKFtDSDNdKUMoW0NIM10pPUMoW0NIXT1bQ0hdNClbQ0BIXTJbQ0gyXVtDSDJdW0NASF0oW0NAXTUoW0NAXTM0NilbQ0gyXTYpW0NAXTcoW0NIM10pW0NASF0oW0NIMl1bQ0gyXTUpQyhbQ0gzXSkoW0NIM10pW0NIMl1bQ0gyXVtDSDJdNw==

>  <s_epik_cmdline>  (75) 
J2VwaWtfcHl0aG9uJywgJy1waHQnLCAnMi4wJywgJy1waCcsICc3LjAnLCAnLXRuJywgJzgnLCAnLW1hJywgJzIwMCcsICctaW1hZScsICc8aW5maWxlLm1hZT4nLCAnLW9tYWUnLCAnPG91dGZpbGUubWFlPic=

>  <r_lp_tautomer_probability>  (75) 
1

>  <r_epik_Ionization_Penalty>  (75) 
0

>  <r_epik_Ionization_Penalty_Charging>  (75) 
0

>  <r_epik_Ionization_Penalty_Neutral>  (75) 
0

>  <r_epik_State_Penalty>  (75) 
-0

>  <r_epik_Charging_Adjusted_Penalty>  (75) 
0

>  <i_epik_Tot_Q>  (75) 
0

>  <i_epik_Tot_abs_Q>  (75) 
0

>  <s_lp_Force_Field>  (75) 
OPLS3e

>  <r_lp_Energy>  (75) 
114.78

>  <b_lp_Chiralities_Consistent>  (75) 
1

>  <s_lp_Variant>  (75) 
18:0-1

>  <s_i_glide_gridfile>  (75) 
pfpi4k_grid

>  <i_i_glide_lignum>  (75) 
29

>  <i_i_glide_rotatable_bonds>  (75) 
1

>  <r_i_docking_score>  (75) 
-3.6528

>  <r_i_glide_ligand_efficiency>  (75) 
-0.107435

>  <r_i_glide_ligand_efficiency_sa>  (75) 
-0.348049

>  <r_i_glide_ligand_efficiency_ln>  (75) 
-0.807006

>  <r_i_glide_gscore>  (75) 
-3.6528

>  <r_i_glide_lipo>  (75) 
-0.762084

>  <r_i_glide_hbond>  (75) 
-0.323484

>  <r_i_glide_metal>  (75) 
-0

>  <r_i_glide_rewards>  (75) 
-0.606837

>  <r_i_glide_evdw>  (75) 
-27.7668

>  <r_i_glide_ecoul>  (75) 
-4.44113

>  <r_i_glide_erotb>  (75) 
0.0941136

>  <r_i_glide_esite>  (75) 
0

>  <r_i_glide_emodel>  (75) 
-37.4757

>  <r_i_glide_energy>  (75) 
-32.2079

>  <r_i_glide_einternal>  (75) 
2.09781

>  <r_i_glide_intrahb_reward>  (75) 
-0

>  <i_i_glide_confnum>  (75) 
2

>  <i_i_glide_posenum>  (75) 
29

>  <r_i_glide_eff_state_penalty>  (75) 
0

>  <ligand_id>  (75) 
18

>  <original_smiles>  (75) 
CC1=C2C=CC34CC1(C)C(c1cc(O)oc1O)C2CCC1C2(C)CCCC(C)(C)C2CCC13C4

>  <smiles>  (75) 
[H]C1=C([H])C23C([H])([H])C4(C([H])([H])[H])C(C([H])([H])[H])=C1C([H])(C([H])([H])C([H])([H])C1([H])C5(C([H])([H])[H])C([H])([H])C([H])([H])C([H])([H])C(C([H])([H])[H])(C([H])([H])[H])C5([H])C([H])([H])C([H])([H])C12C3([H])[H])C4([H])C1([H])C(=O)OC(=O)C1([H])[H]

$$$$
18:0:2
     RDKit          3D

 76 82  0  0  1  0  0  0  0  0999 V2000
    2.5070    2.5455    7.7614 C   0  0  0  0  0  0  0  0  0  0  0  0
    2.0573    2.1562    6.3664 C   0  0  0  0  0  0  0  0  0  0  0  0
    2.6325    2.5289    5.2044 C   0  0  0  0  0  0  0  0  0  0  0  0
    4.0397    2.2918    5.2014 C   0  0  0  0  0  0  0  0  0  0  0  0
    4.4729    1.0174    5.2848 C   0  0  0  0  0  0  0  0  0  0  0  0
    3.6420   -0.2492    5.3278 C   0  0  1  0  0  0  0  0  0  0  0  0
    2.4274   -0.2535    6.2957 C   0  0  0  0  0  0  0  0  0  0  0  0
    1.3238    0.8698    6.1452 C   0  0  1  0  0  0  0  0  0  0  0  0
    0.2033    0.6073    7.1645 C   0  0  0  0  0  0  0  0  0  0  0  0
    0.8299    1.0045    4.6649 C   0  0  1  0  0  0  0  0  0  0  0  0
   -0.6763    1.3567    4.4535 C   0  0  1  0  0  0  0  0  0  0  0  0
   -1.1828    2.6952    4.9784 C   0  0  0  0  0  0  0  0  0  0  0  0
   -1.7323    3.3763    3.7415 C   0  0  0  0  0  0  0  0  0  0  0  0
   -2.1839    4.5098    3.7743 O   0  0  0  0  0  0  0  0  0  0  0  0
   -1.6714    2.5914    2.6759 O   0  0  0  0  0  0  0  0  0  0  0  0
   -1.0413    1.4436    2.9790 C   0  0  0  0  0  0  0  0  0  0  0  0
   -0.7770    0.5453    2.2031 O   0  0  0  0  0  0  0  0  0  0  0  0
    1.7988    2.0390    4.0387 C   0  0  2  0  0  0  0  0  0  0  0  0
    2.5013    1.7233    2.6905 C   0  0  0  0  0  0  0  0  0  0  0  0
    2.7286    0.2777    2.1827 C   0  0  0  0  0  0  0  0  0  0  0  0
    3.9371   -0.5611    2.7323 C   0  0  2  0  0  0  0  0  0  0  0  0
    4.4882   -1.6213    1.7034 C   0  0  1  0  0  0  0  0  0  0  0  0
    4.9056   -0.8184    0.4379 C   0  0  0  0  0  0  0  0  0  0  0  0
    5.7697   -2.3329    2.2192 C   0  0  0  0  0  0  0  0  0  0  0  0
    6.2762   -3.4748    1.3080 C   0  0  0  0  0  0  0  0  0  0  0  0
    5.1891   -4.5130    1.0058 C   0  0  0  0  0  0  0  0  0  0  0  0
    3.8725   -3.8915    0.4970 C   0  0  0  0  0  0  0  0  0  0  0  0
    4.0470   -3.4267   -0.9749 C   0  0  0  0  0  0  0  0  0  0  0  0
    2.8109   -5.0154    0.4328 C   0  0  0  0  0  0  0  0  0  0  0  0
    3.4077   -2.7264    1.4475 C   0  0  1  0  0  0  0  0  0  0  0  0
    2.9133   -3.2963    2.8101 C   0  0  0  0  0  0  0  0  0  0  0  0
    2.5289   -2.2629    3.8732 C   0  0  0  0  0  0  0  0  0  0  0  0
    3.5699   -1.1617    4.0926 C   0  0  2  0  0  0  0  0  0  0  0  0
    4.5434   -1.4626    5.2054 C   0  0  0  0  0  0  0  0  0  0  0  0
    1.7200    3.1815    8.1706 H   0  0  0  0  0  0  0  0  0  0  0  0
    3.4239    3.1325    7.7633 H   0  0  0  0  0  0  0  0  0  0  0  0
    2.6141    1.6964    8.4366 H   0  0  0  0  0  0  0  0  0  0  0  0
    4.7447    3.1184    5.1394 H   0  0  0  0  0  0  0  0  0  0  0  0
    5.5370    0.8692    5.2864 H   0  0  0  0  0  0  0  0  0  0  0  0
    1.9402   -1.2237    6.2202 H   0  0  0  0  0  0  0  0  0  0  0  0
    2.8343   -0.2338    7.3073 H   0  0  0  0  0  0  0  0  0  0  0  0
   -0.3742   -0.2693    6.8812 H   0  0  0  0  0  0  0  0  0  0  0  0
   -0.4748    1.4490    7.2616 H   0  0  0  0  0  0  0  0  0  0  0  0
    0.6114    0.4127    8.1530 H   0  0  0  0  0  0  0  0  0  0  0  0
    0.9543    0.0440    4.1905 H   0  0  0  0  0  0  0  0  0  0  0  0
   -0.4014    3.2988    5.4356 H   0  0  0  0  0  0  0  0  0  0  0  0
   -1.9944    2.5644    5.6947 H   0  0  0  0  0  0  0  0  0  0  0  0
   -1.2950    0.5672    4.8779 H   0  0  0  0  0  0  0  0  0  0  0  0
    1.2450    2.9537    3.8382 H   0  0  0  0  0  0  0  0  0  0  0  0
    1.8564    2.1770    1.9399 H   0  0  0  0  0  0  0  0  0  0  0  0
    3.4056    2.3124    2.5949 H   0  0  0  0  0  0  0  0  0  0  0  0
    1.7942   -0.2778    2.2043 H   0  0  0  0  0  0  0  0  0  0  0  0
    2.8625    0.4199    1.1172 H   0  0  0  0  0  0  0  0  0  0  0  0
    4.7590    0.1350    2.8986 H   0  0  0  0  0  0  0  0  0  0  0  0
    5.7486   -1.2433   -0.0973 H   0  0  0  0  0  0  0  0  0  0  0  0
    5.2320    0.1904    0.6913 H   0  0  0  0  0  0  0  0  0  0  0  0
    4.0881   -0.7210   -0.2764 H   0  0  0  0  0  0  0  0  0  0  0  0
    6.5641   -1.6046    2.3883 H   0  0  0  0  0  0  0  0  0  0  0  0
    5.5795   -2.7959    3.1844 H   0  0  0  0  0  0  0  0  0  0  0  0
    6.7011   -3.0868    0.3843 H   0  0  0  0  0  0  0  0  0  0  0  0
    7.1034   -3.9878    1.7993 H   0  0  0  0  0  0  0  0  0  0  0  0
    5.5688   -5.2350    0.2814 H   0  0  0  0  0  0  0  0  0  0  0  0
    5.0004   -5.0869    1.9117 H   0  0  0  0  0  0  0  0  0  0  0  0
    3.2614   -2.7316   -1.2833 H   0  0  0  0  0  0  0  0  0  0  0  0
    4.0384   -4.2600   -1.6775 H   0  0  0  0  0  0  0  0  0  0  0  0
    5.0051   -2.9394   -1.1500 H   0  0  0  0  0  0  0  0  0  0  0  0
    1.8258   -4.6201    0.1863 H   0  0  0  0  0  0  0  0  0  0  0  0
    2.7399   -5.5643    1.3717 H   0  0  0  0  0  0  0  0  0  0  0  0
    3.0653   -5.7618   -0.3206 H   0  0  0  0  0  0  0  0  0  0  0  0
    2.5467   -2.2524    0.9780 H   0  0  0  0  0  0  0  0  0  0  0  0
    2.0163   -3.8947    2.6602 H   0  0  0  0  0  0  0  0  0  0  0  0
    3.6473   -3.9713    3.2481 H   0  0  0  0  0  0  0  0  0  0  0  0
    1.5626   -1.8385    3.6315 H   0  0  0  0  0  0  0  0  0  0  0  0
    2.3832   -2.8024    4.8103 H   0  0  0  0  0  0  0  0  0  0  0  0
    5.6011   -1.3242    4.9820 H   0  0  0  0  0  0  0  0  0  0  0  0
    4.3359   -2.3016    5.8699 H   0  0  0  0  0  0  0  0  0  0  0  0
  1  2  1  0
  1 35  1  0
  1 36  1  0
  1 37  1  0
  2  8  1  0
  2  3  2  0
  3 18  1  0
  3  4  1  0
  4  5  2  0
  4 38  1  0
  5  6  1  0
  5 39  1  0
  6 33  1  0
  6 34  1  1
  6  7  1  0
  7  8  1  0
  7 40  1  0
  7 41  1  0
  8  9  1  1
  8 10  1  0
  9 42  1  0
  9 43  1  0
  9 44  1  0
 10 18  1  0
 10 45  1  6
 10 11  1  0
 11 12  1  0
 11 48  1  1
 11 16  1  0
 12 13  1  0
 12 46  1  0
 12 47  1  0
 13 14  2  0
 13 15  1  0
 15 16  1  0
 16 17  2  0
 18 19  1  0
 18 49  1  6
 19 20  1  0
 19 50  1  0
 19 51  1  0
 20 21  1  0
 20 52  1  0
 20 53  1  0
 21 33  1  0
 21 22  1  0
 21 54  1  1
 22 30  1  0
 22 23  1  6
 22 24  1  0
 23 55  1  0
 23 56  1  0
 23 57  1  0
 24 25  1  0
 24 58  1  0
 24 59  1  0
 25 26  1  0
 25 60  1  0
 25 61  1  0
 26 27  1  0
 26 62  1  0
 26 63  1  0
 27 28  1  0
 27 29  1  0
 27 30  1  0
 28 64  1  0
 28 65  1  0
 28 66  1  0
 29 67  1  0
 29 68  1  0
 29 69  1  0
 30 31  1  0
 30 70  1  6
 31 32  1  0
 31 71  1  0
 31 72  1  0
 33 32  1  6
 32 73  1  0
 32 74  1  0
 33 34  1  0
 34 75  1  0
 34 76  1  0
M  END
>  <i_m_ct_stereo_status>  (76) 
1

>  <s_m_source_file>  (76) 
/var/tmp/pbs.5076255.sched01/tmpzk3r62u5/0tgg_cfwk.sdf

>  <i_m_source_file_index>  (76) 
29

>  <i_lp_mmshare_version>  (76) 
48012

>  <i_f3d_flags>  (76) 
0

>  <s_epik_input>  (76) 
W09IXWMxb2MoW09IXSlbY0hdYzFbQ0BASF0yW0NAXShbQ0gyXTMpKFtDSDNdKUMoW0NIM10pPUMoW0NIXT1bQ0hdNClbQ0BIXTJbQ0gyXVtDSDJdW0NASF0oW0NAXTUoW0NAXTM0NilbQ0gyXTYpW0NAXTcoW0NIM10pW0NASF0oW0NIMl1bQ0gyXTUpQyhbQ0gzXSkoW0NIM10pW0NIMl1bQ0gyXVtDSDJdNw==

>  <s_epik_cmdline>  (76) 
J2VwaWtfcHl0aG9uJywgJy1waHQnLCAnMi4wJywgJy1waCcsICc3LjAnLCAnLXRuJywgJzgnLCAnLW1hJywgJzIwMCcsICctaW1hZScsICc8aW5maWxlLm1hZT4nLCAnLW9tYWUnLCAnPG91dGZpbGUubWFlPic=

>  <r_lp_tautomer_probability>  (76) 
1

>  <r_epik_Ionization_Penalty>  (76) 
0

>  <r_epik_Ionization_Penalty_Charging>  (76) 
0

>  <r_epik_Ionization_Penalty_Neutral>  (76) 
0

>  <r_epik_State_Penalty>  (76) 
-0

>  <r_epik_Charging_Adjusted_Penalty>  (76) 
0

>  <i_epik_Tot_Q>  (76) 
0

>  <i_epik_Tot_abs_Q>  (76) 
0

>  <s_lp_Force_Field>  (76) 
OPLS3e

>  <r_lp_Energy>  (76) 
114.78

>  <b_lp_Chiralities_Consistent>  (76) 
1

>  <s_lp_Variant>  (76) 
18:0-1

>  <s_i_glide_gridfile>  (76) 
pfpi4k_grid

>  <i_i_glide_lignum>  (76) 
29

>  <i_i_glide_rotatable_bonds>  (76) 
1

>  <r_i_docking_score>  (76) 
-2.60821

>  <r_i_glide_ligand_efficiency>  (76) 
-0.076712

>  <r_i_glide_ligand_efficiency_sa>  (76) 
-0.248517

>  <r_i_glide_ligand_efficiency_ln>  (76) 
-0.576226

>  <r_i_glide_gscore>  (76) 
-2.60821

>  <r_i_glide_lipo>  (76) 
-0.372471

>  <r_i_glide_hbond>  (76) 
-0.165672

>  <r_i_glide_metal>  (76) 
-0

>  <r_i_glide_rewards>  (76) 
-0.254568

>  <r_i_glide_evdw>  (76) 
-29.049

>  <r_i_glide_ecoul>  (76) 
-2.41088

>  <r_i_glide_erotb>  (76) 
0.0941136

>  <r_i_glide_esite>  (76) 
-0.0955294

>  <r_i_glide_emodel>  (76) 
-36.4196

>  <r_i_glide_energy>  (76) 
-31.4599

>  <r_i_glide_einternal>  (76) 
0.0015138

>  <r_i_glide_intrahb_reward>  (76) 
-0

>  <i_i_glide_confnum>  (76) 
1

>  <i_i_glide_posenum>  (76) 
36

>  <r_i_glide_eff_state_penalty>  (76) 
0

>  <ligand_id>  (76) 
18

>  <original_smiles>  (76) 
CC1=C2C=CC34CC1(C)C(c1cc(O)oc1O)C2CCC1C2(C)CCCC(C)(C)C2CCC13C4

>  <smiles>  (76) 
[H]C1=C([H])C23C([H])([H])C4(C([H])([H])[H])C(C([H])([H])[H])=C1C([H])(C([H])([H])C([H])([H])C1([H])C5(C([H])([H])[H])C([H])([H])C([H])([H])C([H])([H])C(C([H])([H])[H])(C([H])([H])[H])C5([H])C([H])([H])C([H])([H])C12C3([H])[H])C4([H])C1([H])C(=O)OC(=O)C1([H])[H]

$$$$
18:1:0
     RDKit          3D

 76 82  0  0  1  0  0  0  0  0999 V2000
    3.8394    2.2590    5.9298 C   0  0  0  0  0  0  0  0  0  0  0  0
    3.0009    1.4679    4.9417 C   0  0  0  0  0  0  0  0  0  0  0  0
    3.4111    0.9066    3.8181 C   0  0  0  0  0  0  0  0  0  0  0  0
    4.6028    0.1019    3.9963 C   0  0  0  0  0  0  0  0  0  0  0  0
    4.4528   -0.9681    4.8073 C   0  0  0  0  0  0  0  0  0  0  0  0
    3.2139   -1.5066    5.4632 C   0  0  1  0  0  0  0  0  0  0  0  0
    2.3334   -0.4968    6.2345 C   0  0  0  0  0  0  0  0  0  0  0  0
    1.7717    0.7456    5.4498 C   0  0  1  0  0  0  0  0  0  0  0  0
    0.9500    1.5594    6.4972 C   0  0  0  0  0  0  0  0  0  0  0  0
    1.0852    0.2964    4.0985 C   0  0  1  0  0  0  0  0  0  0  0  0
   -0.1439    1.0969    3.5605 C   0  0  2  0  0  0  0  0  0  0  0  0
   -0.0536    2.6105    3.3541 C   0  0  0  0  0  0  0  0  0  0  0  0
   -1.4131    3.1056    3.8308 C   0  0  0  0  0  0  0  0  0  0  0  0
   -1.7837    4.2846    3.7056 O   0  0  0  0  0  0  0  0  0  0  0  0
   -2.1128    2.0932    4.4136 O   0  0  0  0  0  0  0  0  0  0  0  0
   -1.4104    0.9321    4.3662 C   0  0  0  0  0  0  0  0  0  0  0  0
   -1.7484   -0.1659    4.8593 O   0  0  0  0  0  0  0  0  0  0  0  0
    2.2497    0.3141    3.0623 C   0  0  2  0  0  0  0  0  0  0  0  0
    2.5504   -0.9224    2.1551 C   0  0  0  0  0  0  0  0  0  0  0  0
    2.0450   -2.3434    2.5084 C   0  0  0  0  0  0  0  0  0  0  0  0
    2.8745   -3.2212    3.5073 C   0  0  2  0  0  0  0  0  0  0  0  0
    2.7347   -4.7765    3.2667 C   0  0  1  0  0  0  0  0  0  0  0  0
    3.1844   -5.0259    1.8019 C   0  0  0  0  0  0  0  0  0  0  0  0
    3.6825   -5.6087    4.1841 C   0  0  0  0  0  0  0  0  0  0  0  0
    3.4726   -7.1349    4.0791 C   0  0  0  0  0  0  0  0  0  0  0  0
    2.0105   -7.5591    4.2995 C   0  0  0  0  0  0  0  0  0  0  0  0
    0.9923   -6.7825    3.4314 C   0  0  0  0  0  0  0  0  0  0  0  0
    1.0482   -7.2710    1.9652 C   0  0  0  0  0  0  0  0  0  0  0  0
   -0.4322   -7.1538    3.9041 C   0  0  0  0  0  0  0  0  0  0  0  0
    1.2661   -5.2330    3.5803 C   0  0  1  0  0  0  0  0  0  0  0  0
    0.8546   -4.7256    4.9921 C   0  0  0  0  0  0  0  0  0  0  0  0
    1.1326   -3.2518    5.2739 C   0  0  0  0  0  0  0  0  0  0  0  0
    2.5421   -2.8024    4.9348 C   0  0  2  0  0  0  0  0  0  0  0  0
    3.4994   -2.8641    6.0953 C   0  0  0  0  0  0  0  0  0  0  0  0
    3.4367    3.2671    5.8644 H   0  0  0  0  0  0  0  0  0  0  0  0
    4.8957    2.3076    5.6573 H   0  0  0  0  0  0  0  0  0  0  0  0
    3.7378    1.9341    6.9627 H   0  0  0  0  0  0  0  0  0  0  0  0
    5.5596    0.3388    3.5822 H   0  0  0  0  0  0  0  0  0  0  0  0
    5.3429   -1.5437    4.9993 H   0  0  0  0  0  0  0  0  0  0  0  0
    1.4874   -1.0351    6.6458 H   0  0  0  0  0  0  0  0  0  0  0  0
    2.9150   -0.1512    7.0853 H   0  0  0  0  0  0  0  0  0  0  0  0
    0.0736    0.9850    6.8133 H   0  0  0  0  0  0  0  0  0  0  0  0
    0.6204    2.5499    6.1714 H   0  0  0  0  0  0  0  0  0  0  0  0
    1.5160    1.7209    7.4204 H   0  0  0  0  0  0  0  0  0  0  0  0
    0.7407   -0.7172    4.1997 H   0  0  0  0  0  0  0  0  0  0  0  0
    0.0934    2.8835    2.3124 H   0  0  0  0  0  0  0  0  0  0  0  0
    0.7384    3.1056    3.9135 H   0  0  0  0  0  0  0  0  0  0  0  0
   -0.4230    0.6660    2.5965 H   0  0  0  0  0  0  0  0  0  0  0  0
    2.0263    1.1265    2.3625 H   0  0  0  0  0  0  0  0  0  0  0  0
    2.0297   -0.6917    1.2272 H   0  0  0  0  0  0  0  0  0  0  0  0
    3.5965   -0.9677    1.8264 H   0  0  0  0  0  0  0  0  0  0  0  0
    0.9917   -2.3163    2.7531 H   0  0  0  0  0  0  0  0  0  0  0  0
    2.0389   -2.8437    1.5485 H   0  0  0  0  0  0  0  0  0  0  0  0
    3.9293   -3.0076    3.3450 H   0  0  0  0  0  0  0  0  0  0  0  0
    3.6465   -5.9958    1.6483 H   0  0  0  0  0  0  0  0  0  0  0  0
    3.9439   -4.3091    1.4990 H   0  0  0  0  0  0  0  0  0  0  0  0
    2.3604   -4.9474    1.0946 H   0  0  0  0  0  0  0  0  0  0  0  0
    4.7218   -5.3564    3.9831 H   0  0  0  0  0  0  0  0  0  0  0  0
    3.5023   -5.3605    5.2265 H   0  0  0  0  0  0  0  0  0  0  0  0
    3.8232   -7.5177    3.1251 H   0  0  0  0  0  0  0  0  0  0  0  0
    4.0885   -7.6273    4.8310 H   0  0  0  0  0  0  0  0  0  0  0  0
    1.9166   -8.6272    4.0990 H   0  0  0  0  0  0  0  0  0  0  0  0
    1.7713   -7.4420    5.3596 H   0  0  0  0  0  0  0  0  0  0  0  0
    0.5780   -6.5695    1.2799 H   0  0  0  0  0  0  0  0  0  0  0  0
    0.5598   -8.2353    1.8422 H   0  0  0  0  0  0  0  0  0  0  0  0
    2.0687   -7.4348    1.6326 H   0  0  0  0  0  0  0  0  0  0  0  0
   -1.1927   -6.5433    3.4244 H   0  0  0  0  0  0  0  0  0  0  0  0
   -0.5399   -7.0472    4.9835 H   0  0  0  0  0  0  0  0  0  0  0  0
   -0.6571   -8.1960    3.6826 H   0  0  0  0  0  0  0  0  0  0  0  0
    0.6104   -4.7270    2.8767 H   0  0  0  0  0  0  0  0  0  0  0  0
   -0.2174   -4.8354    5.1090 H   0  0  0  0  0  0  0  0  0  0  0  0
    1.3102   -5.3302    5.7748 H   0  0  0  0  0  0  0  0  0  0  0  0
    0.3882   -2.6510    4.7655 H   0  0  0  0  0  0  0  0  0  0  0  0
    0.9665   -3.1008    6.3364 H   0  0  0  0  0  0  0  0  0  0  0  0
    4.4482   -3.3548    5.8970 H   0  0  0  0  0  0  0  0  0  0  0  0
    3.0905   -3.0448    7.0828 H   0  0  0  0  0  0  0  0  0  0  0  0
  1  2  1  0
  1 35  1  0
  1 36  1  0
  1 37  1  0
  2  8  1  0
  2  3  2  0
  3 18  1  0
  3  4  1  0
  4  5  2  0
  4 38  1  0
  5  6  1  0
  5 39  1  0
  6 33  1  0
  6 34  1  1
  6  7  1  0
  7  8  1  0
  7 40  1  0
  7 41  1  0
  8  9  1  1
  8 10  1  0
  9 42  1  0
  9 43  1  0
  9 44  1  0
 10 18  1  0
 10 45  1  1
 10 11  1  0
 11 12  1  0
 11 48  1  6
 11 16  1  0
 12 13  1  0
 12 46  1  0
 12 47  1  0
 13 14  2  0
 13 15  1  0
 15 16  1  0
 16 17  2  0
 18 19  1  0
 18 49  1  6
 19 20  1  0
 19 50  1  0
 19 51  1  0
 20 21  1  0
 20 52  1  0
 20 53  1  0
 21 33  1  0
 21 22  1  0
 21 54  1  6
 22 30  1  0
 22 23  1  6
 22 24  1  0
 23 55  1  0
 23 56  1  0
 23 57  1  0
 24 25  1  0
 24 58  1  0
 24 59  1  0
 25 26  1  0
 25 60  1  0
 25 61  1  0
 26 27  1  0
 26 62  1  0
 26 63  1  0
 27 28  1  0
 27 29  1  0
 27 30  1  0
 28 64  1  0
 28 65  1  0
 28 66  1  0
 29 67  1  0
 29 68  1  0
 29 69  1  0
 30 31  1  0
 30 70  1  6
 31 32  1  0
 31 71  1  0
 31 72  1  0
 33 32  1  1
 32 73  1  0
 32 74  1  0
 33 34  1  0
 34 75  1  0
 34 76  1  0
M  END
>  <i_m_ct_stereo_status>  (77) 
1

>  <s_m_source_file>  (77) 
/var/tmp/pbs.5076255.sched01/tmpzk3r62u5/0tgg_cfwk.sdf

>  <i_m_source_file_index>  (77) 
30

>  <i_lp_mmshare_version>  (77) 
48012

>  <i_f3d_flags>  (77) 
0

>  <s_epik_input>  (77) 
W09IXWMxb2MoW09IXSlbY0hdYzFbQ0BASF0yW0NAXShbQ0gyXTMpKFtDSDNdKUMoW0NIM10pPUMoW0NIXT1bQ0hdNClbQ0BIXTJbQ0gyXVtDSDJdW0NASF0oW0NAXTUoW0NAXTM0NilbQ0gyXTYpW0NAXTcoW0NIM10pW0NASF0oW0NIMl1bQ0gyXTUpQyhbQ0gzXSkoW0NIM10pW0NIMl1bQ0gyXVtDSDJdNw==

>  <s_epik_cmdline>  (77) 
J2VwaWtfcHl0aG9uJywgJy1waHQnLCAnMi4wJywgJy1waCcsICc3LjAnLCAnLXRuJywgJzgnLCAnLW1hJywgJzIwMCcsICctaW1hZScsICc8aW5maWxlLm1hZT4nLCAnLW9tYWUnLCAnPG91dGZpbGUubWFlPic=

>  <r_lp_tautomer_probability>  (77) 
1

>  <r_epik_Ionization_Penalty>  (77) 
0

>  <r_epik_Ionization_Penalty_Charging>  (77) 
0

>  <r_epik_Ionization_Penalty_Neutral>  (77) 
0

>  <r_epik_State_Penalty>  (77) 
-0

>  <r_epik_Charging_Adjusted_Penalty>  (77) 
0

>  <i_epik_Tot_Q>  (77) 
0

>  <i_epik_Tot_abs_Q>  (77) 
0

>  <s_lp_Force_Field>  (77) 
OPLS3e

>  <r_lp_Energy>  (77) 
116.483

>  <b_lp_Chiralities_Consistent>  (77) 
1

>  <s_lp_Variant>  (77) 
18:0-2

>  <s_i_glide_gridfile>  (77) 
pfpi4k_grid

>  <i_i_glide_lignum>  (77) 
30

>  <i_i_glide_rotatable_bonds>  (77) 
1

>  <r_i_docking_score>  (77) 
-2.38634

>  <r_i_glide_ligand_efficiency>  (77) 
-0.0701863

>  <r_i_glide_ligand_efficiency_sa>  (77) 
-0.227376

>  <r_i_glide_ligand_efficiency_ln>  (77) 
-0.527208

>  <r_i_glide_gscore>  (77) 
-2.38634

>  <r_i_glide_lipo>  (77) 
-0.0678334

>  <r_i_glide_hbond>  (77) 
-0.111379

>  <r_i_glide_metal>  (77) 
-0

>  <r_i_glide_rewards>  (77) 
-0.254568

>  <r_i_glide_evdw>  (77) 
-29.2012

>  <r_i_glide_ecoul>  (77) 
-3.383

>  <r_i_glide_erotb>  (77) 
0.0941136

>  <r_i_glide_esite>  (77) 
-0.079161

>  <r_i_glide_emodel>  (77) 
-35.162

>  <r_i_glide_energy>  (77) 
-32.5842

>  <r_i_glide_einternal>  (77) 
3.47909

>  <r_i_glide_intrahb_reward>  (77) 
-0

>  <i_i_glide_confnum>  (77) 
3

>  <i_i_glide_posenum>  (77) 
19

>  <r_i_glide_eff_state_penalty>  (77) 
0

>  <ligand_id>  (77) 
18

>  <original_smiles>  (77) 
CC1=C2C=CC34CC1(C)C(c1cc(O)oc1O)C2CCC1C2(C)CCCC(C)(C)C2CCC13C4

>  <smiles>  (77) 
[H]C1=C([H])C23C([H])([H])C4(C([H])([H])[H])C(C([H])([H])[H])=C1C([H])(C([H])([H])C([H])([H])C1([H])C5(C([H])([H])[H])C([H])([H])C([H])([H])C([H])([H])C(C([H])([H])[H])(C([H])([H])[H])C5([H])C([H])([H])C([H])([H])C12C3([H])[H])C4([H])C1([H])C(=O)OC(=O)C1([H])[H]

$$$$
18:1:1
     RDKit          3D

 76 82  0  0  1  0  0  0  0  0999 V2000
    4.3348   -0.0245    4.4118 C   0  0  0  0  0  0  0  0  0  0  0  0
    4.2739   -1.2431    3.5135 C   0  0  0  0  0  0  0  0  0  0  0  0
    5.1035   -2.3097    3.5481 C   0  0  0  0  0  0  0  0  0  0  0  0
    5.2415   -2.8585    4.8647 C   0  0  0  0  0  0  0  0  0  0  0  0
    4.1459   -3.3920    5.4473 C   0  0  0  0  0  0  0  0  0  0  0  0
    2.7663   -3.5433    4.8487 C   0  0  1  0  0  0  0  0  0  0  0  0
    2.1724   -2.3085    4.1099 C   0  0  0  0  0  0  0  0  0  0  0  0
    2.9711   -1.6729    2.9014 C   0  0  1  0  0  0  0  0  0  0  0  0
    2.1164   -0.5212    2.3376 C   0  0  0  0  0  0  0  0  0  0  0  0
    3.4208   -2.7579    1.8628 C   0  0  1  0  0  0  0  0  0  0  0  0
    3.4369   -2.3446    0.3534 C   0  0  2  0  0  0  0  0  0  0  0  0
    3.7376   -3.4690   -0.6240 C   0  0  0  0  0  0  0  0  0  0  0  0
    4.4319   -2.7412   -1.7735 C   0  0  0  0  0  0  0  0  0  0  0  0
    4.6216   -3.2592   -2.8716 O   0  0  0  0  0  0  0  0  0  0  0  0
    4.8196   -1.5071   -1.3964 O   0  0  0  0  0  0  0  0  0  0  0  0
    4.4102   -1.2615   -0.1389 C   0  0  0  0  0  0  0  0  0  0  0  0
    4.7448   -0.2968    0.5348 O   0  0  0  0  0  0  0  0  0  0  0  0
    4.8036   -3.2311    2.3865 C   0  0  2  0  0  0  0  0  0  0  0  0
    5.1012   -4.7539    2.5608 C   0  0  0  0  0  0  0  0  0  0  0  0
    3.9610   -5.7975    2.7208 C   0  0  0  0  0  0  0  0  0  0  0  0
    3.3178   -6.0215    4.1390 C   0  0  2  0  0  0  0  0  0  0  0  0
    2.7748   -7.4832    4.3662 C   0  0  1  0  0  0  0  0  0  0  0  0
    3.9894   -8.4305    4.1457 C   0  0  0  0  0  0  0  0  0  0  0  0
    2.2783   -7.7042    5.8261 C   0  0  0  0  0  0  0  0  0  0  0  0
    1.6190   -9.0832    6.0612 C   0  0  0  0  0  0  0  0  0  0  0  0
    0.4931   -9.3749    5.0688 C   0  0  0  0  0  0  0  0  0  0  0  0
    0.8861   -9.1622    3.5962 C   0  0  0  0  0  0  0  0  0  0  0  0
    1.7847  -10.3335    3.1108 C   0  0  0  0  0  0  0  0  0  0  0  0
   -0.4010   -9.2691    2.7454 C   0  0  0  0  0  0  0  0  0  0  0  0
    1.5641   -7.7534    3.4084 C   0  0  1  0  0  0  0  0  0  0  0  0
    0.5129   -6.6162    3.5606 C   0  0  0  0  0  0  0  0  0  0  0  0
    1.0645   -5.1860    3.5049 C   0  0  0  0  0  0  0  0  0  0  0  0
    2.2720   -4.9347    4.4047 C   0  0  2  0  0  0  0  0  0  0  0  0
    1.9060   -4.3948    5.7672 C   0  0  0  0  0  0  0  0  0  0  0  0
    4.5920    0.8293    3.7692 H   0  0  0  0  0  0  0  0  0  0  0  0
    5.1141   -0.0932    5.1692 H   0  0  0  0  0  0  0  0  0  0  0  0
    3.3867    0.2124    4.8883 H   0  0  0  0  0  0  0  0  0  0  0  0
    6.1946   -2.8539    5.3858 H   0  0  0  0  0  0  0  0  0  0  0  0
    4.2834   -3.7945    6.4428 H   0  0  0  0  0  0  0  0  0  0  0  0
    1.1759   -2.5661    3.7626 H   0  0  0  0  0  0  0  0  0  0  0  0
    1.9969   -1.5570    4.8756 H   0  0  0  0  0  0  0  0  0  0  0  0
    1.2423   -0.9120    1.8163 H   0  0  0  0  0  0  0  0  0  0  0  0
    2.6401    0.1176    1.6427 H   0  0  0  0  0  0  0  0  0  0  0  0
    1.7582    0.1307    3.1239 H   0  0  0  0  0  0  0  0  0  0  0  0
    2.7114   -3.5674    1.9147 H   0  0  0  0  0  0  0  0  0  0  0  0
    2.8450   -3.9933   -0.9782 H   0  0  0  0  0  0  0  0  0  0  0  0
    4.4369   -4.1976   -0.2107 H   0  0  0  0  0  0  0  0  0  0  0  0
    2.4388   -1.9980    0.1120 H   0  0  0  0  0  0  0  0  0  0  0  0
    5.5658   -2.8835    1.6860 H   0  0  0  0  0  0  0  0  0  0  0  0
    5.5926   -5.0326    1.6283 H   0  0  0  0  0  0  0  0  0  0  0  0
    5.8803   -4.9226    3.3084 H   0  0  0  0  0  0  0  0  0  0  0  0
    3.2183   -5.6695    1.9393 H   0  0  0  0  0  0  0  0  0  0  0  0
    4.4420   -6.7158    2.4086 H   0  0  0  0  0  0  0  0  0  0  0  0
    4.1165   -5.8909    4.8717 H   0  0  0  0  0  0  0  0  0  0  0  0
    3.9616   -9.3331    4.7511 H   0  0  0  0  0  0  0  0  0  0  0  0
    4.9328   -7.9524    4.4238 H   0  0  0  0  0  0  0  0  0  0  0  0
    4.0866   -8.7496    3.1075 H   0  0  0  0  0  0  0  0  0  0  0  0
    3.0881   -7.5581    6.5345 H   0  0  0  0  0  0  0  0  0  0  0  0
    1.5196   -6.9700    6.0820 H   0  0  0  0  0  0  0  0  0  0  0  0
    2.3485   -9.8880    6.0338 H   0  0  0  0  0  0  0  0  0  0  0  0
    1.2047   -9.1197    7.0683 H   0  0  0  0  0  0  0  0  0  0  0  0
    0.1463  -10.4014    5.2096 H   0  0  0  0  0  0  0  0  0  0  0  0
   -0.3649   -8.7489    5.3140 H   0  0  0  0  0  0  0  0  0  0  0  0
    2.3267  -10.0917    2.1882 H   0  0  0  0  0  0  0  0  0  0  0  0
    1.2191  -11.2440    2.9168 H   0  0  0  0  0  0  0  0  0  0  0  0
    2.5237  -10.6268    3.8554 H   0  0  0  0  0  0  0  0  0  0  0  0
   -0.2060   -8.9721    1.7214 H   0  0  0  0  0  0  0  0  0  0  0  0
   -1.2110   -8.6433    3.1252 H   0  0  0  0  0  0  0  0  0  0  0  0
   -0.7968  -10.2814    2.7268 H   0  0  0  0  0  0  0  0  0  0  0  0
    1.9266   -7.7071    2.3788 H   0  0  0  0  0  0  0  0  0  0  0  0
   -0.2188   -6.6771    2.7546 H   0  0  0  0  0  0  0  0  0  0  0  0
   -0.0517   -6.7240    4.4803 H   0  0  0  0  0  0  0  0  0  0  0  0
    1.2856   -4.9308    2.4792 H   0  0  0  0  0  0  0  0  0  0  0  0
    0.2622   -4.5110    3.8083 H   0  0  0  0  0  0  0  0  0  0  0  0
    2.3631   -4.8829    6.6286 H   0  0  0  0  0  0  0  0  0  0  0  0
    0.8861   -4.0506    5.9391 H   0  0  0  0  0  0  0  0  0  0  0  0
  1  2  1  0
  1 35  1  0
  1 36  1  0
  1 37  1  0
  2  8  1  0
  2  3  2  0
  3 18  1  0
  3  4  1  0
  4  5  2  0
  4 38  1  0
  5  6  1  0
  5 39  1  0
  6 33  1  0
  6 34  1  1
  6  7  1  0
  7  8  1  0
  7 40  1  0
  7 41  1  0
  8  9  1  6
  8 10  1  0
  9 42  1  0
  9 43  1  0
  9 44  1  0
 10 18  1  0
 10 45  1  6
 10 11  1  0
 11 12  1  0
 11 48  1  6
 11 16  1  0
 12 13  1  0
 12 46  1  0
 12 47  1  0
 13 14  2  0
 13 15  1  0
 15 16  1  0
 16 17  2  0
 18 19  1  0
 18 49  1  6
 19 20  1  0
 19 50  1  0
 19 51  1  0
 20 21  1  0
 20 52  1  0
 20 53  1  0
 21 33  1  0
 21 22  1  0
 21 54  1  1
 22 30  1  0
 22 23  1  6
 22 24  1  0
 23 55  1  0
 23 56  1  0
 23 57  1  0
 24 25  1  0
 24 58  1  0
 24 59  1  0
 25 26  1  0
 25 60  1  0
 25 61  1  0
 26 27  1  0
 26 62  1  0
 26 63  1  0
 27 28  1  0
 27 29  1  0
 27 30  1  0
 28 64  1  0
 28 65  1  0
 28 66  1  0
 29 67  1  0
 29 68  1  0
 29 69  1  0
 30 31  1  0
 30 70  1  6
 31 32  1  0
 31 71  1  0
 31 72  1  0
 33 32  1  6
 32 73  1  0
 32 74  1  0
 33 34  1  0
 34 75  1  0
 34 76  1  0
M  END
>  <i_m_ct_stereo_status>  (78) 
1

>  <s_m_source_file>  (78) 
/var/tmp/pbs.5076255.sched01/tmpzk3r62u5/0tgg_cfwk.sdf

>  <i_m_source_file_index>  (78) 
30

>  <i_lp_mmshare_version>  (78) 
48012

>  <i_f3d_flags>  (78) 
0

>  <s_epik_input>  (78) 
W09IXWMxb2MoW09IXSlbY0hdYzFbQ0BASF0yW0NAXShbQ0gyXTMpKFtDSDNdKUMoW0NIM10pPUMoW0NIXT1bQ0hdNClbQ0BIXTJbQ0gyXVtDSDJdW0NASF0oW0NAXTUoW0NAXTM0NilbQ0gyXTYpW0NAXTcoW0NIM10pW0NASF0oW0NIMl1bQ0gyXTUpQyhbQ0gzXSkoW0NIM10pW0NIMl1bQ0gyXVtDSDJdNw==

>  <s_epik_cmdline>  (78) 
J2VwaWtfcHl0aG9uJywgJy1waHQnLCAnMi4wJywgJy1waCcsICc3LjAnLCAnLXRuJywgJzgnLCAnLW1hJywgJzIwMCcsICctaW1hZScsICc8aW5maWxlLm1hZT4nLCAnLW9tYWUnLCAnPG91dGZpbGUubWFlPic=

>  <r_lp_tautomer_probability>  (78) 
1

>  <r_epik_Ionization_Penalty>  (78) 
0

>  <r_epik_Ionization_Penalty_Charging>  (78) 
0

>  <r_epik_Ionization_Penalty_Neutral>  (78) 
0

>  <r_epik_State_Penalty>  (78) 
-0

>  <r_epik_Charging_Adjusted_Penalty>  (78) 
0

>  <i_epik_Tot_Q>  (78) 
0

>  <i_epik_Tot_abs_Q>  (78) 
0

>  <s_lp_Force_Field>  (78) 
OPLS3e

>  <r_lp_Energy>  (78) 
116.483

>  <b_lp_Chiralities_Consistent>  (78) 
1

>  <s_lp_Variant>  (78) 
18:0-2

>  <s_i_glide_gridfile>  (78) 
pfpi4k_grid

>  <i_i_glide_lignum>  (78) 
30

>  <i_i_glide_rotatable_bonds>  (78) 
1

>  <r_i_docking_score>  (78) 
-2.29704

>  <r_i_glide_ligand_efficiency>  (78) 
-0.0675601

>  <r_i_glide_ligand_efficiency_sa>  (78) 
-0.218869

>  <r_i_glide_ligand_efficiency_ln>  (78) 
-0.507482

>  <r_i_glide_gscore>  (78) 
-2.29704

>  <r_i_glide_lipo>  (78) 
-0.308667

>  <r_i_glide_hbond>  (78) 
0

>  <r_i_glide_metal>  (78) 
-0

>  <r_i_glide_rewards>  (78) 
-0.254568

>  <r_i_glide_evdw>  (78) 
-32.0744

>  <r_i_glide_ecoul>  (78) 
-1.26121

>  <r_i_glide_erotb>  (78) 
0.0941136

>  <r_i_glide_esite>  (78) 
-0.0350217

>  <r_i_glide_emodel>  (78) 
-37.3613

>  <r_i_glide_energy>  (78) 
-33.3356

>  <r_i_glide_einternal>  (78) 
0.0115192

>  <r_i_glide_intrahb_reward>  (78) 
-0

>  <i_i_glide_confnum>  (78) 
4

>  <i_i_glide_posenum>  (78) 
11

>  <r_i_glide_eff_state_penalty>  (78) 
0

>  <ligand_id>  (78) 
18

>  <original_smiles>  (78) 
CC1=C2C=CC34CC1(C)C(c1cc(O)oc1O)C2CCC1C2(C)CCCC(C)(C)C2CCC13C4

>  <smiles>  (78) 
[H]C1=C([H])C23C([H])([H])C4(C([H])([H])[H])C(C([H])([H])[H])=C1C([H])(C([H])([H])C([H])([H])C1([H])C5(C([H])([H])[H])C([H])([H])C([H])([H])C([H])([H])C(C([H])([H])[H])(C([H])([H])[H])C5([H])C([H])([H])C([H])([H])C12C3([H])[H])C4([H])C1([H])C(=O)OC(=O)C1([H])[H]

$$$$
18:1:2
     RDKit          3D

 76 82  0  0  1  0  0  0  0  0999 V2000
    1.0436   -0.4728    8.0797 C   0  0  0  0  0  0  0  0  0  0  0  0
    1.4720    0.0735    6.7264 C   0  0  0  0  0  0  0  0  0  0  0  0
    2.6992    0.4037    6.3524 C   0  0  0  0  0  0  0  0  0  0  0  0
    3.6938   -0.6091    6.6437 C   0  0  0  0  0  0  0  0  0  0  0  0
    3.5537   -1.7829    5.9905 C   0  0  0  0  0  0  0  0  0  0  0  0
    2.5499   -2.1484    4.9231 C   0  0  1  0  0  0  0  0  0  0  0  0
    1.0586   -1.8014    5.1966 C   0  0  0  0  0  0  0  0  0  0  0  0
    0.6677   -0.2974    5.4968 C   0  0  1  0  0  0  0  0  0  0  0  0
   -0.8706   -0.2828    5.7055 C   0  0  0  0  0  0  0  0  0  0  0  0
    1.2782    0.6751    4.4197 C   0  0  1  0  0  0  0  0  0  0  0  0
    0.4763    1.9455    4.0050 C   0  0  2  0  0  0  0  0  0  0  0  0
   -0.0607    2.8832    5.0847 C   0  0  0  0  0  0  0  0  0  0  0  0
   -1.4252    3.2568    4.5279 C   0  0  0  0  0  0  0  0  0  0  0  0
   -2.1394    4.1261    5.0105 O   0  0  0  0  0  0  0  0  0  0  0  0
   -1.7532    2.4899    3.4633 O   0  0  0  0  0  0  0  0  0  0  0  0
   -0.7471    1.6578    3.1553 C   0  0  0  0  0  0  0  0  0  0  0  0
   -0.7872    0.7613    2.3081 O   0  0  0  0  0  0  0  0  0  0  0  0
    2.6776    1.0424    4.9834 C   0  0  2  0  0  0  0  0  0  0  0  0
    3.9610    0.8867    4.1014 C   0  0  0  0  0  0  0  0  0  0  0  0
    4.0010   -0.0321    2.8508 C   0  0  0  0  0  0  0  0  0  0  0  0
    4.2808   -1.5633    3.0381 C   0  0  2  0  0  0  0  0  0  0  0  0
    4.9873   -2.2396    1.7940 C   0  0  1  0  0  0  0  0  0  0  0  0
    6.3045   -1.4533    1.5689 C   0  0  0  0  0  0  0  0  0  0  0  0
    5.3670   -3.7301    2.0698 C   0  0  0  0  0  0  0  0  0  0  0  0
    5.9483   -4.4718    0.8465 C   0  0  0  0  0  0  0  0  0  0  0  0
    5.0288   -4.3748   -0.3839 C   0  0  0  0  0  0  0  0  0  0  0  0
    4.5992   -2.9299   -0.7366 C   0  0  0  0  0  0  0  0  0  0  0  0
    5.7845   -2.1623   -1.3728 C   0  0  0  0  0  0  0  0  0  0  0  0
    3.5268   -3.0071   -1.8475 C   0  0  0  0  0  0  0  0  0  0  0  0
    4.0276   -2.2241    0.5539 C   0  0  1  0  0  0  0  0  0  0  0  0
    2.6578   -2.8373    0.9660 C   0  0  0  0  0  0  0  0  0  0  0  0
    2.0398   -2.2889    2.2546 C   0  0  0  0  0  0  0  0  0  0  0  0
    2.9896   -2.2722    3.4435 C   0  0  2  0  0  0  0  0  0  0  0  0
    2.9029   -3.5002    4.3171 C   0  0  0  0  0  0  0  0  0  0  0  0
    0.4100    0.2946    8.5180 H   0  0  0  0  0  0  0  0  0  0  0  0
    1.8885   -0.6236    8.7549 H   0  0  0  0  0  0  0  0  0  0  0  0
    0.4643   -1.3905    8.0129 H   0  0  0  0  0  0  0  0  0  0  0  0
    4.4905   -0.4714    7.3526 H   0  0  0  0  0  0  0  0  0  0  0  0
    4.2747   -2.5480    6.2278 H   0  0  0  0  0  0  0  0  0  0  0  0
    0.4697   -2.1305    4.3511 H   0  0  0  0  0  0  0  0  0  0  0  0
    0.7445   -2.4259    6.0301 H   0  0  0  0  0  0  0  0  0  0  0  0
   -1.3744   -0.4907    4.7606 H   0  0  0  0  0  0  0  0  0  0  0  0
   -1.2570    0.6530    6.1191 H   0  0  0  0  0  0  0  0  0  0  0  0
   -1.1782   -1.1053    6.3575 H   0  0  0  0  0  0  0  0  0  0  0  0
    1.4177    0.1229    3.5060 H   0  0  0  0  0  0  0  0  0  0  0  0
    0.5516    3.7869    5.1980 H   0  0  0  0  0  0  0  0  0  0  0  0
   -0.1871    2.3941    6.0540 H   0  0  0  0  0  0  0  0  0  0  0  0
    1.0997    2.5463    3.3342 H   0  0  0  0  0  0  0  0  0  0  0  0
    2.6487    2.1000    5.2472 H   0  0  0  0  0  0  0  0  0  0  0  0
    4.1137    1.8838    3.6910 H   0  0  0  0  0  0  0  0  0  0  0  0
    4.8641    0.7333    4.7039 H   0  0  0  0  0  0  0  0  0  0  0  0
    3.1499    0.1648    2.2067 H   0  0  0  0  0  0  0  0  0  0  0  0
    4.8073    0.3838    2.2650 H   0  0  0  0  0  0  0  0  0  0  0  0
    4.9867   -1.6705    3.8595 H   0  0  0  0  0  0  0  0  0  0  0  0
    7.1173   -2.0652    1.1927 H   0  0  0  0  0  0  0  0  0  0  0  0
    6.6814   -1.0485    2.5059 H   0  0  0  0  0  0  0  0  0  0  0  0
    6.1870   -0.6073    0.8922 H   0  0  0  0  0  0  0  0  0  0  0  0
    6.0597   -3.8017    2.9067 H   0  0  0  0  0  0  0  0  0  0  0  0
    4.4892   -4.2968    2.3676 H   0  0  0  0  0  0  0  0  0  0  0  0
    6.9449   -4.1117    0.6019 H   0  0  0  0  0  0  0  0  0  0  0  0
    6.0822   -5.5238    1.0984 H   0  0  0  0  0  0  0  0  0  0  0  0
    5.5191   -4.8228   -1.2453 H   0  0  0  0  0  0  0  0  0  0  0  0
    4.1515   -4.9991   -0.2091 H   0  0  0  0  0  0  0  0  0  0  0  0
    5.6126   -1.0853   -1.3611 H   0  0  0  0  0  0  0  0  0  0  0  0
    5.9490   -2.4582   -2.4098 H   0  0  0  0  0  0  0  0  0  0  0  0
    6.7283   -2.3642   -0.8750 H   0  0  0  0  0  0  0  0  0  0  0  0
    3.0726   -2.0319   -2.0329 H   0  0  0  0  0  0  0  0  0  0  0  0
    2.7309   -3.7071   -1.5963 H   0  0  0  0  0  0  0  0  0  0  0  0
    3.9496   -3.3684   -2.7857 H   0  0  0  0  0  0  0  0  0  0  0  0
    3.8355   -1.1847    0.2869 H   0  0  0  0  0  0  0  0  0  0  0  0
    1.9303   -2.6493    0.1855 H   0  0  0  0  0  0  0  0  0  0  0  0
    2.7197   -3.9217    1.0487 H   0  0  0  0  0  0  0  0  0  0  0  0
    1.6226   -1.3077    2.0516 H   0  0  0  0  0  0  0  0  0  0  0  0
    1.1889   -2.9217    2.4929 H   0  0  0  0  0  0  0  0  0  0  0  0
    3.8473   -3.9767    4.5748 H   0  0  0  0  0  0  0  0  0  0  0  0
    2.0885   -4.1977    4.1452 H   0  0  0  0  0  0  0  0  0  0  0  0
  1  2  1  0
  1 35  1  0
  1 36  1  0
  1 37  1  0
  2  8  1  0
  2  3  2  0
  3 18  1  0
  3  4  1  0
  4  5  2  0
  4 38  1  0
  5  6  1  0
  5 39  1  0
  6 33  1  0
  6 34  1  1
  6  7  1  0
  7  8  1  0
  7 40  1  0
  7 41  1  0
  8  9  1  1
  8 10  1  0
  9 42  1  0
  9 43  1  0
  9 44  1  0
 10 18  1  0
 10 45  1  6
 10 11  1  0
 11 12  1  0
 11 48  1  6
 11 16  1  0
 12 13  1  0
 12 46  1  0
 12 47  1  0
 13 14  2  0
 13 15  1  0
 15 16  1  0
 16 17  2  0
 18 19  1  0
 18 49  1  1
 19 20  1  0
 19 50  1  0
 19 51  1  0
 20 21  1  0
 20 52  1  0
 20 53  1  0
 21 33  1  0
 21 22  1  0
 21 54  1  1
 22 30  1  0
 22 23  1  6
 22 24  1  0
 23 55  1  0
 23 56  1  0
 23 57  1  0
 24 25  1  0
 24 58  1  0
 24 59  1  0
 25 26  1  0
 25 60  1  0
 25 61  1  0
 26 27  1  0
 26 62  1  0
 26 63  1  0
 27 28  1  0
 27 29  1  0
 27 30  1  0
 28 64  1  0
 28 65  1  0
 28 66  1  0
 29 67  1  0
 29 68  1  0
 29 69  1  0
 30 31  1  0
 30 70  1  6
 31 32  1  0
 31 71  1  0
 31 72  1  0
 33 32  1  6
 32 73  1  0
 32 74  1  0
 33 34  1  0
 34 75  1  0
 34 76  1  0
M  END
>  <i_m_ct_stereo_status>  (79) 
1

>  <s_m_source_file>  (79) 
/var/tmp/pbs.5076255.sched01/tmpzk3r62u5/0tgg_cfwk.sdf

>  <i_m_source_file_index>  (79) 
30

>  <i_lp_mmshare_version>  (79) 
48012

>  <i_f3d_flags>  (79) 
0

>  <s_epik_input>  (79) 
W09IXWMxb2MoW09IXSlbY0hdYzFbQ0BASF0yW0NAXShbQ0gyXTMpKFtDSDNdKUMoW0NIM10pPUMoW0NIXT1bQ0hdNClbQ0BIXTJbQ0gyXVtDSDJdW0NASF0oW0NAXTUoW0NAXTM0NilbQ0gyXTYpW0NAXTcoW0NIM10pW0NASF0oW0NIMl1bQ0gyXTUpQyhbQ0gzXSkoW0NIM10pW0NIMl1bQ0gyXVtDSDJdNw==

>  <s_epik_cmdline>  (79) 
J2VwaWtfcHl0aG9uJywgJy1waHQnLCAnMi4wJywgJy1waCcsICc3LjAnLCAnLXRuJywgJzgnLCAnLW1hJywgJzIwMCcsICctaW1hZScsICc8aW5maWxlLm1hZT4nLCAnLW9tYWUnLCAnPG91dGZpbGUubWFlPic=

>  <r_lp_tautomer_probability>  (79) 
1

>  <r_epik_Ionization_Penalty>  (79) 
0

>  <r_epik_Ionization_Penalty_Charging>  (79) 
0

>  <r_epik_Ionization_Penalty_Neutral>  (79) 
0

>  <r_epik_State_Penalty>  (79) 
-0

>  <r_epik_Charging_Adjusted_Penalty>  (79) 
0

>  <i_epik_Tot_Q>  (79) 
0

>  <i_epik_Tot_abs_Q>  (79) 
0

>  <s_lp_Force_Field>  (79) 
OPLS3e

>  <r_lp_Energy>  (79) 
116.483

>  <b_lp_Chiralities_Consistent>  (79) 
1

>  <s_lp_Variant>  (79) 
18:0-2

>  <s_i_glide_gridfile>  (79) 
pfpi4k_grid

>  <i_i_glide_lignum>  (79) 
30

>  <i_i_glide_rotatable_bonds>  (79) 
1

>  <r_i_docking_score>  (79) 
-2.28724

>  <r_i_glide_ligand_efficiency>  (79) 
-0.0672716

>  <r_i_glide_ligand_efficiency_sa>  (79) 
-0.217934

>  <r_i_glide_ligand_efficiency_ln>  (79) 
-0.505314

>  <r_i_glide_gscore>  (79) 
-2.28724

>  <r_i_glide_lipo>  (79) 
-0.414289

>  <r_i_glide_hbond>  (79) 
0

>  <r_i_glide_metal>  (79) 
-0

>  <r_i_glide_rewards>  (79) 
-0.254568

>  <r_i_glide_evdw>  (79) 
-29.588

>  <r_i_glide_ecoul>  (79) 
-1.08241

>  <r_i_glide_erotb>  (79) 
0.0941136

>  <r_i_glide_esite>  (79) 
-0.0707319

>  <r_i_glide_emodel>  (79) 
-32.9112

>  <r_i_glide_energy>  (79) 
-30.6704

>  <r_i_glide_einternal>  (79) 
3.63938

>  <r_i_glide_intrahb_reward>  (79) 
-0

>  <i_i_glide_confnum>  (79) 
3

>  <i_i_glide_posenum>  (79) 
3

>  <r_i_glide_eff_state_penalty>  (79) 
0

>  <ligand_id>  (79) 
18

>  <original_smiles>  (79) 
CC1=C2C=CC34CC1(C)C(c1cc(O)oc1O)C2CCC1C2(C)CCCC(C)(C)C2CCC13C4

>  <smiles>  (79) 
[H]C1=C([H])C23C([H])([H])C4(C([H])([H])[H])C(C([H])([H])[H])=C1C([H])(C([H])([H])C([H])([H])C1([H])C5(C([H])([H])[H])C([H])([H])C([H])([H])C([H])([H])C(C([H])([H])[H])(C([H])([H])[H])C5([H])C([H])([H])C([H])([H])C12C3([H])[H])C4([H])C1([H])C(=O)OC(=O)C1([H])[H]

$$$$
18:2:0
     RDKit          3D

 76 82  0  0  1  0  0  0  0  0999 V2000
    4.3258   -0.0455    5.1581 C   0  0  0  0  0  0  0  0  0  0  0  0
    4.2426   -1.1891    4.1714 C   0  0  0  0  0  0  0  0  0  0  0  0
    5.0862   -2.2446    4.0919 C   0  0  0  0  0  0  0  0  0  0  0  0
    5.2463   -2.9060    5.3510 C   0  0  0  0  0  0  0  0  0  0  0  0
    4.1678   -3.5199    5.8912 C   0  0  0  0  0  0  0  0  0  0  0  0
    2.7866   -3.6507    5.2788 C   0  0  1  0  0  0  0  0  0  0  0  0
    2.1682   -2.3196    4.7710 C   0  0  0  0  0  0  0  0  0  0  0  0
    2.9157   -1.5927    3.5848 C   0  0  1  0  0  0  0  0  0  0  0  0
    2.0706   -0.3999    3.1096 C   0  0  0  0  0  0  0  0  0  0  0  0
    3.3205   -2.6080    2.4658 C   0  0  1  0  0  0  0  0  0  0  0  0
    3.1730   -2.1188    0.9874 C   0  0  1  0  0  0  0  0  0  0  0  0
    4.1758   -1.1077    0.4598 C   0  0  0  0  0  0  0  0  0  0  0  0
    4.8429   -1.8420   -0.6986 C   0  0  0  0  0  0  0  0  0  0  0  0
    5.8062   -1.3784   -1.3055 O   0  0  0  0  0  0  0  0  0  0  0  0
    4.2529   -3.0287   -0.9346 O   0  0  0  0  0  0  0  0  0  0  0  0
    3.2896   -3.2596   -0.0174 C   0  0  0  0  0  0  0  0  0  0  0  0
    2.5692   -4.2524    0.0488 O   0  0  0  0  0  0  0  0  0  0  0  0
    4.7531   -3.0566    2.8585 C   0  0  2  0  0  0  0  0  0  0  0  0
    5.1400   -4.5647    2.8032 C   0  0  0  0  0  0  0  0  0  0  0  0
    4.6393   -5.6323    3.8217 C   0  0  0  0  0  0  0  0  0  0  0  0
    3.1083   -5.9418    3.8214 C   0  0  1  0  0  0  0  0  0  0  0  0
    2.6271   -7.4508    3.9449 C   0  0  1  0  0  0  0  0  0  0  0  0
    3.6140   -8.3285    3.1292 C   0  0  0  0  0  0  0  0  0  0  0  0
    2.6127   -7.9725    5.4060 C   0  0  0  0  0  0  0  0  0  0  0  0
    2.0433   -9.3965    5.5220 C   0  0  0  0  0  0  0  0  0  0  0  0
    0.6114   -9.4711    4.9831 C   0  0  0  0  0  0  0  0  0  0  0  0
    0.4519   -8.9541    3.5330 C   0  0  0  0  0  0  0  0  0  0  0  0
    0.9747  -10.0137    2.5259 C   0  0  0  0  0  0  0  0  0  0  0  0
   -1.0709   -8.8696    3.2380 C   0  0  0  0  0  0  0  0  0  0  0  0
    1.1608   -7.5481    3.3678 C   0  0  1  0  0  0  0  0  0  0  0  0
    0.2612   -6.4225    3.9438 C   0  0  0  0  0  0  0  0  0  0  0  0
    0.8626   -5.0156    3.9048 C   0  0  0  0  0  0  0  0  0  0  0  0
    2.2133   -4.9338    4.5934 C   0  0  2  0  0  0  0  0  0  0  0  0
    2.0489   -4.7094    6.0755 C   0  0  0  0  0  0  0  0  0  0  0  0
    4.5618    0.8541    4.5836 H   0  0  0  0  0  0  0  0  0  0  0  0
    5.1242   -0.1753    5.8882 H   0  0  0  0  0  0  0  0  0  0  0  0
    3.3902    0.1472    5.6820 H   0  0  0  0  0  0  0  0  0  0  0  0
    6.2038   -2.9252    5.8630 H   0  0  0  0  0  0  0  0  0  0  0  0
    4.3206   -4.0097    6.8443 H   0  0  0  0  0  0  0  0  0  0  0  0
    1.1371   -2.4929    4.4765 H   0  0  0  0  0  0  0  0  0  0  0  0
    2.0889   -1.6662    5.6354 H   0  0  0  0  0  0  0  0  0  0  0  0
    1.1667   -0.7443    2.6086 H   0  0  0  0  0  0  0  0  0  0  0  0
    2.6183    0.2380    2.4238 H   0  0  0  0  0  0  0  0  0  0  0  0
    1.7494    0.2140    3.9453 H   0  0  0  0  0  0  0  0  0  0  0  0
    2.6676   -3.4611    2.5388 H   0  0  0  0  0  0  0  0  0  0  0  0
    4.9228   -0.7882    1.1903 H   0  0  0  0  0  0  0  0  0  0  0  0
    3.6778   -0.2143    0.0719 H   0  0  0  0  0  0  0  0  0  0  0  0
    2.1725   -1.7129    0.8523 H   0  0  0  0  0  0  0  0  0  0  0  0
    5.4518   -2.6086    2.1549 H   0  0  0  0  0  0  0  0  0  0  0  0
    4.8938   -4.9106    1.7949 H   0  0  0  0  0  0  0  0  0  0  0  0
    6.2303   -4.5963    2.8261 H   0  0  0  0  0  0  0  0  0  0  0  0
    5.1953   -6.4831    3.4562 H   0  0  0  0  0  0  0  0  0  0  0  0
    5.0663   -5.5274    4.8123 H   0  0  0  0  0  0  0  0  0  0  0  0
    2.8914   -5.7334    2.7729 H   0  0  0  0  0  0  0  0  0  0  0  0
    3.3183   -9.3625    3.0215 H   0  0  0  0  0  0  0  0  0  0  0  0
    4.5756   -8.4195    3.6331 H   0  0  0  0  0  0  0  0  0  0  0  0
    3.7785   -7.9374    2.1240 H   0  0  0  0  0  0  0  0  0  0  0  0
    3.6082   -7.9231    5.8440 H   0  0  0  0  0  0  0  0  0  0  0  0
    1.9738   -7.3476    6.0226 H   0  0  0  0  0  0  0  0  0  0  0  0
    2.6831  -10.1196    5.0233 H   0  0  0  0  0  0  0  0  0  0  0  0
    2.0335   -9.6997    6.5687 H   0  0  0  0  0  0  0  0  0  0  0  0
    0.2506  -10.4997    5.0496 H   0  0  0  0  0  0  0  0  0  0  0  0
   -0.0343   -8.8979    5.6444 H   0  0  0  0  0  0  0  0  0  0  0  0
    1.4422   -9.5534    1.6516 H   0  0  0  0  0  0  0  0  0  0  0  0
    0.1897  -10.6681    2.1392 H   0  0  0  0  0  0  0  0  0  0  0  0
    1.7006  -10.6950    2.9752 H   0  0  0  0  0  0  0  0  0  0  0  0
   -1.2848   -8.4304    2.2621 H   0  0  0  0  0  0  0  0  0  0  0  0
   -1.6060   -8.3038    4.0006 H   0  0  0  0  0  0  0  0  0  0  0  0
   -1.5335   -9.8598    3.2565 H   0  0  0  0  0  0  0  0  0  0  0  0
    1.2176   -7.3503    2.2953 H   0  0  0  0  0  0  0  0  0  0  0  0
   -0.6614   -6.3563    3.3714 H   0  0  0  0  0  0  0  0  0  0  0  0
   -0.0351   -6.6513    4.9687 H   0  0  0  0  0  0  0  0  0  0  0  0
    0.9434   -4.6626    2.8785 H   0  0  0  0  0  0  0  0  0  0  0  0
    0.1520   -4.3542    4.3990 H   0  0  0  0  0  0  0  0  0  0  0  0
    2.6066   -5.3648    6.7437 H   0  0  0  0  0  0  0  0  0  0  0  0
    1.0711   -4.4233    6.4577 H   0  0  0  0  0  0  0  0  0  0  0  0
  1  2  1  0
  1 35  1  0
  1 36  1  0
  1 37  1  0
  2  8  1  0
  2  3  2  0
  3 18  1  0
  3  4  1  0
  4  5  2  0
  4 38  1  0
  5  6  1  0
  5 39  1  0
  6 33  1  0
  6 34  1  1
  6  7  1  0
  7  8  1  0
  7 40  1  0
  7 41  1  0
  8  9  1  6
  8 10  1  0
  9 42  1  0
  9 43  1  0
  9 44  1  0
 10 18  1  0
 10 45  1  6
 10 11  1  0
 11 12  1  0
 11 48  1  1
 11 16  1  0
 12 13  1  0
 12 46  1  0
 12 47  1  0
 13 14  2  0
 13 15  1  0
 15 16  1  0
 16 17  2  0
 18 19  1  0
 18 49  1  6
 19 20  1  0
 19 50  1  0
 19 51  1  0
 20 21  1  0
 20 52  1  0
 20 53  1  0
 21 33  1  0
 21 22  1  0
 21 54  1  6
 22 30  1  0
 22 23  1  6
 22 24  1  0
 23 55  1  0
 23 56  1  0
 23 57  1  0
 24 25  1  0
 24 58  1  0
 24 59  1  0
 25 26  1  0
 25 60  1  0
 25 61  1  0
 26 27  1  0
 26 62  1  0
 26 63  1  0
 27 28  1  0
 27 29  1  0
 27 30  1  0
 28 64  1  0
 28 65  1  0
 28 66  1  0
 29 67  1  0
 29 68  1  0
 29 69  1  0
 30 31  1  0
 30 70  1  6
 31 32  1  0
 31 71  1  0
 31 72  1  0
 33 32  1  6
 32 73  1  0
 32 74  1  0
 33 34  1  0
 34 75  1  0
 34 76  1  0
M  END
>  <i_m_ct_stereo_status>  (80) 
1

>  <s_m_source_file>  (80) 
/var/tmp/pbs.5076255.sched01/tmpzk3r62u5/0tgg_cfwk.sdf

>  <i_m_source_file_index>  (80) 
31

>  <i_lp_mmshare_version>  (80) 
48012

>  <i_f3d_flags>  (80) 
0

>  <s_epik_input>  (80) 
W09IXWMxb2MoW09IXSlbY0hdYzFbQ0BASF0yW0NAXShbQ0gyXTMpKFtDSDNdKUMoW0NIM10pPUMoW0NIXT1bQ0hdNClbQ0BIXTJbQ0gyXVtDSDJdW0NASF0oW0NAXTUoW0NAXTM0NilbQ0gyXTYpW0NAXTcoW0NIM10pW0NASF0oW0NIMl1bQ0gyXTUpQyhbQ0gzXSkoW0NIM10pW0NIMl1bQ0gyXVtDSDJdNw==

>  <s_epik_cmdline>  (80) 
J2VwaWtfcHl0aG9uJywgJy1waHQnLCAnMi4wJywgJy1waCcsICc3LjAnLCAnLXRuJywgJzgnLCAnLW1hJywgJzIwMCcsICctaW1hZScsICc8aW5maWxlLm1hZT4nLCAnLW9tYWUnLCAnPG91dGZpbGUubWFlPic=

>  <r_lp_tautomer_probability>  (80) 
1

>  <r_epik_Ionization_Penalty>  (80) 
0

>  <r_epik_Ionization_Penalty_Charging>  (80) 
0

>  <r_epik_Ionization_Penalty_Neutral>  (80) 
0

>  <r_epik_State_Penalty>  (80) 
-0

>  <r_epik_Charging_Adjusted_Penalty>  (80) 
0

>  <i_epik_Tot_Q>  (80) 
0

>  <i_epik_Tot_abs_Q>  (80) 
0

>  <s_lp_Force_Field>  (80) 
OPLS3e

>  <r_lp_Energy>  (80) 
130.965

>  <b_lp_Chiralities_Consistent>  (80) 
1

>  <s_lp_Variant>  (80) 
18:0-3

>  <s_i_glide_gridfile>  (80) 
pfpi4k_grid

>  <i_i_glide_lignum>  (80) 
31

>  <i_i_glide_rotatable_bonds>  (80) 
1

>  <r_i_docking_score>  (80) 
-2.37086

>  <r_i_glide_ligand_efficiency>  (80) 
-0.069731

>  <r_i_glide_ligand_efficiency_sa>  (80) 
-0.225901

>  <r_i_glide_ligand_efficiency_ln>  (80) 
-0.523788

>  <r_i_glide_gscore>  (80) 
-2.37086

>  <r_i_glide_lipo>  (80) 
-0.289842

>  <r_i_glide_hbond>  (80) 
-0.0728137

>  <r_i_glide_metal>  (80) 
-0

>  <r_i_glide_rewards>  (80) 
-0.254568

>  <r_i_glide_evdw>  (80) 
-29.7278

>  <r_i_glide_ecoul>  (80) 
-2.22719

>  <r_i_glide_erotb>  (80) 
0.0941136

>  <r_i_glide_esite>  (80) 
-0.0272777

>  <r_i_glide_emodel>  (80) 
-35.9302

>  <r_i_glide_energy>  (80) 
-31.955

>  <r_i_glide_einternal>  (80) 
0.624519

>  <r_i_glide_intrahb_reward>  (80) 
-0

>  <i_i_glide_confnum>  (80) 
1

>  <i_i_glide_posenum>  (80) 
32

>  <r_i_glide_eff_state_penalty>  (80) 
0

>  <ligand_id>  (80) 
18

>  <original_smiles>  (80) 
CC1=C2C=CC34CC1(C)C(c1cc(O)oc1O)C2CCC1C2(C)CCCC(C)(C)C2CCC13C4

>  <smiles>  (80) 
[H]C1=C([H])C23C([H])([H])C4(C([H])([H])[H])C(C([H])([H])[H])=C1C([H])(C([H])([H])C([H])([H])C1([H])C5(C([H])([H])[H])C([H])([H])C([H])([H])C([H])([H])C(C([H])([H])[H])(C([H])([H])[H])C5([H])C([H])([H])C([H])([H])C12C3([H])[H])C4([H])C1([H])C(=O)OC(=O)C1([H])[H]

$$$$
18:2:1
     RDKit          3D

 76 82  0  0  1  0  0  0  0  0999 V2000
    1.5991    2.3799    8.2713 C   0  0  0  0  0  0  0  0  0  0  0  0
    1.3659    2.0818    6.7996 C   0  0  0  0  0  0  0  0  0  0  0  0
    2.1202    2.5017    5.7690 C   0  0  0  0  0  0  0  0  0  0  0  0
    3.5065    2.1620    5.9454 C   0  0  0  0  0  0  0  0  0  0  0  0
    3.8420    0.8470    5.9862 C   0  0  0  0  0  0  0  0  0  0  0  0
    2.9329   -0.3483    5.7926 C   0  0  1  0  0  0  0  0  0  0  0  0
    1.6545   -0.3395    6.6644 C   0  0  0  0  0  0  0  0  0  0  0  0
    0.6272    0.8319    6.4018 C   0  0  1  0  0  0  0  0  0  0  0  0
   -0.6405    0.5752    7.2215 C   0  0  0  0  0  0  0  0  0  0  0  0
    0.3873    1.0450    4.8690 C   0  0  1  0  0  0  0  0  0  0  0  0
   -1.0723    1.3631    4.4184 C   0  0  1  0  0  0  0  0  0  0  0  0
   -1.6855    2.6844    4.8570 C   0  0  0  0  0  0  0  0  0  0  0  0
   -1.9822    3.3801    3.5348 C   0  0  0  0  0  0  0  0  0  0  0  0
   -2.3710    4.5432    3.4860 O   0  0  0  0  0  0  0  0  0  0  0  0
   -1.7626    2.5838    2.4931 O   0  0  0  0  0  0  0  0  0  0  0  0
   -1.1920    1.4561    2.9030 C   0  0  0  0  0  0  0  0  0  0  0  0
   -0.7797    0.5796    2.1712 O   0  0  0  0  0  0  0  0  0  0  0  0
    1.4291    2.1271    4.4725 C   0  0  2  0  0  0  0  0  0  0  0  0
    2.2699    1.9389    3.1794 C   0  0  0  0  0  0  0  0  0  0  0  0
    3.4095    0.8899    3.0364 C   0  0  0  0  0  0  0  0  0  0  0  0
    3.0277   -0.6206    3.0762 C   0  0  1  0  0  0  0  0  0  0  0  0
    3.7181   -1.6209    2.0545 C   0  0  1  0  0  0  0  0  0  0  0  0
    3.8718   -0.8823    0.6966 C   0  0  0  0  0  0  0  0  0  0  0  0
    5.1275   -2.0940    2.4966 C   0  0  0  0  0  0  0  0  0  0  0  0
    5.7230   -3.1514    1.5497 C   0  0  0  0  0  0  0  0  0  0  0  0
    4.8232   -4.3873    1.4510 C   0  0  0  0  0  0  0  0  0  0  0  0
    3.3670   -4.0743    1.0430 C   0  0  0  0  0  0  0  0  0  0  0  0
    3.2808   -3.7819   -0.4806 C   0  0  0  0  0  0  0  0  0  0  0  0
    2.5601   -5.3931    1.2228 C   0  0  0  0  0  0  0  0  0  0  0  0
    2.7868   -2.8890    1.9179 C   0  0  1  0  0  0  0  0  0  0  0  0
    2.3491   -3.4148    3.3142 C   0  0  0  0  0  0  0  0  0  0  0  0
    1.8282   -2.3526    4.2846 C   0  0  0  0  0  0  0  0  0  0  0  0
    2.8200   -1.2158    4.4938 C   0  0  2  0  0  0  0  0  0  0  0  0
    3.8254   -1.5571    5.5675 C   0  0  0  0  0  0  0  0  0  0  0  0
    0.7786    3.0258    8.5945 H   0  0  0  0  0  0  0  0  0  0  0  0
    2.5246    2.9261    8.4449 H   0  0  0  0  0  0  0  0  0  0  0  0
    1.5769    1.4952    8.9063 H   0  0  0  0  0  0  0  0  0  0  0  0
    4.2667    2.9279    6.0488 H   0  0  0  0  0  0  0  0  0  0  0  0
    4.8919    0.6331    6.1311 H   0  0  0  0  0  0  0  0  0  0  0  0
    1.1385   -1.2892    6.5523 H   0  0  0  0  0  0  0  0  0  0  0  0
    1.9823   -0.3386    7.7018 H   0  0  0  0  0  0  0  0  0  0  0  0
   -1.1799   -0.2743    6.8128 H   0  0  0  0  0  0  0  0  0  0  0  0
   -1.3045    1.4332    7.2302 H   0  0  0  0  0  0  0  0  0  0  0  0
   -0.4022    0.3407    8.2556 H   0  0  0  0  0  0  0  0  0  0  0  0
    0.6337    0.1295    4.3529 H   0  0  0  0  0  0  0  0  0  0  0  0
   -1.0151    3.2903    5.4671 H   0  0  0  0  0  0  0  0  0  0  0  0
   -2.6224    2.5341    5.4012 H   0  0  0  0  0  0  0  0  0  0  0  0
   -1.7303    0.5529    4.7293 H   0  0  0  0  0  0  0  0  0  0  0  0
    0.8782    3.0498    4.2831 H   0  0  0  0  0  0  0  0  0  0  0  0
    1.5706    1.7872    2.3538 H   0  0  0  0  0  0  0  0  0  0  0  0
    2.7098    2.9151    2.9555 H   0  0  0  0  0  0  0  0  0  0  0  0
    3.7392    1.1446    2.0410 H   0  0  0  0  0  0  0  0  0  0  0  0
    4.2947    1.1293    3.6112 H   0  0  0  0  0  0  0  0  0  0  0  0
    2.0212   -0.5510    2.6649 H   0  0  0  0  0  0  0  0  0  0  0  0
    4.1925   -1.5028   -0.1269 H   0  0  0  0  0  0  0  0  0  0  0  0
    4.6562   -0.1265    0.7331 H   0  0  0  0  0  0  0  0  0  0  0  0
    2.9394   -0.4067    0.3898 H   0  0  0  0  0  0  0  0  0  0  0  0
    5.8069   -1.2497    2.6011 H   0  0  0  0  0  0  0  0  0  0  0  0
    5.0747   -2.5695    3.4725 H   0  0  0  0  0  0  0  0  0  0  0  0
    5.9200   -2.7327    0.5658 H   0  0  0  0  0  0  0  0  0  0  0  0
    6.6939   -3.4658    1.9282 H   0  0  0  0  0  0  0  0  0  0  0  0
    5.2597   -5.1009    0.7492 H   0  0  0  0  0  0  0  0  0  0  0  0
    4.8282   -4.8889    2.4172 H   0  0  0  0  0  0  0  0  0  0  0  0
    2.5257   -3.0277   -0.7221 H   0  0  0  0  0  0  0  0  0  0  0  0
    3.0316   -4.6526   -1.0671 H   0  0  0  0  0  0  0  0  0  0  0  0
    4.2369   -3.4486   -0.8922 H   0  0  0  0  0  0  0  0  0  0  0  0
    1.4937   -5.2526    1.0493 H   0  0  0  0  0  0  0  0  0  0  0  0
    2.6828   -5.8097    2.2258 H   0  0  0  0  0  0  0  0  0  0  0  0
    2.9036   -6.1762    0.5411 H   0  0  0  0  0  0  0  0  0  0  0  0
    1.8661   -2.5600    1.4361 H   0  0  0  0  0  0  0  0  0  0  0  0
    1.5284   -4.1239    3.2078 H   0  0  0  0  0  0  0  0  0  0  0  0
    3.1651   -3.9583    3.7921 H   0  0  0  0  0  0  0  0  0  0  0  0
    0.8722   -1.9611    3.9444 H   0  0  0  0  0  0  0  0  0  0  0  0
    1.6352   -2.8586    5.2321 H   0  0  0  0  0  0  0  0  0  0  0  0
    4.8777   -1.4082    5.3330 H   0  0  0  0  0  0  0  0  0  0  0  0
    3.6360   -2.4176    6.2050 H   0  0  0  0  0  0  0  0  0  0  0  0
  1  2  1  0
  1 35  1  0
  1 36  1  0
  1 37  1  0
  2  8  1  0
  2  3  2  0
  3 18  1  0
  3  4  1  0
  4  5  2  0
  4 38  1  0
  5  6  1  0
  5 39  1  0
  6 33  1  0
  6 34  1  1
  6  7  1  0
  7  8  1  0
  7 40  1  0
  7 41  1  0
  8  9  1  1
  8 10  1  0
  9 42  1  0
  9 43  1  0
  9 44  1  0
 10 18  1  0
 10 45  1  6
 10 11  1  0
 11 12  1  0
 11 48  1  1
 11 16  1  0
 12 13  1  0
 12 46  1  0
 12 47  1  0
 13 14  2  0
 13 15  1  0
 15 16  1  0
 16 17  2  0
 18 19  1  0
 18 49  1  6
 19 20  1  0
 19 50  1  0
 19 51  1  0
 20 21  1  0
 20 52  1  0
 20 53  1  0
 21 33  1  0
 21 22  1  0
 21 54  1  6
 22 30  1  0
 22 23  1  6
 22 24  1  0
 23 55  1  0
 23 56  1  0
 23 57  1  0
 24 25  1  0
 24 58  1  0
 24 59  1  0
 25 26  1  0
 25 60  1  0
 25 61  1  0
 26 27  1  0
 26 62  1  0
 26 63  1  0
 27 28  1  0
 27 29  1  0
 27 30  1  0
 28 64  1  0
 28 65  1  0
 28 66  1  0
 29 67  1  0
 29 68  1  0
 29 69  1  0
 30 31  1  0
 30 70  1  6
 31 32  1  0
 31 71  1  0
 31 72  1  0
 33 32  1  6
 32 73  1  0
 32 74  1  0
 33 34  1  0
 34 75  1  0
 34 76  1  0
M  END
>  <i_m_ct_stereo_status>  (81) 
1

>  <s_m_source_file>  (81) 
/var/tmp/pbs.5076255.sched01/tmpzk3r62u5/0tgg_cfwk.sdf

>  <i_m_source_file_index>  (81) 
31

>  <i_lp_mmshare_version>  (81) 
48012

>  <i_f3d_flags>  (81) 
0

>  <s_epik_input>  (81) 
W09IXWMxb2MoW09IXSlbY0hdYzFbQ0BASF0yW0NAXShbQ0gyXTMpKFtDSDNdKUMoW0NIM10pPUMoW0NIXT1bQ0hdNClbQ0BIXTJbQ0gyXVtDSDJdW0NASF0oW0NAXTUoW0NAXTM0NilbQ0gyXTYpW0NAXTcoW0NIM10pW0NASF0oW0NIMl1bQ0gyXTUpQyhbQ0gzXSkoW0NIM10pW0NIMl1bQ0gyXVtDSDJdNw==

>  <s_epik_cmdline>  (81) 
J2VwaWtfcHl0aG9uJywgJy1waHQnLCAnMi4wJywgJy1waCcsICc3LjAnLCAnLXRuJywgJzgnLCAnLW1hJywgJzIwMCcsICctaW1hZScsICc8aW5maWxlLm1hZT4nLCAnLW9tYWUnLCAnPG91dGZpbGUubWFlPic=

>  <r_lp_tautomer_probability>  (81) 
1

>  <r_epik_Ionization_Penalty>  (81) 
0

>  <r_epik_Ionization_Penalty_Charging>  (81) 
0

>  <r_epik_Ionization_Penalty_Neutral>  (81) 
0

>  <r_epik_State_Penalty>  (81) 
-0

>  <r_epik_Charging_Adjusted_Penalty>  (81) 
0

>  <i_epik_Tot_Q>  (81) 
0

>  <i_epik_Tot_abs_Q>  (81) 
0

>  <s_lp_Force_Field>  (81) 
OPLS3e

>  <r_lp_Energy>  (81) 
130.965

>  <b_lp_Chiralities_Consistent>  (81) 
1

>  <s_lp_Variant>  (81) 
18:0-3

>  <s_i_glide_gridfile>  (81) 
pfpi4k_grid

>  <i_i_glide_lignum>  (81) 
31

>  <i_i_glide_rotatable_bonds>  (81) 
1

>  <r_i_docking_score>  (81) 
-2.28487

>  <r_i_glide_ligand_efficiency>  (81) 
-0.0672021

>  <r_i_glide_ligand_efficiency_sa>  (81) 
-0.217709

>  <r_i_glide_ligand_efficiency_ln>  (81) 
-0.504792

>  <r_i_glide_gscore>  (81) 
-2.28487

>  <r_i_glide_lipo>  (81) 
-0.17268

>  <r_i_glide_hbond>  (81) 
-0.170595

>  <r_i_glide_metal>  (81) 
-0

>  <r_i_glide_rewards>  (81) 
-0.254568

>  <r_i_glide_evdw>  (81) 
-26.2146

>  <r_i_glide_ecoul>  (81) 
-2.52044

>  <r_i_glide_erotb>  (81) 
0.0941136

>  <r_i_glide_esite>  (81) 
-0.0923437

>  <r_i_glide_emodel>  (81) 
-32.936

>  <r_i_glide_energy>  (81) 
-28.7351

>  <r_i_glide_einternal>  (81) 
0.0607558

>  <r_i_glide_intrahb_reward>  (81) 
-0

>  <i_i_glide_confnum>  (81) 
1

>  <i_i_glide_posenum>  (81) 
2

>  <r_i_glide_eff_state_penalty>  (81) 
0

>  <ligand_id>  (81) 
18

>  <original_smiles>  (81) 
CC1=C2C=CC34CC1(C)C(c1cc(O)oc1O)C2CCC1C2(C)CCCC(C)(C)C2CCC13C4

>  <smiles>  (81) 
[H]C1=C([H])C23C([H])([H])C4(C([H])([H])[H])C(C([H])([H])[H])=C1C([H])(C([H])([H])C([H])([H])C1([H])C5(C([H])([H])[H])C([H])([H])C([H])([H])C([H])([H])C(C([H])([H])[H])(C([H])([H])[H])C5([H])C([H])([H])C([H])([H])C12C3([H])[H])C4([H])C1([H])C(=O)OC(=O)C1([H])[H]

$$$$
18:2:2
     RDKit          3D

 76 82  0  0  1  0  0  0  0  0999 V2000
    2.0788    2.9862    7.9309 C   0  0  0  0  0  0  0  0  0  0  0  0
    1.7267    2.4585    6.5433 C   0  0  0  0  0  0  0  0  0  0  0  0
    2.4258    2.6416    5.4233 C   0  0  0  0  0  0  0  0  0  0  0  0
    3.7976    2.2316    5.5651 C   0  0  0  0  0  0  0  0  0  0  0  0
    4.0496    0.9279    5.8124 C   0  0  0  0  0  0  0  0  0  0  0  0
    3.0542   -0.2194    5.8841 C   0  0  1  0  0  0  0  0  0  0  0  0
    1.8459    0.0327    6.8178 C   0  0  0  0  0  0  0  0  0  0  0  0
    0.8784    1.2104    6.4203 C   0  0  1  0  0  0  0  0  0  0  0  0
   -0.3458    1.1922    7.3512 C   0  0  0  0  0  0  0  0  0  0  0  0
    0.5466    1.1907    4.8881 C   0  0  1  0  0  0  0  0  0  0  0  0
   -0.9216    1.5402    4.4781 C   0  0  1  0  0  0  0  0  0  0  0  0
   -1.4584    2.9217    4.8280 C   0  0  0  0  0  0  0  0  0  0  0  0
   -1.8080    3.5169    3.4839 C   0  0  0  0  0  0  0  0  0  0  0  0
   -2.1837    4.6712    3.3502 O   0  0  0  0  0  0  0  0  0  0  0  0
   -1.6613    2.6418    2.4978 O   0  0  0  0  0  0  0  0  0  0  0  0
   -1.1280    1.5112    2.9792 C   0  0  0  0  0  0  0  0  0  0  0  0
   -0.8231    0.5520    2.3031 O   0  0  0  0  0  0  0  0  0  0  0  0
    1.6214    2.1096    4.2506 C   0  0  2  0  0  0  0  0  0  0  0  0
    2.3632    1.6420    2.9587 C   0  0  0  0  0  0  0  0  0  0  0  0
    3.4283    0.5025    2.9219 C   0  0  0  0  0  0  0  0  0  0  0  0
    2.9467   -0.9432    3.2573 C   0  0  1  0  0  0  0  0  0  0  0  0
    3.4872   -2.1621    2.3898 C   0  0  1  0  0  0  0  0  0  0  0  0
    3.5874   -1.6816    0.9143 C   0  0  0  0  0  0  0  0  0  0  0  0
    4.8892   -2.6607    2.8242 C   0  0  0  0  0  0  0  0  0  0  0  0
    5.3466   -3.9050    2.0421 C   0  0  0  0  0  0  0  0  0  0  0  0
    4.3631   -5.0693    2.2121 C   0  0  0  0  0  0  0  0  0  0  0  0
    2.9022   -4.7203    1.8380 C   0  0  0  0  0  0  0  0  0  0  0  0
    2.7299   -4.6917    0.2939 C   0  0  0  0  0  0  0  0  0  0  0  0
    2.0239   -5.9157    2.2986 C   0  0  0  0  0  0  0  0  0  0  0  0
    2.4704   -3.3639    2.5346 C   0  0  1  0  0  0  0  0  0  0  0  0
    2.1002   -3.6063    4.0239 C   0  0  0  0  0  0  0  0  0  0  0  0
    1.7205   -2.3549    4.8214 C   0  0  0  0  0  0  0  0  0  0  0  0
    2.7990   -1.2808    4.7649 C   0  0  2  0  0  0  0  0  0  0  0  0
    3.8492   -1.5084    5.8247 C   0  0  0  0  0  0  0  0  0  0  0  0
    1.3304    3.7353    8.1768 H   0  0  0  0  0  0  0  0  0  0  0  0
    3.0518    3.4805    7.9472 H   0  0  0  0  0  0  0  0  0  0  0  0
    2.0450    2.2251    8.7104 H   0  0  0  0  0  0  0  0  0  0  0  0
    4.6155    2.9417    5.4891 H   0  0  0  0  0  0  0  0  0  0  0  0
    5.0798    0.6553    5.9282 H   0  0  0  0  0  0  0  0  0  0  0  0
    1.2675   -0.8775    6.9039 H   0  0  0  0  0  0  0  0  0  0  0  0
    2.2456    0.1895    7.8206 H   0  0  0  0  0  0  0  0  0  0  0  0
   -0.9741    0.3347    7.1362 H   0  0  0  0  0  0  0  0  0  0  0  0
   -0.9497    2.0878    7.2690 H   0  0  0  0  0  0  0  0  0  0  0  0
   -0.0461    1.1157    8.3924 H   0  0  0  0  0  0  0  0  0  0  0  0
    0.6877    0.1837    4.5127 H   0  0  0  0  0  0  0  0  0  0  0  0
   -0.7290    3.5354    5.3533 H   0  0  0  0  0  0  0  0  0  0  0  0
   -2.3659    2.8464    5.4267 H   0  0  0  0  0  0  0  0  0  0  0  0
   -1.5934    0.7915    4.8960 H   0  0  0  0  0  0  0  0  0  0  0  0
    1.1163    3.0181    3.9430 H   0  0  0  0  0  0  0  0  0  0  0  0
    1.6057    1.4005    2.2156 H   0  0  0  0  0  0  0  0  0  0  0  0
    2.8411    2.5315    2.5423 H   0  0  0  0  0  0  0  0  0  0  0  0
    3.7079    0.5658    1.8841 H   0  0  0  0  0  0  0  0  0  0  0  0
    4.3664    0.7666    3.3960 H   0  0  0  0  0  0  0  0  0  0  0  0
    1.9151   -0.8736    2.9016 H   0  0  0  0  0  0  0  0  0  0  0  0
    3.8069   -2.4558    0.1958 H   0  0  0  0  0  0  0  0  0  0  0  0
    4.4189   -0.9925    0.7735 H   0  0  0  0  0  0  0  0  0  0  0  0
    2.6692   -1.1926    0.5810 H   0  0  0  0  0  0  0  0  0  0  0  0
    5.6311   -1.8640    2.7382 H   0  0  0  0  0  0  0  0  0  0  0  0
    4.8724   -2.9586    3.8657 H   0  0  0  0  0  0  0  0  0  0  0  0
    5.4989   -3.6759    0.9871 H   0  0  0  0  0  0  0  0  0  0  0  0
    6.3184   -4.2251    2.4106 H   0  0  0  0  0  0  0  0  0  0  0  0
    4.7001   -5.9194    1.6193 H   0  0  0  0  0  0  0  0  0  0  0  0
    4.4041   -5.3978    3.2494 H   0  0  0  0  0  0  0  0  0  0  0  0
    2.0221   -3.9303   -0.0344 H   0  0  0  0  0  0  0  0  0  0  0  0
    2.3783   -5.6428   -0.1200 H   0  0  0  0  0  0  0  0  0  0  0  0
    3.6724   -4.5081   -0.2200 H   0  0  0  0  0  0  0  0  0  0  0  0
    0.9568   -5.7224    2.1669 H   0  0  0  0  0  0  0  0  0  0  0  0
    2.1938   -6.1665    3.3468 H   0  0  0  0  0  0  0  0  0  0  0  0
    2.2636   -6.8316    1.7463 H   0  0  0  0  0  0  0  0  0  0  0  0
    1.5382   -3.0461    2.0737 H   0  0  0  0  0  0  0  0  0  0  0  0
    1.2291   -4.2567    4.0897 H   0  0  0  0  0  0  0  0  0  0  0  0
    2.9116   -4.1250    4.5405 H   0  0  0  0  0  0  0  0  0  0  0  0
    0.7682   -1.9573    4.4756 H   0  0  0  0  0  0  0  0  0  0  0  0
    1.5649   -2.6759    5.8494 H   0  0  0  0  0  0  0  0  0  0  0  0
    4.8895   -1.4882    5.5053 H   0  0  0  0  0  0  0  0  0  0  0  0
    3.6491   -2.2360    6.6122 H   0  0  0  0  0  0  0  0  0  0  0  0
  1  2  1  0
  1 35  1  0
  1 36  1  0
  1 37  1  0
  2  8  1  0
  2  3  2  0
  3 18  1  0
  3  4  1  0
  4  5  2  0
  4 38  1  0
  5  6  1  0
  5 39  1  0
  6 33  1  0
  6 34  1  1
  6  7  1  0
  7  8  1  0
  7 40  1  0
  7 41  1  0
  8  9  1  1
  8 10  1  0
  9 42  1  0
  9 43  1  0
  9 44  1  0
 10 18  1  0
 10 45  1  6
 10 11  1  0
 11 12  1  0
 11 48  1  1
 11 16  1  0
 12 13  1  0
 12 46  1  0
 12 47  1  0
 13 14  2  0
 13 15  1  0
 15 16  1  0
 16 17  2  0
 18 19  1  0
 18 49  1  6
 19 20  1  0
 19 50  1  0
 19 51  1  0
 20 21  1  0
 20 52  1  0
 20 53  1  0
 21 33  1  0
 21 22  1  0
 21 54  1  6
 22 30  1  0
 22 23  1  6
 22 24  1  0
 23 55  1  0
 23 56  1  0
 23 57  1  0
 24 25  1  0
 24 58  1  0
 24 59  1  0
 25 26  1  0
 25 60  1  0
 25 61  1  0
 26 27  1  0
 26 62  1  0
 26 63  1  0
 27 28  1  0
 27 29  1  0
 27 30  1  0
 28 64  1  0
 28 65  1  0
 28 66  1  0
 29 67  1  0
 29 68  1  0
 29 69  1  0
 30 31  1  0
 30 70  1  6
 31 32  1  0
 31 71  1  0
 31 72  1  0
 33 32  1  6
 32 73  1  0
 32 74  1  0
 33 34  1  0
 34 75  1  0
 34 76  1  0
M  END
>  <i_m_ct_stereo_status>  (82) 
1

>  <s_m_source_file>  (82) 
/var/tmp/pbs.5076255.sched01/tmpzk3r62u5/0tgg_cfwk.sdf

>  <i_m_source_file_index>  (82) 
31

>  <i_lp_mmshare_version>  (82) 
48012

>  <i_f3d_flags>  (82) 
0

>  <s_epik_input>  (82) 
W09IXWMxb2MoW09IXSlbY0hdYzFbQ0BASF0yW0NAXShbQ0gyXTMpKFtDSDNdKUMoW0NIM10pPUMoW0NIXT1bQ0hdNClbQ0BIXTJbQ0gyXVtDSDJdW0NASF0oW0NAXTUoW0NAXTM0NilbQ0gyXTYpW0NAXTcoW0NIM10pW0NASF0oW0NIMl1bQ0gyXTUpQyhbQ0gzXSkoW0NIM10pW0NIMl1bQ0gyXVtDSDJdNw==

>  <s_epik_cmdline>  (82) 
J2VwaWtfcHl0aG9uJywgJy1waHQnLCAnMi4wJywgJy1waCcsICc3LjAnLCAnLXRuJywgJzgnLCAnLW1hJywgJzIwMCcsICctaW1hZScsICc8aW5maWxlLm1hZT4nLCAnLW9tYWUnLCAnPG91dGZpbGUubWFlPic=

>  <r_lp_tautomer_probability>  (82) 
1

>  <r_epik_Ionization_Penalty>  (82) 
0

>  <r_epik_Ionization_Penalty_Charging>  (82) 
0

>  <r_epik_Ionization_Penalty_Neutral>  (82) 
0

>  <r_epik_State_Penalty>  (82) 
-0

>  <r_epik_Charging_Adjusted_Penalty>  (82) 
0

>  <i_epik_Tot_Q>  (82) 
0

>  <i_epik_Tot_abs_Q>  (82) 
0

>  <s_lp_Force_Field>  (82) 
OPLS3e

>  <r_lp_Energy>  (82) 
130.965

>  <b_lp_Chiralities_Consistent>  (82) 
1

>  <s_lp_Variant>  (82) 
18:0-3

>  <s_i_glide_gridfile>  (82) 
pfpi4k_grid

>  <i_i_glide_lignum>  (82) 
31

>  <i_i_glide_rotatable_bonds>  (82) 
1

>  <r_i_docking_score>  (82) 
-2.24257

>  <r_i_glide_ligand_efficiency>  (82) 
-0.0659578

>  <r_i_glide_ligand_efficiency_sa>  (82) 
-0.213678

>  <r_i_glide_ligand_efficiency_ln>  (82) 
-0.495446

>  <r_i_glide_gscore>  (82) 
-2.24257

>  <r_i_glide_lipo>  (82) 
-0.104746

>  <r_i_glide_hbond>  (82) 
-0.16464

>  <r_i_glide_metal>  (82) 
-0

>  <r_i_glide_rewards>  (82) 
-0.254568

>  <r_i_glide_evdw>  (82) 
-26.0162

>  <r_i_glide_ecoul>  (82) 
-2.73021

>  <r_i_glide_erotb>  (82) 
0.0941136

>  <r_i_glide_esite>  (82) 
-0.102385

>  <r_i_glide_emodel>  (82) 
-32.856

>  <r_i_glide_energy>  (82) 
-28.7464

>  <r_i_glide_einternal>  (82) 
0.0346325

>  <r_i_glide_intrahb_reward>  (82) 
-0

>  <i_i_glide_confnum>  (82) 
3

>  <i_i_glide_posenum>  (82) 
10

>  <r_i_glide_eff_state_penalty>  (82) 
0

>  <ligand_id>  (82) 
18

>  <original_smiles>  (82) 
CC1=C2C=CC34CC1(C)C(c1cc(O)oc1O)C2CCC1C2(C)CCCC(C)(C)C2CCC13C4

>  <smiles>  (82) 
[H]C1=C([H])C23C([H])([H])C4(C([H])([H])[H])C(C([H])([H])[H])=C1C([H])(C([H])([H])C([H])([H])C1([H])C5(C([H])([H])[H])C([H])([H])C([H])([H])C([H])([H])C(C([H])([H])[H])(C([H])([H])[H])C5([H])C([H])([H])C([H])([H])C12C3([H])[H])C4([H])C1([H])C(=O)OC(=O)C1([H])[H]

$$$$
18:3:0
     RDKit          3D

 76 82  0  0  1  0  0  0  0  0999 V2000
    2.8590   -0.2844    3.4082 C   0  0  0  0  0  0  0  0  0  0  0  0
    3.5922   -1.6283    3.4776 C   0  0  0  0  0  0  0  0  0  0  0  0
    4.1134   -2.2083    4.5226 C   0  0  0  0  0  0  0  0  0  0  0  0
    3.1858   -2.3030    5.6636 C   0  0  0  0  0  0  0  0  0  0  0  0
    2.1294   -3.0807    5.4783 C   0  0  0  0  0  0  0  0  0  0  0  0
    1.8067   -3.9790    4.2900 C   0  0  1  0  0  0  0  0  0  0  0  0
    1.8424   -3.2663    2.9114 C   0  0  0  0  0  0  0  0  0  0  0  0
    3.2325   -2.6958    2.4601 C   0  0  1  0  0  0  0  0  0  0  0  0
    3.0377   -2.1017    1.0569 C   0  0  0  0  0  0  0  0  0  0  0  0
    4.3812   -3.7566    2.6850 C   0  0  1  0  0  0  0  0  0  0  0  0
    5.5329   -3.9115    1.6395 C   0  0  2  0  0  0  0  0  0  0  0  0
    6.2491   -2.6408    1.1738 C   0  0  0  0  0  0  0  0  0  0  0  0
    5.8737   -2.5356   -0.2971 C   0  0  0  0  0  0  0  0  0  0  0  0
    6.1075   -1.5356   -0.9852 O   0  0  0  0  0  0  0  0  0  0  0  0
    5.3454   -3.6890   -0.7145 O   0  0  0  0  0  0  0  0  0  0  0  0
    5.0788   -4.5202    0.3174 C   0  0  0  0  0  0  0  0  0  0  0  0
    4.5617   -5.6337    0.2297 O   0  0  0  0  0  0  0  0  0  0  0  0
    4.9060   -3.4201    4.1109 C   0  0  2  0  0  0  0  0  0  0  0  0
    5.1523   -4.5594    5.1548 C   0  0  0  0  0  0  0  0  0  0  0  0
    4.0186   -5.3521    5.8934 C   0  0  0  0  0  0  0  0  0  0  0  0
    3.1114   -6.2546    5.0016 C   0  0  1  0  0  0  0  0  0  0  0  0
    2.6813   -7.6920    5.5179 C   0  0  1  0  0  0  0  0  0  0  0  0
    3.8904   -8.3015    6.2786 C   0  0  0  0  0  0  0  0  0  0  0  0
    1.4684   -7.6628    6.4880 C   0  0  0  0  0  0  0  0  0  0  0  0
    0.9989   -9.0661    6.9037 C   0  0  0  0  0  0  0  0  0  0  0  0
    0.5968   -9.8995    5.6759 C   0  0  0  0  0  0  0  0  0  0  0  0
    1.7000  -10.0188    4.5873 C   0  0  0  0  0  0  0  0  0  0  0  0
    2.7980  -11.0279    5.0261 C   0  0  0  0  0  0  0  0  0  0  0  0
    1.0364  -10.6765    3.3493 C   0  0  0  0  0  0  0  0  0  0  0  0
    2.2837   -8.5821    4.2621 C   0  0  1  0  0  0  0  0  0  0  0  0
    1.3268   -7.8026    3.3098 C   0  0  0  0  0  0  0  0  0  0  0  0
    1.7475   -6.3735    2.9691 C   0  0  0  0  0  0  0  0  0  0  0  0
    1.9812   -5.5336    4.2216 C   0  0  2  0  0  0  0  0  0  0  0  0
    0.7037   -4.9205    4.7246 C   0  0  0  0  0  0  0  0  0  0  0  0
    3.4958    0.3635    2.8146 H   0  0  0  0  0  0  0  0  0  0  0  0
    2.7368    0.1678    4.3929 H   0  0  0  0  0  0  0  0  0  0  0  0
    1.8929   -0.3416    2.9157 H   0  0  0  0  0  0  0  0  0  0  0  0
    3.3325   -1.7377    6.5700 H   0  0  0  0  0  0  0  0  0  0  0  0
    1.4191   -3.1199    6.3010 H   0  0  0  0  0  0  0  0  0  0  0  0
    1.5017   -3.9518    2.1499 H   0  0  0  0  0  0  0  0  0  0  0  0
    1.1007   -2.4655    2.9452 H   0  0  0  0  0  0  0  0  0  0  0  0
    2.9239   -2.8895    0.3224 H   0  0  0  0  0  0  0  0  0  0  0  0
    3.8538   -1.4633    0.7801 H   0  0  0  0  0  0  0  0  0  0  0  0
    2.0928   -1.5380    1.0080 H   0  0  0  0  0  0  0  0  0  0  0  0
    3.9663   -4.7543    2.7375 H   0  0  0  0  0  0  0  0  0  0  0  0
    7.3363   -2.7397    1.2335 H   0  0  0  0  0  0  0  0  0  0  0  0
    5.9321   -1.7566    1.6950 H   0  0  0  0  0  0  0  0  0  0  0  0
    6.2920   -4.5998    2.0089 H   0  0  0  0  0  0  0  0  0  0  0  0
    5.8865   -2.9787    3.9536 H   0  0  0  0  0  0  0  0  0  0  0  0
    5.8068   -5.2887    4.6878 H   0  0  0  0  0  0  0  0  0  0  0  0
    5.7674   -4.1292    5.9540 H   0  0  0  0  0  0  0  0  0  0  0  0
    4.6076   -5.9694    6.5501 H   0  0  0  0  0  0  0  0  0  0  0  0
    3.4564   -4.7760    6.6161 H   0  0  0  0  0  0  0  0  0  0  0  0
    3.8306   -6.5194    4.2238 H   0  0  0  0  0  0  0  0  0  0  0  0
    3.7706   -9.3341    6.5603 H   0  0  0  0  0  0  0  0  0  0  0  0
    4.0367   -7.8082    7.2383 H   0  0  0  0  0  0  0  0  0  0  0  0
    4.8098   -8.2265    5.6969 H   0  0  0  0  0  0  0  0  0  0  0  0
    1.6958   -7.0635    7.3710 H   0  0  0  0  0  0  0  0  0  0  0  0
    0.6095   -7.1971    6.0125 H   0  0  0  0  0  0  0  0  0  0  0  0
    1.7594   -9.5882    7.4838 H   0  0  0  0  0  0  0  0  0  0  0  0
    0.1355   -8.9849    7.5616 H   0  0  0  0  0  0  0  0  0  0  0  0
    0.2991  -10.8949    6.0010 H   0  0  0  0  0  0  0  0  0  0  0  0
   -0.2972   -9.4539    5.2447 H   0  0  0  0  0  0  0  0  0  0  0  0
    3.7884  -10.7378    4.6722 H   0  0  0  0  0  0  0  0  0  0  0  0
    2.6146  -12.0367    4.6496 H   0  0  0  0  0  0  0  0  0  0  0  0
    2.8342  -11.1474    6.1088 H   0  0  0  0  0  0  0  0  0  0  0  0
    1.7230  -10.7064    2.5019 H   0  0  0  0  0  0  0  0  0  0  0  0
    0.1260  -10.1567    3.0427 H   0  0  0  0  0  0  0  0  0  0  0  0
    0.7283  -11.7030    3.5654 H   0  0  0  0  0  0  0  0  0  0  0  0
    3.1900   -8.7387    3.6823 H   0  0  0  0  0  0  0  0  0  0  0  0
    1.2592   -8.3211    2.3557 H   0  0  0  0  0  0  0  0  0  0  0  0
    0.3161   -7.7904    3.7219 H   0  0  0  0  0  0  0  0  0  0  0  0
    2.6379   -6.3874    2.3433 H   0  0  0  0  0  0  0  0  0  0  0  0
    0.9474   -5.9474    2.3633 H   0  0  0  0  0  0  0  0  0  0  0  0
    0.4712   -5.0291    5.7869 H   0  0  0  0  0  0  0  0  0  0  0  0
   -0.1770   -4.9696    4.0962 H   0  0  0  0  0  0  0  0  0  0  0  0
  1  2  1  0
  1 35  1  0
  1 36  1  0
  1 37  1  0
  2  8  1  0
  2  3  2  0
  3 18  1  0
  3  4  1  0
  4  5  2  0
  4 38  1  0
  5  6  1  0
  5 39  1  0
  6 33  1  0
  6 34  1  1
  6  7  1  0
  7  8  1  0
  7 40  1  0
  7 41  1  0
  8  9  1  6
  8 10  1  0
  9 42  1  0
  9 43  1  0
  9 44  1  0
 10 18  1  0
 10 45  1  1
 10 11  1  0
 11 12  1  0
 11 48  1  1
 11 16  1  0
 12 13  1  0
 12 46  1  0
 12 47  1  0
 13 14  2  0
 13 15  1  0
 15 16  1  0
 16 17  2  0
 18 19  1  0
 18 49  1  6
 19 20  1  0
 19 50  1  0
 19 51  1  0
 20 21  1  0
 20 52  1  0
 20 53  1  0
 21 33  1  0
 21 22  1  0
 21 54  1  6
 22 30  1  0
 22 23  1  1
 22 24  1  0
 23 55  1  0
 23 56  1  0
 23 57  1  0
 24 25  1  0
 24 58  1  0
 24 59  1  0
 25 26  1  0
 25 60  1  0
 25 61  1  0
 26 27  1  0
 26 62  1  0
 26 63  1  0
 27 28  1  0
 27 29  1  0
 27 30  1  0
 28 64  1  0
 28 65  1  0
 28 66  1  0
 29 67  1  0
 29 68  1  0
 29 69  1  0
 30 31  1  0
 30 70  1  6
 31 32  1  0
 31 71  1  0
 31 72  1  0
 33 32  1  6
 32 73  1  0
 32 74  1  0
 33 34  1  0
 34 75  1  0
 34 76  1  0
M  END
>  <i_m_ct_stereo_status>  (83) 
1

>  <s_m_source_file>  (83) 
/var/tmp/pbs.5076255.sched01/tmpzk3r62u5/0tgg_cfwk.sdf

>  <i_m_source_file_index>  (83) 
32

>  <i_lp_mmshare_version>  (83) 
48012

>  <i_f3d_flags>  (83) 
0

>  <s_epik_input>  (83) 
W09IXWMxb2MoW09IXSlbY0hdYzFbQ0BASF0yW0NAXShbQ0gyXTMpKFtDSDNdKUMoW0NIM10pPUMoW0NIXT1bQ0hdNClbQ0BIXTJbQ0gyXVtDSDJdW0NASF0oW0NAXTUoW0NAXTM0NilbQ0gyXTYpW0NAXTcoW0NIM10pW0NASF0oW0NIMl1bQ0gyXTUpQyhbQ0gzXSkoW0NIM10pW0NIMl1bQ0gyXVtDSDJdNw==

>  <s_epik_cmdline>  (83) 
J2VwaWtfcHl0aG9uJywgJy1waHQnLCAnMi4wJywgJy1waCcsICc3LjAnLCAnLXRuJywgJzgnLCAnLW1hJywgJzIwMCcsICctaW1hZScsICc8aW5maWxlLm1hZT4nLCAnLW9tYWUnLCAnPG91dGZpbGUubWFlPic=

>  <r_lp_tautomer_probability>  (83) 
1

>  <r_epik_Ionization_Penalty>  (83) 
0

>  <r_epik_Ionization_Penalty_Charging>  (83) 
0

>  <r_epik_Ionization_Penalty_Neutral>  (83) 
0

>  <r_epik_State_Penalty>  (83) 
-0

>  <r_epik_Charging_Adjusted_Penalty>  (83) 
0

>  <i_epik_Tot_Q>  (83) 
0

>  <i_epik_Tot_abs_Q>  (83) 
0

>  <s_lp_Force_Field>  (83) 
OPLS3e

>  <r_lp_Energy>  (83) 
133.571

>  <b_lp_Chiralities_Consistent>  (83) 
1

>  <s_lp_Variant>  (83) 
18:0-4

>  <s_i_glide_gridfile>  (83) 
pfpi4k_grid

>  <i_i_glide_lignum>  (83) 
32

>  <i_i_glide_rotatable_bonds>  (83) 
1

>  <r_i_docking_score>  (83) 
-2.34198

>  <r_i_glide_ligand_efficiency>  (83) 
-0.0688818

>  <r_i_glide_ligand_efficiency_sa>  (83) 
-0.22315

>  <r_i_glide_ligand_efficiency_ln>  (83) 
-0.517409

>  <r_i_glide_gscore>  (83) 
-2.34198

>  <r_i_glide_lipo>  (83) 
-0.355767

>  <r_i_glide_hbond>  (83) 
-0.118485

>  <r_i_glide_metal>  (83) 
-0

>  <r_i_glide_rewards>  (83) 
-0.332539

>  <r_i_glide_evdw>  (83) 
-27.9817

>  <r_i_glide_ecoul>  (83) 
-1.50902

>  <r_i_glide_erotb>  (83) 
0.0941136

>  <r_i_glide_esite>  (83) 
-0.00386184

>  <r_i_glide_emodel>  (83) 
-30.3602

>  <r_i_glide_energy>  (83) 
-29.4908

>  <r_i_glide_einternal>  (83) 
5.65439

>  <r_i_glide_intrahb_reward>  (83) 
-0

>  <i_i_glide_confnum>  (83) 
3

>  <i_i_glide_posenum>  (83) 
35

>  <r_i_glide_eff_state_penalty>  (83) 
0

>  <ligand_id>  (83) 
18

>  <original_smiles>  (83) 
CC1=C2C=CC34CC1(C)C(c1cc(O)oc1O)C2CCC1C2(C)CCCC(C)(C)C2CCC13C4

>  <smiles>  (83) 
[H]C1=C([H])C23C([H])([H])C4(C([H])([H])[H])C(C([H])([H])[H])=C1C([H])(C([H])([H])C([H])([H])C1([H])C5(C([H])([H])[H])C([H])([H])C([H])([H])C([H])([H])C(C([H])([H])[H])(C([H])([H])[H])C5([H])C([H])([H])C([H])([H])C12C3([H])[H])C4([H])C1([H])C(=O)OC(=O)C1([H])[H]

$$$$
18:3:1
     RDKit          3D

 76 82  0  0  1  0  0  0  0  0999 V2000
    3.6274    2.2631    5.9319 C   0  0  0  0  0  0  0  0  0  0  0  0
    2.9642    1.4253    4.8518 C   0  0  0  0  0  0  0  0  0  0  0  0
    3.5267    0.9227    3.7578 C   0  0  0  0  0  0  0  0  0  0  0  0
    4.7389    0.1853    4.0321 C   0  0  0  0  0  0  0  0  0  0  0  0
    4.6040   -0.9367    4.7553 C   0  0  0  0  0  0  0  0  0  0  0  0
    3.3166   -1.5946    5.2294 C   0  0  1  0  0  0  0  0  0  0  0  0
    2.3719   -0.6686    6.0190 C   0  0  0  0  0  0  0  0  0  0  0  0
    1.7810    0.5542    5.2217 C   0  0  1  0  0  0  0  0  0  0  0  0
    0.8380    1.2908    6.2085 C   0  0  0  0  0  0  0  0  0  0  0  0
    1.2329    0.1138    3.7953 C   0  0  1  0  0  0  0  0  0  0  0  0
   -0.0882    0.7357    3.2202 C   0  0  2  0  0  0  0  0  0  0  0  0
   -0.1501    2.2513    3.0579 C   0  0  0  0  0  0  0  0  0  0  0  0
   -1.2192    2.6806    4.0268 C   0  0  0  0  0  0  0  0  0  0  0  0
   -1.4216    3.8520    4.3550 O   0  0  0  0  0  0  0  0  0  0  0  0
   -1.9277    1.6162    4.4370 O   0  0  0  0  0  0  0  0  0  0  0  0
   -1.3152    0.4711    4.0773 C   0  0  0  0  0  0  0  0  0  0  0  0
   -1.6979   -0.6625    4.3671 O   0  0  0  0  0  0  0  0  0  0  0  0
    2.4664    0.3355    2.8661 C   0  0  2  0  0  0  0  0  0  0  0  0
    2.8901   -0.7741    1.8464 C   0  0  0  0  0  0  0  0  0  0  0  0
    3.5735   -2.1312    2.2274 C   0  0  0  0  0  0  0  0  0  0  0  0
    2.7154   -3.1268    3.0678 C   0  0  1  0  0  0  0  0  0  0  0  0
    2.7600   -4.6786    2.7247 C   0  0  1  0  0  0  0  0  0  0  0  0
    2.8479   -4.8254    1.1804 C   0  0  0  0  0  0  0  0  0  0  0  0
    3.9777   -5.4177    3.3453 C   0  0  0  0  0  0  0  0  0  0  0  0
    3.9507   -6.9340    3.0923 C   0  0  0  0  0  0  0  0  0  0  0  0
    2.6755   -7.5734    3.6668 C   0  0  0  0  0  0  0  0  0  0  0  0
    1.3510   -6.9394    3.1636 C   0  0  0  0  0  0  0  0  0  0  0  0
    1.0392   -7.4071    1.7185 C   0  0  0  0  0  0  0  0  0  0  0  0
    0.2070   -7.5302    4.0278 C   0  0  0  0  0  0  0  0  0  0  0  0
    1.4414   -5.3582    3.2980 C   0  0  1  0  0  0  0  0  0  0  0  0
    1.1699   -4.9040    4.7658 C   0  0  0  0  0  0  0  0  0  0  0  0
    1.2766   -3.4048    5.0277 C   0  0  0  0  0  0  0  0  0  0  0  0
    2.6230   -2.8482    4.5940 C   0  0  2  0  0  0  0  0  0  0  0  0
    3.6587   -3.0028    5.6739 C   0  0  0  0  0  0  0  0  0  0  0  0
    3.1641    3.2461    5.8710 H   0  0  0  0  0  0  0  0  0  0  0  0
    4.6966    2.3886    5.7717 H   0  0  0  0  0  0  0  0  0  0  0  0
    3.4576    1.8878    6.9406 H   0  0  0  0  0  0  0  0  0  0  0  0
    5.7080    0.5253    3.7270 H   0  0  0  0  0  0  0  0  0  0  0  0
    5.5174   -1.4728    4.9930 H   0  0  0  0  0  0  0  0  0  0  0  0
    1.5430   -1.2350    6.4080 H   0  0  0  0  0  0  0  0  0  0  0  0
    2.9144   -0.3063    6.8846 H   0  0  0  0  0  0  0  0  0  0  0  0
   -0.0639    0.6973    6.3808 H   0  0  0  0  0  0  0  0  0  0  0  0
    0.5981    2.2738    5.8448 H   0  0  0  0  0  0  0  0  0  0  0  0
    1.2986    1.3954    7.2075 H   0  0  0  0  0  0  0  0  0  0  0  0
    1.0277   -0.9442    3.8007 H   0  0  0  0  0  0  0  0  0  0  0  0
   -0.4633    2.5362    2.0451 H   0  0  0  0  0  0  0  0  0  0  0  0
    0.7735    2.7409    3.3009 H   0  0  0  0  0  0  0  0  0  0  0  0
   -0.2882    0.2965    2.2370 H   0  0  0  0  0  0  0  0  0  0  0  0
    2.2095    1.1793    2.2213 H   0  0  0  0  0  0  0  0  0  0  0  0
    2.0035   -1.0090    1.2559 H   0  0  0  0  0  0  0  0  0  0  0  0
    3.5658   -0.2997    1.1260 H   0  0  0  0  0  0  0  0  0  0  0  0
    3.7421   -2.5405    1.2452 H   0  0  0  0  0  0  0  0  0  0  0  0
    4.5897   -2.0460    2.5816 H   0  0  0  0  0  0  0  0  0  0  0  0
    1.7218   -2.8627    2.6974 H   0  0  0  0  0  0  0  0  0  0  0  0
    2.7401   -5.8336    0.8111 H   0  0  0  0  0  0  0  0  0  0  0  0
    3.8336   -4.5456    0.8191 H   0  0  0  0  0  0  0  0  0  0  0  0
    2.1077   -4.2115    0.6724 H   0  0  0  0  0  0  0  0  0  0  0  0
    4.9094   -4.9877    2.9820 H   0  0  0  0  0  0  0  0  0  0  0  0
    3.9819   -5.2972    4.4260 H   0  0  0  0  0  0  0  0  0  0  0  0
    4.0481   -7.1614    2.0345 H   0  0  0  0  0  0  0  0  0  0  0  0
    4.8130   -7.3932    3.5712 H   0  0  0  0  0  0  0  0  0  0  0  0
    2.6741   -8.6423    3.4460 H   0  0  0  0  0  0  0  0  0  0  0  0
    2.7249   -7.5031    4.7579 H   0  0  0  0  0  0  0  0  0  0  0  0
    0.5546   -6.6332    1.1270 H   0  0  0  0  0  0  0  0  0  0  0  0
    0.3825   -8.2729    1.6970 H   0  0  0  0  0  0  0  0  0  0  0  0
    1.9370   -7.7316    1.1964 H   0  0  0  0  0  0  0  0  0  0  0  0
   -0.7514   -7.0639    3.8051 H   0  0  0  0  0  0  0  0  0  0  0  0
    0.4022   -7.4224    5.0956 H   0  0  0  0  0  0  0  0  0  0  0  0
    0.1033   -8.6012    3.8608 H   0  0  0  0  0  0  0  0  0  0  0  0
    0.6160   -4.9505    2.7239 H   0  0  0  0  0  0  0  0  0  0  0  0
    0.1575   -5.1753    5.0489 H   0  0  0  0  0  0  0  0  0  0  0  0
    1.8344   -5.4389    5.4484 H   0  0  0  0  0  0  0  0  0  0  0  0
    0.4655   -2.8750    4.5392 H   0  0  0  0  0  0  0  0  0  0  0  0
    1.1416   -3.2677    6.0966 H   0  0  0  0  0  0  0  0  0  0  0  0
    4.6209   -3.4352    5.3943 H   0  0  0  0  0  0  0  0  0  0  0  0
    3.3349   -3.2858    6.6732 H   0  0  0  0  0  0  0  0  0  0  0  0
  1  2  1  0
  1 35  1  0
  1 36  1  0
  1 37  1  0
  2  8  1  0
  2  3  2  0
  3 18  1  0
  3  4  1  0
  4  5  2  0
  4 38  1  0
  5  6  1  0
  5 39  1  0
  6 33  1  0
  6 34  1  1
  6  7  1  0
  7  8  1  0
  7 40  1  0
  7 41  1  0
  8  9  1  1
  8 10  1  0
  9 42  1  0
  9 43  1  0
  9 44  1  0
 10 18  1  0
 10 45  1  1
 10 11  1  0
 11 12  1  0
 11 48  1  6
 11 16  1  0
 12 13  1  0
 12 46  1  0
 12 47  1  0
 13 14  2  0
 13 15  1  0
 15 16  1  0
 16 17  2  0
 18 19  1  0
 18 49  1  6
 19 20  1  0
 19 50  1  0
 19 51  1  0
 20 21  1  0
 20 52  1  0
 20 53  1  0
 21 33  1  0
 21 22  1  0
 21 54  1  6
 22 30  1  0
 22 23  1  6
 22 24  1  0
 23 55  1  0
 23 56  1  0
 23 57  1  0
 24 25  1  0
 24 58  1  0
 24 59  1  0
 25 26  1  0
 25 60  1  0
 25 61  1  0
 26 27  1  0
 26 62  1  0
 26 63  1  0
 27 28  1  0
 27 29  1  0
 27 30  1  0
 28 64  1  0
 28 65  1  0
 28 66  1  0
 29 67  1  0
 29 68  1  0
 29 69  1  0
 30 31  1  0
 30 70  1  6
 31 32  1  0
 31 71  1  0
 31 72  1  0
 33 32  1  1
 32 73  1  0
 32 74  1  0
 33 34  1  0
 34 75  1  0
 34 76  1  0
M  END
>  <i_m_ct_stereo_status>  (84) 
1

>  <s_m_source_file>  (84) 
/var/tmp/pbs.5076255.sched01/tmpzk3r62u5/0tgg_cfwk.sdf

>  <i_m_source_file_index>  (84) 
32

>  <i_lp_mmshare_version>  (84) 
48012

>  <i_f3d_flags>  (84) 
0

>  <s_epik_input>  (84) 
W09IXWMxb2MoW09IXSlbY0hdYzFbQ0BASF0yW0NAXShbQ0gyXTMpKFtDSDNdKUMoW0NIM10pPUMoW0NIXT1bQ0hdNClbQ0BIXTJbQ0gyXVtDSDJdW0NASF0oW0NAXTUoW0NAXTM0NilbQ0gyXTYpW0NAXTcoW0NIM10pW0NASF0oW0NIMl1bQ0gyXTUpQyhbQ0gzXSkoW0NIM10pW0NIMl1bQ0gyXVtDSDJdNw==

>  <s_epik_cmdline>  (84) 
J2VwaWtfcHl0aG9uJywgJy1waHQnLCAnMi4wJywgJy1waCcsICc3LjAnLCAnLXRuJywgJzgnLCAnLW1hJywgJzIwMCcsICctaW1hZScsICc8aW5maWxlLm1hZT4nLCAnLW9tYWUnLCAnPG91dGZpbGUubWFlPic=

>  <r_lp_tautomer_probability>  (84) 
1

>  <r_epik_Ionization_Penalty>  (84) 
0

>  <r_epik_Ionization_Penalty_Charging>  (84) 
0

>  <r_epik_Ionization_Penalty_Neutral>  (84) 
0

>  <r_epik_State_Penalty>  (84) 
-0

>  <r_epik_Charging_Adjusted_Penalty>  (84) 
0

>  <i_epik_Tot_Q>  (84) 
0

>  <i_epik_Tot_abs_Q>  (84) 
0

>  <s_lp_Force_Field>  (84) 
OPLS3e

>  <r_lp_Energy>  (84) 
133.571

>  <b_lp_Chiralities_Consistent>  (84) 
1

>  <s_lp_Variant>  (84) 
18:0-4

>  <s_i_glide_gridfile>  (84) 
pfpi4k_grid

>  <i_i_glide_lignum>  (84) 
32

>  <i_i_glide_rotatable_bonds>  (84) 
1

>  <r_i_docking_score>  (84) 
-2.12943

>  <r_i_glide_ligand_efficiency>  (84) 
-0.0626303

>  <r_i_glide_ligand_efficiency_sa>  (84) 
-0.202898

>  <r_i_glide_ligand_efficiency_ln>  (84) 
-0.470451

>  <r_i_glide_gscore>  (84) 
-2.12943

>  <r_i_glide_lipo>  (84) 
-0.0887543

>  <r_i_glide_hbond>  (84) 
-0.00901668

>  <r_i_glide_metal>  (84) 
-0

>  <r_i_glide_rewards>  (84) 
-0.254568

>  <r_i_glide_evdw>  (84) 
-28.9171

>  <r_i_glide_ecoul>  (84) 
-2.39702

>  <r_i_glide_erotb>  (84) 
0.0941136

>  <r_i_glide_esite>  (84) 
-0.0657979

>  <r_i_glide_emodel>  (84) 
-31.428

>  <r_i_glide_energy>  (84) 
-31.3141

>  <r_i_glide_einternal>  (84) 
5.63171

>  <r_i_glide_intrahb_reward>  (84) 
-0

>  <i_i_glide_confnum>  (84) 
3

>  <i_i_glide_posenum>  (84) 
1

>  <r_i_glide_eff_state_penalty>  (84) 
0

>  <ligand_id>  (84) 
18

>  <original_smiles>  (84) 
CC1=C2C=CC34CC1(C)C(c1cc(O)oc1O)C2CCC1C2(C)CCCC(C)(C)C2CCC13C4

>  <smiles>  (84) 
[H]C1=C([H])C23C([H])([H])C4(C([H])([H])[H])C(C([H])([H])[H])=C1C([H])(C([H])([H])C([H])([H])C1([H])C5(C([H])([H])[H])C([H])([H])C([H])([H])C([H])([H])C(C([H])([H])[H])(C([H])([H])[H])C5([H])C([H])([H])C([H])([H])C12C3([H])[H])C4([H])C1([H])C(=O)OC(=O)C1([H])[H]

$$$$
18:3:2
     RDKit          3D

 76 82  0  0  1  0  0  0  0  0999 V2000
    4.4187    1.2896    5.1311 C   0  0  0  0  0  0  0  0  0  0  0  0
    3.5321    0.4240    4.2224 C   0  0  0  0  0  0  0  0  0  0  0  0
    3.8753   -0.2598    3.1732 C   0  0  0  0  0  0  0  0  0  0  0  0
    5.0128   -1.1587    3.4138 C   0  0  0  0  0  0  0  0  0  0  0  0
    4.7985   -2.1487    4.2886 C   0  0  0  0  0  0  0  0  0  0  0  0
    3.4996   -2.5412    4.9799 C   0  0  1  0  0  0  0  0  0  0  0  0
    2.7829   -1.3907    5.7251 C   0  0  0  0  0  0  0  0  0  0  0  0
    2.2838   -0.2054    4.8327 C   0  0  1  0  0  0  0  0  0  0  0  0
    1.5514    0.7808    5.7694 C   0  0  0  0  0  0  0  0  0  0  0  0
    1.5242   -0.7077    3.5402 C   0  0  1  0  0  0  0  0  0  0  0  0
    0.2409    0.0417    3.0419 C   0  0  2  0  0  0  0  0  0  0  0  0
    0.3605    1.5315    2.7403 C   0  0  0  0  0  0  0  0  0  0  0  0
   -0.5334    2.1748    3.7822 C   0  0  0  0  0  0  0  0  0  0  0  0
   -0.5506    3.3723    4.0237 O   0  0  0  0  0  0  0  0  0  0  0  0
   -1.3319    1.2479    4.3365 O   0  0  0  0  0  0  0  0  0  0  0  0
   -0.9246    0.0057    4.0317 C   0  0  0  0  0  0  0  0  0  0  0  0
   -1.4218   -1.0325    4.4706 O   0  0  0  0  0  0  0  0  0  0  0  0
    2.6517   -0.7905    2.4624 C   0  0  2  0  0  0  0  0  0  0  0  0
    2.7878   -2.0700    1.5692 C   0  0  0  0  0  0  0  0  0  0  0  0
    3.3178   -3.4642    2.0604 C   0  0  0  0  0  0  0  0  0  0  0  0
    2.4412   -4.2084    3.1128 C   0  0  1  0  0  0  0  0  0  0  0  0
    2.2231   -5.7780    2.9780 C   0  0  1  0  0  0  0  0  0  0  0  0
    2.1089   -6.1208    1.4657 C   0  0  0  0  0  0  0  0  0  0  0  0
    3.3875   -6.6186    3.5709 C   0  0  0  0  0  0  0  0  0  0  0  0
    3.1230   -8.1325    3.5253 C   0  0  0  0  0  0  0  0  0  0  0  0
    1.8456   -8.4960    4.3010 C   0  0  0  0  0  0  0  0  0  0  0  0
    0.5737   -7.7276    3.8481 C   0  0  0  0  0  0  0  0  0  0  0  0
    0.0349   -8.3099    2.5149 C   0  0  0  0  0  0  0  0  0  0  0  0
   -0.5284   -8.0248    4.8925 C   0  0  0  0  0  0  0  0  0  0  0  0
    0.8952   -6.1743    3.7625 C   0  0  1  0  0  0  0  0  0  0  0  0
    0.8650   -5.5121    5.1784 C   0  0  0  0  0  0  0  0  0  0  0  0
    1.2135   -4.0269    5.2294 C   0  0  0  0  0  0  0  0  0  0  0  0
    2.5657   -3.7436    4.5927 C   0  0  2  0  0  0  0  0  0  0  0  0
    3.6904   -3.9253    5.5758 C   0  0  0  0  0  0  0  0  0  0  0  0
    4.0975    2.3116    4.9750 H   0  0  0  0  0  0  0  0  0  0  0  0
    5.4674    1.2154    4.8509 H   0  0  0  0  0  0  0  0  0  0  0  0
    4.3113    1.0604    6.1849 H   0  0  0  0  0  0  0  0  0  0  0  0
    5.9643   -1.0055    2.9701 H   0  0  0  0  0  0  0  0  0  0  0  0
    5.6510   -2.7901    4.4976 H   0  0  0  0  0  0  0  0  0  0  0  0
    1.9409   -1.7754    6.2686 H   0  0  0  0  0  0  0  0  0  0  0  0
    3.4722   -1.0193    6.4783 H   0  0  0  0  0  0  0  0  0  0  0  0
    0.6029    0.3572    6.0979 H   0  0  0  0  0  0  0  0  0  0  0  0
    1.3789    1.7383    5.2856 H   0  0  0  0  0  0  0  0  0  0  0  0
    2.1206    0.9499    6.7046 H   0  0  0  0  0  0  0  0  0  0  0  0
    1.1755   -1.7193    3.7049 H   0  0  0  0  0  0  0  0  0  0  0  0
   -0.0216    1.7764    1.7429 H   0  0  0  0  0  0  0  0  0  0  0  0
    1.3680    1.9043    2.8361 H   0  0  0  0  0  0  0  0  0  0  0  0
   -0.1039   -0.4321    2.1229 H   0  0  0  0  0  0  0  0  0  0  0  0
    2.4402   -0.0018    1.7420 H   0  0  0  0  0  0  0  0  0  0  0  0
    1.8230   -2.2338    1.0947 H   0  0  0  0  0  0  0  0  0  0  0  0
    3.4411   -1.7942    0.7308 H   0  0  0  0  0  0  0  0  0  0  0  0
    3.3137   -4.0073    1.1323 H   0  0  0  0  0  0  0  0  0  0  0  0
    4.3707   -3.4904    2.2965 H   0  0  0  0  0  0  0  0  0  0  0  0
    1.4553   -3.8388    2.8148 H   0  0  0  0  0  0  0  0  0  0  0  0
    1.8170   -7.1350    1.2494 H   0  0  0  0  0  0  0  0  0  0  0  0
    3.0751   -6.0419    0.9736 H   0  0  0  0  0  0  0  0  0  0  0  0
    1.4097   -5.4632    0.9555 H   0  0  0  0  0  0  0  0  0  0  0  0
    4.3229   -6.3828    3.0623 H   0  0  0  0  0  0  0  0  0  0  0  0
    3.5378   -6.3726    4.6187 H   0  0  0  0  0  0  0  0  0  0  0  0
    3.0627   -8.4952    2.5025 H   0  0  0  0  0  0  0  0  0  0  0  0
    3.9616   -8.6589    3.9734 H   0  0  0  0  0  0  0  0  0  0  0  0
    1.6685   -9.5705    4.2329 H   0  0  0  0  0  0  0  0  0  0  0  0
    2.0328   -8.3036    5.3630 H   0  0  0  0  0  0  0  0  0  0  0  0
   -0.4055   -7.5453    1.8782 H   0  0  0  0  0  0  0  0  0  0  0  0
   -0.7355   -9.0634    2.6741 H   0  0  0  0  0  0  0  0  0  0  0  0
    0.8076   -8.8278    1.9522 H   0  0  0  0  0  0  0  0  0  0  0  0
   -1.4322   -7.4443    4.7072 H   0  0  0  0  0  0  0  0  0  0  0  0
   -0.1904   -7.8266    5.9096 H   0  0  0  0  0  0  0  0  0  0  0  0
   -0.8047   -9.0778    4.8830 H   0  0  0  0  0  0  0  0  0  0  0  0
    0.0695   -5.7170    3.2259 H   0  0  0  0  0  0  0  0  0  0  0  0
   -0.1339   -5.5925    5.5977 H   0  0  0  0  0  0  0  0  0  0  0  0
    1.5249   -6.0584    5.8562 H   0  0  0  0  0  0  0  0  0  0  0  0
    0.4334   -3.4386    4.7572 H   0  0  0  0  0  0  0  0  0  0  0  0
    1.2233   -3.7464    6.2782 H   0  0  0  0  0  0  0  0  0  0  0  0
    4.5440   -4.5336    5.2648 H   0  0  0  0  0  0  0  0  0  0  0  0
    3.4514   -4.0375    6.6311 H   0  0  0  0  0  0  0  0  0  0  0  0
  1  2  1  0
  1 35  1  0
  1 36  1  0
  1 37  1  0
  2  8  1  0
  2  3  2  0
  3 18  1  0
  3  4  1  0
  4  5  2  0
  4 38  1  0
  5  6  1  0
  5 39  1  0
  6 33  1  0
  6 34  1  1
  6  7  1  0
  7  8  1  0
  7 40  1  0
  7 41  1  0
  8  9  1  1
  8 10  1  0
  9 42  1  0
  9 43  1  0
  9 44  1  0
 10 18  1  0
 10 45  1  1
 10 11  1  0
 11 12  1  0
 11 48  1  6
 11 16  1  0
 12 13  1  0
 12 46  1  0
 12 47  1  0
 13 14  2  0
 13 15  1  0
 15 16  1  0
 16 17  2  0
 18 19  1  0
 18 49  1  6
 19 20  1  0
 19 50  1  0
 19 51  1  0
 20 21  1  0
 20 52  1  0
 20 53  1  0
 21 33  1  0
 21 22  1  0
 21 54  1  6
 22 30  1  0
 22 23  1  6
 22 24  1  0
 23 55  1  0
 23 56  1  0
 23 57  1  0
 24 25  1  0
 24 58  1  0
 24 59  1  0
 25 26  1  0
 25 60  1  0
 25 61  1  0
 26 27  1  0
 26 62  1  0
 26 63  1  0
 27 28  1  0
 27 29  1  0
 27 30  1  0
 28 64  1  0
 28 65  1  0
 28 66  1  0
 29 67  1  0
 29 68  1  0
 29 69  1  0
 30 31  1  0
 30 70  1  6
 31 32  1  0
 31 71  1  0
 31 72  1  0
 33 32  1  1
 32 73  1  0
 32 74  1  0
 33 34  1  0
 34 75  1  0
 34 76  1  0
M  END
>  <i_m_ct_stereo_status>  (85) 
1

>  <s_m_source_file>  (85) 
/var/tmp/pbs.5076255.sched01/tmpzk3r62u5/0tgg_cfwk.sdf

>  <i_m_source_file_index>  (85) 
32

>  <i_lp_mmshare_version>  (85) 
48012

>  <i_f3d_flags>  (85) 
0

>  <s_epik_input>  (85) 
W09IXWMxb2MoW09IXSlbY0hdYzFbQ0BASF0yW0NAXShbQ0gyXTMpKFtDSDNdKUMoW0NIM10pPUMoW0NIXT1bQ0hdNClbQ0BIXTJbQ0gyXVtDSDJdW0NASF0oW0NAXTUoW0NAXTM0NilbQ0gyXTYpW0NAXTcoW0NIM10pW0NASF0oW0NIMl1bQ0gyXTUpQyhbQ0gzXSkoW0NIM10pW0NIMl1bQ0gyXVtDSDJdNw==

>  <s_epik_cmdline>  (85) 
J2VwaWtfcHl0aG9uJywgJy1waHQnLCAnMi4wJywgJy1waCcsICc3LjAnLCAnLXRuJywgJzgnLCAnLW1hJywgJzIwMCcsICctaW1hZScsICc8aW5maWxlLm1hZT4nLCAnLW9tYWUnLCAnPG91dGZpbGUubWFlPic=

>  <r_lp_tautomer_probability>  (85) 
1

>  <r_epik_Ionization_Penalty>  (85) 
0

>  <r_epik_Ionization_Penalty_Charging>  (85) 
0

>  <r_epik_Ionization_Penalty_Neutral>  (85) 
0

>  <r_epik_State_Penalty>  (85) 
-0

>  <r_epik_Charging_Adjusted_Penalty>  (85) 
0

>  <i_epik_Tot_Q>  (85) 
0

>  <i_epik_Tot_abs_Q>  (85) 
0

>  <s_lp_Force_Field>  (85) 
OPLS3e

>  <r_lp_Energy>  (85) 
133.571

>  <b_lp_Chiralities_Consistent>  (85) 
1

>  <s_lp_Variant>  (85) 
18:0-4

>  <s_i_glide_gridfile>  (85) 
pfpi4k_grid

>  <i_i_glide_lignum>  (85) 
32

>  <i_i_glide_rotatable_bonds>  (85) 
1

>  <r_i_docking_score>  (85) 
-2.105

>  <r_i_glide_ligand_efficiency>  (85) 
-0.0619117

>  <r_i_glide_ligand_efficiency_sa>  (85) 
-0.20057

>  <r_i_glide_ligand_efficiency_ln>  (85) 
-0.465053

>  <r_i_glide_gscore>  (85) 
-2.105

>  <r_i_glide_lipo>  (85) 
-0.152253

>  <r_i_glide_hbond>  (85) 
0

>  <r_i_glide_metal>  (85) 
-0

>  <r_i_glide_rewards>  (85) 
-0.254568

>  <r_i_glide_evdw>  (85) 
-29.9275

>  <r_i_glide_ecoul>  (85) 
-1.56278

>  <r_i_glide_erotb>  (85) 
0.0941136

>  <r_i_glide_esite>  (85) 
-0.0614981

>  <r_i_glide_emodel>  (85) 
-31.5703

>  <r_i_glide_energy>  (85) 
-31.4903

>  <r_i_glide_einternal>  (85) 
5.48522

>  <r_i_glide_intrahb_reward>  (85) 
-0

>  <i_i_glide_confnum>  (85) 
3

>  <i_i_glide_posenum>  (85) 
30

>  <r_i_glide_eff_state_penalty>  (85) 
0

>  <ligand_id>  (85) 
18

>  <original_smiles>  (85) 
CC1=C2C=CC34CC1(C)C(c1cc(O)oc1O)C2CCC1C2(C)CCCC(C)(C)C2CCC13C4

>  <smiles>  (85) 
[H]C1=C([H])C23C([H])([H])C4(C([H])([H])[H])C(C([H])([H])[H])=C1C([H])(C([H])([H])C([H])([H])C1([H])C5(C([H])([H])[H])C([H])([H])C([H])([H])C([H])([H])C(C([H])([H])[H])(C([H])([H])[H])C5([H])C([H])([H])C([H])([H])C12C3([H])[H])C4([H])C1([H])C(=O)OC(=O)C1([H])[H]

$$$$
19:0:0
     RDKit          3D

 63 68  0  0  1  0  0  0  0  0999 V2000
    5.8052   -3.3465   -2.9657 C   0  0  0  0  0  0  0  0  0  0  0  0
    4.9715   -3.8742   -1.9462 O   0  0  0  0  0  0  0  0  0  0  0  0
    5.0252   -3.3441   -0.7137 C   0  0  0  0  0  0  0  0  0  0  0  0
    5.7733   -2.4181   -0.3942 O   0  0  0  0  0  0  0  0  0  0  0  0
    4.0158   -3.9834    0.2696 C   0  0  2  0  0  0  0  0  0  0  0  0
    3.5999   -3.0688    1.4916 C   0  0  2  0  0  0  0  0  0  0  0  0
    4.6781   -2.4211    2.3861 C   0  0  0  0  0  0  0  0  0  0  0  0
    4.2837   -2.8001    3.8071 C   0  0  0  0  0  0  0  0  0  0  0  0
    3.4538   -4.0534    3.5602 C   0  0  2  0  0  0  0  0  0  0  0  0
    2.6995   -3.6790    2.4210 O   0  0  0  0  0  0  0  0  0  0  0  0
    2.6196   -4.6388    4.7375 C   0  0  1  0  0  0  0  0  0  0  0  0
    1.5442   -3.6521    5.2470 C   0  0  0  0  0  0  0  0  0  0  0  0
    2.1100   -6.1267    4.5247 C   0  0  2  0  0  0  0  0  0  0  0  0
    3.2727   -7.1564    4.2832 C   0  0  0  0  0  0  0  0  0  0  0  0
    2.9655   -8.2290    3.4207 C   0  0  0  0  0  0  0  0  0  0  0  0
    3.8914   -8.8151    2.5331 C   0  0  0  0  0  0  0  0  0  0  0  0
    4.9489   -7.9218    2.2920 C   0  0  0  0  0  0  0  0  0  0  0  0
    5.2700   -7.6511    0.9476 C   0  0  0  0  0  0  0  0  0  0  0  0
    5.4674   -6.2555    0.7993 C   0  0  0  0  0  0  0  0  0  0  0  0
    6.3807   -5.7219    1.7396 C   0  0  0  0  0  0  0  0  0  0  0  0
    7.5128   -4.5127    1.2646 Cl  0  0  0  0  0  0  0  0  0  0  0  0
    6.4519   -6.2117    2.9960 N   0  0  0  0  0  0  0  0  0  0  0  0
    5.4859   -7.1012    3.3231 C   0  0  0  0  0  0  0  0  0  0  0  0
    4.6659   -6.9290    4.4646 C   0  0  0  0  0  0  0  0  0  0  0  0
    5.2286   -6.2106    5.6781 C   0  0  0  0  0  0  0  0  0  0  0  0
    4.1333   -5.5499    0.4343 C   0  0  1  0  0  0  0  0  0  0  0  0
    3.1449   -6.0311    1.3609 O   0  0  0  0  0  0  0  0  0  0  0  0
    1.7740   -6.0967    1.0090 C   0  0  0  0  0  0  0  0  0  0  0  0
    0.9050   -6.7735    2.1152 C   0  0  1  0  0  0  0  0  0  0  0  0
    1.0040   -8.3081    2.1851 C   0  0  0  0  0  0  0  0  0  0  0  0
    1.6822   -8.6888    3.3678 O   0  0  0  0  0  0  0  0  0  0  0  0
    0.8670   -6.0970    3.5259 C   0  0  1  0  0  0  0  0  0  0  0  0
   -0.4132   -6.4914    4.2998 C   0  0  0  0  0  0  0  0  0  0  0  0
    5.6229   -3.8664   -3.9060 H   0  0  0  0  0  0  0  0  0  0  0  0
    6.8597   -3.4582   -2.7088 H   0  0  0  0  0  0  0  0  0  0  0  0
    5.5997   -2.2868   -3.1244 H   0  0  0  0  0  0  0  0  0  0  0  0
    3.1033   -3.9224   -0.3238 H   0  0  0  0  0  0  0  0  0  0  0  0
    3.0225   -2.2521    1.0576 H   0  0  0  0  0  0  0  0  0  0  0  0
    5.6773   -2.7819    2.1642 H   0  0  0  0  0  0  0  0  0  0  0  0
    4.6964   -1.3375    2.2662 H   0  0  0  0  0  0  0  0  0  0  0  0
    5.1529   -2.9869    4.4372 H   0  0  0  0  0  0  0  0  0  0  0  0
    3.6836   -2.0132    4.2627 H   0  0  0  0  0  0  0  0  0  0  0  0
    4.1603   -4.7968    3.2236 H   0  0  0  0  0  0  0  0  0  0  0  0
    3.2824   -4.6767    5.5892 H   0  0  0  0  0  0  0  0  0  0  0  0
    0.8823   -3.2961    4.4576 H   0  0  0  0  0  0  0  0  0  0  0  0
    2.0103   -2.7674    5.6790 H   0  0  0  0  0  0  0  0  0  0  0  0
    0.9346   -4.1012    6.0306 H   0  0  0  0  0  0  0  0  0  0  0  0
    1.7287   -6.4436    5.4976 H   0  0  0  0  0  0  0  0  0  0  0  0
    3.5763   -9.5562    1.8141 H   0  0  0  0  0  0  0  0  0  0  0  0
    4.6792   -8.1897    0.2193 H   0  0  0  0  0  0  0  0  0  0  0  0
    6.1486   -6.7037    5.9989 H   0  0  0  0  0  0  0  0  0  0  0  0
    4.5261   -6.2512    6.5114 H   0  0  0  0  0  0  0  0  0  0  0  0
    5.4681   -5.1734    5.4433 H   0  0  0  0  0  0  0  0  0  0  0  0
    3.8852   -5.9830   -0.5327 H   0  0  0  0  0  0  0  0  0  0  0  0
    1.4155   -5.0912    0.8181 H   0  0  0  0  0  0  0  0  0  0  0  0
    1.6473   -6.6489    0.0805 H   0  0  0  0  0  0  0  0  0  0  0  0
   -0.0945   -6.6235    1.7085 H   0  0  0  0  0  0  0  0  0  0  0  0
    0.0047   -8.7391    2.2612 H   0  0  0  0  0  0  0  0  0  0  0  0
    1.4514   -8.7292    1.2833 H   0  0  0  0  0  0  0  0  0  0  0  0
    0.6849   -5.0603    3.2613 H   0  0  0  0  0  0  0  0  0  0  0  0
   -0.3768   -7.5306    4.6254 H   0  0  0  0  0  0  0  0  0  0  0  0
   -1.3131   -6.3689    3.7022 H   0  0  0  0  0  0  0  0  0  0  0  0
   -0.5395   -5.8789    5.1917 H   0  0  0  0  0  0  0  0  0  0  0  0
  1  2  1  0
  1 34  1  0
  1 35  1  0
  1 36  1  0
  2  3  1  0
  3  4  2  0
  3  5  1  0
  5 26  1  0
  5  6  1  0
  5 37  1  6
  6 10  1  0
  6  7  1  0
  6 38  1  6
  7  8  1  0
  7 39  1  0
  7 40  1  0
  8  9  1  0
  8 41  1  0
  8 42  1  0
  9 10  1  0
  9 11  1  0
  9 43  1  6
 11 12  1  0
 11 13  1  0
 11 44  1  1
 12 45  1  0
 12 46  1  0
 12 47  1  0
 13 32  1  0
 13 14  1  0
 13 48  1  1
 14 24  1  0
 14 15  2  0
 15 31  1  0
 15 16  1  0
 16 17  2  0
 16 49  1  0
 17 23  1  0
 17 18  1  0
 18 19  2  0
 18 50  1  0
 19 20  1  0
 19 26  1  0
 20 21  1  0
 20 22  2  0
 22 23  1  0
 23 24  2  0
 24 25  1  0
 25 51  1  0
 25 52  1  0
 25 53  1  0
 26 27  1  0
 26 54  1  6
 27 28  1  0
 28 29  1  0
 28 55  1  0
 28 56  1  0
 29 30  1  0
 29 32  1  0
 29 57  1  6
 30 31  1  0
 30 58  1  0
 30 59  1  0
 32 33  1  0
 32 60  1  6
 33 61  1  0
 33 62  1  0
 33 63  1  0
M  END
>  <i_m_ct_stereo_status>  (86) 
1

>  <s_m_source_file>  (86) 
/var/tmp/pbs.5076255.sched01/tmpzk3r62u5/0tgg_cfwk.sdf

>  <i_m_source_file_index>  (86) 
33

>  <i_lp_mmshare_version>  (86) 
48012

>  <i_f3d_flags>  (86) 
0

>  <s_epik_input>  (86) 
W0NIM11PQyg9TylbQ0BIXShbQ0BIXTEyKVtDQEhdM2M0W2NIXWM1YyhuYzRDbCljKFtDSDNdKWM2YyhbY0hdNSlPW0NIMl1bQ0BIXShbQ0gyXU8zKVtDQEBIXShbQ0gzXSlbQ0hdNltDQEhdKFtDSDNdKVtDQEBIXShPMilbQ0gyXVtDSDJdMQ==

>  <s_epik_cmdline>  (86) 
J2VwaWtfcHl0aG9uJywgJy1waHQnLCAnMi4wJywgJy1waCcsICc3LjAnLCAnLXRuJywgJzgnLCAnLW1hJywgJzIwMCcsICctaW1hZScsICc8aW5maWxlLm1hZT4nLCAnLW9tYWUnLCAnPG91dGZpbGUubWFlPic=

>  <r_lp_tautomer_probability>  (86) 
1

>  <r_epik_Ionization_Penalty>  (86) 
1.42156e-06

>  <r_epik_Ionization_Penalty_Charging>  (86) 
0

>  <r_epik_Ionization_Penalty_Neutral>  (86) 
1.42156e-06

>  <r_epik_State_Penalty>  (86) 
-0

>  <r_epik_Charging_Adjusted_Penalty>  (86) 
0

>  <i_epik_Tot_Q>  (86) 
0

>  <i_epik_Tot_abs_Q>  (86) 
0

>  <s_epik_Chemistry_Notes>  (86) 
This compound has an ester and may undergo hydrolysis at high or low pH.

>  <s_lp_Force_Field>  (86) 
OPLS3e

>  <r_lp_Energy>  (86) 
167.59

>  <b_lp_Chiralities_Consistent>  (86) 
1

>  <s_lp_Variant>  (86) 
19:0-1

>  <s_i_glide_gridfile>  (86) 
pfpi4k_grid

>  <i_i_glide_lignum>  (86) 
33

>  <i_i_glide_rotatable_bonds>  (86) 
2

>  <r_i_docking_score>  (86) 
-1.96654

>  <r_i_glide_ligand_efficiency>  (86) 
-0.0595922

>  <r_i_glide_ligand_efficiency_sa>  (86) 
-0.191144

>  <r_i_glide_ligand_efficiency_ln>  (86) 
-0.437349

>  <r_i_glide_gscore>  (86) 
-1.96654

>  <r_i_glide_lipo>  (86) 
-0.678745

>  <r_i_glide_hbond>  (86) 
0

>  <r_i_glide_metal>  (86) 
-0

>  <r_i_glide_rewards>  (86) 
-0.261937

>  <r_i_glide_evdw>  (86) 
-25.2929

>  <r_i_glide_ecoul>  (86) 
0.986848

>  <r_i_glide_erotb>  (86) 
0.0907557

>  <r_i_glide_esite>  (86) 
0

>  <r_i_glide_emodel>  (86) 
-26.6106

>  <r_i_glide_energy>  (86) 
-24.306

>  <r_i_glide_einternal>  (86) 
0.430526

>  <r_i_glide_intrahb_reward>  (86) 
-0

>  <i_i_glide_confnum>  (86) 
1

>  <i_i_glide_posenum>  (86) 
11

>  <r_i_glide_eff_state_penalty>  (86) 
0

>  <ligand_id>  (86) 
19

>  <original_smiles>  (86) 
COC(=O)C1C2CCC(O2)C(C)C2c3c4cc5cc(c(Cl)nc5c3C)C1OCC(CO4)C2C

>  <smiles>  (86) 
[H]c1c2c3c(C([H])([H])[H])c4nc(Cl)c(c([H])c14)C1([H])OC([H])([H])C([H])(C([H])([H])O2)C([H])(C([H])([H])[H])C3([H])C([H])(C([H])([H])[H])C2([H])OC([H])(C([H])([H])C2([H])[H])C1([H])C(=O)OC([H])([H])[H]

$$$$
19:0:1
     RDKit          3D

 63 68  0  0  1  0  0  0  0  0999 V2000
    0.5021   -0.6572    5.1359 C   0  0  0  0  0  0  0  0  0  0  0  0
    0.5443   -2.0456    4.8367 O   0  0  0  0  0  0  0  0  0  0  0  0
    0.0712   -2.9368    5.7260 C   0  0  0  0  0  0  0  0  0  0  0  0
   -0.4721   -2.6416    6.7943 O   0  0  0  0  0  0  0  0  0  0  0  0
    0.2057   -4.4005    5.2504 C   0  0  2  0  0  0  0  0  0  0  0  0
   -0.3665   -5.4814    6.2532 C   0  0  2  0  0  0  0  0  0  0  0  0
    0.0722   -5.4852    7.7335 C   0  0  0  0  0  0  0  0  0  0  0  0
    0.5350   -6.9123    7.9968 C   0  0  0  0  0  0  0  0  0  0  0  0
    0.8799   -7.3799    6.5887 C   0  0  2  0  0  0  0  0  0  0  0  0
   -0.1848   -6.8307    5.8292 O   0  0  0  0  0  0  0  0  0  0  0  0
    1.1401   -8.8954    6.3483 C   0  0  1  0  0  0  0  0  0  0  0  0
   -0.0934   -9.7624    6.6789 C   0  0  0  0  0  0  0  0  0  0  0  0
    1.8561   -9.2446    4.9753 C   0  0  2  0  0  0  0  0  0  0  0  0
    3.2514   -8.5423    4.8023 C   0  0  0  0  0  0  0  0  0  0  0  0
    3.5962   -8.1829    3.4813 C   0  0  0  0  0  0  0  0  0  0  0  0
    4.3294   -7.0276    3.1446 C   0  0  0  0  0  0  0  0  0  0  0  0
    4.2541   -6.0886    4.1895 C   0  0  0  0  0  0  0  0  0  0  0  0
    3.8651   -4.7741    3.8552 C   0  0  0  0  0  0  0  0  0  0  0  0
    2.9099   -4.3337    4.8059 C   0  0  0  0  0  0  0  0  0  0  0  0
    3.3482   -4.4905    6.1423 C   0  0  0  0  0  0  0  0  0  0  0  0
    2.9690   -3.3022    7.3342 Cl  0  0  0  0  0  0  0  0  0  0  0  0
    4.1191   -5.5398    6.5023 N   0  0  0  0  0  0  0  0  0  0  0  0
    4.2767   -6.4919    5.5537 C   0  0  0  0  0  0  0  0  0  0  0  0
    3.9911   -7.8551    5.8043 C   0  0  0  0  0  0  0  0  0  0  0  0
    4.1650   -8.4047    7.2093 C   0  0  0  0  0  0  0  0  0  0  0  0
    1.4693   -4.7084    4.3555 C   0  0  1  0  0  0  0  0  0  0  0  0
    1.4892   -6.0921    3.9702 O   0  0  0  0  0  0  0  0  0  0  0  0
    0.5857   -6.6036    3.0034 C   0  0  0  0  0  0  0  0  0  0  0  0
    0.8775   -8.0977    2.6494 C   0  0  1  0  0  0  0  0  0  0  0  0
    2.0860   -8.3338    1.7253 C   0  0  0  0  0  0  0  0  0  0  0  0
    3.1400   -8.9447    2.4455 O   0  0  0  0  0  0  0  0  0  0  0  0
    0.7759   -9.1491    3.8052 C   0  0  1  0  0  0  0  0  0  0  0  0
    0.5099  -10.5634    3.2426 C   0  0  0  0  0  0  0  0  0  0  0  0
    0.9342   -0.0868    4.3127 H   0  0  0  0  0  0  0  0  0  0  0  0
    1.0746   -0.4310    6.0375 H   0  0  0  0  0  0  0  0  0  0  0  0
   -0.5231   -0.3133    5.2827 H   0  0  0  0  0  0  0  0  0  0  0  0
   -0.5710   -4.4248    4.4902 H   0  0  0  0  0  0  0  0  0  0  0  0
   -1.4480   -5.3438    6.2569 H   0  0  0  0  0  0  0  0  0  0  0  0
    0.8725   -4.7783    7.9232 H   0  0  0  0  0  0  0  0  0  0  0  0
   -0.7496   -5.2176    8.3989 H   0  0  0  0  0  0  0  0  0  0  0  0
    1.3897   -6.9498    8.6704 H   0  0  0  0  0  0  0  0  0  0  0  0
   -0.2725   -7.5075    8.4223 H   0  0  0  0  0  0  0  0  0  0  0  0
    1.7597   -6.8209    6.3096 H   0  0  0  0  0  0  0  0  0  0  0  0
    1.8211   -9.2152    7.1231 H   0  0  0  0  0  0  0  0  0  0  0  0
   -0.9871   -9.4481    6.1458 H   0  0  0  0  0  0  0  0  0  0  0  0
   -0.3288   -9.7177    7.7410 H   0  0  0  0  0  0  0  0  0  0  0  0
    0.0834  -10.8081    6.4379 H   0  0  0  0  0  0  0  0  0  0  0  0
    2.1395  -10.2962    5.0605 H   0  0  0  0  0  0  0  0  0  0  0  0
    4.4657   -6.7491    2.1114 H   0  0  0  0  0  0  0  0  0  0  0  0
    3.6866   -4.6044    2.8032 H   0  0  0  0  0  0  0  0  0  0  0  0
    5.1846   -8.2136    7.5502 H   0  0  0  0  0  0  0  0  0  0  0  0
    4.0075   -9.4848    7.2273 H   0  0  0  0  0  0  0  0  0  0  0  0
    3.4823   -7.9199    7.9063 H   0  0  0  0  0  0  0  0  0  0  0  0
    1.3379   -4.1411    3.4317 H   0  0  0  0  0  0  0  0  0  0  0  0
   -0.4343   -6.5134    3.3754 H   0  0  0  0  0  0  0  0  0  0  0  0
    0.6426   -5.9996    2.0973 H   0  0  0  0  0  0  0  0  0  0  0  0
    0.0308   -8.3244    2.0026 H   0  0  0  0  0  0  0  0  0  0  0  0
    1.8189   -9.0353    0.9339 H   0  0  0  0  0  0  0  0  0  0  0  0
    2.3980   -7.4133    1.2267 H   0  0  0  0  0  0  0  0  0  0  0  0
   -0.1764   -8.8862    4.2527 H   0  0  0  0  0  0  0  0  0  0  0  0
    1.3892  -10.9680    2.7420 H   0  0  0  0  0  0  0  0  0  0  0  0
   -0.3111  -10.5707    2.5279 H   0  0  0  0  0  0  0  0  0  0  0  0
    0.2401  -11.2600    4.0377 H   0  0  0  0  0  0  0  0  0  0  0  0
  1  2  1  0
  1 34  1  0
  1 35  1  0
  1 36  1  0
  2  3  1  0
  3  4  2  0
  3  5  1  0
  5 26  1  0
  5  6  1  0
  5 37  1  6
  6 10  1  0
  6  7  1  0
  6 38  1  1
  7  8  1  0
  7 39  1  0
  7 40  1  0
  8  9  1  0
  8 41  1  0
  8 42  1  0
  9 10  1  0
  9 11  1  0
  9 43  1  6
 11 12  1  0
 11 13  1  0
 11 44  1  1
 12 45  1  0
 12 46  1  0
 12 47  1  0
 13 32  1  0
 13 14  1  0
 13 48  1  1
 14 24  1  0
 14 15  2  0
 15 31  1  0
 15 16  1  0
 16 17  2  0
 16 49  1  0
 17 23  1  0
 17 18  1  0
 18 19  2  0
 18 50  1  0
 19 20  1  0
 19 26  1  0
 20 21  1  0
 20 22  2  0
 22 23  1  0
 23 24  2  0
 24 25  1  0
 25 51  1  0
 25 52  1  0
 25 53  1  0
 26 27  1  0
 26 54  1  6
 27 28  1  0
 28 29  1  0
 28 55  1  0
 28 56  1  0
 29 30  1  0
 29 32  1  0
 29 57  1  6
 30 31  1  0
 30 58  1  0
 30 59  1  0
 32 33  1  0
 32 60  1  1
 33 61  1  0
 33 62  1  0
 33 63  1  0
M  END
>  <i_m_ct_stereo_status>  (87) 
1

>  <s_m_source_file>  (87) 
/var/tmp/pbs.5076255.sched01/tmpzk3r62u5/0tgg_cfwk.sdf

>  <i_m_source_file_index>  (87) 
33

>  <i_lp_mmshare_version>  (87) 
48012

>  <i_f3d_flags>  (87) 
0

>  <s_epik_input>  (87) 
W0NIM11PQyg9TylbQ0BIXShbQ0BIXTEyKVtDQEhdM2M0W2NIXWM1YyhuYzRDbCljKFtDSDNdKWM2YyhbY0hdNSlPW0NIMl1bQ0BIXShbQ0gyXU8zKVtDQEBIXShbQ0gzXSlbQ0hdNltDQEhdKFtDSDNdKVtDQEBIXShPMilbQ0gyXVtDSDJdMQ==

>  <s_epik_cmdline>  (87) 
J2VwaWtfcHl0aG9uJywgJy1waHQnLCAnMi4wJywgJy1waCcsICc3LjAnLCAnLXRuJywgJzgnLCAnLW1hJywgJzIwMCcsICctaW1hZScsICc8aW5maWxlLm1hZT4nLCAnLW9tYWUnLCAnPG91dGZpbGUubWFlPic=

>  <r_lp_tautomer_probability>  (87) 
1

>  <r_epik_Ionization_Penalty>  (87) 
1.42156e-06

>  <r_epik_Ionization_Penalty_Charging>  (87) 
0

>  <r_epik_Ionization_Penalty_Neutral>  (87) 
1.42156e-06

>  <r_epik_State_Penalty>  (87) 
-0

>  <r_epik_Charging_Adjusted_Penalty>  (87) 
0

>  <i_epik_Tot_Q>  (87) 
0

>  <i_epik_Tot_abs_Q>  (87) 
0

>  <s_epik_Chemistry_Notes>  (87) 
This compound has an ester and may undergo hydrolysis at high or low pH.

>  <s_lp_Force_Field>  (87) 
OPLS3e

>  <r_lp_Energy>  (87) 
167.59

>  <b_lp_Chiralities_Consistent>  (87) 
1

>  <s_lp_Variant>  (87) 
19:0-1

>  <s_i_glide_gridfile>  (87) 
pfpi4k_grid

>  <i_i_glide_lignum>  (87) 
33

>  <i_i_glide_rotatable_bonds>  (87) 
2

>  <r_i_docking_score>  (87) 
-1.49566

>  <r_i_glide_ligand_efficiency>  (87) 
-0.0453231

>  <r_i_glide_ligand_efficiency_sa>  (87) 
-0.145375

>  <r_i_glide_ligand_efficiency_ln>  (87) 
-0.332628

>  <r_i_glide_gscore>  (87) 
-1.49566

>  <r_i_glide_lipo>  (87) 
-0.0590567

>  <r_i_glide_hbond>  (87) 
0

>  <r_i_glide_metal>  (87) 
-0

>  <r_i_glide_rewards>  (87) 
-0.191095

>  <r_i_glide_evdw>  (87) 
-20.98

>  <r_i_glide_ecoul>  (87) 
-1.83781

>  <r_i_glide_erotb>  (87) 
0.0907557

>  <r_i_glide_esite>  (87) 
-0.0115933

>  <r_i_glide_emodel>  (87) 
-24.7033

>  <r_i_glide_energy>  (87) 
-22.8179

>  <r_i_glide_einternal>  (87) 
0.188728

>  <r_i_glide_intrahb_reward>  (87) 
-0

>  <i_i_glide_confnum>  (87) 
2

>  <i_i_glide_posenum>  (87) 
2

>  <r_i_glide_eff_state_penalty>  (87) 
0

>  <ligand_id>  (87) 
19

>  <original_smiles>  (87) 
COC(=O)C1C2CCC(O2)C(C)C2c3c4cc5cc(c(Cl)nc5c3C)C1OCC(CO4)C2C

>  <smiles>  (87) 
[H]c1c2c3c(C([H])([H])[H])c4nc(Cl)c(c([H])c14)C1([H])OC([H])([H])C([H])(C([H])([H])O2)C([H])(C([H])([H])[H])C3([H])C([H])(C([H])([H])[H])C2([H])OC([H])(C([H])([H])C2([H])[H])C1([H])C(=O)OC([H])([H])[H]

$$$$
19:0:2
     RDKit          3D

 63 68  0  0  1  0  0  0  0  0999 V2000
   -0.1947   -0.6988    5.5024 C   0  0  0  0  0  0  0  0  0  0  0  0
    0.2295   -1.9641    5.0153 O   0  0  0  0  0  0  0  0  0  0  0  0
   -0.1262   -3.0830    5.6702 C   0  0  0  0  0  0  0  0  0  0  0  0
   -0.8565   -3.1062    6.6650 O   0  0  0  0  0  0  0  0  0  0  0  0
    0.4127   -4.3721    5.0052 C   0  0  2  0  0  0  0  0  0  0  0  0
   -0.0820   -5.7246    5.6653 C   0  0  2  0  0  0  0  0  0  0  0  0
    0.0606   -5.9471    7.1862 C   0  0  0  0  0  0  0  0  0  0  0  0
    0.7691   -7.2899    7.3148 C   0  0  0  0  0  0  0  0  0  0  0  0
    1.4660   -7.3902    5.9634 C   0  0  2  0  0  0  0  0  0  0  0  0
    0.4647   -6.9077    5.0849 O   0  0  0  0  0  0  0  0  0  0  0  0
    2.1030   -8.7494    5.5504 C   0  0  1  0  0  0  0  0  0  0  0  0
    1.0569   -9.8839    5.4437 C   0  0  0  0  0  0  0  0  0  0  0  0
    3.1293   -8.6693    4.3407 C   0  0  2  0  0  0  0  0  0  0  0  0
    4.3401   -7.7028    4.6076 C   0  0  0  0  0  0  0  0  0  0  0  0
    4.8430   -7.0241    3.4765 C   0  0  0  0  0  0  0  0  0  0  0  0
    5.3504   -5.7097    3.5068 C   0  0  0  0  0  0  0  0  0  0  0  0
    4.8676   -5.0342    4.6427 C   0  0  0  0  0  0  0  0  0  0  0  0
    4.2653   -3.7741    4.4444 C   0  0  0  0  0  0  0  0  0  0  0  0
    3.0725   -3.7203    5.2092 C   0  0  0  0  0  0  0  0  0  0  0  0
    3.2717   -4.0651    6.5671 C   0  0  0  0  0  0  0  0  0  0  0  0
    2.4190   -3.2347    7.8161 Cl  0  0  0  0  0  0  0  0  0  0  0  0
    4.1740   -5.0054    6.9207 N   0  0  0  0  0  0  0  0  0  0  0  0
    4.7192   -5.6977    5.8933 C   0  0  0  0  0  0  0  0  0  0  0  0
    4.7030   -7.1114    5.8496 C   0  0  0  0  0  0  0  0  0  0  0  0
    4.7232   -7.8950    7.1499 C   0  0  0  0  0  0  0  0  0  0  0  0
    1.8628   -4.2527    4.3871 C   0  0  1  0  0  0  0  0  0  0  0  0
    2.2649   -5.5014    3.8020 O   0  0  0  0  0  0  0  0  0  0  0  0
    1.7016   -5.9585    2.5822 C   0  0  0  0  0  0  0  0  0  0  0  0
    2.3812   -7.2698    2.0705 C   0  0  1  0  0  0  0  0  0  0  0  0
    3.7652   -7.0854    1.4226 C   0  0  0  0  0  0  0  0  0  0  0  0
    4.7734   -7.6280    2.2549 O   0  0  0  0  0  0  0  0  0  0  0  0
    2.2993   -8.5369    2.9853 C   0  0  1  0  0  0  0  0  0  0  0  0
    2.4667   -9.8312    2.1552 C   0  0  0  0  0  0  0  0  0  0  0  0
    0.1870    0.0944    4.8588 H   0  0  0  0  0  0  0  0  0  0  0  0
    0.1797   -0.5224    6.5124 H   0  0  0  0  0  0  0  0  0  0  0  0
   -1.2835   -0.6242    5.5201 H   0  0  0  0  0  0  0  0  0  0  0  0
   -0.1808   -4.3817    4.0930 H   0  0  0  0  0  0  0  0  0  0  0  0
   -1.1457   -5.8028    5.4439 H   0  0  0  0  0  0  0  0  0  0  0  0
    0.6349   -5.1606    7.6631 H   0  0  0  0  0  0  0  0  0  0  0  0
   -0.9106   -5.9702    7.6814 H   0  0  0  0  0  0  0  0  0  0  0  0
    1.4660   -7.3080    8.1509 H   0  0  0  0  0  0  0  0  0  0  0  0
    0.0470   -8.0963    7.4431 H   0  0  0  0  0  0  0  0  0  0  0  0
    2.2368   -6.6342    5.9870 H   0  0  0  0  0  0  0  0  0  0  0  0
    2.6776   -9.0865    6.4011 H   0  0  0  0  0  0  0  0  0  0  0  0
    0.2271   -9.6427    4.7797 H   0  0  0  0  0  0  0  0  0  0  0  0
    0.6168  -10.1000    6.4177 H   0  0  0  0  0  0  0  0  0  0  0  0
    1.5125  -10.8126    5.1012 H   0  0  0  0  0  0  0  0  0  0  0  0
    3.6208   -9.6441    4.3175 H   0  0  0  0  0  0  0  0  0  0  0  0
    5.6137   -5.2047    2.5905 H   0  0  0  0  0  0  0  0  0  0  0  0
    4.2565   -3.4280    3.4204 H   0  0  0  0  0  0  0  0  0  0  0  0
    5.5899   -7.5936    7.7417 H   0  0  0  0  0  0  0  0  0  0  0  0
    4.8106   -8.9657    6.9586 H   0  0  0  0  0  0  0  0  0  0  0  0
    3.8293   -7.6967    7.7405 H   0  0  0  0  0  0  0  0  0  0  0  0
    1.7892   -3.5429    3.5610 H   0  0  0  0  0  0  0  0  0  0  0  0
    0.6352   -6.1335    2.7179 H   0  0  0  0  0  0  0  0  0  0  0  0
    1.7968   -5.1821    1.8221 H   0  0  0  0  0  0  0  0  0  0  0  0
    1.7440   -7.5120    1.2208 H   0  0  0  0  0  0  0  0  0  0  0  0
    3.8138   -7.6501    0.4902 H   0  0  0  0  0  0  0  0  0  0  0  0
    3.9549   -6.0430    1.1562 H   0  0  0  0  0  0  0  0  0  0  0  0
    1.2451   -8.5481    3.2404 H   0  0  0  0  0  0  0  0  0  0  0  0
    3.4919   -9.9578    1.8071 H   0  0  0  0  0  0  0  0  0  0  0  0
    1.8165   -9.8474    1.2821 H   0  0  0  0  0  0  0  0  0  0  0  0
    2.2183  -10.7141    2.7447 H   0  0  0  0  0  0  0  0  0  0  0  0
  1  2  1  0
  1 34  1  0
  1 35  1  0
  1 36  1  0
  2  3  1  0
  3  4  2  0
  3  5  1  0
  5 26  1  0
  5  6  1  0
  5 37  1  6
  6 10  1  0
  6  7  1  0
  6 38  1  1
  7  8  1  0
  7 39  1  0
  7 40  1  0
  8  9  1  0
  8 41  1  0
  8 42  1  0
  9 10  1  0
  9 11  1  0
  9 43  1  1
 11 12  1  0
 11 13  1  0
 11 44  1  1
 12 45  1  0
 12 46  1  0
 12 47  1  0
 13 32  1  0
 13 14  1  0
 13 48  1  6
 14 24  1  0
 14 15  2  0
 15 31  1  0
 15 16  1  0
 16 17  2  0
 16 49  1  0
 17 23  1  0
 17 18  1  0
 18 19  2  0
 18 50  1  0
 19 20  1  0
 19 26  1  0
 20 21  1  0
 20 22  2  0
 22 23  1  0
 23 24  2  0
 24 25  1  0
 25 51  1  0
 25 52  1  0
 25 53  1  0
 26 27  1  0
 26 54  1  6
 27 28  1  0
 28 29  1  0
 28 55  1  0
 28 56  1  0
 29 30  1  0
 29 32  1  0
 29 57  1  6
 30 31  1  0
 30 58  1  0
 30 59  1  0
 32 33  1  0
 32 60  1  1
 33 61  1  0
 33 62  1  0
 33 63  1  0
M  END
>  <i_m_ct_stereo_status>  (88) 
1

>  <s_m_source_file>  (88) 
/var/tmp/pbs.5076255.sched01/tmpzk3r62u5/0tgg_cfwk.sdf

>  <i_m_source_file_index>  (88) 
33

>  <i_lp_mmshare_version>  (88) 
48012

>  <i_f3d_flags>  (88) 
0

>  <s_epik_input>  (88) 
W0NIM11PQyg9TylbQ0BIXShbQ0BIXTEyKVtDQEhdM2M0W2NIXWM1YyhuYzRDbCljKFtDSDNdKWM2YyhbY0hdNSlPW0NIMl1bQ0BIXShbQ0gyXU8zKVtDQEBIXShbQ0gzXSlbQ0hdNltDQEhdKFtDSDNdKVtDQEBIXShPMilbQ0gyXVtDSDJdMQ==

>  <s_epik_cmdline>  (88) 
J2VwaWtfcHl0aG9uJywgJy1waHQnLCAnMi4wJywgJy1waCcsICc3LjAnLCAnLXRuJywgJzgnLCAnLW1hJywgJzIwMCcsICctaW1hZScsICc8aW5maWxlLm1hZT4nLCAnLW9tYWUnLCAnPG91dGZpbGUubWFlPic=

>  <r_lp_tautomer_probability>  (88) 
1

>  <r_epik_Ionization_Penalty>  (88) 
1.42156e-06

>  <r_epik_Ionization_Penalty_Charging>  (88) 
0

>  <r_epik_Ionization_Penalty_Neutral>  (88) 
1.42156e-06

>  <r_epik_State_Penalty>  (88) 
-0

>  <r_epik_Charging_Adjusted_Penalty>  (88) 
0

>  <i_epik_Tot_Q>  (88) 
0

>  <i_epik_Tot_abs_Q>  (88) 
0

>  <s_epik_Chemistry_Notes>  (88) 
This compound has an ester and may undergo hydrolysis at high or low pH.

>  <s_lp_Force_Field>  (88) 
OPLS3e

>  <r_lp_Energy>  (88) 
167.59

>  <b_lp_Chiralities_Consistent>  (88) 
1

>  <s_lp_Variant>  (88) 
19:0-1

>  <s_i_glide_gridfile>  (88) 
pfpi4k_grid

>  <i_i_glide_lignum>  (88) 
33

>  <i_i_glide_rotatable_bonds>  (88) 
2

>  <r_i_docking_score>  (88) 
-1.42585

>  <r_i_glide_ligand_efficiency>  (88) 
-0.0432075

>  <r_i_glide_ligand_efficiency_sa>  (88) 
-0.138589

>  <r_i_glide_ligand_efficiency_ln>  (88) 
-0.317101

>  <r_i_glide_gscore>  (88) 
-1.42585

>  <r_i_glide_lipo>  (88) 
-0.0796653

>  <r_i_glide_hbond>  (88) 
0

>  <r_i_glide_metal>  (88) 
-0

>  <r_i_glide_rewards>  (88) 
-0.191095

>  <r_i_glide_evdw>  (88) 
-18.5734

>  <r_i_glide_ecoul>  (88) 
-2.03573

>  <r_i_glide_erotb>  (88) 
0.0907557

>  <r_i_glide_esite>  (88) 
-0.0118124

>  <r_i_glide_emodel>  (88) 
-22.4077

>  <r_i_glide_energy>  (88) 
-20.6091

>  <r_i_glide_einternal>  (88) 
0.144731

>  <r_i_glide_intrahb_reward>  (88) 
-0

>  <i_i_glide_confnum>  (88) 
2

>  <i_i_glide_posenum>  (88) 
19

>  <r_i_glide_eff_state_penalty>  (88) 
0

>  <ligand_id>  (88) 
19

>  <original_smiles>  (88) 
COC(=O)C1C2CCC(O2)C(C)C2c3c4cc5cc(c(Cl)nc5c3C)C1OCC(CO4)C2C

>  <smiles>  (88) 
[H]c1c2c3c(C([H])([H])[H])c4nc(Cl)c(c([H])c14)C1([H])OC([H])([H])C([H])(C([H])([H])O2)C([H])(C([H])([H])[H])C3([H])C([H])(C([H])([H])[H])C2([H])OC([H])(C([H])([H])C2([H])[H])C1([H])C(=O)OC([H])([H])[H]

$$$$
20:0:0
     RDKit          3D

 68 71  0  0  1  0  0  0  0  0999 V2000
   -0.8865   -5.5207    7.8907 C   0  0  0  0  0  0  0  0  0  0  0  0
   -1.3710   -5.1637    6.4788 C   0  0  0  0  0  0  0  0  0  0  0  0
   -0.2512   -5.2682    5.4190 C   0  0  0  0  0  0  0  0  0  0  0  0
    0.1387   -6.6962    5.0442 C   0  0  0  0  0  0  0  0  0  0  0  0
   -0.5827   -7.6516    5.2971 O   0  0  0  0  0  0  0  0  0  0  0  0
    1.3251   -6.8082    4.4124 O   0  0  0  0  0  0  0  0  0  0  0  0
    2.0141   -8.0567    4.1106 C   0  0  1  0  0  0  0  0  0  0  0  0
    2.1441   -8.9783    5.3831 C   0  0  0  0  0  0  0  0  0  0  0  0
    2.1109   -8.4907    6.5127 O   0  0  0  0  0  0  0  0  0  0  0  0
    2.4096  -10.5004    5.3008 C   0  0  0  0  0  0  0  0  0  0  0  0
    1.2380  -11.4187    4.2950 Cl  0  0  0  0  0  0  0  0  0  0  0  0
    1.3596   -8.7738    2.9020 C   0  0  1  0  0  0  0  0  0  0  0  0
   -0.1418   -9.1078    2.9030 C   0  0  0  0  0  0  0  0  0  0  0  0
    1.7698   -7.9255    1.6977 C   0  0  0  0  0  0  0  0  0  0  0  0
    3.0433   -7.1113    2.0650 C   0  0  1  0  0  0  0  0  0  0  0  0
    2.8596   -5.5771    1.7754 C   0  0  2  0  0  0  0  0  0  0  0  0
    2.8364   -5.3543    0.2249 C   0  0  1  0  0  0  0  0  0  0  0  0
    1.5366   -5.4958   -0.2708 O   0  0  0  0  0  0  0  0  0  0  0  0
    3.3660   -4.0218   -0.2715 C   0  0  0  0  0  0  0  0  0  0  0  0
    3.8150   -3.0287    0.5173 C   0  0  0  0  0  0  0  0  0  0  0  0
    4.2687   -1.7190   -0.1066 C   0  0  0  0  0  0  0  0  0  0  0  0
    5.4950   -1.1644    0.5942 C   0  0  0  0  0  0  0  0  0  0  0  0
    6.2212   -0.4050   -0.0054 O   0  0  0  0  0  0  0  0  0  0  0  0
    5.7772   -1.5051    1.9762 C   0  0  0  0  0  0  0  0  0  0  0  0
    5.0215   -2.3944    2.6337 C   0  0  0  0  0  0  0  0  0  0  0  0
    3.8356   -3.1621    2.0534 C   0  0  1  0  0  0  0  0  0  0  0  0
    2.5563   -2.4536    2.5327 C   0  0  0  0  0  0  0  0  0  0  0  0
    3.9321   -4.6863    2.4628 C   0  0  2  0  0  0  0  0  0  0  0  0
    5.1016   -5.1089    1.9916 F   0  0  0  0  0  0  0  0  0  0  0  0
    3.9697   -4.9861    3.9850 C   0  0  1  0  0  0  0  0  0  0  0  0
    2.8429   -4.5024    4.6807 O   0  0  0  0  0  0  0  0  0  0  0  0
    4.1951   -6.4722    4.3171 C   0  0  0  0  0  0  0  0  0  0  0  0
    3.3962   -7.5592    3.5176 C   0  0  1  0  0  0  0  0  0  0  0  0
    4.4121   -8.7374    3.4101 C   0  0  0  0  0  0  0  0  0  0  0  0
   -1.6969   -5.4326    8.6116 H   0  0  0  0  0  0  0  0  0  0  0  0
   -0.0838   -4.8532    8.2072 H   0  0  0  0  0  0  0  0  0  0  0  0
   -0.5029   -6.5401    7.9423 H   0  0  0  0  0  0  0  0  0  0  0  0
   -2.2124   -5.7953    6.1798 H   0  0  0  0  0  0  0  0  0  0  0  0
   -1.7711   -4.1473    6.4900 H   0  0  0  0  0  0  0  0  0  0  0  0
   -0.5715   -4.7748    4.5012 H   0  0  0  0  0  0  0  0  0  0  0  0
    0.6342   -4.7444    5.7936 H   0  0  0  0  0  0  0  0  0  0  0  0
    3.3958  -10.6865    4.8941 H   0  0  0  0  0  0  0  0  0  0  0  0
    2.4432  -10.8927    6.3291 H   0  0  0  0  0  0  0  0  0  0  0  0
    1.8233   -9.7509    2.8447 H   0  0  0  0  0  0  0  0  0  0  0  0
   -0.7662   -8.2199    2.7937 H   0  0  0  0  0  0  0  0  0  0  0  0
   -0.3778   -9.6537    3.8107 H   0  0  0  0  0  0  0  0  0  0  0  0
   -0.3965   -9.7593    2.0675 H   0  0  0  0  0  0  0  0  0  0  0  0
    1.9682   -8.5939    0.8729 H   0  0  0  0  0  0  0  0  0  0  0  0
    0.9554   -7.2572    1.4021 H   0  0  0  0  0  0  0  0  0  0  0  0
    3.8633   -7.4444    1.4248 H   0  0  0  0  0  0  0  0  0  0  0  0
    1.8989   -5.2842    2.1965 H   0  0  0  0  0  0  0  0  0  0  0  0
    3.4249   -6.1261   -0.2860 H   0  0  0  0  0  0  0  0  0  0  0  0
    1.6118   -5.3779   -1.1949 H   0  0  0  0  0  0  0  0  0  0  0  0
    3.3234   -3.8944   -1.3491 H   0  0  0  0  0  0  0  0  0  0  0  0
    4.5041   -1.8907   -1.1581 H   0  0  0  0  0  0  0  0  0  0  0  0
    3.4556   -0.9918   -0.0802 H   0  0  0  0  0  0  0  0  0  0  0  0
    6.5951   -0.9758    2.4477 H   0  0  0  0  0  0  0  0  0  0  0  0
    5.2610   -2.5704    3.6727 H   0  0  0  0  0  0  0  0  0  0  0  0
    2.4682   -1.4687    2.0647 H   0  0  0  0  0  0  0  0  0  0  0  0
    2.5637   -2.2746    3.6054 H   0  0  0  0  0  0  0  0  0  0  0  0
    1.6607   -3.0164    2.2627 H   0  0  0  0  0  0  0  0  0  0  0  0
    4.8058   -4.4510    4.4245 H   0  0  0  0  0  0  0  0  0  0  0  0
    2.7855   -3.5696    4.5571 H   0  0  0  0  0  0  0  0  0  0  0  0
    5.2690   -6.6253    4.1275 H   0  0  0  0  0  0  0  0  0  0  0  0
    4.0902   -6.6322    5.3854 H   0  0  0  0  0  0  0  0  0  0  0  0
    5.3102   -8.4298    2.8732 H   0  0  0  0  0  0  0  0  0  0  0  0
    4.0232   -9.5937    2.8657 H   0  0  0  0  0  0  0  0  0  0  0  0
    4.7582   -9.0649    4.3905 H   0  0  0  0  0  0  0  0  0  0  0  0
  1  2  1  0
  1 35  1  0
  1 36  1  0
  1 37  1  0
  2  3  1  0
  2 38  1  0
  2 39  1  0
  3  4  1  0
  3 40  1  0
  3 41  1  0
  4  5  2  0
  4  6  1  0
  7  6  1  1
  7 33  1  0
  7  8  1  0
  7 12  1  0
  8  9  2  0
  8 10  1  0
 10 11  1  0
 10 42  1  0
 10 43  1  0
 12 13  1  0
 12 14  1  0
 12 44  1  6
 13 45  1  0
 13 46  1  0
 13 47  1  0
 14 15  1  0
 14 48  1  0
 14 49  1  0
 15 33  1  0
 15 16  1  0
 15 50  1  6
 16 28  1  0
 16 17  1  0
 16 51  1  1
 17 18  1  0
 17 19  1  0
 17 52  1  6
 18 53  1  0
 19 20  2  0
 19 54  1  0
 20 26  1  0
 20 21  1  0
 21 22  1  0
 21 55  1  0
 21 56  1  0
 22 23  2  0
 22 24  1  0
 24 25  2  0
 24 57  1  0
 25 26  1  0
 25 58  1  0
 26 27  1  1
 26 28  1  0
 27 59  1  0
 27 60  1  0
 27 61  1  0
 28 29  1  6
 28 30  1  0
 30 31  1  0
 30 32  1  0
 30 62  1  1
 31 63  1  0
 32 33  1  0
 32 64  1  0
 32 65  1  0
 33 34  1  6
 34 66  1  0
 34 67  1  0
 34 68  1  0
M  END
>  <i_m_ct_stereo_status>  (89) 
1

>  <s_m_source_file>  (89) 
/var/tmp/pbs.5076255.sched01/tmpzk3r62u5/0tgg_cfwk.sdf

>  <i_m_source_file_index>  (89) 
34

>  <i_lp_mmshare_version>  (89) 
48012

>  <i_f3d_flags>  (89) 
0

>  <s_epik_input>  (89) 
W0NIM11bQ0gyXVtDSDJdQyg9TylPW0NAQF0oQyg9TylbQ0gyXUNsKShbQ0BASF0oW0NIM10pW0NIMl0xKVtDQF0oW0NIM10pKFtDSDJdW0NAQEhdKFtDQEBdMjNGKVtPSF0pW0NAQEhdMVtDQEBIXTJbQ0BASF0oW09IXSlbQ0hdPUMoW0NAQF0zNFtDSDNdKVtDSDJdQyg9TylbQ0hdPVtDSF00

>  <s_epik_cmdline>  (89) 
J2VwaWtfcHl0aG9uJywgJy1waHQnLCAnMi4wJywgJy1waCcsICc3LjAnLCAnLXRuJywgJzgnLCAnLW1hJywgJzIwMCcsICctaW1hZScsICc8aW5maWxlLm1hZT4nLCAnLW9tYWUnLCAnPG91dGZpbGUubWFlPic=

>  <r_lp_tautomer_probability>  (89) 
1

>  <r_epik_Ionization_Penalty>  (89) 
2.24088e-06

>  <r_epik_Ionization_Penalty_Charging>  (89) 
0

>  <r_epik_Ionization_Penalty_Neutral>  (89) 
2.24088e-06

>  <r_epik_State_Penalty>  (89) 
-0

>  <r_epik_Charging_Adjusted_Penalty>  (89) 
0

>  <i_epik_Tot_Q>  (89) 
0

>  <i_epik_Tot_abs_Q>  (89) 
0

>  <s_epik_Chemistry_Notes>  (89) 
This compound has an ester and may undergo hydrolysis at high or low pH.

>  <s_lp_Force_Field>  (89) 
OPLS3e

>  <r_lp_Energy>  (89) 
59.5805

>  <b_lp_Chiralities_Consistent>  (89) 
1

>  <s_lp_Variant>  (89) 
20:0-1

>  <s_i_glide_gridfile>  (89) 
pfpi4k_grid

>  <i_i_glide_lignum>  (89) 
34

>  <i_i_glide_rotatable_bonds>  (89) 
8

>  <r_i_docking_score>  (89) 
-2.99197

>  <r_i_glide_ligand_efficiency>  (89) 
-0.0879991

>  <r_i_glide_ligand_efficiency_sa>  (89) 
-0.285083

>  <r_i_glide_ligand_efficiency_ln>  (89) 
-0.66101

>  <r_i_glide_gscore>  (89) 
-2.99197

>  <r_i_glide_lipo>  (89) 
-0.469436

>  <r_i_glide_hbond>  (89) 
-0.40965

>  <r_i_glide_metal>  (89) 
-0

>  <r_i_glide_rewards>  (89) 
-0.192383

>  <r_i_glide_evdw>  (89) 
-23.8014

>  <r_i_glide_ecoul>  (89) 
-6.82129

>  <r_i_glide_erotb>  (89) 
0.330295

>  <r_i_glide_esite>  (89) 
-0.0375306

>  <r_i_glide_emodel>  (89) 
-33.8848

>  <r_i_glide_energy>  (89) 
-30.6227

>  <r_i_glide_einternal>  (89) 
3.01393

>  <r_i_glide_intrahb_reward>  (89) 
-0

>  <i_i_glide_confnum>  (89) 
3

>  <i_i_glide_posenum>  (89) 
9

>  <r_i_glide_eff_state_penalty>  (89) 
0

>  <ligand_id>  (89) 
20

>  <original_smiles>  (89) 
CCCC(=O)OC1(C(=O)CCl)C(C)CC2C3C(O)C=C4CC(=O)C=CC4(C)C3(F)C(O)CC21C

>  <smiles>  (89) 
[H]OC1([H])C([H])=C2C([H])([H])C(=O)C([H])=C([H])C2(C([H])([H])[H])C2(F)C([H])(O[H])C([H])([H])C3(C([H])([H])[H])C(OC(=O)C([H])([H])C([H])([H])C([H])([H])[H])(C(=O)C([H])([H])Cl)C([H])(C([H])([H])[H])C([H])([H])C3([H])C12[H]

$$$$
20:0:1
     RDKit          3D

 68 71  0  0  1  0  0  0  0  0999 V2000
   -1.8441   -4.2930    8.5469 C   0  0  0  0  0  0  0  0  0  0  0  0
   -1.7117   -4.3035    7.0020 C   0  0  0  0  0  0  0  0  0  0  0  0
   -0.2847   -4.5107    6.4387 C   0  0  0  0  0  0  0  0  0  0  0  0
    0.2698   -5.9237    6.6730 C   0  0  0  0  0  0  0  0  0  0  0  0
   -0.1790   -6.6394    7.5571 O   0  0  0  0  0  0  0  0  0  0  0  0
    1.3030   -6.2472    5.8419 O   0  0  0  0  0  0  0  0  0  0  0  0
    2.0688   -7.4762    5.8256 C   0  0  1  0  0  0  0  0  0  0  0  0
    2.4610   -7.9760    7.2715 C   0  0  0  0  0  0  0  0  0  0  0  0
    2.6859   -7.1441    8.1737 O   0  0  0  0  0  0  0  0  0  0  0  0
    2.6447   -9.4891    7.5397 C   0  0  0  0  0  0  0  0  0  0  0  0
    3.1551   -9.8584    9.2177 Cl  0  0  0  0  0  0  0  0  0  0  0  0
    1.2853   -8.5185    4.9742 C   0  0  1  0  0  0  0  0  0  0  0  0
   -0.1916   -8.8029    5.3165 C   0  0  0  0  0  0  0  0  0  0  0  0
    1.4855   -8.0724    3.5212 C   0  0  0  0  0  0  0  0  0  0  0  0
    2.7460   -7.1754    3.4573 C   0  0  1  0  0  0  0  0  0  0  0  0
    2.4570   -5.7902    2.7719 C   0  0  2  0  0  0  0  0  0  0  0  0
    2.1862   -6.0069    1.2484 C   0  0  1  0  0  0  0  0  0  0  0  0
    0.8189   -6.2789    0.9916 O   0  0  0  0  0  0  0  0  0  0  0  0
    2.6227   -4.8807    0.3404 C   0  0  0  0  0  0  0  0  0  0  0  0
    3.1833   -3.7200    0.7371 C   0  0  0  0  0  0  0  0  0  0  0  0
    3.5130   -2.6352   -0.2865 C   0  0  0  0  0  0  0  0  0  0  0  0
    4.7997   -1.8760    0.0229 C   0  0  0  0  0  0  0  0  0  0  0  0
    5.4109   -1.3152   -0.8959 O   0  0  0  0  0  0  0  0  0  0  0  0
    5.2646   -1.8174    1.3992 C   0  0  0  0  0  0  0  0  0  0  0  0
    4.6291   -2.4865    2.3900 C   0  0  0  0  0  0  0  0  0  0  0  0
    3.3968   -3.3942    2.2251 C   0  0  1  0  0  0  0  0  0  0  0  0
    2.1636   -2.5678    2.6496 C   0  0  0  0  0  0  0  0  0  0  0  0
    3.5781   -4.7417    3.0360 C   0  0  2  0  0  0  0  0  0  0  0  0
    4.7068   -5.2793    2.5638 F   0  0  0  0  0  0  0  0  0  0  0  0
    3.8165   -4.5892    4.5624 C   0  0  1  0  0  0  0  0  0  0  0  0
    2.7622   -3.9462    5.2400 O   0  0  0  0  0  0  0  0  0  0  0  0
    4.1478   -5.9171    5.2703 C   0  0  0  0  0  0  0  0  0  0  0  0
    3.3220   -7.1837    4.9068 C   0  0  1  0  0  0  0  0  0  0  0  0
    4.3450   -8.3479    5.0015 C   0  0  0  0  0  0  0  0  0  0  0  0
   -2.8870   -4.1057    8.8457 H   0  0  0  0  0  0  0  0  0  0  0  0
   -1.2285   -3.5011    8.9837 H   0  0  0  0  0  0  0  0  0  0  0  0
   -1.5148   -5.2454    8.9849 H   0  0  0  0  0  0  0  0  0  0  0  0
   -2.3651   -5.0682    6.5832 H   0  0  0  0  0  0  0  0  0  0  0  0
   -2.0930   -3.3646    6.6014 H   0  0  0  0  0  0  0  0  0  0  0  0
   -0.2796   -4.3188    5.3628 H   0  0  0  0  0  0  0  0  0  0  0  0
    0.3939   -3.7728    6.8718 H   0  0  0  0  0  0  0  0  0  0  0  0
    1.7360  -10.0718    7.3361 H   0  0  0  0  0  0  0  0  0  0  0  0
    3.4313   -9.8912    6.8961 H   0  0  0  0  0  0  0  0  0  0  0  0
    1.7826   -9.4777    5.0696 H   0  0  0  0  0  0  0  0  0  0  0  0
   -0.8487   -7.9527    5.1210 H   0  0  0  0  0  0  0  0  0  0  0  0
   -0.3239   -9.1044    6.3579 H   0  0  0  0  0  0  0  0  0  0  0  0
   -0.5500   -9.6210    4.6928 H   0  0  0  0  0  0  0  0  0  0  0  0
    1.5777   -8.9422    2.8699 H   0  0  0  0  0  0  0  0  0  0  0  0
    0.6042   -7.5220    3.1980 H   0  0  0  0  0  0  0  0  0  0  0  0
    3.4911   -7.6788    2.8378 H   0  0  0  0  0  0  0  0  0  0  0  0
    1.5515   -5.3863    3.2307 H   0  0  0  0  0  0  0  0  0  0  0  0
    2.7546   -6.8706    0.9014 H   0  0  0  0  0  0  0  0  0  0  0  0
    0.6649   -7.1980    1.1421 H   0  0  0  0  0  0  0  0  0  0  0  0
    2.4932   -5.0595   -0.7180 H   0  0  0  0  0  0  0  0  0  0  0  0
    3.6155   -3.0884   -1.2703 H   0  0  0  0  0  0  0  0  0  0  0  0
    2.6977   -1.9106   -0.3645 H   0  0  0  0  0  0  0  0  0  0  0  0
    6.1148   -1.1866    1.6292 H   0  0  0  0  0  0  0  0  0  0  0  0
    4.9872   -2.3582    3.4005 H   0  0  0  0  0  0  0  0  0  0  0  0
    1.9814   -1.7586    1.9383 H   0  0  0  0  0  0  0  0  0  0  0  0
    2.2960   -2.0947    3.6216 H   0  0  0  0  0  0  0  0  0  0  0  0
    1.2657   -3.1874    2.6714 H   0  0  0  0  0  0  0  0  0  0  0  0
    4.6808   -3.9536    4.7335 H   0  0  0  0  0  0  0  0  0  0  0  0
    2.6674   -3.0640    4.8839 H   0  0  0  0  0  0  0  0  0  0  0  0
    5.1896   -6.1163    5.0067 H   0  0  0  0  0  0  0  0  0  0  0  0
    4.1637   -5.7701    6.3449 H   0  0  0  0  0  0  0  0  0  0  0  0
    5.1519   -8.1995    4.2862 H   0  0  0  0  0  0  0  0  0  0  0  0
    3.9038   -9.3160    4.7700 H   0  0  0  0  0  0  0  0  0  0  0  0
    4.8125   -8.3899    5.9874 H   0  0  0  0  0  0  0  0  0  0  0  0
  1  2  1  0
  1 35  1  0
  1 36  1  0
  1 37  1  0
  2  3  1  0
  2 38  1  0
  2 39  1  0
  3  4  1  0
  3 40  1  0
  3 41  1  0
  4  5  2  0
  4  6  1  0
  7  6  1  1
  7 33  1  0
  7  8  1  0
  7 12  1  0
  8  9  2  0
  8 10  1  0
 10 11  1  0
 10 42  1  0
 10 43  1  0
 12 13  1  0
 12 14  1  0
 12 44  1  6
 13 45  1  0
 13 46  1  0
 13 47  1  0
 14 15  1  0
 14 48  1  0
 14 49  1  0
 15 33  1  0
 15 16  1  0
 15 50  1  6
 16 28  1  0
 16 17  1  0
 16 51  1  1
 17 18  1  0
 17 19  1  0
 17 52  1  6
 18 53  1  0
 19 20  2  0
 19 54  1  0
 20 26  1  0
 20 21  1  0
 21 22  1  0
 21 55  1  0
 21 56  1  0
 22 23  2  0
 22 24  1  0
 24 25  2  0
 24 57  1  0
 25 26  1  0
 25 58  1  0
 26 27  1  1
 26 28  1  0
 27 59  1  0
 27 60  1  0
 27 61  1  0
 28 29  1  6
 28 30  1  0
 30 31  1  0
 30 32  1  0
 30 62  1  6
 31 63  1  0
 32 33  1  0
 32 64  1  0
 32 65  1  0
 33 34  1  6
 34 66  1  0
 34 67  1  0
 34 68  1  0
M  END
>  <i_m_ct_stereo_status>  (90) 
1

>  <s_m_source_file>  (90) 
/var/tmp/pbs.5076255.sched01/tmpzk3r62u5/0tgg_cfwk.sdf

>  <i_m_source_file_index>  (90) 
34

>  <i_lp_mmshare_version>  (90) 
48012

>  <i_f3d_flags>  (90) 
0

>  <s_epik_input>  (90) 
W0NIM11bQ0gyXVtDSDJdQyg9TylPW0NAQF0oQyg9TylbQ0gyXUNsKShbQ0BASF0oW0NIM10pW0NIMl0xKVtDQF0oW0NIM10pKFtDSDJdW0NAQEhdKFtDQEBdMjNGKVtPSF0pW0NAQEhdMVtDQEBIXTJbQ0BASF0oW09IXSlbQ0hdPUMoW0NAQF0zNFtDSDNdKVtDSDJdQyg9TylbQ0hdPVtDSF00

>  <s_epik_cmdline>  (90) 
J2VwaWtfcHl0aG9uJywgJy1waHQnLCAnMi4wJywgJy1waCcsICc3LjAnLCAnLXRuJywgJzgnLCAnLW1hJywgJzIwMCcsICctaW1hZScsICc8aW5maWxlLm1hZT4nLCAnLW9tYWUnLCAnPG91dGZpbGUubWFlPic=

>  <r_lp_tautomer_probability>  (90) 
1

>  <r_epik_Ionization_Penalty>  (90) 
2.24088e-06

>  <r_epik_Ionization_Penalty_Charging>  (90) 
0

>  <r_epik_Ionization_Penalty_Neutral>  (90) 
2.24088e-06

>  <r_epik_State_Penalty>  (90) 
-0

>  <r_epik_Charging_Adjusted_Penalty>  (90) 
0

>  <i_epik_Tot_Q>  (90) 
0

>  <i_epik_Tot_abs_Q>  (90) 
0

>  <s_epik_Chemistry_Notes>  (90) 
This compound has an ester and may undergo hydrolysis at high or low pH.

>  <s_lp_Force_Field>  (90) 
OPLS3e

>  <r_lp_Energy>  (90) 
59.5805

>  <b_lp_Chiralities_Consistent>  (90) 
1

>  <s_lp_Variant>  (90) 
20:0-1

>  <s_i_glide_gridfile>  (90) 
pfpi4k_grid

>  <i_i_glide_lignum>  (90) 
34

>  <i_i_glide_rotatable_bonds>  (90) 
8

>  <r_i_docking_score>  (90) 
-2.5091

>  <r_i_glide_ligand_efficiency>  (90) 
-0.073797

>  <r_i_glide_ligand_efficiency_sa>  (90) 
-0.239074

>  <r_i_glide_ligand_efficiency_ln>  (90) 
-0.55433

>  <r_i_glide_gscore>  (90) 
-2.5091

>  <r_i_glide_lipo>  (90) 
-0.174419

>  <r_i_glide_hbond>  (90) 
-0.16

>  <r_i_glide_metal>  (90) 
-0

>  <r_i_glide_rewards>  (90) 
-0.0220065

>  <r_i_glide_evdw>  (90) 
-23.3246

>  <r_i_glide_ecoul>  (90) 
-8.65063

>  <r_i_glide_erotb>  (90) 
0.330295

>  <r_i_glide_esite>  (90) 
-0.0191432

>  <r_i_glide_emodel>  (90) 
-36.0633

>  <r_i_glide_energy>  (90) 
-31.9752

>  <r_i_glide_einternal>  (90) 
1.90801

>  <r_i_glide_intrahb_reward>  (90) 
-0

>  <i_i_glide_confnum>  (90) 
3

>  <i_i_glide_posenum>  (90) 
4

>  <r_i_glide_eff_state_penalty>  (90) 
0

>  <ligand_id>  (90) 
20

>  <original_smiles>  (90) 
CCCC(=O)OC1(C(=O)CCl)C(C)CC2C3C(O)C=C4CC(=O)C=CC4(C)C3(F)C(O)CC21C

>  <smiles>  (90) 
[H]OC1([H])C([H])=C2C([H])([H])C(=O)C([H])=C([H])C2(C([H])([H])[H])C2(F)C([H])(O[H])C([H])([H])C3(C([H])([H])[H])C(OC(=O)C([H])([H])C([H])([H])C([H])([H])[H])(C(=O)C([H])([H])Cl)C([H])(C([H])([H])[H])C([H])([H])C3([H])C12[H]

$$$$
22:0:0
     RDKit          3D

 36 38  0  0  1  0  0  0  0  0999 V2000
  -10.2943  -11.1659   -7.5369 C   0  0  0  0  0  0  0  0  0  0  0  0
  -11.2331  -10.7246   -8.6195 N   0  0  0  0  0  0  0  0  0  0  0  0
  -12.6447  -10.9800   -8.2539 C   0  0  0  0  0  0  0  0  0  0  0  0
  -10.8843  -10.1706   -9.8089 C   0  0  0  0  0  0  0  0  0  0  0  0
  -11.6886   -9.8578  -10.6713 O   0  0  0  0  0  0  0  0  0  0  0  0
   -9.3857   -9.8878  -10.1482 C   0  0  2  0  0  0  0  0  0  0  0  0
   -8.4480  -11.1268  -10.0887 C   0  0  0  0  0  0  0  0  0  0  0  0
   -7.3270  -10.8073   -9.0136 C   0  0  0  0  0  0  0  0  0  0  0  0
   -7.7402   -9.4325   -8.5372 C   0  0  0  0  0  0  0  0  0  0  0  0
   -7.2660   -8.6202   -7.6318 N   0  0  0  0  0  0  0  0  0  0  0  0
   -8.1090   -7.5046   -7.7240 C   0  0  0  0  0  0  0  0  0  0  0  0
   -7.9573   -6.3303   -6.8578 C   0  0  0  0  0  0  0  0  0  0  0  0
   -8.7122   -5.1339   -6.8879 C   0  0  0  0  0  0  0  0  0  0  0  0
   -8.2689   -4.2519   -5.9873 N   0  0  0  0  0  0  0  0  0  0  0  0
   -7.2429   -4.8853   -5.3757 N   0  0  0  0  0  0  0  0  0  0  0  0
   -6.5272   -4.1989   -4.3260 C   0  0  0  0  0  0  0  0  0  0  0  0
   -7.0230   -6.1580   -5.8700 C   0  0  0  0  0  0  0  0  0  0  0  0
   -9.0497   -7.7271   -8.7288 C   0  0  0  0  0  0  0  0  0  0  0  0
   -8.7983   -8.9922   -9.1806 N   0  0  0  0  0  0  0  0  0  0  0  0
   -9.3139  -10.9512   -7.7016 H   0  0  0  0  0  0  0  0  0  0  0  0
  -10.4437  -12.2549   -7.3813 H   0  0  0  0  0  0  0  0  0  0  0  0
  -10.6040  -10.6589   -6.6068 H   0  0  0  0  0  0  0  0  0  0  0  0
  -13.3888  -10.7860   -9.0424 H   0  0  0  0  0  0  0  0  0  0  0  0
  -12.8745  -10.3584   -7.3766 H   0  0  0  0  0  0  0  0  0  0  0  0
  -12.7244  -12.0309   -7.9411 H   0  0  0  0  0  0  0  0  0  0  0  0
   -9.3001   -9.4248  -11.1354 H   0  0  0  0  0  0  0  0  0  0  0  0
   -8.9981  -12.0219   -9.8114 H   0  0  0  0  0  0  0  0  0  0  0  0
   -7.9865  -11.3428  -11.0296 H   0  0  0  0  0  0  0  0  0  0  0  0
   -7.4391  -11.4863   -8.1460 H   0  0  0  0  0  0  0  0  0  0  0  0
   -6.3625  -10.8609   -9.3614 H   0  0  0  0  0  0  0  0  0  0  0  0
   -9.5389   -4.8622   -7.5196 H   0  0  0  0  0  0  0  0  0  0  0  0
   -5.7565   -4.8614   -3.9365 H   0  0  0  0  0  0  0  0  0  0  0  0
   -7.2102   -3.9348   -3.5188 H   0  0  0  0  0  0  0  0  0  0  0  0
   -6.0519   -3.2969   -4.7144 H   0  0  0  0  0  0  0  0  0  0  0  0
   -6.2421   -6.8006   -5.5006 H   0  0  0  0  0  0  0  0  0  0  0  0
   -9.8702   -7.1163   -9.0735 H   0  0  0  0  0  0  0  0  0  0  0  0
  1  2  1  0
  1 20  1  0
  1 21  1  0
  1 22  1  0
  2  3  1  0
  2  4  1  0
  3 23  1  0
  3 24  1  0
  3 25  1  0
  4  5  2  0
  4  6  1  0
  6 19  1  0
  6  7  1  0
  6 26  1  6
  7  8  1  0
  7 27  1  0
  7 28  1  0
  8  9  1  0
  8 29  1  0
  8 30  1  0
  9 19  1  0
  9 10  2  0
 10 11  1  0
 11 12  1  0
 11 18  2  0
 12 17  2  0
 12 13  1  0
 13 14  2  0
 13 31  1  0
 14 15  1  0
 15 16  1  0
 15 17  1  0
 16 32  1  0
 16 33  1  0
 16 34  1  0
 17 35  1  0
 18 19  1  0
 18 36  1  0
M  END
>  <i_m_ct_stereo_status>  (91) 
1

>  <s_m_source_file>  (91) 
/var/tmp/pbs.5076255.sched01/tmpzk3r62u5/0tgg_cfwk.sdf

>  <i_m_source_file_index>  (91) 
36

>  <i_lp_mmshare_version>  (91) 
48012

>  <i_f3d_flags>  (91) 
0

>  <s_epik_input>  (91) 
W0NIM11OKFtDSDNdKUMoPU8pW0NASF0oW0NIMl1bQ0gyXTEpbihjMTIpW2NIXWMobjIpLWMzW2NIXW5uKFtDSDNdKVtjSF0z

>  <s_epik_cmdline>  (91) 
J2VwaWtfcHl0aG9uJywgJy1waHQnLCAnMi4wJywgJy1waCcsICc3LjAnLCAnLXRuJywgJzgnLCAnLW1hJywgJzIwMCcsICctaW1hZScsICc8aW5maWxlLm1hZT4nLCAnLW9tYWUnLCAnPG91dGZpbGUubWFlPic=

>  <r_lp_tautomer_probability>  (91) 
1

>  <r_epik_Ionization_Penalty>  (91) 
0.291712

>  <r_epik_Ionization_Penalty_Charging>  (91) 
0.291703

>  <r_epik_Ionization_Penalty_Neutral>  (91) 
9.21917e-06

>  <r_epik_State_Penalty>  (91) 
0.284777

>  <r_epik_Charging_Adjusted_Penalty>  (91) 
0.57648

>  <i_epik_Tot_Q>  (91) 
0

>  <i_epik_Tot_abs_Q>  (91) 
0

>  <s_lp_Force_Field>  (91) 
OPLS3e

>  <r_lp_Energy>  (91) 
19.0969

>  <b_lp_Chiralities_Consistent>  (91) 
1

>  <s_lp_Variant>  (91) 
22:0-1

>  <s_i_glide_gridfile>  (91) 
pfpi4k_grid

>  <i_i_glide_lignum>  (91) 
36

>  <i_i_glide_rotatable_bonds>  (91) 
3

>  <r_i_docking_score>  (91) 
-4.72446

>  <r_i_glide_ligand_efficiency>  (91) 
-0.248656

>  <r_i_glide_ligand_efficiency_sa>  (91) 
-0.663513

>  <r_i_glide_ligand_efficiency_ln>  (91) 
-1.19775

>  <r_i_glide_gscore>  (91) 
-4.72446

>  <r_i_glide_lipo>  (91) 
-1.39471

>  <r_i_glide_hbond>  (91) 
0

>  <r_i_glide_metal>  (91) 
-0

>  <r_i_glide_rewards>  (91) 
-2.54235

>  <r_i_glide_evdw>  (91) 
-25.7508

>  <r_i_glide_ecoul>  (91) 
-0.150792

>  <r_i_glide_erotb>  (91) 
0.525916

>  <r_i_glide_esite>  (91) 
-0.0031551

>  <r_i_glide_emodel>  (91) 
-31.664

>  <r_i_glide_energy>  (91) 
-25.9015

>  <r_i_glide_einternal>  (91) 
4.0751

>  <r_i_glide_intrahb_reward>  (91) 
-0

>  <i_i_glide_confnum>  (91) 
4

>  <i_i_glide_posenum>  (91) 
15

>  <r_i_glide_eff_state_penalty>  (91) 
0

>  <ligand_id>  (91) 
22

>  <original_smiles>  (91) 
CN(C)C(=O)C1CCc2nc(-c3cnn(C)c3)cn21

>  <smiles>  (91) 
[H]c1nn(C([H])([H])[H])c([H])c1-c1nc2n(c1[H])C([H])(C(=O)N(C([H])([H])[H])C([H])([H])[H])C([H])([H])C2([H])[H]

$$$$
22:0:1
     RDKit          3D

 36 38  0  0  1  0  0  0  0  0999 V2000
    4.8109   -2.1856    3.3509 C   0  0  0  0  0  0  0  0  0  0  0  0
    4.2639   -2.8877    2.1727 N   0  0  0  0  0  0  0  0  0  0  0  0
    2.8264   -2.5712    1.9808 C   0  0  0  0  0  0  0  0  0  0  0  0
    5.0457   -3.6870    1.3859 C   0  0  0  0  0  0  0  0  0  0  0  0
    6.2381   -3.8725    1.6129 O   0  0  0  0  0  0  0  0  0  0  0  0
    4.4745   -4.4440    0.1697 C   0  0  2  0  0  0  0  0  0  0  0  0
    3.7973   -3.5463   -0.9053 C   0  0  0  0  0  0  0  0  0  0  0  0
    2.3097   -4.0060   -1.0128 C   0  0  0  0  0  0  0  0  0  0  0  0
    2.2544   -5.1248   -0.0013 C   0  0  0  0  0  0  0  0  0  0  0  0
    1.2810   -5.9290    0.4469 N   0  0  0  0  0  0  0  0  0  0  0  0
    1.9391   -6.7341    1.3507 C   0  0  0  0  0  0  0  0  0  0  0  0
    1.2165   -7.7852    2.1017 C   0  0  0  0  0  0  0  0  0  0  0  0
   -0.1903   -7.9615    2.1666 C   0  0  0  0  0  0  0  0  0  0  0  0
   -0.5024   -9.0234    2.9008 N   0  0  0  0  0  0  0  0  0  0  0  0
    0.6805   -9.5367    3.3089 N   0  0  0  0  0  0  0  0  0  0  0  0
    0.7074  -10.7189    4.1304 C   0  0  0  0  0  0  0  0  0  0  0  0
    1.7497   -8.7886    2.8406 C   0  0  0  0  0  0  0  0  0  0  0  0
    3.2751   -6.3962    1.4265 C   0  0  0  0  0  0  0  0  0  0  0  0
    3.4094   -5.3260    0.5682 N   0  0  0  0  0  0  0  0  0  0  0  0
    5.8636   -2.3598    3.5563 H   0  0  0  0  0  0  0  0  0  0  0  0
    4.2396   -2.4984    4.2276 H   0  0  0  0  0  0  0  0  0  0  0  0
    4.6582   -1.1120    3.2127 H   0  0  0  0  0  0  0  0  0  0  0  0
    2.3189   -3.1460    1.2884 H   0  0  0  0  0  0  0  0  0  0  0  0
    2.7411   -1.4930    1.7268 H   0  0  0  0  0  0  0  0  0  0  0  0
    2.3105   -2.6934    2.9613 H   0  0  0  0  0  0  0  0  0  0  0  0
    5.2507   -5.0469   -0.3112 H   0  0  0  0  0  0  0  0  0  0  0  0
    3.8434   -2.4915   -0.6348 H   0  0  0  0  0  0  0  0  0  0  0  0
    4.2917   -3.6287   -1.8714 H   0  0  0  0  0  0  0  0  0  0  0  0
    1.6407   -3.2041   -0.6870 H   0  0  0  0  0  0  0  0  0  0  0  0
    2.0143   -4.2393   -1.9971 H   0  0  0  0  0  0  0  0  0  0  0  0
   -0.9761   -7.3846    1.7082 H   0  0  0  0  0  0  0  0  0  0  0  0
    1.7374  -11.0097    4.3553 H   0  0  0  0  0  0  0  0  0  0  0  0
    0.2436  -11.5586    3.6104 H   0  0  0  0  0  0  0  0  0  0  0  0
    0.1925  -10.5364    5.0771 H   0  0  0  0  0  0  0  0  0  0  0  0
    2.7772   -9.0585    3.0659 H   0  0  0  0  0  0  0  0  0  0  0  0
    4.0942   -6.7804    2.0352 H   0  0  0  0  0  0  0  0  0  0  0  0
  1  2  1  0
  1 20  1  0
  1 21  1  0
  1 22  1  0
  2  3  1  0
  2  4  1  0
  3 23  1  0
  3 24  1  0
  3 25  1  0
  4  5  2  0
  4  6  1  0
  6 19  1  0
  6  7  1  0
  6 26  1  6
  7  8  1  0
  7 27  1  0
  7 28  1  0
  8  9  1  0
  8 29  1  0
  8 30  1  0
  9 19  1  0
  9 10  2  0
 10 11  1  0
 11 12  1  0
 11 18  2  0
 12 17  2  0
 12 13  1  0
 13 14  2  0
 13 31  1  0
 14 15  1  0
 15 16  1  0
 15 17  1  0
 16 32  1  0
 16 33  1  0
 16 34  1  0
 17 35  1  0
 18 19  1  0
 18 36  1  0
M  END
>  <i_m_ct_stereo_status>  (92) 
1

>  <s_m_source_file>  (92) 
/var/tmp/pbs.5076255.sched01/tmpzk3r62u5/0tgg_cfwk.sdf

>  <i_m_source_file_index>  (92) 
36

>  <i_lp_mmshare_version>  (92) 
48012

>  <i_f3d_flags>  (92) 
0

>  <s_epik_input>  (92) 
W0NIM11OKFtDSDNdKUMoPU8pW0NASF0oW0NIMl1bQ0gyXTEpbihjMTIpW2NIXWMobjIpLWMzW2NIXW5uKFtDSDNdKVtjSF0z

>  <s_epik_cmdline>  (92) 
J2VwaWtfcHl0aG9uJywgJy1waHQnLCAnMi4wJywgJy1waCcsICc3LjAnLCAnLXRuJywgJzgnLCAnLW1hJywgJzIwMCcsICctaW1hZScsICc8aW5maWxlLm1hZT4nLCAnLW9tYWUnLCAnPG91dGZpbGUubWFlPic=

>  <r_lp_tautomer_probability>  (92) 
1

>  <r_epik_Ionization_Penalty>  (92) 
0.291712

>  <r_epik_Ionization_Penalty_Charging>  (92) 
0.291703

>  <r_epik_Ionization_Penalty_Neutral>  (92) 
9.21917e-06

>  <r_epik_State_Penalty>  (92) 
0.284777

>  <r_epik_Charging_Adjusted_Penalty>  (92) 
0.57648

>  <i_epik_Tot_Q>  (92) 
0

>  <i_epik_Tot_abs_Q>  (92) 
0

>  <s_lp_Force_Field>  (92) 
OPLS3e

>  <r_lp_Energy>  (92) 
19.0969

>  <b_lp_Chiralities_Consistent>  (92) 
1

>  <s_lp_Variant>  (92) 
22:0-1

>  <s_i_glide_gridfile>  (92) 
pfpi4k_grid

>  <i_i_glide_lignum>  (92) 
36

>  <i_i_glide_rotatable_bonds>  (92) 
3

>  <r_i_docking_score>  (92) 
-3.28439

>  <r_i_glide_ligand_efficiency>  (92) 
-0.172862

>  <r_i_glide_ligand_efficiency_sa>  (92) 
-0.461267

>  <r_i_glide_ligand_efficiency_ln>  (92) 
-0.832663

>  <r_i_glide_gscore>  (92) 
-3.28439

>  <r_i_glide_lipo>  (92) 
-0.128998

>  <r_i_glide_hbond>  (92) 
-0.16

>  <r_i_glide_metal>  (92) 
-0

>  <r_i_glide_rewards>  (92) 
-1.68672

>  <r_i_glide_evdw>  (92) 
-19.1977

>  <r_i_glide_ecoul>  (92) 
-5.17024

>  <r_i_glide_erotb>  (92) 
0.525916

>  <r_i_glide_esite>  (92) 
-0.0991632

>  <r_i_glide_emodel>  (92) 
-27.9049

>  <r_i_glide_energy>  (92) 
-24.3679

>  <r_i_glide_einternal>  (92) 
4.15939

>  <r_i_glide_intrahb_reward>  (92) 
-0

>  <i_i_glide_confnum>  (92) 
2

>  <i_i_glide_posenum>  (92) 
2

>  <r_i_glide_eff_state_penalty>  (92) 
0

>  <ligand_id>  (92) 
22

>  <original_smiles>  (92) 
CN(C)C(=O)C1CCc2nc(-c3cnn(C)c3)cn21

>  <smiles>  (92) 
[H]c1nn(C([H])([H])[H])c([H])c1-c1nc2n(c1[H])C([H])(C(=O)N(C([H])([H])[H])C([H])([H])[H])C([H])([H])C2([H])[H]

$$$$
22:0:2
     RDKit          3D

 36 38  0  0  1  0  0  0  0  0999 V2000
    5.1117   -0.1866    1.6832 C   0  0  0  0  0  0  0  0  0  0  0  0
    3.6971   -0.3380    2.0364 N   0  0  0  0  0  0  0  0  0  0  0  0
    3.0706    0.9056    2.4955 C   0  0  0  0  0  0  0  0  0  0  0  0
    2.9967   -1.4957    1.9352 C   0  0  0  0  0  0  0  0  0  0  0  0
    1.8092   -1.5728    2.2561 O   0  0  0  0  0  0  0  0  0  0  0  0
    3.7240   -2.7513    1.4111 C   0  0  2  0  0  0  0  0  0  0  0  0
    3.9599   -2.7016   -0.1287 C   0  0  0  0  0  0  0  0  0  0  0  0
    3.2176   -3.9116   -0.7403 C   0  0  0  0  0  0  0  0  0  0  0  0
    2.6332   -4.5846    0.4380 C   0  0  0  0  0  0  0  0  0  0  0  0
    1.8791   -5.6613    0.6127 N   0  0  0  0  0  0  0  0  0  0  0  0
    1.7146   -5.7072    2.0094 C   0  0  0  0  0  0  0  0  0  0  0  0
    0.9019   -6.7333    2.6383 C   0  0  0  0  0  0  0  0  0  0  0  0
    0.4871   -6.7849    3.9954 C   0  0  0  0  0  0  0  0  0  0  0  0
   -0.2505   -7.8587    4.2304 N   0  0  0  0  0  0  0  0  0  0  0  0
   -0.2925   -8.5208    3.0498 N   0  0  0  0  0  0  0  0  0  0  0  0
   -0.9937   -9.7763    2.9639 C   0  0  0  0  0  0  0  0  0  0  0  0
    0.3936   -7.8556    2.0593 C   0  0  0  0  0  0  0  0  0  0  0  0
    2.3682   -4.6407    2.5946 C   0  0  0  0  0  0  0  0  0  0  0  0
    2.9286   -3.9423    1.5450 N   0  0  0  0  0  0  0  0  0  0  0  0
    5.6192   -1.0760    1.3210 H   0  0  0  0  0  0  0  0  0  0  0  0
    5.6675    0.1550    2.5551 H   0  0  0  0  0  0  0  0  0  0  0  0
    5.2042    0.5511    0.8888 H   0  0  0  0  0  0  0  0  0  0  0  0
    2.0489    0.7866    2.8605 H   0  0  0  0  0  0  0  0  0  0  0  0
    3.0367    1.6287    1.6802 H   0  0  0  0  0  0  0  0  0  0  0  0
    3.6532    1.3395    3.3100 H   0  0  0  0  0  0  0  0  0  0  0  0
    4.6471   -2.9264    1.9618 H   0  0  0  0  0  0  0  0  0  0  0  0
    3.5959   -1.7745   -0.5752 H   0  0  0  0  0  0  0  0  0  0  0  0
    5.0242   -2.7539   -0.3582 H   0  0  0  0  0  0  0  0  0  0  0  0
    2.4332   -3.6032   -1.4300 H   0  0  0  0  0  0  0  0  0  0  0  0
    3.9111   -4.5818   -1.2453 H   0  0  0  0  0  0  0  0  0  0  0  0
    0.6906   -6.0883    4.7967 H   0  0  0  0  0  0  0  0  0  0  0  0
   -0.9641  -10.1664    1.9456 H   0  0  0  0  0  0  0  0  0  0  0  0
   -2.0343   -9.6325    3.2542 H   0  0  0  0  0  0  0  0  0  0  0  0
   -0.5348  -10.5055    3.6338 H   0  0  0  0  0  0  0  0  0  0  0  0
    0.4700   -8.2356    1.0522 H   0  0  0  0  0  0  0  0  0  0  0  0
    2.4525   -4.3173    3.6213 H   0  0  0  0  0  0  0  0  0  0  0  0
  1  2  1  0
  1 20  1  0
  1 21  1  0
  1 22  1  0
  2  3  1  0
  2  4  1  0
  3 23  1  0
  3 24  1  0
  3 25  1  0
  4  5  2  0
  4  6  1  0
  6 19  1  0
  6  7  1  0
  6 26  1  1
  7  8  1  0
  7 27  1  0
  7 28  1  0
  8  9  1  0
  8 29  1  0
  8 30  1  0
  9 19  1  0
  9 10  2  0
 10 11  1  0
 11 12  1  0
 11 18  2  0
 12 17  2  0
 12 13  1  0
 13 14  2  0
 13 31  1  0
 14 15  1  0
 15 16  1  0
 15 17  1  0
 16 32  1  0
 16 33  1  0
 16 34  1  0
 17 35  1  0
 18 19  1  0
 18 36  1  0
M  END
>  <i_m_ct_stereo_status>  (93) 
1

>  <s_m_source_file>  (93) 
/var/tmp/pbs.5076255.sched01/tmpzk3r62u5/0tgg_cfwk.sdf

>  <i_m_source_file_index>  (93) 
36

>  <i_lp_mmshare_version>  (93) 
48012

>  <i_f3d_flags>  (93) 
0

>  <s_epik_input>  (93) 
W0NIM11OKFtDSDNdKUMoPU8pW0NASF0oW0NIMl1bQ0gyXTEpbihjMTIpW2NIXWMobjIpLWMzW2NIXW5uKFtDSDNdKVtjSF0z

>  <s_epik_cmdline>  (93) 
J2VwaWtfcHl0aG9uJywgJy1waHQnLCAnMi4wJywgJy1waCcsICc3LjAnLCAnLXRuJywgJzgnLCAnLW1hJywgJzIwMCcsICctaW1hZScsICc8aW5maWxlLm1hZT4nLCAnLW9tYWUnLCAnPG91dGZpbGUubWFlPic=

>  <r_lp_tautomer_probability>  (93) 
1

>  <r_epik_Ionization_Penalty>  (93) 
0.291712

>  <r_epik_Ionization_Penalty_Charging>  (93) 
0.291703

>  <r_epik_Ionization_Penalty_Neutral>  (93) 
9.21917e-06

>  <r_epik_State_Penalty>  (93) 
0.284777

>  <r_epik_Charging_Adjusted_Penalty>  (93) 
0.57648

>  <i_epik_Tot_Q>  (93) 
0

>  <i_epik_Tot_abs_Q>  (93) 
0

>  <s_lp_Force_Field>  (93) 
OPLS3e

>  <r_lp_Energy>  (93) 
19.0969

>  <b_lp_Chiralities_Consistent>  (93) 
1

>  <s_lp_Variant>  (93) 
22:0-1

>  <s_i_glide_gridfile>  (93) 
pfpi4k_grid

>  <i_i_glide_lignum>  (93) 
36

>  <i_i_glide_rotatable_bonds>  (93) 
3

>  <r_i_docking_score>  (93) 
-2.88084

>  <r_i_glide_ligand_efficiency>  (93) 
-0.151623

>  <r_i_glide_ligand_efficiency_sa>  (93) 
-0.404592

>  <r_i_glide_ligand_efficiency_ln>  (93) 
-0.730355

>  <r_i_glide_gscore>  (93) 
-2.88084

>  <r_i_glide_lipo>  (93) 
-0.182676

>  <r_i_glide_hbond>  (93) 
-0.0714208

>  <r_i_glide_metal>  (93) 
-0

>  <r_i_glide_rewards>  (93) 
-1.64109

>  <r_i_glide_evdw>  (93) 
-20.8349

>  <r_i_glide_ecoul>  (93) 
-2.4476

>  <r_i_glide_erotb>  (93) 
0.525916

>  <r_i_glide_esite>  (93) 
-0.102688

>  <r_i_glide_emodel>  (93) 
-27.6323

>  <r_i_glide_energy>  (93) 
-23.2825

>  <r_i_glide_einternal>  (93) 
2.11405

>  <r_i_glide_intrahb_reward>  (93) 
-0

>  <i_i_glide_confnum>  (93) 
5

>  <i_i_glide_posenum>  (93) 
18

>  <r_i_glide_eff_state_penalty>  (93) 
0

>  <ligand_id>  (93) 
22

>  <original_smiles>  (93) 
CN(C)C(=O)C1CCc2nc(-c3cnn(C)c3)cn21

>  <smiles>  (93) 
[H]c1nn(C([H])([H])[H])c([H])c1-c1nc2n(c1[H])C([H])(C(=O)N(C([H])([H])[H])C([H])([H])[H])C([H])([H])C2([H])[H]

$$$$
22:1:0
     RDKit          3D

 37 39  0  0  1  0  0  0  0  0999 V2000
   -3.4814    3.1593    2.5080 C   0  0  0  0  0  0  0  0  0  0  0  0
   -2.2224    3.0665    3.1899 N   0  0  0  0  0  0  0  0  0  0  0  0
   -1.9885    1.7132    3.6609 C   0  0  0  0  0  0  0  0  0  0  0  0
   -1.4116    4.1382    3.3396 C   0  0  0  0  0  0  0  0  0  0  0  0
   -1.7371    5.2365    2.8740 O   0  0  0  0  0  0  0  0  0  0  0  0
   -0.0876    3.9966    4.1487 C   0  0  2  0  0  0  0  0  0  0  0  0
    0.7349    5.3411    4.2520 C   0  0  0  0  0  0  0  0  0  0  0  0
    2.1122    5.0661    3.6086 C   0  0  0  0  0  0  0  0  0  0  0  0
    2.0053    3.6483    3.2529 C   0  0  0  0  0  0  0  0  0  0  0  0
    2.8027    2.7336    2.6755 N   0  0  0  0  0  0  0  0  0  0  0  0
    2.1521    1.5296    2.6059 C   0  0  0  0  0  0  0  0  0  0  0  0
    2.6261    0.2777    2.0695 C   0  0  0  0  0  0  0  0  0  0  0  0
    3.7710    0.1434    1.2588 C   0  0  0  0  0  0  0  0  0  0  0  0
    3.9791   -1.1406    0.9055 N   0  0  0  0  0  0  0  0  0  0  0  0
    2.9350   -1.8070    1.4804 N   0  0  0  0  0  0  0  0  0  0  0  0
    2.8608   -3.2340    1.2920 C   0  0  0  0  0  0  0  0  0  0  0  0
    2.0831   -0.9606    2.1903 C   0  0  0  0  0  0  0  0  0  0  0  0
    0.9451    1.7363    3.1707 C   0  0  0  0  0  0  0  0  0  0  0  0
    0.8579    3.0678    3.5374 N   0  0  0  0  0  0  0  0  0  0  0  0
   -3.7831    4.1762    2.2013 H   0  0  0  0  0  0  0  0  0  0  0  0
   -4.2212    2.7918    3.2209 H   0  0  0  0  0  0  0  0  0  0  0  0
   -3.4992    2.5067    1.6203 H   0  0  0  0  0  0  0  0  0  0  0  0
   -1.1920    1.6769    4.4261 H   0  0  0  0  0  0  0  0  0  0  0  0
   -1.7425    1.0975    2.7848 H   0  0  0  0  0  0  0  0  0  0  0  0
   -2.7818    1.2505    4.1707 H   0  0  0  0  0  0  0  0  0  0  0  0
   -0.3178    3.6565    5.1567 H   0  0  0  0  0  0  0  0  0  0  0  0
    0.2844    6.1889    3.7306 H   0  0  0  0  0  0  0  0  0  0  0  0
    0.8445    5.6699    5.2894 H   0  0  0  0  0  0  0  0  0  0  0  0
    2.2780    5.6377    2.6873 H   0  0  0  0  0  0  0  0  0  0  0  0
    2.9460    5.1846    4.3106 H   0  0  0  0  0  0  0  0  0  0  0  0
    4.4339    0.9282    0.9138 H   0  0  0  0  0  0  0  0  0  0  0  0
    2.0302   -3.6414    1.8584 H   0  0  0  0  0  0  0  0  0  0  0  0
    3.7895   -3.6867    1.6351 H   0  0  0  0  0  0  0  0  0  0  0  0
    2.7233   -3.4446    0.2325 H   0  0  0  0  0  0  0  0  0  0  0  0
    1.2128   -1.3562    2.6952 H   0  0  0  0  0  0  0  0  0  0  0  0
    0.2312    0.9270    3.2448 H   0  0  0  0  0  0  0  0  0  0  0  0
    3.7698    2.9156    2.3399 H   0  0  0  0  0  0  0  0  0  0  0  0
  1  2  1  0
  1 20  1  0
  1 21  1  0
  1 22  1  0
  2  3  1  0
  2  4  1  0
  3 23  1  0
  3 24  1  0
  3 25  1  0
  4  5  2  0
  4  6  1  0
  6 19  1  0
  6  7  1  0
  6 26  1  1
  7  8  1  0
  7 27  1  0
  7 28  1  0
  8  9  1  0
  8 29  1  0
  8 30  1  0
  9 19  1  0
  9 10  2  0
 10 11  1  0
 10 37  1  0
 11 12  1  0
 11 18  2  0
 12 17  2  0
 12 13  1  0
 13 14  2  0
 13 31  1  0
 14 15  1  0
 15 16  1  0
 15 17  1  0
 16 32  1  0
 16 33  1  0
 16 34  1  0
 17 35  1  0
 18 19  1  0
 18 36  1  0
M  CHG  1  10   1
M  END
>  <i_m_ct_stereo_status>  (94) 
1

>  <s_m_source_file>  (94) 
/var/tmp/pbs.5076255.sched01/tmpzk3r62u5/0tgg_cfwk.sdf

>  <i_m_source_file_index>  (94) 
37

>  <i_lp_mmshare_version>  (94) 
48012

>  <i_f3d_flags>  (94) 
0

>  <s_epik_input>  (94) 
W0NIM11OKFtDSDNdKUMoPU8pW0NASF0oW0NIMl1bQ0gyXTEpbihjMTIpW2NIXWMobjIpLWMzW2NIXW5uKFtDSDNdKVtjSF0z

>  <s_epik_cmdline>  (94) 
J2VwaWtfcHl0aG9uJywgJy1waHQnLCAnMi4wJywgJy1waCcsICc3LjAnLCAnLXRuJywgJzgnLCAnLW1hJywgJzIwMCcsICctaW1hZScsICc8aW5maWxlLm1hZT4nLCAnLW9tYWUnLCAnPG91dGZpbGUubWFlPic=

>  <r_lp_tautomer_probability>  (94) 
1

>  <r_epik_Ionization_Penalty>  (94) 
0.559714

>  <r_epik_Ionization_Penalty_Charging>  (94) 
0

>  <r_epik_Ionization_Penalty_Neutral>  (94) 
0.559714

>  <r_epik_State_Penalty>  (94) 
0.570763

>  <r_epik_Charging_Adjusted_Penalty>  (94) 
0.570763

>  <i_epik_Tot_Q>  (94) 
1

>  <i_epik_Tot_abs_Q>  (94) 
1

>  <s_lp_Force_Field>  (94) 
OPLS3e

>  <r_lp_Energy>  (94) 
21.3734

>  <b_lp_Chiralities_Consistent>  (94) 
1

>  <s_lp_Variant>  (94) 
22:0-2

>  <s_i_glide_gridfile>  (94) 
pfpi4k_grid

>  <i_i_glide_lignum>  (94) 
37

>  <i_i_glide_rotatable_bonds>  (94) 
3

>  <r_i_docking_score>  (94) 
-4.24558

>  <r_i_glide_ligand_efficiency>  (94) 
-0.223452

>  <r_i_glide_ligand_efficiency_sa>  (94) 
-0.596259

>  <r_i_glide_ligand_efficiency_ln>  (94) 
-1.07635

>  <r_i_glide_gscore>  (94) 
-4.24558

>  <r_i_glide_lipo>  (94) 
-0.102965

>  <r_i_glide_hbond>  (94) 
-0.16

>  <r_i_glide_metal>  (94) 
-0

>  <r_i_glide_rewards>  (94) 
-1.63422

>  <r_i_glide_evdw>  (94) 
-17.9522

>  <r_i_glide_ecoul>  (94) 
-10.8252

>  <r_i_glide_erotb>  (94) 
0.522414

>  <r_i_glide_esite>  (94) 
-0.349428

>  <r_i_glide_emodel>  (94) 
-33.4042

>  <r_i_glide_energy>  (94) 
-28.7774

>  <r_i_glide_einternal>  (94) 
3.91617

>  <r_i_glide_intrahb_reward>  (94) 
-0

>  <i_i_glide_confnum>  (94) 
3

>  <i_i_glide_posenum>  (94) 
12

>  <r_i_glide_eff_state_penalty>  (94) 
0

>  <ligand_id>  (94) 
22

>  <original_smiles>  (94) 
CN(C)C(=O)C1CCc2nc(-c3cnn(C)c3)cn21

>  <smiles>  (94) 
[H]c1nn(C([H])([H])[H])c([H])c1-c1c([H])n2c([n+]1[H])C([H])([H])C([H])([H])C2([H])C(=O)N(C([H])([H])[H])C([H])([H])[H]

$$$$
22:1:1
     RDKit          3D

 37 39  0  0  1  0  0  0  0  0999 V2000
   -2.0124    1.8278    3.7562 C   0  0  0  0  0  0  0  0  0  0  0  0
   -2.2618    3.1637    3.2168 N   0  0  0  0  0  0  0  0  0  0  0  0
   -3.5135    3.2080    2.5014 C   0  0  0  0  0  0  0  0  0  0  0  0
   -1.4379    4.2182    3.3336 C   0  0  0  0  0  0  0  0  0  0  0  0
   -1.7510    5.3157    2.8849 O   0  0  0  0  0  0  0  0  0  0  0  0
   -0.1310    4.1015    4.1503 C   0  0  2  0  0  0  0  0  0  0  0  0
    0.7135    5.4213    4.2472 C   0  0  0  0  0  0  0  0  0  0  0  0
    2.0911    5.1264    3.6128 C   0  0  0  0  0  0  0  0  0  0  0  0
    1.9854    3.7120    3.2652 C   0  0  0  0  0  0  0  0  0  0  0  0
    2.7722    2.7880    2.6918 N   0  0  0  0  0  0  0  0  0  0  0  0
    2.1017    1.5924    2.6321 C   0  0  0  0  0  0  0  0  0  0  0  0
    2.5734    0.3313    2.0985 C   0  0  0  0  0  0  0  0  0  0  0  0
    1.9946   -0.9450    2.3195 C   0  0  0  0  0  0  0  0  0  0  0  0
    2.6786   -1.9030    1.6899 N   0  0  0  0  0  0  0  0  0  0  0  0
    3.6671   -1.2216    1.0447 N   0  0  0  0  0  0  0  0  0  0  0  0
    4.6225   -1.9424    0.2365 C   0  0  0  0  0  0  0  0  0  0  0  0
    3.6188    0.1458    1.2786 C   0  0  0  0  0  0  0  0  0  0  0  0
    0.8909    1.8072    3.1939 C   0  0  0  0  0  0  0  0  0  0  0  0
    0.8209    3.1407    3.5566 N   0  0  0  0  0  0  0  0  0  0  0  0
   -1.2002    1.8264    4.4803 H   0  0  0  0  0  0  0  0  0  0  0  0
   -1.8129    1.1572    2.9143 H   0  0  0  0  0  0  0  0  0  0  0  0
   -2.7883    1.4295    4.3609 H   0  0  0  0  0  0  0  0  0  0  0  0
   -3.7598    4.1818    2.0560 H   0  0  0  0  0  0  0  0  0  0  0  0
   -4.2962    2.9585    3.2217 H   0  0  0  0  0  0  0  0  0  0  0  0
   -3.5310    2.4535    1.7030 H   0  0  0  0  0  0  0  0  0  0  0  0
   -0.3505    3.7643    5.1731 H   0  0  0  0  0  0  0  0  0  0  0  0
    0.2681    6.2630    3.7169 H   0  0  0  0  0  0  0  0  0  0  0  0
    0.8287    5.7601    5.2824 H   0  0  0  0  0  0  0  0  0  0  0  0
    2.2662    5.6851    2.6864 H   0  0  0  0  0  0  0  0  0  0  0  0
    2.9244    5.2432    4.3145 H   0  0  0  0  0  0  0  0  0  0  0  0
    1.1326   -1.2369    2.9121 H   0  0  0  0  0  0  0  0  0  0  0  0
    5.2932   -1.2277   -0.2375 H   0  0  0  0  0  0  0  0  0  0  0  0
    4.0886   -2.5032   -0.5217 H   0  0  0  0  0  0  0  0  0  0  0  0
    5.1904   -2.6057    0.8787 H   0  0  0  0  0  0  0  0  0  0  0  0
    4.3241    0.8467    0.8444 H   0  0  0  0  0  0  0  0  0  0  0  0
    0.1716    1.0206    3.2714 H   0  0  0  0  0  0  0  0  0  0  0  0
    3.7301    2.9498    2.3636 H   0  0  0  0  0  0  0  0  0  0  0  0
  1  2  1  0
  1 20  1  0
  1 21  1  0
  1 22  1  0
  2  3  1  0
  2  4  1  0
  3 23  1  0
  3 24  1  0
  3 25  1  0
  4  5  2  0
  4  6  1  0
  6 19  1  0
  6  7  1  0
  6 26  1  1
  7  8  1  0
  7 27  1  0
  7 28  1  0
  8  9  1  0
  8 29  1  0
  8 30  1  0
  9 19  1  0
  9 10  2  0
 10 11  1  0
 10 37  1  0
 11 12  1  0
 11 18  2  0
 12 17  2  0
 12 13  1  0
 13 14  2  0
 13 31  1  0
 14 15  1  0
 15 16  1  0
 15 17  1  0
 16 32  1  0
 16 33  1  0
 16 34  1  0
 17 35  1  0
 18 19  1  0
 18 36  1  0
M  CHG  1  10   1
M  END
>  <i_m_ct_stereo_status>  (95) 
1

>  <s_m_source_file>  (95) 
/var/tmp/pbs.5076255.sched01/tmpzk3r62u5/0tgg_cfwk.sdf

>  <i_m_source_file_index>  (95) 
37

>  <i_lp_mmshare_version>  (95) 
48012

>  <i_f3d_flags>  (95) 
0

>  <s_epik_input>  (95) 
W0NIM11OKFtDSDNdKUMoPU8pW0NASF0oW0NIMl1bQ0gyXTEpbihjMTIpW2NIXWMobjIpLWMzW2NIXW5uKFtDSDNdKVtjSF0z

>  <s_epik_cmdline>  (95) 
J2VwaWtfcHl0aG9uJywgJy1waHQnLCAnMi4wJywgJy1waCcsICc3LjAnLCAnLXRuJywgJzgnLCAnLW1hJywgJzIwMCcsICctaW1hZScsICc8aW5maWxlLm1hZT4nLCAnLW9tYWUnLCAnPG91dGZpbGUubWFlPic=

>  <r_lp_tautomer_probability>  (95) 
1

>  <r_epik_Ionization_Penalty>  (95) 
0.559714

>  <r_epik_Ionization_Penalty_Charging>  (95) 
0

>  <r_epik_Ionization_Penalty_Neutral>  (95) 
0.559714

>  <r_epik_State_Penalty>  (95) 
0.570763

>  <r_epik_Charging_Adjusted_Penalty>  (95) 
0.570763

>  <i_epik_Tot_Q>  (95) 
1

>  <i_epik_Tot_abs_Q>  (95) 
1

>  <s_lp_Force_Field>  (95) 
OPLS3e

>  <r_lp_Energy>  (95) 
21.3734

>  <b_lp_Chiralities_Consistent>  (95) 
1

>  <s_lp_Variant>  (95) 
22:0-2

>  <s_i_glide_gridfile>  (95) 
pfpi4k_grid

>  <i_i_glide_lignum>  (95) 
37

>  <i_i_glide_rotatable_bonds>  (95) 
3

>  <r_i_docking_score>  (95) 
-4.09195

>  <r_i_glide_ligand_efficiency>  (95) 
-0.215366

>  <r_i_glide_ligand_efficiency_sa>  (95) 
-0.574683

>  <r_i_glide_ligand_efficiency_ln>  (95) 
-1.0374

>  <r_i_glide_gscore>  (95) 
-4.09195

>  <r_i_glide_lipo>  (95) 
-0.122733

>  <r_i_glide_hbond>  (95) 
-0.16

>  <r_i_glide_metal>  (95) 
-0

>  <r_i_glide_rewards>  (95) 
-1.63422

>  <r_i_glide_evdw>  (95) 
-17.8159

>  <r_i_glide_ecoul>  (95) 
-9.69935

>  <r_i_glide_erotb>  (95) 
0.522414

>  <r_i_glide_esite>  (95) 
-0.351719

>  <r_i_glide_emodel>  (95) 
-31.3216

>  <r_i_glide_energy>  (95) 
-27.5153

>  <r_i_glide_einternal>  (95) 
3.81236

>  <r_i_glide_intrahb_reward>  (95) 
-0

>  <i_i_glide_confnum>  (95) 
2

>  <i_i_glide_posenum>  (95) 
33

>  <r_i_glide_eff_state_penalty>  (95) 
0

>  <ligand_id>  (95) 
22

>  <original_smiles>  (95) 
CN(C)C(=O)C1CCc2nc(-c3cnn(C)c3)cn21

>  <smiles>  (95) 
[H]c1nn(C([H])([H])[H])c([H])c1-c1c([H])n2c([n+]1[H])C([H])([H])C([H])([H])C2([H])C(=O)N(C([H])([H])[H])C([H])([H])[H]

$$$$
22:1:2
     RDKit          3D

 37 39  0  0  1  0  0  0  0  0999 V2000
    4.0515   -1.8358   -3.6997 C   0  0  0  0  0  0  0  0  0  0  0  0
    4.0147   -2.3682   -2.3269 N   0  0  0  0  0  0  0  0  0  0  0  0
    2.6993   -2.9738   -2.0044 C   0  0  0  0  0  0  0  0  0  0  0  0
    5.1134   -2.3582   -1.5165 C   0  0  0  0  0  0  0  0  0  0  0  0
    6.2069   -1.9305   -1.8793 O   0  0  0  0  0  0  0  0  0  0  0  0
    5.0645   -2.8759   -0.0659 C   0  0  2  0  0  0  0  0  0  0  0  0
    4.6548   -4.3674    0.0691 C   0  0  0  0  0  0  0  0  0  0  0  0
    3.3698   -4.3916    0.9564 C   0  0  0  0  0  0  0  0  0  0  0  0
    3.1734   -2.9404    1.2385 C   0  0  0  0  0  0  0  0  0  0  0  0
    2.2587   -2.1885    1.8657 N   0  0  0  0  0  0  0  0  0  0  0  0
    2.6633   -0.8867    1.7696 C   0  0  0  0  0  0  0  0  0  0  0  0
    1.8734    0.2263    2.3530 C   0  0  0  0  0  0  0  0  0  0  0  0
    0.6109    0.1428    2.9984 C   0  0  0  0  0  0  0  0  0  0  0  0
    0.2211    1.3135    3.4671 N   0  0  0  0  0  0  0  0  0  0  0  0
    1.2012    2.1727    3.1101 N   0  0  0  0  0  0  0  0  0  0  0  0
    1.0811    3.5667    3.4624 C   0  0  0  0  0  0  0  0  0  0  0  0
    2.2196    1.5498    2.4279 C   0  0  0  0  0  0  0  0  0  0  0  0
    3.8368   -0.8490    1.0461 C   0  0  0  0  0  0  0  0  0  0  0  0
    4.0839   -2.1447    0.7066 N   0  0  0  0  0  0  0  0  0  0  0  0
    5.0098   -1.4026   -4.0162 H   0  0  0  0  0  0  0  0  0  0  0  0
    3.2811   -1.0624   -3.7837 H   0  0  0  0  0  0  0  0  0  0  0  0
    3.7907   -2.6455   -4.3842 H   0  0  0  0  0  0  0  0  0  0  0  0
    2.5466   -3.2111   -0.9905 H   0  0  0  0  0  0  0  0  0  0  0  0
    2.5372   -3.8630   -2.6675 H   0  0  0  0  0  0  0  0  0  0  0  0
    1.8918   -2.2880   -2.3107 H   0  0  0  0  0  0  0  0  0  0  0  0
    6.0246   -2.7050    0.4276 H   0  0  0  0  0  0  0  0  0  0  0  0
    4.4731   -4.8149   -0.9071 H   0  0  0  0  0  0  0  0  0  0  0  0
    5.4490   -4.9528    0.5242 H   0  0  0  0  0  0  0  0  0  0  0  0
    2.4931   -4.7397    0.3805 H   0  0  0  0  0  0  0  0  0  0  0  0
    3.4650   -4.9639    1.8532 H   0  0  0  0  0  0  0  0  0  0  0  0
   -0.0044   -0.7266    3.1597 H   0  0  0  0  0  0  0  0  0  0  0  0
    1.9814    4.1115    3.1596 H   0  0  0  0  0  0  0  0  0  0  0  0
    0.9449    3.6673    4.5422 H   0  0  0  0  0  0  0  0  0  0  0  0
    0.2213    4.0005    2.9462 H   0  0  0  0  0  0  0  0  0  0  0  0
    3.0974    2.0824    2.0817 H   0  0  0  0  0  0  0  0  0  0  0  0
    4.4418   -0.0075    0.7202 H   0  0  0  0  0  0  0  0  0  0  0  0
    1.4023   -2.5228    2.2678 H   0  0  0  0  0  0  0  0  0  0  0  0
  1  2  1  0
  1 20  1  0
  1 21  1  0
  1 22  1  0
  2  3  1  0
  2  4  1  0
  3 23  1  0
  3 24  1  0
  3 25  1  0
  4  5  2  0
  4  6  1  0
  6 19  1  0
  6  7  1  0
  6 26  1  1
  7  8  1  0
  7 27  1  0
  7 28  1  0
  8  9  1  0
  8 29  1  0
  8 30  1  0
  9 19  1  0
  9 10  2  0
 10 11  1  0
 10 37  1  0
 11 12  1  0
 11 18  2  0
 12 17  2  0
 12 13  1  0
 13 14  2  0
 13 31  1  0
 14 15  1  0
 15 16  1  0
 15 17  1  0
 16 32  1  0
 16 33  1  0
 16 34  1  0
 17 35  1  0
 18 19  1  0
 18 36  1  0
M  CHG  1  10   1
M  END
>  <i_m_ct_stereo_status>  (96) 
1

>  <s_m_source_file>  (96) 
/var/tmp/pbs.5076255.sched01/tmpzk3r62u5/0tgg_cfwk.sdf

>  <i_m_source_file_index>  (96) 
37

>  <i_lp_mmshare_version>  (96) 
48012

>  <i_f3d_flags>  (96) 
0

>  <s_epik_input>  (96) 
W0NIM11OKFtDSDNdKUMoPU8pW0NASF0oW0NIMl1bQ0gyXTEpbihjMTIpW2NIXWMobjIpLWMzW2NIXW5uKFtDSDNdKVtjSF0z

>  <s_epik_cmdline>  (96) 
J2VwaWtfcHl0aG9uJywgJy1waHQnLCAnMi4wJywgJy1waCcsICc3LjAnLCAnLXRuJywgJzgnLCAnLW1hJywgJzIwMCcsICctaW1hZScsICc8aW5maWxlLm1hZT4nLCAnLW9tYWUnLCAnPG91dGZpbGUubWFlPic=

>  <r_lp_tautomer_probability>  (96) 
1

>  <r_epik_Ionization_Penalty>  (96) 
0.559714

>  <r_epik_Ionization_Penalty_Charging>  (96) 
0

>  <r_epik_Ionization_Penalty_Neutral>  (96) 
0.559714

>  <r_epik_State_Penalty>  (96) 
0.570763

>  <r_epik_Charging_Adjusted_Penalty>  (96) 
0.570763

>  <i_epik_Tot_Q>  (96) 
1

>  <i_epik_Tot_abs_Q>  (96) 
1

>  <s_lp_Force_Field>  (96) 
OPLS3e

>  <r_lp_Energy>  (96) 
21.3734

>  <b_lp_Chiralities_Consistent>  (96) 
1

>  <s_lp_Variant>  (96) 
22:0-2

>  <s_i_glide_gridfile>  (96) 
pfpi4k_grid

>  <i_i_glide_lignum>  (96) 
37

>  <i_i_glide_rotatable_bonds>  (96) 
3

>  <r_i_docking_score>  (96) 
-3.8282

>  <r_i_glide_ligand_efficiency>  (96) 
-0.201484

>  <r_i_glide_ligand_efficiency_sa>  (96) 
-0.537641

>  <r_i_glide_ligand_efficiency_ln>  (96) 
-0.970531

>  <r_i_glide_gscore>  (96) 
-3.8282

>  <r_i_glide_lipo>  (96) 
-0.293987

>  <r_i_glide_hbond>  (96) 
-0.13492

>  <r_i_glide_metal>  (96) 
-0

>  <r_i_glide_rewards>  (96) 
-1.63422

>  <r_i_glide_evdw>  (96) 
-23.0478

>  <r_i_glide_ecoul>  (96) 
-6.76185

>  <r_i_glide_erotb>  (96) 
0.522414

>  <r_i_glide_esite>  (96) 
-0.120822

>  <r_i_glide_emodel>  (96) 
-33.8937

>  <r_i_glide_energy>  (96) 
-29.8096

>  <r_i_glide_einternal>  (96) 
3.83692

>  <r_i_glide_intrahb_reward>  (96) 
-0

>  <i_i_glide_confnum>  (96) 
4

>  <i_i_glide_posenum>  (96) 
10

>  <r_i_glide_eff_state_penalty>  (96) 
0

>  <ligand_id>  (96) 
22

>  <original_smiles>  (96) 
CN(C)C(=O)C1CCc2nc(-c3cnn(C)c3)cn21

>  <smiles>  (96) 
[H]c1nn(C([H])([H])[H])c([H])c1-c1c([H])n2c([n+]1[H])C([H])([H])C([H])([H])C2([H])C(=O)N(C([H])([H])[H])C([H])([H])[H]

$$$$
24:0:0
     RDKit          3D

 72 76  0  0  1  0  0  0  0  0999 V2000
    4.7177  -10.4357    4.4305 C   0  0  0  0  0  0  0  0  0  0  0  0
    3.7494   -9.4428    5.0994 C   0  0  2  0  0  0  0  0  0  0  0  0
    2.7629  -10.1029    6.0728 C   0  0  1  0  0  0  0  0  0  0  0  0
    3.4031  -10.5225    7.2652 O   0  0  0  0  0  0  0  0  0  0  0  0
    1.5773   -9.1018    6.2635 C   0  0  0  0  0  0  0  0  0  0  0  0
    0.2328   -9.8390    6.0810 C   0  0  0  0  0  0  0  0  0  0  0  0
    1.5215   -8.4920    7.6897 C   0  0  0  0  0  0  0  0  0  0  0  0
    1.7805   -8.0488    5.1090 C   0  0  1  0  0  0  0  0  0  0  0  0
    2.1600   -6.6286    5.6142 C   0  0  0  0  0  0  0  0  0  0  0  0
    2.6841   -5.6919    4.5286 C   0  0  0  0  0  0  0  0  0  0  0  0
    3.9262   -6.3296    3.8856 C   0  0  1  0  0  0  0  0  0  0  0  0
    3.5633   -7.6733    3.2208 C   0  0  0  0  0  0  0  0  0  0  0  0
    3.8207   -7.9060    1.9048 C   0  0  0  0  0  0  0  0  0  0  0  0
    4.4221   -6.8964    0.9222 C   0  0  0  0  0  0  0  0  0  0  0  0
    4.2364   -5.4701    1.4712 C   0  0  2  0  0  0  0  0  0  0  0  0
    2.7421   -5.0823    1.2945 C   0  0  0  0  0  0  0  0  0  0  0  0
    5.0338   -4.3176    0.8769 C   0  0  0  0  0  0  0  0  0  0  0  0
    5.3111   -4.1796   -0.6095 C   0  0  2  0  0  0  0  0  0  0  0  0
    6.5875   -3.3834   -0.9233 C   0  0  0  0  0  0  0  0  0  0  0  0
    6.2953   -2.7161   -2.2568 C   0  0  0  0  0  0  0  0  0  0  0  0
    4.7945   -2.3492   -2.2271 C   0  0  1  0  0  0  0  0  0  0  0  0
    4.5983   -0.9842   -1.5405 C   0  0  0  0  0  0  0  0  0  0  0  0
    4.2256   -2.3288   -3.6739 C   0  0  0  0  0  0  0  0  0  0  0  0
    3.8844   -3.4113   -4.2062 O   0  0  0  0  0  0  0  0  0  0  0  0
    4.2277   -1.2419   -4.2945 O   0  0  0  0  0  0  0  0  0  0  0  0
    4.1657   -3.4527   -1.3386 C   0  0  0  0  0  0  0  0  0  0  0  0
    5.3502   -3.4465    1.8479 C   0  0  0  0  0  0  0  0  0  0  0  0
    4.9191   -3.9225    3.2109 C   0  0  0  0  0  0  0  0  0  0  0  0
    4.7747   -5.4406    2.9358 C   0  0  1  0  0  0  0  0  0  0  0  0
    6.2391   -6.0001    3.0264 C   0  0  0  0  0  0  0  0  0  0  0  0
    2.8297   -8.6724    4.1379 C   0  0  1  0  0  0  0  0  0  0  0  0
    1.8218   -9.9798    2.9882 Br  0  0  0  0  0  0  0  0  0  0  0  0
    4.1862  -11.2315    3.9050 H   0  0  0  0  0  0  0  0  0  0  0  0
    5.3606  -10.9151    5.1747 H   0  0  0  0  0  0  0  0  0  0  0  0
    5.3643   -9.9321    3.7103 H   0  0  0  0  0  0  0  0  0  0  0  0
    4.3449   -8.7245    5.6642 H   0  0  0  0  0  0  0  0  0  0  0  0
    2.3902  -11.0221    5.6156 H   0  0  0  0  0  0  0  0  0  0  0  0
    2.8333  -11.1925    7.6464 H   0  0  0  0  0  0  0  0  0  0  0  0
   -0.6129   -9.1540    6.1459 H   0  0  0  0  0  0  0  0  0  0  0  0
    0.0901  -10.6048    6.8439 H   0  0  0  0  0  0  0  0  0  0  0  0
    0.1686  -10.3455    5.1199 H   0  0  0  0  0  0  0  0  0  0  0  0
    0.7415   -7.7339    7.7680 H   0  0  0  0  0  0  0  0  0  0  0  0
    2.4652   -8.0452    7.9998 H   0  0  0  0  0  0  0  0  0  0  0  0
    1.2873   -9.2555    8.4304 H   0  0  0  0  0  0  0  0  0  0  0  0
    0.8515   -7.9214    4.5543 H   0  0  0  0  0  0  0  0  0  0  0  0
    1.2941   -6.1633    6.0795 H   0  0  0  0  0  0  0  0  0  0  0  0
    2.9322   -6.6866    6.3778 H   0  0  0  0  0  0  0  0  0  0  0  0
    1.8989   -5.4699    3.8115 H   0  0  0  0  0  0  0  0  0  0  0  0
    2.9491   -4.7423    4.9932 H   0  0  0  0  0  0  0  0  0  0  0  0
    4.5773   -6.5733    4.7273 H   0  0  0  0  0  0  0  0  0  0  0  0
    3.5995   -8.8634    1.4558 H   0  0  0  0  0  0  0  0  0  0  0  0
    5.4666   -7.1385    0.7284 H   0  0  0  0  0  0  0  0  0  0  0  0
    3.9072   -6.9875   -0.0324 H   0  0  0  0  0  0  0  0  0  0  0  0
    2.0543   -5.8422    1.6583 H   0  0  0  0  0  0  0  0  0  0  0  0
    2.4990   -4.9506    0.2394 H   0  0  0  0  0  0  0  0  0  0  0  0
    2.5041   -4.1397    1.7875 H   0  0  0  0  0  0  0  0  0  0  0  0
    5.4097   -5.1745   -1.0475 H   0  0  0  0  0  0  0  0  0  0  0  0
    6.7695   -2.5831   -0.2046 H   0  0  0  0  0  0  0  0  0  0  0  0
    7.4977   -3.9861   -0.9333 H   0  0  0  0  0  0  0  0  0  0  0  0
    6.9476   -1.8590   -2.3188 H   0  0  0  0  0  0  0  0  0  0  0  0
    6.5403   -3.3803   -3.0895 H   0  0  0  0  0  0  0  0  0  0  0  0
    5.0084   -0.9635   -0.5336 H   0  0  0  0  0  0  0  0  0  0  0  0
    3.5425   -0.7360   -1.4520 H   0  0  0  0  0  0  0  0  0  0  0  0
    5.0753   -0.1831   -2.0929 H   0  0  0  0  0  0  0  0  0  0  0  0
    3.5894   -4.1981   -1.8897 H   0  0  0  0  0  0  0  0  0  0  0  0
    3.4625   -3.0026   -0.6281 H   0  0  0  0  0  0  0  0  0  0  0  0
    5.8385   -2.4960    1.7189 H   0  0  0  0  0  0  0  0  0  0  0  0
    5.6563   -3.6788    3.9780 H   0  0  0  0  0  0  0  0  0  0  0  0
    3.9763   -3.4305    3.4540 H   0  0  0  0  0  0  0  0  0  0  0  0
    6.9105   -5.5647    2.2836 H   0  0  0  0  0  0  0  0  0  0  0  0
    6.2920   -7.0833    2.8933 H   0  0  0  0  0  0  0  0  0  0  0  0
    6.6804   -5.7867    4.0035 H   0  0  0  0  0  0  0  0  0  0  0  0
  1  2  1  0
  1 33  1  0
  1 34  1  0
  1 35  1  0
  2 31  1  0
  2  3  1  0
  2 36  1  1
  3  4  1  0
  3  5  1  0
  3 37  1  6
  4 38  1  0
  5  6  1  0
  5  7  1  0
  5  8  1  0
  6 39  1  0
  6 40  1  0
  6 41  1  0
  7 42  1  0
  7 43  1  0
  7 44  1  0
  8 31  1  0
  8  9  1  0
  8 45  1  6
  9 10  1  0
  9 46  1  0
  9 47  1  0
 10 11  1  0
 10 48  1  0
 10 49  1  0
 11 29  1  0
 11 12  1  0
 11 50  1  1
 12 13  2  0
 12 31  1  0
 13 14  1  0
 13 51  1  0
 14 15  1  0
 14 52  1  0
 14 53  1  0
 15 29  1  0
 15 16  1  1
 15 17  1  0
 16 54  1  0
 16 55  1  0
 16 56  1  0
 17 18  1  0
 17 27  2  0
 18 26  1  0
 18 19  1  0
 18 57  1  6
 19 20  1  0
 19 58  1  0
 19 59  1  0
 20 21  1  0
 20 60  1  0
 20 61  1  0
 21 22  1  1
 21 23  1  0
 21 26  1  0
 22 62  1  0
 22 63  1  0
 22 64  1  0
 23 24  2  0
 23 25  1  0
 26 65  1  0
 26 66  1  0
 27 28  1  0
 27 67  1  0
 28 29  1  0
 28 68  1  0
 28 69  1  0
 29 30  1  6
 30 70  1  0
 30 71  1  0
 30 72  1  0
 31 32  1  6
M  CHG  1  25  -1
M  END
>  <i_m_ct_stereo_status>  (97) 
1

>  <s_m_source_file>  (97) 
/var/tmp/pbs.5076255.sched01/tmpzk3r62u5/0tgg_cfwk.sdf

>  <i_m_source_file_index>  (97) 
42

>  <i_lp_mmshare_version>  (97) 
48012

>  <i_f3d_flags>  (97) 
0

>  <s_epik_input>  (97) 
W0NIM11bQ0BASF0xW0NAQEhdKFtPSF0pQyhbQ0gzXSkoW0NIM10pW0NAQEhdKFtDSDJdW0NIMl0yKVtDQEBdMShCcilDKD1bQ0hdW0NIMl0zKVtDQEhdMltDQEBdKFtDSDNdKShbQ0BdMzRbQ0gzXSlbQ0gyXVtDSF09QzRbQ0BASF0oW0NIMl01KVtDSDJdW0NIMl1bQ0BAXTUoW0NIM10pQyg9TylbT0hd

>  <s_epik_cmdline>  (97) 
J2VwaWtfcHl0aG9uJywgJy1waHQnLCAnMi4wJywgJy1waCcsICc3LjAnLCAnLXRuJywgJzgnLCAnLW1hJywgJzIwMCcsICctaW1hZScsICc8aW5maWxlLm1hZT4nLCAnLW9tYWUnLCAnPG91dGZpbGUubWFlPic=

>  <r_epik_Ionization_Penalty>  (97) 
0.00486404

>  <r_epik_Ionization_Penalty_Charging>  (97) 
0.00486385

>  <r_epik_Ionization_Penalty_Neutral>  (97) 
1.96309e-07

>  <r_epik_State_Penalty>  (97) 
0.00352923

>  <r_epik_Charging_Adjusted_Penalty>  (97) 
0.00839307

>  <i_epik_Tot_Q>  (97) 
-1

>  <i_epik_Tot_abs_Q>  (97) 
1

>  <s_lp_Force_Field>  (97) 
OPLS3e

>  <r_lp_Energy>  (97) 
65.7023

>  <b_lp_Chiralities_Consistent>  (97) 
1

>  <s_lp_Variant>  (97) 
24:0-1

>  <s_i_glide_gridfile>  (97) 
pfpi4k_grid

>  <i_i_glide_lignum>  (97) 
42

>  <i_i_glide_rotatable_bonds>  (97) 
3

>  <r_i_docking_score>  (97) 
-3.20168

>  <r_i_glide_ligand_efficiency>  (97) 
-0.100052

>  <r_i_glide_ligand_efficiency_sa>  (97) 
-0.317647

>  <r_i_glide_ligand_efficiency_ln>  (97) 
-0.716943

>  <r_i_glide_gscore>  (97) 
-3.20168

>  <r_i_glide_lipo>  (97) 
-0.580968

>  <r_i_glide_hbond>  (97) 
-0.319685

>  <r_i_glide_metal>  (97) 
-0

>  <r_i_glide_rewards>  (97) 
-0.204916

>  <r_i_glide_evdw>  (97) 
-30.0251

>  <r_i_glide_ecoul>  (97) 
-4.50122

>  <r_i_glide_erotb>  (97) 
0.08033

>  <r_i_glide_esite>  (97) 
0

>  <r_i_glide_emodel>  (97) 
-41.733

>  <r_i_glide_energy>  (97) 
-34.5263

>  <r_i_glide_einternal>  (97) 
1.59311

>  <r_i_glide_intrahb_reward>  (97) 
-0

>  <i_i_glide_confnum>  (97) 
1

>  <i_i_glide_posenum>  (97) 
30

>  <r_i_glide_eff_state_penalty>  (97) 
0

>  <ligand_id>  (97) 
24

>  <original_smiles>  (97) 
CC1C(O)C(C)(C)C2CCC3C(=CCC4(C)C(C5CCC(C)(C(=O)O)C5)=CCC34C)C12Br

>  <smiles>  (97) 
[H]OC1([H])C([H])(C([H])([H])[H])C2(Br)C3=C([H])C([H])([H])C4(C([H])([H])[H])C(C5([H])C([H])([H])C([H])([H])C(C(=O)[O-])(C([H])([H])[H])C5([H])[H])=C([H])C([H])([H])C4(C([H])([H])[H])C3([H])C([H])([H])C([H])([H])C2([H])C1(C([H])([H])[H])C([H])([H])[H]

$$$$
24:0:1
     RDKit          3D

 72 76  0  0  1  0  0  0  0  0999 V2000
    6.5874   -2.7415    0.1316 C   0  0  0  0  0  0  0  0  0  0  0  0
    5.9099   -3.7063    1.1227 C   0  0  2  0  0  0  0  0  0  0  0  0
    6.1159   -5.1953    0.7910 C   0  0  1  0  0  0  0  0  0  0  0  0
    7.4339   -5.6068    1.1048 O   0  0  0  0  0  0  0  0  0  0  0  0
    5.0019   -5.9827    1.5459 C   0  0  0  0  0  0  0  0  0  0  0  0
    4.3157   -6.9679    0.5729 C   0  0  0  0  0  0  0  0  0  0  0  0
    5.5610   -6.8606    2.6993 C   0  0  0  0  0  0  0  0  0  0  0  0
    3.9865   -4.8683    2.0073 C   0  0  1  0  0  0  0  0  0  0  0  0
    3.9347   -4.6683    3.5489 C   0  0  0  0  0  0  0  0  0  0  0  0
    3.2202   -3.3926    3.9939 C   0  0  0  0  0  0  0  0  0  0  0  0
    3.9440   -2.1882    3.3738 C   0  0  1  0  0  0  0  0  0  0  0  0
    3.8900   -2.2496    1.8381 C   0  0  0  0  0  0  0  0  0  0  0  0
    3.3714   -1.2294    1.1033 C   0  0  0  0  0  0  0  0  0  0  0  0
    2.7342    0.0459    1.6696 C   0  0  0  0  0  0  0  0  0  0  0  0
    2.3200   -0.1894    3.1286 C   0  0  2  0  0  0  0  0  0  0  0  0
    1.0480   -1.0825    3.1292 C   0  0  0  0  0  0  0  0  0  0  0  0
    1.9936    0.9932    4.0222 C   0  0  0  0  0  0  0  0  0  0  0  0
    1.2277    2.2207    3.5406 C   0  0  2  0  0  0  0  0  0  0  0  0
    1.5332    3.4972    4.3465 C   0  0  0  0  0  0  0  0  0  0  0  0
    0.2491    4.3026    4.3255 C   0  0  0  0  0  0  0  0  0  0  0  0
   -0.8876    3.2502    4.3533 C   0  0  1  0  0  0  0  0  0  0  0  0
   -1.2523    2.8814    5.8048 C   0  0  0  0  0  0  0  0  0  0  0  0
   -2.1529    3.7417    3.6320 C   0  0  0  0  0  0  0  0  0  0  0  0
   -2.1878    4.9332    3.2724 O   0  0  0  0  0  0  0  0  0  0  0  0
   -3.1123    2.9398    3.5235 O   0  0  0  0  0  0  0  0  0  0  0  0
   -0.2978    2.0181    3.6258 C   0  0  0  0  0  0  0  0  0  0  0  0
    2.4082    0.7333    5.2704 C   0  0  0  0  0  0  0  0  0  0  0  0
    3.1510   -0.5739    5.3755 C   0  0  0  0  0  0  0  0  0  0  0  0
    3.5496   -0.7803    3.8926 C   0  0  1  0  0  0  0  0  0  0  0  0
    4.8268    0.1083    3.7029 C   0  0  0  0  0  0  0  0  0  0  0  0
    4.3805   -3.5792    1.2235 C   0  0  1  0  0  0  0  0  0  0  0  0
    3.5876   -3.7669   -0.6077 Br  0  0  0  0  0  0  0  0  0  0  0  0
    6.2615   -2.9191   -0.8938 H   0  0  0  0  0  0  0  0  0  0  0  0
    7.6734   -2.8592    0.1518 H   0  0  0  0  0  0  0  0  0  0  0  0
    6.3640   -1.7023    0.3798 H   0  0  0  0  0  0  0  0  0  0  0  0
    6.3350   -3.5187    2.1087 H   0  0  0  0  0  0  0  0  0  0  0  0
    5.9878   -5.3269   -0.2852 H   0  0  0  0  0  0  0  0  0  0  0  0
    7.5281   -6.5192    0.8691 H   0  0  0  0  0  0  0  0  0  0  0  0
    3.4954   -7.4993    1.0577 H   0  0  0  0  0  0  0  0  0  0  0  0
    5.0132   -7.7213    0.2120 H   0  0  0  0  0  0  0  0  0  0  0  0
    3.9099   -6.4730   -0.3081 H   0  0  0  0  0  0  0  0  0  0  0  0
    4.7594   -7.3356    3.2663 H   0  0  0  0  0  0  0  0  0  0  0  0
    6.1849   -6.3030    3.3968 H   0  0  0  0  0  0  0  0  0  0  0  0
    6.1831   -7.6691    2.3165 H   0  0  0  0  0  0  0  0  0  0  0  0
    2.9743   -5.1431    1.7130 H   0  0  0  0  0  0  0  0  0  0  0  0
    3.4307   -5.5183    4.0084 H   0  0  0  0  0  0  0  0  0  0  0  0
    4.9364   -4.6338    3.9713 H   0  0  0  0  0  0  0  0  0  0  0  0
    2.1661   -3.4409    3.7347 H   0  0  0  0  0  0  0  0  0  0  0  0
    3.2648   -3.3386    5.0812 H   0  0  0  0  0  0  0  0  0  0  0  0
    4.9925   -2.3244    3.6452 H   0  0  0  0  0  0  0  0  0  0  0  0
    3.3453   -1.2642    0.0237 H   0  0  0  0  0  0  0  0  0  0  0  0
    3.4157    0.8876    1.5528 H   0  0  0  0  0  0  0  0  0  0  0  0
    1.8537    0.2834    1.0712 H   0  0  0  0  0  0  0  0  0  0  0  0
    1.1340   -1.9619    2.4922 H   0  0  0  0  0  0  0  0  0  0  0  0
    0.1940   -0.5298    2.7379 H   0  0  0  0  0  0  0  0  0  0  0  0
    0.7737   -1.4095    4.1330 H   0  0  0  0  0  0  0  0  0  0  0  0
    1.4869    2.4253    2.4967 H   0  0  0  0  0  0  0  0  0  0  0  0
    1.7371    3.2944    5.3982 H   0  0  0  0  0  0  0  0  0  0  0  0
    2.3901    4.0449    3.9485 H   0  0  0  0  0  0  0  0  0  0  0  0
    0.2009    4.9885    5.1701 H   0  0  0  0  0  0  0  0  0  0  0  0
    0.2510    4.9062    3.4126 H   0  0  0  0  0  0  0  0  0  0  0  0
   -0.3873    2.5222    6.3502 H   0  0  0  0  0  0  0  0  0  0  0  0
   -2.0086    2.0996    5.8491 H   0  0  0  0  0  0  0  0  0  0  0  0
   -1.6434    3.7426    6.3377 H   0  0  0  0  0  0  0  0  0  0  0  0
   -0.7001    1.8649    2.6162 H   0  0  0  0  0  0  0  0  0  0  0  0
   -0.5472    1.1106    4.1831 H   0  0  0  0  0  0  0  0  0  0  0  0
    2.2474    1.3453    6.1400 H   0  0  0  0  0  0  0  0  0  0  0  0
    4.0004   -0.5056    6.0573 H   0  0  0  0  0  0  0  0  0  0  0  0
    2.4526   -1.3256    5.7457 H   0  0  0  0  0  0  0  0  0  0  0  0
    4.6324    1.1684    3.8830 H   0  0  0  0  0  0  0  0  0  0  0  0
    5.2514    0.0389    2.6994 H   0  0  0  0  0  0  0  0  0  0  0  0
    5.6197   -0.1826    4.3951 H   0  0  0  0  0  0  0  0  0  0  0  0
  1  2  1  0
  1 33  1  0
  1 34  1  0
  1 35  1  0
  2 31  1  0
  2  3  1  0
  2 36  1  1
  3  4  1  0
  3  5  1  0
  3 37  1  6
  4 38  1  0
  5  6  1  0
  5  7  1  0
  5  8  1  0
  6 39  1  0
  6 40  1  0
  6 41  1  0
  7 42  1  0
  7 43  1  0
  7 44  1  0
  8 31  1  0
  8  9  1  0
  8 45  1  6
  9 10  1  0
  9 46  1  0
  9 47  1  0
 10 11  1  0
 10 48  1  0
 10 49  1  0
 11 29  1  0
 11 12  1  0
 11 50  1  6
 12 13  2  0
 12 31  1  0
 13 14  1  0
 13 51  1  0
 14 15  1  0
 14 52  1  0
 14 53  1  0
 15 29  1  0
 15 16  1  6
 15 17  1  0
 16 54  1  0
 16 55  1  0
 16 56  1  0
 17 18  1  0
 17 27  2  0
 18 26  1  0
 18 19  1  0
 18 57  1  6
 19 20  1  0
 19 58  1  0
 19 59  1  0
 20 21  1  0
 20 60  1  0
 20 61  1  0
 21 22  1  1
 21 23  1  0
 21 26  1  0
 22 62  1  0
 22 63  1  0
 22 64  1  0
 23 24  2  0
 23 25  1  0
 26 65  1  0
 26 66  1  0
 27 28  1  0
 27 67  1  0
 28 29  1  0
 28 68  1  0
 28 69  1  0
 29 30  1  6
 30 70  1  0
 30 71  1  0
 30 72  1  0
 31 32  1  6
M  CHG  1  25  -1
M  END
>  <i_m_ct_stereo_status>  (98) 
1

>  <s_m_source_file>  (98) 
/var/tmp/pbs.5076255.sched01/tmpzk3r62u5/0tgg_cfwk.sdf

>  <i_m_source_file_index>  (98) 
42

>  <i_lp_mmshare_version>  (98) 
48012

>  <i_f3d_flags>  (98) 
0

>  <s_epik_input>  (98) 
W0NIM11bQ0BASF0xW0NAQEhdKFtPSF0pQyhbQ0gzXSkoW0NIM10pW0NAQEhdKFtDSDJdW0NIMl0yKVtDQEBdMShCcilDKD1bQ0hdW0NIMl0zKVtDQEhdMltDQEBdKFtDSDNdKShbQ0BdMzRbQ0gzXSlbQ0gyXVtDSF09QzRbQ0BASF0oW0NIMl01KVtDSDJdW0NIMl1bQ0BAXTUoW0NIM10pQyg9TylbT0hd

>  <s_epik_cmdline>  (98) 
J2VwaWtfcHl0aG9uJywgJy1waHQnLCAnMi4wJywgJy1waCcsICc3LjAnLCAnLXRuJywgJzgnLCAnLW1hJywgJzIwMCcsICctaW1hZScsICc8aW5maWxlLm1hZT4nLCAnLW9tYWUnLCAnPG91dGZpbGUubWFlPic=

>  <r_epik_Ionization_Penalty>  (98) 
0.00486404

>  <r_epik_Ionization_Penalty_Charging>  (98) 
0.00486385

>  <r_epik_Ionization_Penalty_Neutral>  (98) 
1.96309e-07

>  <r_epik_State_Penalty>  (98) 
0.00352923

>  <r_epik_Charging_Adjusted_Penalty>  (98) 
0.00839307

>  <i_epik_Tot_Q>  (98) 
-1

>  <i_epik_Tot_abs_Q>  (98) 
1

>  <s_lp_Force_Field>  (98) 
OPLS3e

>  <r_lp_Energy>  (98) 
65.7023

>  <b_lp_Chiralities_Consistent>  (98) 
1

>  <s_lp_Variant>  (98) 
24:0-1

>  <s_i_glide_gridfile>  (98) 
pfpi4k_grid

>  <i_i_glide_lignum>  (98) 
42

>  <i_i_glide_rotatable_bonds>  (98) 
3

>  <r_i_docking_score>  (98) 
-2.70943

>  <r_i_glide_ligand_efficiency>  (98) 
-0.0846697

>  <r_i_glide_ligand_efficiency_sa>  (98) 
-0.268809

>  <r_i_glide_ligand_efficiency_ln>  (98) 
-0.606715

>  <r_i_glide_gscore>  (98) 
-2.70943

>  <r_i_glide_lipo>  (98) 
-0.559993

>  <r_i_glide_hbond>  (98) 
-0.2

>  <r_i_glide_metal>  (98) 
-0

>  <r_i_glide_rewards>  (98) 
0

>  <r_i_glide_evdw>  (98) 
-30.8686

>  <r_i_glide_ecoul>  (98) 
-2.79063

>  <r_i_glide_erotb>  (98) 
0.08033

>  <r_i_glide_esite>  (98) 
-0.0677396

>  <r_i_glide_emodel>  (98) 
-40.2413

>  <r_i_glide_energy>  (98) 
-33.6593

>  <r_i_glide_einternal>  (98) 
0.606352

>  <r_i_glide_intrahb_reward>  (98) 
-0

>  <i_i_glide_confnum>  (98) 
1

>  <i_i_glide_posenum>  (98) 
34

>  <r_i_glide_eff_state_penalty>  (98) 
0

>  <ligand_id>  (98) 
24

>  <original_smiles>  (98) 
CC1C(O)C(C)(C)C2CCC3C(=CCC4(C)C(C5CCC(C)(C(=O)O)C5)=CCC34C)C12Br

>  <smiles>  (98) 
[H]OC1([H])C([H])(C([H])([H])[H])C2(Br)C3=C([H])C([H])([H])C4(C([H])([H])[H])C(C5([H])C([H])([H])C([H])([H])C(C(=O)[O-])(C([H])([H])[H])C5([H])[H])=C([H])C([H])([H])C4(C([H])([H])[H])C3([H])C([H])([H])C([H])([H])C2([H])C1(C([H])([H])[H])C([H])([H])[H]

$$$$
24:0:2
     RDKit          3D

 72 76  0  0  1  0  0  0  0  0999 V2000
    6.5653   -2.3305    0.3319 C   0  0  0  0  0  0  0  0  0  0  0  0
    5.8475   -3.3351    1.2559 C   0  0  2  0  0  0  0  0  0  0  0  0
    6.1116   -4.8082    0.9015 C   0  0  1  0  0  0  0  0  0  0  0  0
    7.4181   -5.1810    1.2959 O   0  0  0  0  0  0  0  0  0  0  0  0
    4.9765   -5.6429    1.5711 C   0  0  0  0  0  0  0  0  0  0  0  0
    4.3703   -6.6212    0.5396 C   0  0  0  0  0  0  0  0  0  0  0  0
    5.4893   -6.5347    2.7342 C   0  0  0  0  0  0  0  0  0  0  0  0
    3.9096   -4.5643    1.9959 C   0  0  1  0  0  0  0  0  0  0  0  0
    3.7586   -4.4044    3.5357 C   0  0  0  0  0  0  0  0  0  0  0  0
    2.9915   -3.1578    3.9656 C   0  0  0  0  0  0  0  0  0  0  0  0
    3.7227   -1.9219    3.4174 C   0  0  1  0  0  0  0  0  0  0  0  0
    3.7542   -1.9528    1.8793 C   0  0  0  0  0  0  0  0  0  0  0  0
    3.2628   -0.9164    1.1375 C   0  0  0  0  0  0  0  0  0  0  0  0
    2.5639    0.3253    1.6972 C   0  0  0  0  0  0  0  0  0  0  0  0
    2.0704    0.0463    3.1259 C   0  0  2  0  0  0  0  0  0  0  0  0
    0.8325   -0.8853    3.0233 C   0  0  0  0  0  0  0  0  0  0  0  0
    1.6530    1.2004    4.0280 C   0  0  0  0  0  0  0  0  0  0  0  0
    0.8855    2.4246    3.5282 C   0  0  2  0  0  0  0  0  0  0  0  0
    1.0048    3.6512    4.4512 C   0  0  0  0  0  0  0  0  0  0  0  0
   -0.3099    4.3948    4.2988 C   0  0  0  0  0  0  0  0  0  0  0  0
   -1.3703    3.2859    4.1069 C   0  0  1  0  0  0  0  0  0  0  0  0
   -1.8910    2.7946    5.4718 C   0  0  0  0  0  0  0  0  0  0  0  0
   -2.5688    3.7565    3.2545 C   0  0  0  0  0  0  0  0  0  0  0  0
   -2.5916    4.9442    2.8780 O   0  0  0  0  0  0  0  0  0  0  0  0
   -3.4945    2.9515    3.0373 O   0  0  0  0  0  0  0  0  0  0  0  0
   -0.6219    2.1406    3.3903 C   0  0  0  0  0  0  0  0  0  0  0  0
    2.0047    0.9137    5.2889 C   0  0  0  0  0  0  0  0  0  0  0  0
    2.7719   -0.3803    5.4070 C   0  0  0  0  0  0  0  0  0  0  0  0
    3.2652   -0.5372    3.9478 C   0  0  1  0  0  0  0  0  0  0  0  0
    4.5279    0.3852    3.8616 C   0  0  0  0  0  0  0  0  0  0  0  0
    4.3147   -3.2498    1.2624 C   0  0  1  0  0  0  0  0  0  0  0  0
    3.6398   -3.4201   -0.6204 Br  0  0  0  0  0  0  0  0  0  0  0  0
    6.3056   -2.4932   -0.7135 H   0  0  0  0  0  0  0  0  0  0  0  0
    7.6508   -2.4227    0.4167 H   0  0  0  0  0  0  0  0  0  0  0  0
    6.3027   -1.3032    0.5897 H   0  0  0  0  0  0  0  0  0  0  0  0
    6.1982   -3.1630    2.2757 H   0  0  0  0  0  0  0  0  0  0  0  0
    6.0563   -4.9199   -0.1845 H   0  0  0  0  0  0  0  0  0  0  0  0
    8.0371   -4.6554    0.8117 H   0  0  0  0  0  0  0  0  0  0  0  0
    3.5361   -7.1822    0.9643 H   0  0  0  0  0  0  0  0  0  0  0  0
    5.1087   -7.3490    0.2057 H   0  0  0  0  0  0  0  0  0  0  0  0
    4.0052   -6.1117   -0.3476 H   0  0  0  0  0  0  0  0  0  0  0  0
    4.6684   -7.0445    3.2391 H   0  0  0  0  0  0  0  0  0  0  0  0
    6.0578   -5.9829    3.4826 H   0  0  0  0  0  0  0  0  0  0  0  0
    6.1550   -7.3156    2.3671 H   0  0  0  0  0  0  0  0  0  0  0  0
    2.9245   -4.8582    1.6354 H   0  0  0  0  0  0  0  0  0  0  0  0
    3.2506   -5.2763    3.9428 H   0  0  0  0  0  0  0  0  0  0  0  0
    4.7351   -4.3591    4.0188 H   0  0  0  0  0  0  0  0  0  0  0  0
    1.9564   -3.2267    3.6430 H   0  0  0  0  0  0  0  0  0  0  0  0
    2.9674   -3.1302    5.0545 H   0  0  0  0  0  0  0  0  0  0  0  0
    4.7555   -2.0427    3.7517 H   0  0  0  0  0  0  0  0  0  0  0  0
    3.3012   -0.9355    0.0597 H   0  0  0  0  0  0  0  0  0  0  0  0
    3.2301    1.1841    1.6417 H   0  0  0  0  0  0  0  0  0  0  0  0
    1.7149    0.5533    1.0517 H   0  0  0  0  0  0  0  0  0  0  0  0
    0.9902   -1.7519    2.3794 H   0  0  0  0  0  0  0  0  0  0  0  0
   -0.0070   -0.3519    2.5732 H   0  0  0  0  0  0  0  0  0  0  0  0
    0.4973   -1.2333    4.0030 H   0  0  0  0  0  0  0  0  0  0  0  0
    1.2705    2.7060    2.5439 H   0  0  0  0  0  0  0  0  0  0  0  0
    1.0733    3.3817    5.5059 H   0  0  0  0  0  0  0  0  0  0  0  0
    1.8746    4.2654    4.2046 H   0  0  0  0  0  0  0  0  0  0  0  0
   -0.5065    5.0076    5.1782 H   0  0  0  0  0  0  0  0  0  0  0  0
   -0.2158    5.0617    3.4385 H   0  0  0  0  0  0  0  0  0  0  0  0
   -1.0829    2.4378    6.1048 H   0  0  0  0  0  0  0  0  0  0  0  0
   -2.5682    1.9546    5.3621 H   0  0  0  0  0  0  0  0  0  0  0  0
   -2.4147    3.5804    6.0079 H   0  0  0  0  0  0  0  0  0  0  0  0
   -0.8788    2.0354    2.3290 H   0  0  0  0  0  0  0  0  0  0  0  0
   -0.9020    1.1972    3.8647 H   0  0  0  0  0  0  0  0  0  0  0  0
    1.7879    1.4964    6.1655 H   0  0  0  0  0  0  0  0  0  0  0  0
    3.5786   -0.3088    6.1418 H   0  0  0  0  0  0  0  0  0  0  0  0
    2.0695   -1.1560    5.7173 H   0  0  0  0  0  0  0  0  0  0  0  0
    4.2976    1.4341    4.0516 H   0  0  0  0  0  0  0  0  0  0  0  0
    5.0091    0.3439    2.8820 H   0  0  0  0  0  0  0  0  0  0  0  0
    5.2835    0.0919    4.5947 H   0  0  0  0  0  0  0  0  0  0  0  0
  1  2  1  0
  1 33  1  0
  1 34  1  0
  1 35  1  0
  2 31  1  0
  2  3  1  0
  2 36  1  1
  3  4  1  0
  3  5  1  0
  3 37  1  6
  4 38  1  0
  5  6  1  0
  5  7  1  0
  5  8  1  0
  6 39  1  0
  6 40  1  0
  6 41  1  0
  7 42  1  0
  7 43  1  0
  7 44  1  0
  8 31  1  0
  8  9  1  0
  8 45  1  6
  9 10  1  0
  9 46  1  0
  9 47  1  0
 10 11  1  0
 10 48  1  0
 10 49  1  0
 11 29  1  0
 11 12  1  0
 11 50  1  1
 12 13  2  0
 12 31  1  0
 13 14  1  0
 13 51  1  0
 14 15  1  0
 14 52  1  0
 14 53  1  0
 15 29  1  0
 15 16  1  6
 15 17  1  0
 16 54  1  0
 16 55  1  0
 16 56  1  0
 17 18  1  0
 17 27  2  0
 18 26  1  0
 18 19  1  0
 18 57  1  6
 19 20  1  0
 19 58  1  0
 19 59  1  0
 20 21  1  0
 20 60  1  0
 20 61  1  0
 21 22  1  1
 21 23  1  0
 21 26  1  0
 22 62  1  0
 22 63  1  0
 22 64  1  0
 23 24  2  0
 23 25  1  0
 26 65  1  0
 26 66  1  0
 27 28  1  0
 27 67  1  0
 28 29  1  0
 28 68  1  0
 28 69  1  0
 29 30  1  1
 30 70  1  0
 30 71  1  0
 30 72  1  0
 31 32  1  6
M  CHG  1  25  -1
M  END
>  <i_m_ct_stereo_status>  (99) 
1

>  <s_m_source_file>  (99) 
/var/tmp/pbs.5076255.sched01/tmpzk3r62u5/0tgg_cfwk.sdf

>  <i_m_source_file_index>  (99) 
42

>  <i_lp_mmshare_version>  (99) 
48012

>  <i_f3d_flags>  (99) 
0

>  <s_epik_input>  (99) 
W0NIM11bQ0BASF0xW0NAQEhdKFtPSF0pQyhbQ0gzXSkoW0NIM10pW0NAQEhdKFtDSDJdW0NIMl0yKVtDQEBdMShCcilDKD1bQ0hdW0NIMl0zKVtDQEhdMltDQEBdKFtDSDNdKShbQ0BdMzRbQ0gzXSlbQ0gyXVtDSF09QzRbQ0BASF0oW0NIMl01KVtDSDJdW0NIMl1bQ0BAXTUoW0NIM10pQyg9TylbT0hd

>  <s_epik_cmdline>  (99) 
J2VwaWtfcHl0aG9uJywgJy1waHQnLCAnMi4wJywgJy1waCcsICc3LjAnLCAnLXRuJywgJzgnLCAnLW1hJywgJzIwMCcsICctaW1hZScsICc8aW5maWxlLm1hZT4nLCAnLW9tYWUnLCAnPG91dGZpbGUubWFlPic=

>  <r_epik_Ionization_Penalty>  (99) 
0.00486404

>  <r_epik_Ionization_Penalty_Charging>  (99) 
0.00486385

>  <r_epik_Ionization_Penalty_Neutral>  (99) 
1.96309e-07

>  <r_epik_State_Penalty>  (99) 
0.00352923

>  <r_epik_Charging_Adjusted_Penalty>  (99) 
0.00839307

>  <i_epik_Tot_Q>  (99) 
-1

>  <i_epik_Tot_abs_Q>  (99) 
1

>  <s_lp_Force_Field>  (99) 
OPLS3e

>  <r_lp_Energy>  (99) 
65.7023

>  <b_lp_Chiralities_Consistent>  (99) 
1

>  <s_lp_Variant>  (99) 
24:0-1

>  <s_i_glide_gridfile>  (99) 
pfpi4k_grid

>  <i_i_glide_lignum>  (99) 
42

>  <i_i_glide_rotatable_bonds>  (99) 
3

>  <r_i_docking_score>  (99) 
-2.51579

>  <r_i_glide_ligand_efficiency>  (99) 
-0.0786183

>  <r_i_glide_ligand_efficiency_sa>  (99) 
-0.249598

>  <r_i_glide_ligand_efficiency_ln>  (99) 
-0.563353

>  <r_i_glide_gscore>  (99) 
-2.51579

>  <r_i_glide_lipo>  (99) 
-0.58169

>  <r_i_glide_hbond>  (99) 
-0.2

>  <r_i_glide_metal>  (99) 
-0

>  <r_i_glide_rewards>  (99) 
0

>  <r_i_glide_evdw>  (99) 
-31.7477

>  <r_i_glide_ecoul>  (99) 
-1.05336

>  <r_i_glide_erotb>  (99) 
0.08033

>  <r_i_glide_esite>  (99) 
-0.0690401

>  <r_i_glide_emodel>  (99) 
-38.7741

>  <r_i_glide_energy>  (99) 
-32.801

>  <r_i_glide_einternal>  (99) 
0.729643

>  <r_i_glide_intrahb_reward>  (99) 
-0

>  <i_i_glide_confnum>  (99) 
1

>  <i_i_glide_posenum>  (99) 
10

>  <r_i_glide_eff_state_penalty>  (99) 
0

>  <ligand_id>  (99) 
24

>  <original_smiles>  (99) 
CC1C(O)C(C)(C)C2CCC3C(=CCC4(C)C(C5CCC(C)(C(=O)O)C5)=CCC34C)C12Br

>  <smiles>  (99) 
[H]OC1([H])C([H])(C([H])([H])[H])C2(Br)C3=C([H])C([H])([H])C4(C([H])([H])[H])C(C5([H])C([H])([H])C([H])([H])C(C(=O)[O-])(C([H])([H])[H])C5([H])[H])=C([H])C([H])([H])C4(C([H])([H])[H])C3([H])C([H])([H])C([H])([H])C2([H])C1(C([H])([H])[H])C([H])([H])[H]

$$$$
25:0:0
     RDKit          3D

 69 75  0  0  1  0  0  0  0  0999 V2000
   -0.1929   -9.6383    3.4073 C   0  0  0  0  0  0  0  0  0  0  0  0
    0.9684   -8.8623    2.8164 C   0  0  0  0  0  0  0  0  0  0  0  0
    0.9634   -7.4972    2.9002 C   0  0  0  0  0  0  0  0  0  0  0  0
    1.9085   -6.5868    2.1296 C   0  0  1  0  0  0  0  0  0  0  0  0
    2.5476   -5.2282    2.5326 C   0  0  1  0  0  0  0  0  0  0  0  0
    3.5747   -5.1660    3.7061 C   0  0  0  0  0  0  0  0  0  0  0  0
    4.9709   -5.8782    3.6320 C   0  0  0  0  0  0  0  0  0  0  0  0
    6.1331   -5.2949    4.1791 C   0  0  0  0  0  0  0  0  0  0  0  0
    7.1360   -6.1052    4.7558 C   0  0  0  0  0  0  0  0  0  0  0  0
    6.8523   -7.4595    4.9706 C   0  0  0  0  0  0  0  0  0  0  0  0
    7.6557   -8.2083    5.7824 O   0  0  0  0  0  0  0  0  0  0  0  0
    5.6640   -7.9973    4.4418 C   0  0  0  0  0  0  0  0  0  0  0  0
    4.9733   -7.3052    3.4864 C   0  0  0  0  0  0  0  0  0  0  0  0
    3.7542   -8.1235    3.0657 C   0  0  2  0  0  0  0  0  0  0  0  0
    3.4120   -8.3186    4.6407 C   0  0  1  0  0  0  0  0  0  0  0  0
    2.6747   -9.5411    5.1467 C   0  0  0  0  0  0  0  0  0  0  0  0
    3.0079  -10.7398    4.6596 C   0  0  0  0  0  0  0  0  0  0  0  0
    3.9450  -10.8021    3.4782 C   0  0  1  0  0  0  0  0  0  0  0  0
    3.8139  -12.0808    2.8798 O   0  0  0  0  0  0  0  0  0  0  0  0
    3.5917   -9.6241    2.5058 C   0  0  2  0  0  0  0  0  0  0  0  0
    4.4184   -9.8512    1.3603 O   0  0  0  0  0  0  0  0  0  0  0  0
    2.0346   -9.7748    2.1100 C   0  0  0  0  0  0  0  0  0  0  0  0
    4.7271   -8.6142    5.1960 O   0  0  0  0  0  0  0  0  0  0  0  0
    3.1464   -7.3006    1.8082 C   0  0  2  0  0  0  0  0  0  0  0  0
    3.9573   -6.2571    0.9945 C   0  0  0  0  0  0  0  0  0  0  0  0
    3.3721   -4.9248    1.3316 N   0  0  1  0  0  0  0  0  0  0  0  0
    2.6612   -4.2583    0.1912 C   0  0  0  0  0  0  0  0  0  0  0  0
    3.5868   -3.3735   -0.6752 C   0  0  0  0  0  0  0  0  0  0  0  0
    2.8829   -2.9393   -1.9900 C   0  0  0  0  0  0  0  0  0  0  0  0
    3.7934   -2.1020   -2.8854 C   0  0  0  0  0  0  0  0  0  0  0  0
    5.0583   -2.8852   -3.1791 C   0  0  0  0  0  0  0  0  0  0  0  0
    5.8085   -3.2495   -1.9117 C   0  0  0  0  0  0  0  0  0  0  0  0
    4.9122   -4.0841   -1.0170 C   0  0  0  0  0  0  0  0  0  0  0  0
    0.1394  -10.3698    4.1415 H   0  0  0  0  0  0  0  0  0  0  0  0
   -0.7400  -10.1726    2.6296 H   0  0  0  0  0  0  0  0  0  0  0  0
   -0.9004   -8.9776    3.9022 H   0  0  0  0  0  0  0  0  0  0  0  0
    0.1542   -6.9971    3.4143 H   0  0  0  0  0  0  0  0  0  0  0  0
    1.3425   -6.4058    1.2143 H   0  0  0  0  0  0  0  0  0  0  0  0
    1.7739   -4.4713    2.6960 H   0  0  0  0  0  0  0  0  0  0  0  0
    3.8209   -4.1118    3.8079 H   0  0  0  0  0  0  0  0  0  0  0  0
    3.0803   -5.3769    4.6507 H   0  0  0  0  0  0  0  0  0  0  0  0
    6.1975   -4.2279    4.3274 H   0  0  0  0  0  0  0  0  0  0  0  0
    8.0090   -5.6609    5.2006 H   0  0  0  0  0  0  0  0  0  0  0  0
    7.4238   -9.1243    5.7720 H   0  0  0  0  0  0  0  0  0  0  0  0
    2.9859   -7.4362    5.1148 H   0  0  0  0  0  0  0  0  0  0  0  0
    1.9859   -9.4247    5.9721 H   0  0  0  0  0  0  0  0  0  0  0  0
    2.5716  -11.6577    5.0333 H   0  0  0  0  0  0  0  0  0  0  0  0
    4.9736  -10.7106    3.8268 H   0  0  0  0  0  0  0  0  0  0  0  0
    3.8265  -12.0211    1.9159 H   0  0  0  0  0  0  0  0  0  0  0  0
    4.2418  -10.7252    0.9871 H   0  0  0  0  0  0  0  0  0  0  0  0
    1.7171  -10.7905    2.3075 H   0  0  0  0  0  0  0  0  0  0  0  0
    1.8831   -9.7078    1.0346 H   0  0  0  0  0  0  0  0  0  0  0  0
    2.9122   -7.9358    0.9604 H   0  0  0  0  0  0  0  0  0  0  0  0
    5.0366   -6.2946    1.1384 H   0  0  0  0  0  0  0  0  0  0  0  0
    3.8311   -6.4699   -0.0603 H   0  0  0  0  0  0  0  0  0  0  0  0
    2.1610   -5.0085   -0.4248 H   0  0  0  0  0  0  0  0  0  0  0  0
    1.8676   -3.6271    0.5911 H   0  0  0  0  0  0  0  0  0  0  0  0
    3.8244   -2.4727   -0.1029 H   0  0  0  0  0  0  0  0  0  0  0  0
    2.5347   -3.8132   -2.5406 H   0  0  0  0  0  0  0  0  0  0  0  0
    1.9968   -2.3492   -1.8047 H   0  0  0  0  0  0  0  0  0  0  0  0
    3.2833   -1.8526   -3.8125 H   0  0  0  0  0  0  0  0  0  0  0  0
    4.0366   -1.1516   -2.4108 H   0  0  0  0  0  0  0  0  0  0  0  0
    4.8436   -3.7668   -3.7811 H   0  0  0  0  0  0  0  0  0  0  0  0
    5.7095   -2.2651   -3.7644 H   0  0  0  0  0  0  0  0  0  0  0  0
    6.6967   -3.8288   -2.1635 H   0  0  0  0  0  0  0  0  0  0  0  0
    6.1463   -2.3629   -1.3783 H   0  0  0  0  0  0  0  0  0  0  0  0
    5.4895   -4.3140   -0.1228 H   0  0  0  0  0  0  0  0  0  0  0  0
    4.6852   -5.0144   -1.5384 H   0  0  0  0  0  0  0  0  0  0  0  0
    4.1156   -4.3063    1.6229 H   0  0  0  0  0  0  0  0  0  0  0  0
  1  2  1  0
  1 34  1  0
  1 35  1  0
  1 36  1  0
  2 22  1  0
  2  3  2  0
  3  4  1  0
  3 37  1  0
  4 24  1  0
  4  5  1  0
  4 38  1  6
  5 26  1  0
  5  6  1  0
  5 39  1  1
  6  7  1  0
  6 40  1  0
  6 41  1  0
  7 13  2  0
  7  8  1  0
  8  9  2  0
  8 42  1  0
  9 10  1  0
  9 43  1  0
 10 11  1  0
 10 12  2  0
 11 44  1  0
 12 23  1  0
 12 13  1  0
 14 13  1  1
 14 20  1  0
 14 15  1  0
 14 24  1  0
 15 16  1  0
 15 23  1  0
 15 45  1  1
 16 17  2  0
 16 46  1  0
 17 18  1  0
 17 47  1  0
 18 19  1  0
 18 20  1  0
 18 48  1  1
 19 49  1  0
 20 21  1  6
 20 22  1  0
 21 50  1  0
 22 51  1  0
 22 52  1  0
 24 25  1  0
 24 53  1  6
 25 26  1  0
 25 54  1  0
 25 55  1  0
 26 27  1  0
 26 69  1  1
 27 28  1  0
 27 56  1  0
 27 57  1  0
 28 33  1  0
 28 29  1  0
 28 58  1  0
 29 30  1  0
 29 59  1  0
 29 60  1  0
 30 31  1  0
 30 61  1  0
 30 62  1  0
 31 32  1  0
 31 63  1  0
 31 64  1  0
 32 33  1  0
 32 65  1  0
 32 66  1  0
 33 67  1  0
 33 68  1  0
M  CHG  1  26   1
M  END
>  <i_m_ct_stereo_status>  (100) 
1

>  <s_m_source_file>  (100) 
/var/tmp/pbs.5076255.sched01/tmpzk3r62u5/0tgg_cfwk.sdf

>  <i_m_source_file_index>  (100) 
43

>  <i_lp_mmshare_version>  (100) 
48012

>  <i_f3d_flags>  (100) 
0

>  <s_epik_input>  (100) 
W0NIMl0xW0NIMl1bQ0gyXVtDSDJdW0NIMl1bQ0hdMVtDSDJdTihbQ0gyXVtDQEhdMjMpW0NASF0oW0NIMl00KVtDQEBIXTJbQ0hdPUMoW0NIM10pW0NIMl1bQ0BdNShbT0hdKVtDQEhdKFtPSF0pW0NIXT1bQ0hdW0NASF02T2M3YyhbT0hdKVtjSF1bY0hdYzRjN1tDQEBdMzU2

>  <s_epik_cmdline>  (100) 
J2VwaWtfcHl0aG9uJywgJy1waHQnLCAnMi4wJywgJy1waCcsICc3LjAnLCAnLXRuJywgJzgnLCAnLW1hJywgJzIwMCcsICctaW1hZScsICc8aW5maWxlLm1hZT4nLCAnLW9tYWUnLCAnPG91dGZpbGUubWFlPic=

>  <r_lp_tautomer_probability>  (100) 
1

>  <r_epik_Ionization_Penalty>  (100) 
0.0100735

>  <r_epik_Ionization_Penalty_Charging>  (100) 
0.00133974

>  <r_epik_Ionization_Penalty_Neutral>  (100) 
0.00873379

>  <r_epik_State_Penalty>  (100) 
0.00659513

>  <r_epik_Charging_Adjusted_Penalty>  (100) 
0.00793487

>  <i_epik_Tot_Q>  (100) 
1

>  <i_epik_Tot_abs_Q>  (100) 
1

>  <s_lp_Force_Field>  (100) 
OPLS3e

>  <r_lp_Energy>  (100) 
200.816

>  <b_lp_Chiralities_Consistent>  (100) 
1

>  <s_lp_Variant>  (100) 
25:0-1

>  <s_i_glide_gridfile>  (100) 
pfpi4k_grid

>  <i_i_glide_lignum>  (100) 
43

>  <i_i_glide_rotatable_bonds>  (100) 
5

>  <r_i_docking_score>  (100) 
-3.91375

>  <r_i_glide_ligand_efficiency>  (100) 
-0.118599

>  <r_i_glide_ligand_efficiency_sa>  (100) 
-0.380409

>  <r_i_glide_ligand_efficiency_ln>  (100) 
-0.870398

>  <r_i_glide_gscore>  (100) 
-3.91375

>  <r_i_glide_lipo>  (100) 
-0.629608

>  <r_i_glide_hbond>  (100) 
0

>  <r_i_glide_metal>  (100) 
-0

>  <r_i_glide_rewards>  (100) 
-0.336888

>  <r_i_glide_evdw>  (100) 
-23.4419

>  <r_i_glide_ecoul>  (100) 
-13.1511

>  <r_i_glide_erotb>  (100) 
0.197509

>  <r_i_glide_esite>  (100) 
0

>  <r_i_glide_emodel>  (100) 
-46.4184

>  <r_i_glide_energy>  (100) 
-36.5931

>  <r_i_glide_einternal>  (100) 
3.64912

>  <r_i_glide_intrahb_reward>  (100) 
-0

>  <i_i_glide_confnum>  (100) 
2

>  <i_i_glide_posenum>  (100) 
10

>  <r_i_glide_eff_state_penalty>  (100) 
0

>  <ligand_id>  (100) 
25

>  <original_smiles>  (100) 
CC1=CC2C3Cc4ccc(O)c5c4C4(C(C=CC(O)C4(O)C1)O5)C2CN3CC1CCCCC1

>  <smiles>  (100) 
[H]Oc1c([H])c([H])c2c3c1OC1([H])C([H])=C([H])C([H])(O[H])C4(O[H])C([H])([H])C(C([H])([H])[H])=C([H])C5([H])C([H])(C314)C([H])([H])[N+]([H])(C([H])([H])C1([H])C([H])([H])C([H])([H])C([H])([H])C([H])([H])C1([H])[H])C5([H])C2([H])[H]

$$$$
25:0:1
     RDKit          3D

 69 75  0  0  1  0  0  0  0  0999 V2000
    0.2024   -5.6975    6.2226 C   0  0  0  0  0  0  0  0  0  0  0  0
    0.9621   -5.7540    4.9099 C   0  0  0  0  0  0  0  0  0  0  0  0
    2.1492   -5.0752    4.8052 C   0  0  0  0  0  0  0  0  0  0  0  0
    2.8934   -4.8184    3.5036 C   0  0  1  0  0  0  0  0  0  0  0  0
    4.4222   -4.7125    3.1845 C   0  0  1  0  0  0  0  0  0  0  0  0
    5.3267   -5.9760    3.3309 C   0  0  0  0  0  0  0  0  0  0  0  0
    5.1383   -7.2446    2.4130 C   0  0  0  0  0  0  0  0  0  0  0  0
    6.2496   -7.9944    1.9442 C   0  0  0  0  0  0  0  0  0  0  0  0
    6.1395   -9.3837    1.7950 C   0  0  0  0  0  0  0  0  0  0  0  0
    5.0192  -10.0261    2.3467 C   0  0  0  0  0  0  0  0  0  0  0  0
    5.0444  -11.3756    2.5212 O   0  0  0  0  0  0  0  0  0  0  0  0
    3.9298   -9.2544    2.8112 C   0  0  0  0  0  0  0  0  0  0  0  0
    3.8866   -7.9327    2.4947 C   0  0  0  0  0  0  0  0  0  0  0  0
    2.6181   -7.3452    3.1199 C   0  0  2  0  0  0  0  0  0  0  0  0
    3.0274   -8.0421    4.5108 C   0  0  1  0  0  0  0  0  0  0  0  0
    1.9859   -8.4737    5.5196 C   0  0  0  0  0  0  0  0  0  0  0  0
    0.8720   -9.0796    5.0956 C   0  0  0  0  0  0  0  0  0  0  0  0
    0.6038   -9.1161    3.6106 C   0  0  1  0  0  0  0  0  0  0  0  0
   -0.7735   -9.3732    3.3902 O   0  0  0  0  0  0  0  0  0  0  0  0
    1.0624   -7.7339    3.0137 C   0  0  2  0  0  0  0  0  0  0  0  0
    0.6505   -7.7533    1.6524 O   0  0  0  0  0  0  0  0  0  0  0  0
    0.2308   -6.5824    3.7882 C   0  0  0  0  0  0  0  0  0  0  0  0
    3.4423   -9.3662    4.0626 O   0  0  0  0  0  0  0  0  0  0  0  0
    2.5632   -5.8532    2.5392 C   0  0  2  0  0  0  0  0  0  0  0  0
    3.3166   -5.4032    1.2707 C   0  0  0  0  0  0  0  0  0  0  0  0
    4.3974   -4.4785    1.7150 N   0  0  1  0  0  0  0  0  0  0  0  0
    4.2135   -3.0493    1.2846 C   0  0  0  0  0  0  0  0  0  0  0  0
    4.3638   -2.8064   -0.2477 C   0  0  0  0  0  0  0  0  0  0  0  0
    4.6777   -1.3209   -0.5721 C   0  0  0  0  0  0  0  0  0  0  0  0
    4.7448   -1.0703   -2.0967 C   0  0  0  0  0  0  0  0  0  0  0  0
    3.4584   -1.4991   -2.8217 C   0  0  0  0  0  0  0  0  0  0  0  0
    3.1565   -2.9553   -2.5214 C   0  0  0  0  0  0  0  0  0  0  0  0
    3.0925   -3.2032   -1.0328 C   0  0  0  0  0  0  0  0  0  0  0  0
    0.0334   -6.6961    6.6216 H   0  0  0  0  0  0  0  0  0  0  0  0
   -0.7666   -5.2082    6.1054 H   0  0  0  0  0  0  0  0  0  0  0  0
    0.7594   -5.1369    6.9709 H   0  0  0  0  0  0  0  0  0  0  0  0
    2.5227   -4.5304    5.6525 H   0  0  0  0  0  0  0  0  0  0  0  0
    2.4535   -3.8658    3.2026 H   0  0  0  0  0  0  0  0  0  0  0  0
    4.8737   -3.8633    3.7139 H   0  0  0  0  0  0  0  0  0  0  0  0
    6.3321   -5.6310    3.1045 H   0  0  0  0  0  0  0  0  0  0  0  0
    5.4201   -6.2433    4.3817 H   0  0  0  0  0  0  0  0  0  0  0  0
    7.2262   -7.5338    1.8688 H   0  0  0  0  0  0  0  0  0  0  0  0
    6.9926   -9.9649    1.4672 H   0  0  0  0  0  0  0  0  0  0  0  0
    4.6332  -11.8369    1.7915 H   0  0  0  0  0  0  0  0  0  0  0  0
    3.8379   -7.5327    5.0207 H   0  0  0  0  0  0  0  0  0  0  0  0
    2.2334   -8.3886    6.5641 H   0  0  0  0  0  0  0  0  0  0  0  0
    0.1365   -9.4660    5.7842 H   0  0  0  0  0  0  0  0  0  0  0  0
    1.1598   -9.9410    3.1657 H   0  0  0  0  0  0  0  0  0  0  0  0
   -1.0894  -10.0169    4.0245 H   0  0  0  0  0  0  0  0  0  0  0  0
    0.5861   -8.6584    1.3631 H   0  0  0  0  0  0  0  0  0  0  0  0
   -0.6759   -6.9999    4.2182 H   0  0  0  0  0  0  0  0  0  0  0  0
   -0.2055   -5.8713    3.0900 H   0  0  0  0  0  0  0  0  0  0  0  0
    1.5688   -5.5922    2.1988 H   0  0  0  0  0  0  0  0  0  0  0  0
    3.6763   -6.1764    0.5939 H   0  0  0  0  0  0  0  0  0  0  0  0
    2.5441   -4.8715    0.7422 H   0  0  0  0  0  0  0  0  0  0  0  0
    3.2525   -2.6438    1.6124 H   0  0  0  0  0  0  0  0  0  0  0  0
    4.9577   -2.4461    1.8099 H   0  0  0  0  0  0  0  0  0  0  0  0
    5.2072   -3.3916   -0.6170 H   0  0  0  0  0  0  0  0  0  0  0  0
    3.9096   -0.6680   -0.1522 H   0  0  0  0  0  0  0  0  0  0  0  0
    5.6233   -1.0063   -0.1231 H   0  0  0  0  0  0  0  0  0  0  0  0
    4.9180   -0.0184   -2.3145 H   0  0  0  0  0  0  0  0  0  0  0  0
    5.5840   -1.6246   -2.5146 H   0  0  0  0  0  0  0  0  0  0  0  0
    2.6147   -0.8932   -2.4829 H   0  0  0  0  0  0  0  0  0  0  0  0
    3.5431   -1.3789   -3.9070 H   0  0  0  0  0  0  0  0  0  0  0  0
    2.2040   -3.2681   -2.9553 H   0  0  0  0  0  0  0  0  0  0  0  0
    3.9174   -3.6195   -2.9344 H   0  0  0  0  0  0  0  0  0  0  0  0
    2.9458   -4.2726   -1.0758 H   0  0  0  0  0  0  0  0  0  0  0  0
    2.2188   -2.7172   -0.5903 H   0  0  0  0  0  0  0  0  0  0  0  0
    5.2771   -4.7813    1.3208 H   0  0  0  0  0  0  0  0  0  0  0  0
  1  2  1  0
  1 34  1  0
  1 35  1  0
  1 36  1  0
  2 22  1  0
  2  3  2  0
  3  4  1  0
  3 37  1  0
  4 24  1  0
  4  5  1  0
  4 38  1  6
  5 26  1  0
  5  6  1  0
  5 39  1  1
  6  7  1  0
  6 40  1  0
  6 41  1  0
  7 13  2  0
  7  8  1  0
  8  9  2  0
  8 42  1  0
  9 10  1  0
  9 43  1  0
 10 11  1  0
 10 12  2  0
 11 44  1  0
 12 23  1  0
 12 13  1  0
 14 13  1  6
 14 20  1  0
 14 15  1  0
 14 24  1  0
 15 16  1  0
 15 23  1  0
 15 45  1  1
 16 17  2  0
 16 46  1  0
 17 18  1  0
 17 47  1  0
 18 19  1  0
 18 20  1  0
 18 48  1  6
 19 49  1  0
 20 21  1  6
 20 22  1  0
 21 50  1  0
 22 51  1  0
 22 52  1  0
 24 25  1  0
 24 53  1  6
 25 26  1  0
 25 54  1  0
 25 55  1  0
 26 27  1  0
 26 69  1  6
 27 28  1  0
 27 56  1  0
 27 57  1  0
 28 33  1  0
 28 29  1  0
 28 58  1  0
 29 30  1  0
 29 59  1  0
 29 60  1  0
 30 31  1  0
 30 61  1  0
 30 62  1  0
 31 32  1  0
 31 63  1  0
 31 64  1  0
 32 33  1  0
 32 65  1  0
 32 66  1  0
 33 67  1  0
 33 68  1  0
M  CHG  1  26   1
M  END
>  <i_m_ct_stereo_status>  (101) 
1

>  <s_m_source_file>  (101) 
/var/tmp/pbs.5076255.sched01/tmpzk3r62u5/0tgg_cfwk.sdf

>  <i_m_source_file_index>  (101) 
43

>  <i_lp_mmshare_version>  (101) 
48012

>  <i_f3d_flags>  (101) 
0

>  <s_epik_input>  (101) 
W0NIMl0xW0NIMl1bQ0gyXVtDSDJdW0NIMl1bQ0hdMVtDSDJdTihbQ0gyXVtDQEhdMjMpW0NASF0oW0NIMl00KVtDQEBIXTJbQ0hdPUMoW0NIM10pW0NIMl1bQ0BdNShbT0hdKVtDQEhdKFtPSF0pW0NIXT1bQ0hdW0NASF02T2M3YyhbT0hdKVtjSF1bY0hdYzRjN1tDQEBdMzU2

>  <s_epik_cmdline>  (101) 
J2VwaWtfcHl0aG9uJywgJy1waHQnLCAnMi4wJywgJy1waCcsICc3LjAnLCAnLXRuJywgJzgnLCAnLW1hJywgJzIwMCcsICctaW1hZScsICc8aW5maWxlLm1hZT4nLCAnLW9tYWUnLCAnPG91dGZpbGUubWFlPic=

>  <r_lp_tautomer_probability>  (101) 
1

>  <r_epik_Ionization_Penalty>  (101) 
0.0100735

>  <r_epik_Ionization_Penalty_Charging>  (101) 
0.00133974

>  <r_epik_Ionization_Penalty_Neutral>  (101) 
0.00873379

>  <r_epik_State_Penalty>  (101) 
0.00659513

>  <r_epik_Charging_Adjusted_Penalty>  (101) 
0.00793487

>  <i_epik_Tot_Q>  (101) 
1

>  <i_epik_Tot_abs_Q>  (101) 
1

>  <s_lp_Force_Field>  (101) 
OPLS3e

>  <r_lp_Energy>  (101) 
200.816

>  <b_lp_Chiralities_Consistent>  (101) 
1

>  <s_lp_Variant>  (101) 
25:0-1

>  <s_i_glide_gridfile>  (101) 
pfpi4k_grid

>  <i_i_glide_lignum>  (101) 
43

>  <i_i_glide_rotatable_bonds>  (101) 
5

>  <r_i_docking_score>  (101) 
-3.61413

>  <r_i_glide_ligand_efficiency>  (101) 
-0.109519

>  <r_i_glide_ligand_efficiency_sa>  (101) 
-0.351286

>  <r_i_glide_ligand_efficiency_ln>  (101) 
-0.803763

>  <r_i_glide_gscore>  (101) 
-3.61413

>  <r_i_glide_lipo>  (101) 
-0.184799

>  <r_i_glide_hbond>  (101) 
0

>  <r_i_glide_metal>  (101) 
-0

>  <r_i_glide_rewards>  (101) 
-0.336888

>  <r_i_glide_evdw>  (101) 
-31.043

>  <r_i_glide_ecoul>  (101) 
-11.5853

>  <r_i_glide_erotb>  (101) 
0.197509

>  <r_i_glide_esite>  (101) 
0

>  <r_i_glide_emodel>  (101) 
-49.2967

>  <r_i_glide_energy>  (101) 
-42.6283

>  <r_i_glide_einternal>  (101) 
5.70737

>  <r_i_glide_intrahb_reward>  (101) 
-0

>  <i_i_glide_confnum>  (101) 
2

>  <i_i_glide_posenum>  (101) 
34

>  <r_i_glide_eff_state_penalty>  (101) 
0

>  <ligand_id>  (101) 
25

>  <original_smiles>  (101) 
CC1=CC2C3Cc4ccc(O)c5c4C4(C(C=CC(O)C4(O)C1)O5)C2CN3CC1CCCCC1

>  <smiles>  (101) 
[H]Oc1c([H])c([H])c2c3c1OC1([H])C([H])=C([H])C([H])(O[H])C4(O[H])C([H])([H])C(C([H])([H])[H])=C([H])C5([H])C([H])(C314)C([H])([H])[N+]([H])(C([H])([H])C1([H])C([H])([H])C([H])([H])C([H])([H])C([H])([H])C1([H])[H])C5([H])C2([H])[H]

$$$$
25:0:2
     RDKit          3D

 69 75  0  0  1  0  0  0  0  0999 V2000
    0.9273   -4.7002    6.8873 C   0  0  0  0  0  0  0  0  0  0  0  0
    1.3972   -4.8839    5.4583 C   0  0  0  0  0  0  0  0  0  0  0  0
    2.6214   -4.3877    5.0837 C   0  0  0  0  0  0  0  0  0  0  0  0
    3.0945   -4.2617    3.6430 C   0  0  1  0  0  0  0  0  0  0  0  0
    4.5087   -4.4028    3.0120 C   0  0  1  0  0  0  0  0  0  0  0  0
    5.2235   -5.7927    3.0455 C   0  0  0  0  0  0  0  0  0  0  0  0
    4.6813   -7.0147    2.2288 C   0  0  0  0  0  0  0  0  0  0  0  0
    5.5344   -7.9370    1.5722 C   0  0  0  0  0  0  0  0  0  0  0  0
    5.1863   -9.2992    1.4993 C   0  0  0  0  0  0  0  0  0  0  0  0
    4.1207   -9.7500    2.2961 C   0  0  0  0  0  0  0  0  0  0  0  0
    3.9400  -11.0686    2.5237 O   0  0  0  0  0  0  0  0  0  0  0  0
    3.3098   -8.8150    2.9555 C   0  0  0  0  0  0  0  0  0  0  0  0
    3.3756   -7.5032    2.5913 C   0  0  0  0  0  0  0  0  0  0  0  0
    2.3794   -6.7173    3.4406 C   0  0  2  0  0  0  0  0  0  0  0  0
    2.9498   -7.4716    4.7554 C   0  0  1  0  0  0  0  0  0  0  0  0
    2.0790   -7.7229    5.9671 C   0  0  0  0  0  0  0  0  0  0  0  0
    0.8250   -8.1502    5.7917 C   0  0  0  0  0  0  0  0  0  0  0  0
    0.2673   -8.1662    4.3838 C   0  0  1  0  0  0  0  0  0  0  0  0
   -1.1518   -8.2490    4.4450 O   0  0  0  0  0  0  0  0  0  0  0  0
    0.7902   -6.8699    3.6543 C   0  0  2  0  0  0  0  0  0  0  0  0
    0.1253   -6.8318    2.3885 O   0  0  0  0  0  0  0  0  0  0  0  0
    0.3311   -5.5967    4.5424 C   0  0  0  0  0  0  0  0  0  0  0  0
    3.0644   -8.8430    4.2814 O   0  0  0  0  0  0  0  0  0  0  0  0
    2.4192   -5.2395    2.8007 C   0  0  2  0  0  0  0  0  0  0  0  0
    2.9526   -4.9264    1.3813 C   0  0  0  0  0  0  0  0  0  0  0  0
    4.2227   -4.1882    1.5754 N   0  0  1  0  0  0  0  0  0  0  0  0
    4.1976   -2.7642    1.1318 C   0  0  0  0  0  0  0  0  0  0  0  0
    4.3467   -2.5764   -0.4095 C   0  0  0  0  0  0  0  0  0  0  0  0
    4.4946   -1.0835   -0.7888 C   0  0  0  0  0  0  0  0  0  0  0  0
    4.5375   -0.8801   -2.3213 C   0  0  0  0  0  0  0  0  0  0  0  0
    3.3240   -1.4769   -3.0323 C   0  0  0  0  0  0  0  0  0  0  0  0
    3.1980   -2.9546   -2.6907 C   0  0  0  0  0  0  0  0  0  0  0  0
    3.1445   -3.1695   -1.1873 C   0  0  0  0  0  0  0  0  0  0  0  0
    0.6818   -5.6543    7.3495 H   0  0  0  0  0  0  0  0  0  0  0  0
    0.0410   -4.0669    6.9172 H   0  0  0  0  0  0  0  0  0  0  0  0
    1.7018   -4.2192    7.4852 H   0  0  0  0  0  0  0  0  0  0  0  0
    3.2568   -3.9061    5.8149 H   0  0  0  0  0  0  0  0  0  0  0  0
    2.7458   -3.2602    3.3938 H   0  0  0  0  0  0  0  0  0  0  0  0
    5.1893   -3.6576    3.4278 H   0  0  0  0  0  0  0  0  0  0  0  0
    6.2120   -5.6212    2.6076 H   0  0  0  0  0  0  0  0  0  0  0  0
    5.4544   -6.0921    4.0653 H   0  0  0  0  0  0  0  0  0  0  0  0
    6.5418   -7.6578    1.2897 H   0  0  0  0  0  0  0  0  0  0  0  0
    5.8526  -10.0257    1.0560 H   0  0  0  0  0  0  0  0  0  0  0  0
    4.1296  -11.5943    1.7408 H   0  0  0  0  0  0  0  0  0  0  0  0
    3.9154   -7.0981    5.0810 H   0  0  0  0  0  0  0  0  0  0  0  0
    2.5428   -7.6554    6.9399 H   0  0  0  0  0  0  0  0  0  0  0  0
    0.1805   -8.4185    6.6129 H   0  0  0  0  0  0  0  0  0  0  0  0
    0.5999   -9.0679    3.8688 H   0  0  0  0  0  0  0  0  0  0  0  0
   -1.3898   -9.1393    4.6792 H   0  0  0  0  0  0  0  0  0  0  0  0
    0.2582   -7.6710    1.9719 H   0  0  0  0  0  0  0  0  0  0  0  0
   -0.5111   -5.8816    5.1702 H   0  0  0  0  0  0  0  0  0  0  0  0
   -0.1284   -4.8195    3.9404 H   0  0  0  0  0  0  0  0  0  0  0  0
    1.4333   -4.8318    2.6421 H   0  0  0  0  0  0  0  0  0  0  0  0
    3.0529   -5.7888    0.7196 H   0  0  0  0  0  0  0  0  0  0  0  0
    2.2130   -4.2904    0.9082 H   0  0  0  0  0  0  0  0  0  0  0  0
    3.2967   -2.2632    1.4848 H   0  0  0  0  0  0  0  0  0  0  0  0
    5.0282   -2.2510    1.6186 H   0  0  0  0  0  0  0  0  0  0  0  0
    5.2540   -3.0887   -0.7388 H   0  0  0  0  0  0  0  0  0  0  0  0
    3.6551   -0.5287   -0.3627 H   0  0  0  0  0  0  0  0  0  0  0  0
    5.3922   -0.6541   -0.3321 H   0  0  0  0  0  0  0  0  0  0  0  0
    4.5994    0.1822   -2.5505 H   0  0  0  0  0  0  0  0  0  0  0  0
    5.4322   -1.3509   -2.7180 H   0  0  0  0  0  0  0  0  0  0  0  0
    2.4244   -0.9512   -2.7198 H   0  0  0  0  0  0  0  0  0  0  0  0
    3.4063   -1.3619   -4.1099 H   0  0  0  0  0  0  0  0  0  0  0  0
    2.2890   -3.3697   -3.1209 H   0  0  0  0  0  0  0  0  0  0  0  0
    4.0338   -3.5273   -3.0921 H   0  0  0  0  0  0  0  0  0  0  0  0
    3.1032   -4.2536   -1.0851 H   0  0  0  0  0  0  0  0  0  0  0  0
    2.2151   -2.7422   -0.7961 H   0  0  0  0  0  0  0  0  0  0  0  0
    4.9633   -4.6518    1.0569 H   0  0  0  0  0  0  0  0  0  0  0  0
  1  2  1  0
  1 34  1  0
  1 35  1  0
  1 36  1  0
  2 22  1  0
  2  3  2  0
  3  4  1  0
  3 37  1  0
  4 24  1  0
  4  5  1  0
  4 38  1  6
  5 26  1  0
  5  6  1  0
  5 39  1  1
  6  7  1  0
  6 40  1  0
  6 41  1  0
  7 13  2  0
  7  8  1  0
  8  9  2  0
  8 42  1  0
  9 10  1  0
  9 43  1  0
 10 11  1  0
 10 12  2  0
 11 44  1  0
 12 23  1  0
 12 13  1  0
 14 13  1  6
 14 20  1  0
 14 15  1  0
 14 24  1  0
 15 16  1  0
 15 23  1  0
 15 45  1  1
 16 17  2  0
 16 46  1  0
 17 18  1  0
 17 47  1  0
 18 19  1  0
 18 20  1  0
 18 48  1  6
 19 49  1  0
 20 21  1  6
 20 22  1  0
 21 50  1  0
 22 51  1  0
 22 52  1  0
 24 25  1  0
 24 53  1  6
 25 26  1  0
 25 54  1  0
 25 55  1  0
 26 27  1  0
 26 69  1  6
 27 28  1  0
 27 56  1  0
 27 57  1  0
 28 33  1  0
 28 29  1  0
 28 58  1  0
 29 30  1  0
 29 59  1  0
 29 60  1  0
 30 31  1  0
 30 61  1  0
 30 62  1  0
 31 32  1  0
 31 63  1  0
 31 64  1  0
 32 33  1  0
 32 65  1  0
 32 66  1  0
 33 67  1  0
 33 68  1  0
M  CHG  1  26   1
M  END
>  <i_m_ct_stereo_status>  (102) 
1

>  <s_m_source_file>  (102) 
/var/tmp/pbs.5076255.sched01/tmpzk3r62u5/0tgg_cfwk.sdf

>  <i_m_source_file_index>  (102) 
43

>  <i_lp_mmshare_version>  (102) 
48012

>  <i_f3d_flags>  (102) 
0

>  <s_epik_input>  (102) 
W0NIMl0xW0NIMl1bQ0gyXVtDSDJdW0NIMl1bQ0hdMVtDSDJdTihbQ0gyXVtDQEhdMjMpW0NASF0oW0NIMl00KVtDQEBIXTJbQ0hdPUMoW0NIM10pW0NIMl1bQ0BdNShbT0hdKVtDQEhdKFtPSF0pW0NIXT1bQ0hdW0NASF02T2M3YyhbT0hdKVtjSF1bY0hdYzRjN1tDQEBdMzU2

>  <s_epik_cmdline>  (102) 
J2VwaWtfcHl0aG9uJywgJy1waHQnLCAnMi4wJywgJy1waCcsICc3LjAnLCAnLXRuJywgJzgnLCAnLW1hJywgJzIwMCcsICctaW1hZScsICc8aW5maWxlLm1hZT4nLCAnLW9tYWUnLCAnPG91dGZpbGUubWFlPic=

>  <r_lp_tautomer_probability>  (102) 
1

>  <r_epik_Ionization_Penalty>  (102) 
0.0100735

>  <r_epik_Ionization_Penalty_Charging>  (102) 
0.00133974

>  <r_epik_Ionization_Penalty_Neutral>  (102) 
0.00873379

>  <r_epik_State_Penalty>  (102) 
0.00659513

>  <r_epik_Charging_Adjusted_Penalty>  (102) 
0.00793487

>  <i_epik_Tot_Q>  (102) 
1

>  <i_epik_Tot_abs_Q>  (102) 
1

>  <s_lp_Force_Field>  (102) 
OPLS3e

>  <r_lp_Energy>  (102) 
200.816

>  <b_lp_Chiralities_Consistent>  (102) 
1

>  <s_lp_Variant>  (102) 
25:0-1

>  <s_i_glide_gridfile>  (102) 
pfpi4k_grid

>  <i_i_glide_lignum>  (102) 
43

>  <i_i_glide_rotatable_bonds>  (102) 
5

>  <r_i_docking_score>  (102) 
-3.49855

>  <r_i_glide_ligand_efficiency>  (102) 
-0.106017

>  <r_i_glide_ligand_efficiency_sa>  (102) 
-0.340052

>  <r_i_glide_ligand_efficiency_ln>  (102) 
-0.778058

>  <r_i_glide_gscore>  (102) 
-3.49855

>  <r_i_glide_lipo>  (102) 
-0.147342

>  <r_i_glide_hbond>  (102) 
0

>  <r_i_glide_metal>  (102) 
-0

>  <r_i_glide_rewards>  (102) 
-0.336888

>  <r_i_glide_evdw>  (102) 
-28.5268

>  <r_i_glide_ecoul>  (102) 
-11.9032

>  <r_i_glide_erotb>  (102) 
0.197509

>  <r_i_glide_esite>  (102) 
0

>  <r_i_glide_emodel>  (102) 
-49.2395

>  <r_i_glide_energy>  (102) 
-40.43

>  <r_i_glide_einternal>  (102) 
1.99519

>  <r_i_glide_intrahb_reward>  (102) 
-0

>  <i_i_glide_confnum>  (102) 
2

>  <i_i_glide_posenum>  (102) 
15

>  <r_i_glide_eff_state_penalty>  (102) 
0

>  <ligand_id>  (102) 
25

>  <original_smiles>  (102) 
CC1=CC2C3Cc4ccc(O)c5c4C4(C(C=CC(O)C4(O)C1)O5)C2CN3CC1CCCCC1

>  <smiles>  (102) 
[H]Oc1c([H])c([H])c2c3c1OC1([H])C([H])=C([H])C([H])(O[H])C4(O[H])C([H])([H])C(C([H])([H])[H])=C([H])C5([H])C([H])(C314)C([H])([H])[N+]([H])(C([H])([H])C1([H])C([H])([H])C([H])([H])C([H])([H])C([H])([H])C1([H])[H])C5([H])C2([H])[H]

$$$$
25:1:0
     RDKit          3D

 68 74  0  0  1  0  0  0  0  0999 V2000
    1.5875  -10.3458    4.5991 C   0  0  0  0  0  0  0  0  0  0  0  0
    2.5911   -9.5044    3.8259 C   0  0  0  0  0  0  0  0  0  0  0  0
    2.7074   -8.1688    4.1224 C   0  0  0  0  0  0  0  0  0  0  0  0
    3.4849   -7.1597    3.2802 C   0  0  1  0  0  0  0  0  0  0  0  0
    4.3064   -5.9039    3.6976 C   0  0  1  0  0  0  0  0  0  0  0  0
    5.6033   -6.0672    4.5565 C   0  0  0  0  0  0  0  0  0  0  0  0
    6.8671   -6.7755    3.9841 C   0  0  0  0  0  0  0  0  0  0  0  0
    8.1863   -6.3241    4.2539 C   0  0  0  0  0  0  0  0  0  0  0  0
    9.2435   -7.2359    4.3813 C   0  0  0  0  0  0  0  0  0  0  0  0
    8.9308   -8.6026    4.4657 C   0  0  0  0  0  0  0  0  0  0  0  0
    9.8620   -9.4910    4.9243 O   0  0  0  0  0  0  0  0  0  0  0  0
    7.6156   -9.0186    4.2082 C   0  0  0  0  0  0  0  0  0  0  0  0
    6.7483   -8.1612    3.6028 C   0  0  0  0  0  0  0  0  0  0  0  0
    5.3995   -8.8596    3.4166 C   0  0  2  0  0  0  0  0  0  0  0  0
    5.4861   -9.3333    4.9667 C   0  0  1  0  0  0  0  0  0  0  0  0
    4.8265  -10.6115    5.4432 C   0  0  0  0  0  0  0  0  0  0  0  0
    4.9242  -11.7142    4.6953 C   0  0  0  0  0  0  0  0  0  0  0  0
    5.5133  -11.5926    3.3102 C   0  0  1  0  0  0  0  0  0  0  0  0
    5.2001  -12.7594    2.5521 O   0  0  0  0  0  0  0  0  0  0  0  0
    4.9908  -10.2430    2.6937 C   0  0  2  0  0  0  0  0  0  0  0  0
    5.4693  -10.2518    1.3544 O   0  0  0  0  0  0  0  0  0  0  0  0
    3.3683  -10.2998    2.7092 C   0  0  0  0  0  0  0  0  0  0  0  0
    6.8796   -9.7442    5.0863 O   0  0  0  0  0  0  0  0  0  0  0  0
    4.5390   -7.8243    2.5141 C   0  0  2  0  0  0  0  0  0  0  0  0
    5.1634   -6.6699    1.6748 C   0  0  0  0  0  0  0  0  0  0  0  0
    4.8035   -5.4167    2.3857 N   0  0  1  0  0  0  0  0  0  0  0  0
    3.8735   -4.5075    1.6488 C   0  0  0  0  0  0  0  0  0  0  0  0
    4.6087   -3.5498    0.6738 C   0  0  0  0  0  0  0  0  0  0  0  0
    3.7089   -2.3638    0.2472 C   0  0  0  0  0  0  0  0  0  0  0  0
    4.4109   -1.4426   -0.7676 C   0  0  0  0  0  0  0  0  0  0  0  0
    4.8848   -2.2177   -1.9987 C   0  0  0  0  0  0  0  0  0  0  0  0
    5.7990   -3.3696   -1.5896 C   0  0  0  0  0  0  0  0  0  0  0  0
    5.1075   -4.2963   -0.5872 C   0  0  0  0  0  0  0  0  0  0  0  0
    2.0607  -11.2050    5.0721 H   0  0  0  0  0  0  0  0  0  0  0  0
    0.8107  -10.7152    3.9308 H   0  0  0  0  0  0  0  0  0  0  0  0
    1.1006   -9.7623    5.3801 H   0  0  0  0  0  0  0  0  0  0  0  0
    2.1105   -7.7441    4.9218 H   0  0  0  0  0  0  0  0  0  0  0  0
    2.7050   -6.8016    2.6082 H   0  0  0  0  0  0  0  0  0  0  0  0
    3.6580   -5.1780    4.1969 H   0  0  0  0  0  0  0  0  0  0  0  0
    5.9364   -5.0472    4.7654 H   0  0  0  0  0  0  0  0  0  0  0  0
    5.3651   -6.4516    5.5464 H   0  0  0  0  0  0  0  0  0  0  0  0
    8.3647   -5.3037    4.5461 H   0  0  0  0  0  0  0  0  0  0  0  0
   10.2342   -6.8950    4.6390 H   0  0  0  0  0  0  0  0  0  0  0  0
    5.2576   -8.5409    5.6750 H   0  0  0  0  0  0  0  0  0  0  0  0
    4.3943  -10.6300    6.4307 H   0  0  0  0  0  0  0  0  0  0  0  0
    4.5488  -12.6720    5.0220 H   0  0  0  0  0  0  0  0  0  0  0  0
    6.5991  -11.5729    3.3805 H   0  0  0  0  0  0  0  0  0  0  0  0
    4.6402  -12.5252    1.8101 H   0  0  0  0  0  0  0  0  0  0  0  0
    5.0339  -10.9744    0.8948 H   0  0  0  0  0  0  0  0  0  0  0  0
    3.0471  -11.3399    2.7818 H   0  0  0  0  0  0  0  0  0  0  0  0
    2.9376  -10.0268    1.7434 H   0  0  0  0  0  0  0  0  0  0  0  0
    4.0332   -8.2990    1.6847 H   0  0  0  0  0  0  0  0  0  0  0  0
    6.2382   -6.7639    1.5072 H   0  0  0  0  0  0  0  0  0  0  0  0
    4.7152   -6.6811    0.6821 H   0  0  0  0  0  0  0  0  0  0  0  0
    3.1205   -5.0927    1.1191 H   0  0  0  0  0  0  0  0  0  0  0  0
    3.3243   -3.9106    2.3790 H   0  0  0  0  0  0  0  0  0  0  0  0
    5.4713   -3.1266    1.1979 H   0  0  0  0  0  0  0  0  0  0  0  0
    2.7822   -2.7420   -0.1919 H   0  0  0  0  0  0  0  0  0  0  0  0
    3.4113   -1.7787    1.1224 H   0  0  0  0  0  0  0  0  0  0  0  0
    3.7167   -0.6654   -1.0787 H   0  0  0  0  0  0  0  0  0  0  0  0
    5.2551   -0.9453   -0.2892 H   0  0  0  0  0  0  0  0  0  0  0  0
    4.0236   -2.6076   -2.5413 H   0  0  0  0  0  0  0  0  0  0  0  0
    5.4061   -1.5525   -2.6822 H   0  0  0  0  0  0  0  0  0  0  0  0
    6.0778   -3.9412   -2.4708 H   0  0  0  0  0  0  0  0  0  0  0  0
    6.7216   -2.9928   -1.1501 H   0  0  0  0  0  0  0  0  0  0  0  0
    5.8255   -5.0712   -0.3203 H   0  0  0  0  0  0  0  0  0  0  0  0
    4.2579   -4.7882   -1.0667 H   0  0  0  0  0  0  0  0  0  0  0  0
    5.6500   -4.8953    2.5768 H   0  0  0  0  0  0  0  0  0  0  0  0
  1  2  1  0
  1 34  1  0
  1 35  1  0
  1 36  1  0
  2 22  1  0
  2  3  2  0
  3  4  1  0
  3 37  1  0
  4 24  1  0
  4  5  1  0
  4 38  1  6
  5 26  1  0
  5  6  1  0
  5 39  1  1
  6  7  1  0
  6 40  1  0
  6 41  1  0
  7 13  2  0
  7  8  1  0
  8  9  2  0
  8 42  1  0
  9 10  1  0
  9 43  1  0
 10 11  1  0
 10 12  2  0
 12 23  1  0
 12 13  1  0
 14 13  1  6
 14 20  1  0
 14 15  1  0
 14 24  1  0
 15 16  1  0
 15 23  1  0
 15 44  1  1
 16 17  2  0
 16 45  1  0
 17 18  1  0
 17 46  1  0
 18 19  1  0
 18 20  1  0
 18 47  1  1
 19 48  1  0
 20 21  1  6
 20 22  1  0
 21 49  1  0
 22 50  1  0
 22 51  1  0
 24 25  1  0
 24 52  1  6
 25 26  1  0
 25 53  1  0
 25 54  1  0
 26 27  1  0
 26 68  1  1
 27 28  1  0
 27 55  1  0
 27 56  1  0
 28 33  1  0
 28 29  1  0
 28 57  1  0
 29 30  1  0
 29 58  1  0
 29 59  1  0
 30 31  1  0
 30 60  1  0
 30 61  1  0
 31 32  1  0
 31 62  1  0
 31 63  1  0
 32 33  1  0
 32 64  1  0
 32 65  1  0
 33 66  1  0
 33 67  1  0
M  CHG  2  11  -1  26   1
M  END
>  <i_m_ct_stereo_status>  (103) 
1

>  <s_m_source_file>  (103) 
/var/tmp/pbs.5076255.sched01/tmpzk3r62u5/0tgg_cfwk.sdf

>  <i_m_source_file_index>  (103) 
44

>  <i_lp_mmshare_version>  (103) 
48012

>  <i_f3d_flags>  (103) 
0

>  <s_epik_input>  (103) 
W0NIMl0xW0NIMl1bQ0gyXVtDSDJdW0NIMl1bQ0hdMVtDSDJdTihbQ0gyXVtDQEhdMjMpW0NASF0oW0NIMl00KVtDQEBIXTJbQ0hdPUMoW0NIM10pW0NIMl1bQ0BdNShbT0hdKVtDQEhdKFtPSF0pW0NIXT1bQ0hdW0NASF02T2M3YyhbT0hdKVtjSF1bY0hdYzRjN1tDQEBdMzU2

>  <s_epik_cmdline>  (103) 
J2VwaWtfcHl0aG9uJywgJy1waHQnLCAnMi4wJywgJy1waCcsICc3LjAnLCAnLXRuJywgJzgnLCAnLW1hJywgJzIwMCcsICctaW1hZScsICc8aW5maWxlLm1hZT4nLCAnLW9tYWUnLCAnPG91dGZpbGUubWFlPic=

>  <r_epik_Ionization_Penalty>  (103) 
2.50429

>  <r_epik_Ionization_Penalty_Charging>  (103) 
2.50428

>  <r_epik_Ionization_Penalty_Neutral>  (103) 
1.96035e-06

>  <r_epik_State_Penalty>  (103) 
2.66829

>  <r_epik_Charging_Adjusted_Penalty>  (103) 
5.17258

>  <i_epik_Tot_Q>  (103) 
0

>  <i_epik_Tot_abs_Q>  (103) 
2

>  <s_lp_Force_Field>  (103) 
OPLS3e

>  <r_lp_Energy>  (103) 
198.908

>  <b_lp_Chiralities_Consistent>  (103) 
1

>  <s_lp_Variant>  (103) 
25:0-2

>  <s_i_glide_gridfile>  (103) 
pfpi4k_grid

>  <i_i_glide_lignum>  (103) 
44

>  <i_i_glide_rotatable_bonds>  (103) 
4

>  <r_i_docking_score>  (103) 
-3.41616

>  <r_i_glide_ligand_efficiency>  (103) 
-0.10352

>  <r_i_glide_ligand_efficiency_sa>  (103) 
-0.332044

>  <r_i_glide_ligand_efficiency_ln>  (103) 
-0.759736

>  <r_i_glide_gscore>  (103) 
-3.41616

>  <r_i_glide_lipo>  (103) 
-0.365739

>  <r_i_glide_hbond>  (103) 
0

>  <r_i_glide_metal>  (103) 
-0

>  <r_i_glide_rewards>  (103) 
-0.34376

>  <r_i_glide_evdw>  (103) 
-23.3413

>  <r_i_glide_ecoul>  (103) 
-11.5861

>  <r_i_glide_erotb>  (103) 
0.198315

>  <r_i_glide_esite>  (103) 
0

>  <r_i_glide_emodel>  (103) 
-44.0679

>  <r_i_glide_energy>  (103) 
-34.9274

>  <r_i_glide_einternal>  (103) 
1.87425

>  <r_i_glide_intrahb_reward>  (103) 
-0

>  <i_i_glide_confnum>  (103) 
2

>  <i_i_glide_posenum>  (103) 
14

>  <r_i_glide_eff_state_penalty>  (103) 
0

>  <ligand_id>  (103) 
25

>  <original_smiles>  (103) 
CC1=CC2C3Cc4ccc(O)c5c4C4(C(C=CC(O)C4(O)C1)O5)C2CN3CC1CCCCC1

>  <smiles>  (103) 
[H]OC1([H])C([H])=C([H])C2([H])Oc3c([O-])c([H])c([H])c4c3C23C2([H])C([H])(C([H])=C(C([H])([H])[H])C([H])([H])C13O[H])C([H])(C4([H])[H])[N+]([H])(C([H])([H])C1([H])C([H])([H])C([H])([H])C([H])([H])C([H])([H])C1([H])[H])C2([H])[H]

$$$$
25:1:1
     RDKit          3D

 68 74  0  0  1  0  0  0  0  0999 V2000
    1.0147  -11.3143    3.6968 C   0  0  0  0  0  0  0  0  0  0  0  0
    1.7930  -10.0117    3.7861 C   0  0  0  0  0  0  0  0  0  0  0  0
    1.9360   -9.2311    2.6675 C   0  0  0  0  0  0  0  0  0  0  0  0
    2.9098   -8.0603    2.5543 C   0  0  1  0  0  0  0  0  0  0  0  0
    2.7662   -6.7228    1.7841 C   0  0  1  0  0  0  0  0  0  0  0  0
    1.6768   -5.7019    2.2114 C   0  0  0  0  0  0  0  0  0  0  0  0
    1.7403   -4.9419    3.5943 C   0  0  0  0  0  0  0  0  0  0  0  0
    1.3619   -3.5854    3.7249 C   0  0  0  0  0  0  0  0  0  0  0  0
    0.7123   -3.1434    4.9051 C   0  0  0  0  0  0  0  0  0  0  0  0
    0.2235   -4.1010    5.8253 C   0  0  0  0  0  0  0  0  0  0  0  0
   -0.6912   -3.7249    6.7776 O   0  0  0  0  0  0  0  0  0  0  0  0
    0.5970   -5.4484    5.6273 C   0  0  0  0  0  0  0  0  0  0  0  0
    1.6289   -5.7549    4.7653 C   0  0  0  0  0  0  0  0  0  0  0  0
    1.8448   -7.2662    4.7481 C   0  0  2  0  0  0  0  0  0  0  0  0
    0.2417   -7.4481    4.5711 C   0  0  1  0  0  0  0  0  0  0  0  0
   -0.4872   -8.6570    5.1033 C   0  0  0  0  0  0  0  0  0  0  0  0
   -0.1671   -9.1279    6.3176 C   0  0  0  0  0  0  0  0  0  0  0  0
    1.0395   -8.5638    7.0054 C   0  0  1  0  0  0  0  0  0  0  0  0
    1.4761   -9.4540    8.0313 O   0  0  0  0  0  0  0  0  0  0  0  0
    2.1431   -8.3298    5.9162 C   0  0  2  0  0  0  0  0  0  0  0  0
    3.2951   -7.9476    6.6499 O   0  0  0  0  0  0  0  0  0  0  0  0
    2.4158   -9.7544    5.2041 C   0  0  0  0  0  0  0  0  0  0  0  0
   -0.2932   -6.4638    5.5064 O   0  0  0  0  0  0  0  0  0  0  0  0
    3.1969   -7.4841    3.8664 C   0  0  2  0  0  0  0  0  0  0  0  0
    4.2081   -6.3423    3.5569 C   0  0  0  0  0  0  0  0  0  0  0  0
    4.0231   -6.0173    2.1225 N   0  0  1  0  0  0  0  0  0  0  0  0
    5.1839   -6.3765    1.2671 C   0  0  0  0  0  0  0  0  0  0  0  0
    6.3142   -5.3117    1.3178 C   0  0  0  0  0  0  0  0  0  0  0  0
    6.0896   -4.1717    0.2943 C   0  0  0  0  0  0  0  0  0  0  0  0
    7.2298   -3.1354    0.3193 C   0  0  0  0  0  0  0  0  0  0  0  0
    8.5998   -3.7880    0.0911 C   0  0  0  0  0  0  0  0  0  0  0  0
    8.8282   -4.9087    1.1129 C   0  0  0  0  0  0  0  0  0  0  0  0
    7.7018   -5.9499    1.0793 C   0  0  0  0  0  0  0  0  0  0  0  0
    0.2145  -11.3502    4.4326 H   0  0  0  0  0  0  0  0  0  0  0  0
    1.6670  -12.1678    3.8809 H   0  0  0  0  0  0  0  0  0  0  0  0
    0.5804  -11.4378    2.7070 H   0  0  0  0  0  0  0  0  0  0  0  0
    1.4649   -9.5348    1.7439 H   0  0  0  0  0  0  0  0  0  0  0  0
    3.7983   -8.5575    2.1617 H   0  0  0  0  0  0  0  0  0  0  0  0
    2.6733   -6.9029    0.7094 H   0  0  0  0  0  0  0  0  0  0  0  0
    1.7678   -4.9020    1.4836 H   0  0  0  0  0  0  0  0  0  0  0  0
    0.6898   -6.1037    2.0199 H   0  0  0  0  0  0  0  0  0  0  0  0
    1.3861   -2.9166    2.8788 H   0  0  0  0  0  0  0  0  0  0  0  0
    0.3920   -2.1184    4.9922 H   0  0  0  0  0  0  0  0  0  0  0  0
   -0.1203   -7.2466    3.5658 H   0  0  0  0  0  0  0  0  0  0  0  0
   -1.3178   -9.0447    4.5383 H   0  0  0  0  0  0  0  0  0  0  0  0
   -0.7047   -9.9444    6.7742 H   0  0  0  0  0  0  0  0  0  0  0  0
    0.7612   -7.6278    7.4902 H   0  0  0  0  0  0  0  0  0  0  0  0
    1.4174  -10.3621    7.7408 H   0  0  0  0  0  0  0  0  0  0  0  0
    3.4065   -8.5940    7.3358 H   0  0  0  0  0  0  0  0  0  0  0  0
    2.0763  -10.5632    5.8501 H   0  0  0  0  0  0  0  0  0  0  0  0
    3.4804   -9.9882    5.1590 H   0  0  0  0  0  0  0  0  0  0  0  0
    3.9098   -8.1579    4.3264 H   0  0  0  0  0  0  0  0  0  0  0  0
    4.1340   -5.4727    4.2061 H   0  0  0  0  0  0  0  0  0  0  0  0
    5.2174   -6.6895    3.7299 H   0  0  0  0  0  0  0  0  0  0  0  0
    5.5669   -7.3556    1.5440 H   0  0  0  0  0  0  0  0  0  0  0  0
    4.8589   -6.4828    0.2347 H   0  0  0  0  0  0  0  0  0  0  0  0
    6.3625   -4.8620    2.3161 H   0  0  0  0  0  0  0  0  0  0  0  0
    6.0195   -4.5861   -0.7134 H   0  0  0  0  0  0  0  0  0  0  0  0
    5.1387   -3.6683    0.4830 H   0  0  0  0  0  0  0  0  0  0  0  0
    7.0550   -2.3785   -0.4434 H   0  0  0  0  0  0  0  0  0  0  0  0
    7.2251   -2.6150    1.2765 H   0  0  0  0  0  0  0  0  0  0  0  0
    8.6590   -4.1866   -0.9215 H   0  0  0  0  0  0  0  0  0  0  0  0
    9.3866   -3.0385    0.1667 H   0  0  0  0  0  0  0  0  0  0  0  0
    9.7657   -5.4247    0.9308 H   0  0  0  0  0  0  0  0  0  0  0  0
    8.9224   -4.4835    2.1080 H   0  0  0  0  0  0  0  0  0  0  0  0
    7.9078   -6.7084    1.8390 H   0  0  0  0  0  0  0  0  0  0  0  0
    7.7317   -6.4667    0.1187 H   0  0  0  0  0  0  0  0  0  0  0  0
    3.8599   -5.0302    2.0308 H   0  0  0  0  0  0  0  0  0  0  0  0
  1  2  1  0
  1 34  1  0
  1 35  1  0
  1 36  1  0
  2 22  1  0
  2  3  2  0
  3  4  1  0
  3 37  1  0
  4 24  1  0
  4  5  1  0
  4 38  1  6
  5 26  1  0
  5  6  1  0
  5 39  1  6
  6  7  1  0
  6 40  1  0
  6 41  1  0
  7 13  2  0
  7  8  1  0
  8  9  2  0
  8 42  1  0
  9 10  1  0
  9 43  1  0
 10 11  1  0
 10 12  2  0
 12 23  1  0
 12 13  1  0
 14 13  1  1
 14 20  1  0
 14 15  1  0
 14 24  1  0
 15 16  1  0
 15 23  1  0
 15 44  1  6
 16 17  2  0
 16 45  1  0
 17 18  1  0
 17 46  1  0
 18 19  1  0
 18 20  1  0
 18 47  1  1
 19 48  1  0
 20 21  1  1
 20 22  1  0
 21 49  1  0
 22 50  1  0
 22 51  1  0
 24 25  1  0
 24 52  1  1
 25 26  1  0
 25 53  1  0
 25 54  1  0
 26 27  1  0
 26 68  1  1
 27 28  1  0
 27 55  1  0
 27 56  1  0
 28 33  1  0
 28 29  1  0
 28 57  1  0
 29 30  1  0
 29 58  1  0
 29 59  1  0
 30 31  1  0
 30 60  1  0
 30 61  1  0
 31 32  1  0
 31 62  1  0
 31 63  1  0
 32 33  1  0
 32 64  1  0
 32 65  1  0
 33 66  1  0
 33 67  1  0
M  CHG  2  11  -1  26   1
M  END
>  <i_m_ct_stereo_status>  (104) 
1

>  <s_m_source_file>  (104) 
/var/tmp/pbs.5076255.sched01/tmpzk3r62u5/0tgg_cfwk.sdf

>  <i_m_source_file_index>  (104) 
44

>  <i_lp_mmshare_version>  (104) 
48012

>  <i_f3d_flags>  (104) 
0

>  <s_epik_input>  (104) 
W0NIMl0xW0NIMl1bQ0gyXVtDSDJdW0NIMl1bQ0hdMVtDSDJdTihbQ0gyXVtDQEhdMjMpW0NASF0oW0NIMl00KVtDQEBIXTJbQ0hdPUMoW0NIM10pW0NIMl1bQ0BdNShbT0hdKVtDQEhdKFtPSF0pW0NIXT1bQ0hdW0NASF02T2M3YyhbT0hdKVtjSF1bY0hdYzRjN1tDQEBdMzU2

>  <s_epik_cmdline>  (104) 
J2VwaWtfcHl0aG9uJywgJy1waHQnLCAnMi4wJywgJy1waCcsICc3LjAnLCAnLXRuJywgJzgnLCAnLW1hJywgJzIwMCcsICctaW1hZScsICc8aW5maWxlLm1hZT4nLCAnLW9tYWUnLCAnPG91dGZpbGUubWFlPic=

>  <r_epik_Ionization_Penalty>  (104) 
2.50429

>  <r_epik_Ionization_Penalty_Charging>  (104) 
2.50428

>  <r_epik_Ionization_Penalty_Neutral>  (104) 
1.96035e-06

>  <r_epik_State_Penalty>  (104) 
2.66829

>  <r_epik_Charging_Adjusted_Penalty>  (104) 
5.17258

>  <i_epik_Tot_Q>  (104) 
0

>  <i_epik_Tot_abs_Q>  (104) 
2

>  <s_lp_Force_Field>  (104) 
OPLS3e

>  <r_lp_Energy>  (104) 
198.908

>  <b_lp_Chiralities_Consistent>  (104) 
1

>  <s_lp_Variant>  (104) 
25:0-2

>  <s_i_glide_gridfile>  (104) 
pfpi4k_grid

>  <i_i_glide_lignum>  (104) 
44

>  <i_i_glide_rotatable_bonds>  (104) 
4

>  <r_i_docking_score>  (104) 
-3.29961

>  <r_i_glide_ligand_efficiency>  (104) 
-0.0999882

>  <r_i_glide_ligand_efficiency_sa>  (104) 
-0.320715

>  <r_i_glide_ligand_efficiency_ln>  (104) 
-0.733816

>  <r_i_glide_gscore>  (104) 
-3.29961

>  <r_i_glide_lipo>  (104) 
-0.766494

>  <r_i_glide_hbond>  (104) 
0

>  <r_i_glide_metal>  (104) 
-0

>  <r_i_glide_rewards>  (104) 
-0.34376

>  <r_i_glide_evdw>  (104) 
-30.6993

>  <r_i_glide_ecoul>  (104) 
-5.68469

>  <r_i_glide_erotb>  (104) 
0.198315

>  <r_i_glide_esite>  (104) 
0

>  <r_i_glide_emodel>  (104) 
-45.2747

>  <r_i_glide_energy>  (104) 
-36.384

>  <r_i_glide_einternal>  (104) 
1.9302

>  <r_i_glide_intrahb_reward>  (104) 
-0

>  <i_i_glide_confnum>  (104) 
3

>  <i_i_glide_posenum>  (104) 
11

>  <r_i_glide_eff_state_penalty>  (104) 
0

>  <ligand_id>  (104) 
25

>  <original_smiles>  (104) 
CC1=CC2C3Cc4ccc(O)c5c4C4(C(C=CC(O)C4(O)C1)O5)C2CN3CC1CCCCC1

>  <smiles>  (104) 
[H]OC1([H])C([H])=C([H])C2([H])Oc3c([O-])c([H])c([H])c4c3C23C2([H])C([H])(C([H])=C(C([H])([H])[H])C([H])([H])C13O[H])C([H])(C4([H])[H])[N+]([H])(C([H])([H])C1([H])C([H])([H])C([H])([H])C([H])([H])C([H])([H])C1([H])[H])C2([H])[H]

$$$$
25:1:2
     RDKit          3D

 68 74  0  0  1  0  0  0  0  0999 V2000
    0.5783  -10.2460    3.2301 C   0  0  0  0  0  0  0  0  0  0  0  0
    1.7846   -9.3892    2.8788 C   0  0  0  0  0  0  0  0  0  0  0  0
    1.7436   -8.0400    3.1134 C   0  0  0  0  0  0  0  0  0  0  0  0
    2.7535   -7.0424    2.5655 C   0  0  1  0  0  0  0  0  0  0  0  0
    3.3130   -5.7448    3.2076 C   0  0  1  0  0  0  0  0  0  0  0  0
    4.1930   -5.8225    4.4920 C   0  0  0  0  0  0  0  0  0  0  0  0
    5.6194   -6.4846    4.4742 C   0  0  0  0  0  0  0  0  0  0  0  0
    6.7037   -5.9607    5.2207 C   0  0  0  0  0  0  0  0  0  0  0  0
    7.6468   -6.8352    5.8083 C   0  0  0  0  0  0  0  0  0  0  0  0
    7.3652   -8.2217    5.8495 C   0  0  0  0  0  0  0  0  0  0  0  0
    8.0799   -9.0387    6.6758 O   0  0  0  0  0  0  0  0  0  0  0  0
    6.2486   -8.6923    5.1286 C   0  0  0  0  0  0  0  0  0  0  0  0
    5.6655   -7.8870    4.1838 C   0  0  0  0  0  0  0  0  0  0  0  0
    4.5112   -8.6515    3.5309 C   0  0  2  0  0  0  0  0  0  0  0  0
    3.9908   -9.0583    5.0121 C   0  0  1  0  0  0  0  0  0  0  0  0
    3.2313  -10.3423    5.2793 C   0  0  0  0  0  0  0  0  0  0  0  0
    3.6430  -11.4682    4.6919 C   0  0  0  0  0  0  0  0  0  0  0  0
    4.7154  -11.3707    3.6225 C   0  0  1  0  0  0  0  0  0  0  0  0
    4.7317  -12.5788    2.8761 O   0  0  0  0  0  0  0  0  0  0  0  0
    4.4462  -10.0679    2.7815 C   0  0  2  0  0  0  0  0  0  0  0  0
    5.3802  -10.1350    1.7012 O   0  0  0  0  0  0  0  0  0  0  0  0
    2.9463  -10.1903    2.1940 C   0  0  0  0  0  0  0  0  0  0  0  0
    5.2395   -9.4097    5.6792 O   0  0  0  0  0  0  0  0  0  0  0  0
    4.0331   -7.7019    2.3088 C   0  0  2  0  0  0  0  0  0  0  0  0
    4.9083   -6.5675    1.7388 C   0  0  0  0  0  0  0  0  0  0  0  0
    4.2768   -5.2936    2.1747 N   0  0  1  0  0  0  0  0  0  0  0  0
    3.7046   -4.4755    1.0627 C   0  0  0  0  0  0  0  0  0  0  0  0
    4.7335   -3.5007    0.4308 C   0  0  0  0  0  0  0  0  0  0  0  0
    4.1530   -2.7891   -0.8200 C   0  0  0  0  0  0  0  0  0  0  0  0
    5.1919   -1.8802   -1.5144 C   0  0  0  0  0  0  0  0  0  0  0  0
    6.4690   -2.6560   -1.8706 C   0  0  0  0  0  0  0  0  0  0  0  0
    7.0688   -3.2917   -0.6230 C   0  0  0  0  0  0  0  0  0  0  0  0
    6.0521   -4.2069    0.0444 C   0  0  0  0  0  0  0  0  0  0  0  0
    0.8436  -11.0666    3.8946 H   0  0  0  0  0  0  0  0  0  0  0  0
    0.1306  -10.6706    2.3302 H   0  0  0  0  0  0  0  0  0  0  0  0
   -0.1868   -9.6542    3.7259 H   0  0  0  0  0  0  0  0  0  0  0  0
    0.8734   -7.6063    3.5826 H   0  0  0  0  0  0  0  0  0  0  0  0
    2.2975   -6.7512    1.6165 H   0  0  0  0  0  0  0  0  0  0  0  0
    2.5093   -5.0173    3.3721 H   0  0  0  0  0  0  0  0  0  0  0  0
    4.3970   -4.7898    4.7560 H   0  0  0  0  0  0  0  0  0  0  0  0
    3.6032   -6.1635    5.3337 H   0  0  0  0  0  0  0  0  0  0  0  0
    6.7235   -4.9147    5.5091 H   0  0  0  0  0  0  0  0  0  0  0  0
    8.4491   -6.4445    6.4093 H   0  0  0  0  0  0  0  0  0  0  0  0
    3.4945   -8.2488    5.5403 H   0  0  0  0  0  0  0  0  0  0  0  0
    2.4567  -10.3357    6.0265 H   0  0  0  0  0  0  0  0  0  0  0  0
    3.1956  -12.4306    4.8955 H   0  0  0  0  0  0  0  0  0  0  0  0
    5.6907  -11.3114    4.1183 H   0  0  0  0  0  0  0  0  0  0  0  0
    4.5870  -12.4136    1.9203 H   0  0  0  0  0  0  0  0  0  0  0  0
    5.1084  -10.8554    1.1345 H   0  0  0  0  0  0  0  0  0  0  0  0
    2.6505  -11.2350    2.2072 H   0  0  0  0  0  0  0  0  0  0  0  0
    2.9089   -9.9923    1.1213 H   0  0  0  0  0  0  0  0  0  0  0  0
    3.9121   -8.2295    1.3691 H   0  0  0  0  0  0  0  0  0  0  0  0
    5.9657   -6.6363    1.9846 H   0  0  0  0  0  0  0  0  0  0  0  0
    4.9004   -6.6547    0.6632 H   0  0  0  0  0  0  0  0  0  0  0  0
    3.2624   -5.1155    0.2982 H   0  0  0  0  0  0  0  0  0  0  0  0
    2.8828   -3.8766    1.4484 H   0  0  0  0  0  0  0  0  0  0  0  0
    4.9743   -2.7247    1.1611 H   0  0  0  0  0  0  0  0  0  0  0  0
    3.8087   -3.5351   -1.5400 H   0  0  0  0  0  0  0  0  0  0  0  0
    3.2710   -2.1952   -0.5617 H   0  0  0  0  0  0  0  0  0  0  0  0
    4.7629   -1.4534   -2.4193 H   0  0  0  0  0  0  0  0  0  0  0  0
    5.4323   -1.0385   -0.8658 H   0  0  0  0  0  0  0  0  0  0  0  0
    6.2467   -3.4211   -2.6132 H   0  0  0  0  0  0  0  0  0  0  0  0
    7.2157   -2.0100   -2.3239 H   0  0  0  0  0  0  0  0  0  0  0  0
    7.9451   -3.8804   -0.8871 H   0  0  0  0  0  0  0  0  0  0  0  0
    7.4045   -2.5406    0.0912 H   0  0  0  0  0  0  0  0  0  0  0  0
    6.5584   -4.6045    0.9213 H   0  0  0  0  0  0  0  0  0  0  0  0
    5.8218   -5.0250   -0.6377 H   0  0  0  0  0  0  0  0  0  0  0  0
    4.9762   -4.7308    2.6385 H   0  0  0  0  0  0  0  0  0  0  0  0
  1  2  1  0
  1 34  1  0
  1 35  1  0
  1 36  1  0
  2 22  1  0
  2  3  2  0
  3  4  1  0
  3 37  1  0
  4 24  1  0
  4  5  1  0
  4 38  1  6
  5 26  1  0
  5  6  1  0
  5 39  1  1
  6  7  1  0
  6 40  1  0
  6 41  1  0
  7 13  2  0
  7  8  1  0
  8  9  2  0
  8 42  1  0
  9 10  1  0
  9 43  1  0
 10 11  1  0
 10 12  2  0
 12 23  1  0
 12 13  1  0
 14 13  1  1
 14 20  1  0
 14 15  1  0
 14 24  1  0
 15 16  1  0
 15 23  1  0
 15 44  1  1
 16 17  2  0
 16 45  1  0
 17 18  1  0
 17 46  1  0
 18 19  1  0
 18 20  1  0
 18 47  1  1
 19 48  1  0
 20 21  1  6
 20 22  1  0
 21 49  1  0
 22 50  1  0
 22 51  1  0
 24 25  1  0
 24 52  1  6
 25 26  1  0
 25 53  1  0
 25 54  1  0
 26 27  1  0
 26 68  1  1
 27 28  1  0
 27 55  1  0
 27 56  1  0
 28 33  1  0
 28 29  1  0
 28 57  1  0
 29 30  1  0
 29 58  1  0
 29 59  1  0
 30 31  1  0
 30 60  1  0
 30 61  1  0
 31 32  1  0
 31 62  1  0
 31 63  1  0
 32 33  1  0
 32 64  1  0
 32 65  1  0
 33 66  1  0
 33 67  1  0
M  CHG  2  11  -1  26   1
M  END
>  <i_m_ct_stereo_status>  (105) 
1

>  <s_m_source_file>  (105) 
/var/tmp/pbs.5076255.sched01/tmpzk3r62u5/0tgg_cfwk.sdf

>  <i_m_source_file_index>  (105) 
44

>  <i_lp_mmshare_version>  (105) 
48012

>  <i_f3d_flags>  (105) 
0

>  <s_epik_input>  (105) 
W0NIMl0xW0NIMl1bQ0gyXVtDSDJdW0NIMl1bQ0hdMVtDSDJdTihbQ0gyXVtDQEhdMjMpW0NASF0oW0NIMl00KVtDQEBIXTJbQ0hdPUMoW0NIM10pW0NIMl1bQ0BdNShbT0hdKVtDQEhdKFtPSF0pW0NIXT1bQ0hdW0NASF02T2M3YyhbT0hdKVtjSF1bY0hdYzRjN1tDQEBdMzU2

>  <s_epik_cmdline>  (105) 
J2VwaWtfcHl0aG9uJywgJy1waHQnLCAnMi4wJywgJy1waCcsICc3LjAnLCAnLXRuJywgJzgnLCAnLW1hJywgJzIwMCcsICctaW1hZScsICc8aW5maWxlLm1hZT4nLCAnLW9tYWUnLCAnPG91dGZpbGUubWFlPic=

>  <r_epik_Ionization_Penalty>  (105) 
2.50429

>  <r_epik_Ionization_Penalty_Charging>  (105) 
2.50428

>  <r_epik_Ionization_Penalty_Neutral>  (105) 
1.96035e-06

>  <r_epik_State_Penalty>  (105) 
2.66829

>  <r_epik_Charging_Adjusted_Penalty>  (105) 
5.17258

>  <i_epik_Tot_Q>  (105) 
0

>  <i_epik_Tot_abs_Q>  (105) 
2

>  <s_lp_Force_Field>  (105) 
OPLS3e

>  <r_lp_Energy>  (105) 
198.908

>  <b_lp_Chiralities_Consistent>  (105) 
1

>  <s_lp_Variant>  (105) 
25:0-2

>  <s_i_glide_gridfile>  (105) 
pfpi4k_grid

>  <i_i_glide_lignum>  (105) 
44

>  <i_i_glide_rotatable_bonds>  (105) 
4

>  <r_i_docking_score>  (105) 
-3.24427

>  <r_i_glide_ligand_efficiency>  (105) 
-0.0983113

>  <r_i_glide_ligand_efficiency_sa>  (105) 
-0.315337

>  <r_i_glide_ligand_efficiency_ln>  (105) 
-0.721509

>  <r_i_glide_gscore>  (105) 
-3.24427

>  <r_i_glide_lipo>  (105) 
-0.354407

>  <r_i_glide_hbond>  (105) 
0

>  <r_i_glide_metal>  (105) 
-0

>  <r_i_glide_rewards>  (105) 
-0.34376

>  <r_i_glide_evdw>  (105) 
-26.81

>  <r_i_glide_ecoul>  (105) 
-9.35946

>  <r_i_glide_erotb>  (105) 
0.198315

>  <r_i_glide_esite>  (105) 
0

>  <r_i_glide_emodel>  (105) 
-44.0612

>  <r_i_glide_energy>  (105) 
-36.1695

>  <r_i_glide_einternal>  (105) 
3.06029

>  <r_i_glide_intrahb_reward>  (105) 
-0

>  <i_i_glide_confnum>  (105) 
2

>  <i_i_glide_posenum>  (105) 
16

>  <r_i_glide_eff_state_penalty>  (105) 
0

>  <ligand_id>  (105) 
25

>  <original_smiles>  (105) 
CC1=CC2C3Cc4ccc(O)c5c4C4(C(C=CC(O)C4(O)C1)O5)C2CN3CC1CCCCC1

>  <smiles>  (105) 
[H]OC1([H])C([H])=C([H])C2([H])Oc3c([O-])c([H])c([H])c4c3C23C2([H])C([H])(C([H])=C(C([H])([H])[H])C([H])([H])C13O[H])C([H])(C4([H])[H])[N+]([H])(C([H])([H])C1([H])C([H])([H])C([H])([H])C([H])([H])C([H])([H])C1([H])[H])C2([H])[H]

$$$$
26:0:0
     RDKit          3D

 52 56  0  0  1  0  0  0  0  0999 V2000
    5.1830   -3.7030   -2.3493 C   0  0  0  0  0  0  0  0  0  0  0  0
    4.0974   -3.1437   -1.4086 C   0  0  0  0  0  0  0  0  0  0  0  0
    2.7574   -3.0162   -2.1547 C   0  0  0  0  0  0  0  0  0  0  0  0
    3.9413   -4.1147   -0.2422 C   0  0  0  0  0  0  0  0  0  0  0  0
    4.4781   -3.9451    0.9905 C   0  0  0  0  0  0  0  0  0  0  0  0
    5.3290   -2.7224    1.3451 C   0  0  1  0  0  0  0  0  0  0  0  0
    5.5718   -1.7818    0.1588 C   0  0  0  0  0  0  0  0  0  0  0  0
    6.5834   -1.0880    0.0814 O   0  0  0  0  0  0  0  0  0  0  0  0
    4.4870   -1.7355   -0.9098 C   0  0  0  0  0  0  0  0  0  0  0  0
    4.8021   -2.0257    2.6165 C   0  0  1  0  0  0  0  0  0  0  0  0
    3.5451   -1.2171    2.4197 C   0  0  0  0  0  0  0  0  0  0  0  0
    3.4481    0.1364    2.2012 C   0  0  0  0  0  0  0  0  0  0  0  0
    2.1459    0.6193    2.0790 N   0  0  0  0  0  0  0  0  0  0  0  0
    1.2541   -0.3637    2.1935 C   0  0  0  0  0  0  0  0  0  0  0  0
    1.9559   -1.9469    2.4728 S   0  0  0  0  0  0  0  0  0  0  0  0
    4.6258   -3.0915    3.6931 C   0  0  0  0  0  0  0  0  0  0  0  0
    4.4386   -4.4027    3.3844 C   0  0  0  0  0  0  0  0  0  0  0  0
    4.4254   -5.4850    4.4751 C   0  0  0  0  0  0  0  0  0  0  0  0
    5.1777   -5.0483    5.7351 C   0  0  0  0  0  0  0  0  0  0  0  0
    4.6983   -3.6770    6.2183 C   0  0  0  0  0  0  0  0  0  0  0  0
    4.7609   -2.6350    5.1018 C   0  0  0  0  0  0  0  0  0  0  0  0
    4.8854   -1.4521    5.4165 O   0  0  0  0  0  0  0  0  0  0  0  0
    4.2989   -4.8561    2.0497 N   0  0  0  0  0  0  0  0  0  0  0  0
    3.9712   -6.1975    1.7673 C   0  0  0  0  0  0  0  0  0  0  0  0
    4.9332   -7.0248    1.1590 C   0  0  0  0  0  0  0  0  0  0  0  0
    4.6153   -8.3720    0.9184 C   0  0  0  0  0  0  0  0  0  0  0  0
    3.3401   -8.8354    1.2829 C   0  0  0  0  0  0  0  0  0  0  0  0
    2.4375   -7.9330    1.8718 C   0  0  0  0  0  0  0  0  0  0  0  0
    2.7343   -6.6347    2.1052 N   0  0  0  0  0  0  0  0  0  0  0  0
    5.3654   -3.0487   -3.2017 H   0  0  0  0  0  0  0  0  0  0  0  0
    4.9029   -4.6821   -2.7380 H   0  0  0  0  0  0  0  0  0  0  0  0
    6.1303   -3.8386   -1.8233 H   0  0  0  0  0  0  0  0  0  0  0  0
    2.8227   -2.3116   -2.9828 H   0  0  0  0  0  0  0  0  0  0  0  0
    1.9815   -2.6582   -1.4829 H   0  0  0  0  0  0  0  0  0  0  0  0
    2.3992   -3.9569   -2.5619 H   0  0  0  0  0  0  0  0  0  0  0  0
    3.3294   -4.9811   -0.4506 H   0  0  0  0  0  0  0  0  0  0  0  0
    6.3103   -3.1341    1.5814 H   0  0  0  0  0  0  0  0  0  0  0  0
    4.8082   -1.1068   -1.7380 H   0  0  0  0  0  0  0  0  0  0  0  0
    3.6218   -1.2465   -0.4622 H   0  0  0  0  0  0  0  0  0  0  0  0
    5.5976   -1.3467    2.9343 H   0  0  0  0  0  0  0  0  0  0  0  0
    4.2504    0.8490    2.1278 H   0  0  0  0  0  0  0  0  0  0  0  0
    0.2010   -0.1515    2.1069 H   0  0  0  0  0  0  0  0  0  0  0  0
    3.3861   -5.6839    4.7371 H   0  0  0  0  0  0  0  0  0  0  0  0
    4.8579   -6.4267    4.1284 H   0  0  0  0  0  0  0  0  0  0  0  0
    5.0465   -5.7859    6.5274 H   0  0  0  0  0  0  0  0  0  0  0  0
    6.2455   -5.0163    5.5117 H   0  0  0  0  0  0  0  0  0  0  0  0
    3.6698   -3.7332    6.5787 H   0  0  0  0  0  0  0  0  0  0  0  0
    5.3149   -3.3414    7.0500 H   0  0  0  0  0  0  0  0  0  0  0  0
    5.9049   -6.6300    0.9050 H   0  0  0  0  0  0  0  0  0  0  0  0
    5.3385   -9.0380    0.4730 H   0  0  0  0  0  0  0  0  0  0  0  0
    3.0624   -9.8669    1.1138 H   0  0  0  0  0  0  0  0  0  0  0  0
    1.4486   -8.2553    2.1685 H   0  0  0  0  0  0  0  0  0  0  0  0
  1  2  1  0
  1 30  1  0
  1 31  1  0
  1 32  1  0
  2  9  1  0
  2  3  1  0
  2  4  1  0
  3 33  1  0
  3 34  1  0
  3 35  1  0
  4  5  2  0
  4 36  1  0
  5 23  1  0
  5  6  1  0
  6  7  1  0
  6 10  1  0
  6 37  1  1
  7  8  2  0
  7  9  1  0
  9 38  1  0
  9 39  1  0
 10 11  1  0
 10 16  1  0
 10 40  1  1
 11 15  1  0
 11 12  2  0
 12 13  1  0
 12 41  1  0
 13 14  2  0
 14 15  1  0
 14 42  1  0
 16 21  1  0
 16 17  2  0
 17 18  1  0
 17 23  1  0
 18 19  1  0
 18 43  1  0
 18 44  1  0
 19 20  1  0
 19 45  1  0
 19 46  1  0
 20 21  1  0
 20 47  1  0
 20 48  1  0
 21 22  2  0
 23 24  1  0
 24 29  1  0
 24 25  2  0
 25 26  1  0
 25 49  1  0
 26 27  2  0
 26 50  1  0
 27 28  1  0
 27 51  1  0
 28 29  2  0
 28 52  1  0
M  END
>  <i_m_ct_stereo_status>  (106) 
1

>  <s_m_source_file>  (106) 
/var/tmp/pbs.5076255.sched01/tmpzk3r62u5/0tgg_cfwk.sdf

>  <i_m_source_file_index>  (106) 
45

>  <i_lp_mmshare_version>  (106) 
48012

>  <i_f3d_flags>  (106) 
0

>  <s_epik_input>  (106) 
W0NIM11DKFtDSDNdKShbQ0hdPTEpW0NIMl1DKD1PKVtDQEhdKEMxMilbQ0BASF0oYzNbY0hdbltjSF1zMylDND1DKFtDSDJdW0NIMl1bQ0gyXUM0PU8pTjJjNVtjSF1bY0hdW2NIXVtjSF1uNQ==

>  <s_epik_cmdline>  (106) 
J2VwaWtfcHl0aG9uJywgJy1waHQnLCAnMi4wJywgJy1waCcsICc3LjAnLCAnLXRuJywgJzgnLCAnLW1hJywgJzIwMCcsICctaW1hZScsICc8aW5maWxlLm1hZT4nLCAnLW9tYWUnLCAnPG91dGZpbGUubWFlPic=

>  <r_lp_tautomer_probability>  (106) 
1

>  <r_epik_Ionization_Penalty>  (106) 
0.000116941

>  <r_epik_Ionization_Penalty_Charging>  (106) 
0

>  <r_epik_Ionization_Penalty_Neutral>  (106) 
0.000116941

>  <r_epik_State_Penalty>  (106) 
-0

>  <r_epik_Charging_Adjusted_Penalty>  (106) 
0

>  <i_epik_Tot_Q>  (106) 
0

>  <i_epik_Tot_abs_Q>  (106) 
0

>  <s_epik_Chemistry_Notes>  (106) 
This compound has an imine and may undergo hydrolysis.

>  <s_lp_Force_Field>  (106) 
OPLS3e

>  <r_lp_Energy>  (106) 
29.4061

>  <b_lp_Chiralities_Consistent>  (106) 
1

>  <s_lp_Variant>  (106) 
26:0-1

>  <s_i_glide_gridfile>  (106) 
pfpi4k_grid

>  <i_i_glide_lignum>  (106) 
45

>  <i_i_glide_rotatable_bonds>  (106) 
2

>  <r_i_docking_score>  (106) 
-2.75985

>  <r_i_glide_ligand_efficiency>  (106) 
-0.0951674

>  <r_i_glide_ligand_efficiency_sa>  (106) 
-0.292384

>  <r_i_glide_ligand_efficiency_ln>  (106) 
-0.631936

>  <r_i_glide_gscore>  (106) 
-2.75985

>  <r_i_glide_lipo>  (106) 
-0.384407

>  <r_i_glide_hbond>  (106) 
-0.0496512

>  <r_i_glide_metal>  (106) 
-0

>  <r_i_glide_rewards>  (106) 
-0.718593

>  <r_i_glide_evdw>  (106) 
-30.1009

>  <r_i_glide_ecoul>  (106) 
-2.2746

>  <r_i_glide_erotb>  (106) 
0.239033

>  <r_i_glide_esite>  (106) 
0

>  <r_i_glide_emodel>  (106) 
-38.2138

>  <r_i_glide_energy>  (106) 
-32.3755

>  <r_i_glide_einternal>  (106) 
0.528257

>  <r_i_glide_intrahb_reward>  (106) 
-0

>  <i_i_glide_confnum>  (106) 
4

>  <i_i_glide_posenum>  (106) 
40

>  <r_i_glide_eff_state_penalty>  (106) 
0

>  <ligand_id>  (106) 
26

>  <original_smiles>  (106) 
CC1(C)C=C2C(C(=O)C1)C(c1cncs1)C1=C(CCCC1=O)N2c1ccccn1

>  <smiles>  (106) 
[H]C1=C2N(c3nc([H])c([H])c([H])c3[H])C3=C(C(=O)C([H])([H])C([H])([H])C3([H])[H])C([H])(c3sc([H])nc3[H])C2([H])C(=O)C([H])([H])C1(C([H])([H])[H])C([H])([H])[H]

$$$$
26:0:1
     RDKit          3D

 52 56  0  0  1  0  0  0  0  0999 V2000
    3.9738  -10.4876    6.3856 C   0  0  0  0  0  0  0  0  0  0  0  0
    2.8061   -9.5102    6.1329 C   0  0  0  0  0  0  0  0  0  0  0  0
    2.0171   -9.2747    7.4321 C   0  0  0  0  0  0  0  0  0  0  0  0
    3.3974   -8.1869    5.6669 C   0  0  0  0  0  0  0  0  0  0  0  0
    3.4544   -7.7654    4.3811 C   0  0  0  0  0  0  0  0  0  0  0  0
    2.9082   -8.6095    3.2257 C   0  0  1  0  0  0  0  0  0  0  0  0
    2.3822   -9.9819    3.6644 C   0  0  0  0  0  0  0  0  0  0  0  0
    2.3829  -10.9420    2.9018 O   0  0  0  0  0  0  0  0  0  0  0  0
    1.8313  -10.0851    5.0807 C   0  0  0  0  0  0  0  0  0  0  0  0
    1.9269   -7.7926    2.3647 C   0  0  1  0  0  0  0  0  0  0  0  0
    0.5834   -7.5692    2.9993 C   0  0  0  0  0  0  0  0  0  0  0  0
    0.2586   -6.6813    3.9971 C   0  0  0  0  0  0  0  0  0  0  0  0
   -1.0952   -6.6726    4.3337 N   0  0  0  0  0  0  0  0  0  0  0  0
   -1.7776   -7.5758    3.6228 C   0  0  0  0  0  0  0  0  0  0  0  0
   -0.8089   -8.4925    2.4919 S   0  0  0  0  0  0  0  0  0  0  0  0
    2.6008   -6.4726    2.0081 C   0  0  0  0  0  0  0  0  0  0  0  0
    3.5929   -5.9420    2.7713 C   0  0  0  0  0  0  0  0  0  0  0  0
    4.3658   -4.6975    2.3110 C   0  0  0  0  0  0  0  0  0  0  0  0
    4.3236   -4.5088    0.7958 C   0  0  0  0  0  0  0  0  0  0  0  0
    2.8861   -4.5654    0.2772 C   0  0  0  0  0  0  0  0  0  0  0  0
    2.1614   -5.8272    0.7454 C   0  0  0  0  0  0  0  0  0  0  0  0
    1.1788   -6.2026    0.1029 O   0  0  0  0  0  0  0  0  0  0  0  0
    4.0024   -6.5257    3.9957 N   0  0  0  0  0  0  0  0  0  0  0  0
    4.9424   -5.8875    4.8338 C   0  0  0  0  0  0  0  0  0  0  0  0
    6.1408   -6.5520    5.1643 C   0  0  0  0  0  0  0  0  0  0  0  0
    7.0857   -5.8948    5.9711 C   0  0  0  0  0  0  0  0  0  0  0  0
    6.7943   -4.5956    6.4223 C   0  0  0  0  0  0  0  0  0  0  0  0
    5.5663   -4.0150    6.0558 C   0  0  0  0  0  0  0  0  0  0  0  0
    4.6489   -4.6470    5.2938 N   0  0  0  0  0  0  0  0  0  0  0  0
    3.6141  -11.4689    6.6996 H   0  0  0  0  0  0  0  0  0  0  0  0
    4.6500  -10.1155    7.1579 H   0  0  0  0  0  0  0  0  0  0  0  0
    4.5710  -10.6330    5.4834 H   0  0  0  0  0  0  0  0  0  0  0  0
    1.5643  -10.1988    7.7883 H   0  0  0  0  0  0  0  0  0  0  0  0
    1.2092   -8.5598    7.2739 H   0  0  0  0  0  0  0  0  0  0  0  0
    2.6495   -8.8922    8.2335 H   0  0  0  0  0  0  0  0  0  0  0  0
    3.7730   -7.5575    6.4613 H   0  0  0  0  0  0  0  0  0  0  0  0
    3.7791   -8.8290    2.6103 H   0  0  0  0  0  0  0  0  0  0  0  0
    1.5807  -11.1208    5.3105 H   0  0  0  0  0  0  0  0  0  0  0  0
    0.8959   -9.5282    5.0924 H   0  0  0  0  0  0  0  0  0  0  0  0
    1.7822   -8.3643    1.4470 H   0  0  0  0  0  0  0  0  0  0  0  0
    0.9255   -5.9939    4.4987 H   0  0  0  0  0  0  0  0  0  0  0  0
   -2.8458   -7.6782    3.7160 H   0  0  0  0  0  0  0  0  0  0  0  0
    3.9092   -3.8261    2.7793 H   0  0  0  0  0  0  0  0  0  0  0  0
    5.4126   -4.7291    2.6224 H   0  0  0  0  0  0  0  0  0  0  0  0
    4.7754   -3.5540    0.5251 H   0  0  0  0  0  0  0  0  0  0  0  0
    4.9249   -5.2881    0.3262 H   0  0  0  0  0  0  0  0  0  0  0  0
    2.3170   -3.7035    0.6308 H   0  0  0  0  0  0  0  0  0  0  0  0
    2.8841   -4.5300   -0.8095 H   0  0  0  0  0  0  0  0  0  0  0  0
    6.3298   -7.5460    4.7876 H   0  0  0  0  0  0  0  0  0  0  0  0
    8.0143   -6.3808    6.2319 H   0  0  0  0  0  0  0  0  0  0  0  0
    7.4987   -4.0493    7.0338 H   0  0  0  0  0  0  0  0  0  0  0  0
    5.3130   -3.0117    6.3655 H   0  0  0  0  0  0  0  0  0  0  0  0
  1  2  1  0
  1 30  1  0
  1 31  1  0
  1 32  1  0
  2  9  1  0
  2  3  1  0
  2  4  1  0
  3 33  1  0
  3 34  1  0
  3 35  1  0
  4  5  2  0
  4 36  1  0
  5 23  1  0
  5  6  1  0
  6  7  1  0
  6 10  1  0
  6 37  1  6
  7  8  2  0
  7  9  1  0
  9 38  1  0
  9 39  1  0
 10 11  1  0
 10 16  1  0
 10 40  1  6
 11 15  1  0
 11 12  2  0
 12 13  1  0
 12 41  1  0
 13 14  2  0
 14 15  1  0
 14 42  1  0
 16 21  1  0
 16 17  2  0
 17 18  1  0
 17 23  1  0
 18 19  1  0
 18 43  1  0
 18 44  1  0
 19 20  1  0
 19 45  1  0
 19 46  1  0
 20 21  1  0
 20 47  1  0
 20 48  1  0
 21 22  2  0
 23 24  1  0
 24 29  1  0
 24 25  2  0
 25 26  1  0
 25 49  1  0
 26 27  2  0
 26 50  1  0
 27 28  1  0
 27 51  1  0
 28 29  2  0
 28 52  1  0
M  END
>  <i_m_ct_stereo_status>  (107) 
1

>  <s_m_source_file>  (107) 
/var/tmp/pbs.5076255.sched01/tmpzk3r62u5/0tgg_cfwk.sdf

>  <i_m_source_file_index>  (107) 
45

>  <i_lp_mmshare_version>  (107) 
48012

>  <i_f3d_flags>  (107) 
0

>  <s_epik_input>  (107) 
W0NIM11DKFtDSDNdKShbQ0hdPTEpW0NIMl1DKD1PKVtDQEhdKEMxMilbQ0BASF0oYzNbY0hdbltjSF1zMylDND1DKFtDSDJdW0NIMl1bQ0gyXUM0PU8pTjJjNVtjSF1bY0hdW2NIXVtjSF1uNQ==

>  <s_epik_cmdline>  (107) 
J2VwaWtfcHl0aG9uJywgJy1waHQnLCAnMi4wJywgJy1waCcsICc3LjAnLCAnLXRuJywgJzgnLCAnLW1hJywgJzIwMCcsICctaW1hZScsICc8aW5maWxlLm1hZT4nLCAnLW9tYWUnLCAnPG91dGZpbGUubWFlPic=

>  <r_lp_tautomer_probability>  (107) 
1

>  <r_epik_Ionization_Penalty>  (107) 
0.000116941

>  <r_epik_Ionization_Penalty_Charging>  (107) 
0

>  <r_epik_Ionization_Penalty_Neutral>  (107) 
0.000116941

>  <r_epik_State_Penalty>  (107) 
-0

>  <r_epik_Charging_Adjusted_Penalty>  (107) 
0

>  <i_epik_Tot_Q>  (107) 
0

>  <i_epik_Tot_abs_Q>  (107) 
0

>  <s_epik_Chemistry_Notes>  (107) 
This compound has an imine and may undergo hydrolysis.

>  <s_lp_Force_Field>  (107) 
OPLS3e

>  <r_lp_Energy>  (107) 
29.4061

>  <b_lp_Chiralities_Consistent>  (107) 
1

>  <s_lp_Variant>  (107) 
26:0-1

>  <s_i_glide_gridfile>  (107) 
pfpi4k_grid

>  <i_i_glide_lignum>  (107) 
45

>  <i_i_glide_rotatable_bonds>  (107) 
2

>  <r_i_docking_score>  (107) 
-2.63375

>  <r_i_glide_ligand_efficiency>  (107) 
-0.0908189

>  <r_i_glide_ligand_efficiency_sa>  (107) 
-0.279024

>  <r_i_glide_ligand_efficiency_ln>  (107) 
-0.603061

>  <r_i_glide_gscore>  (107) 
-2.63375

>  <r_i_glide_lipo>  (107) 
-0.0711754

>  <r_i_glide_hbond>  (107) 
-0.36121

>  <r_i_glide_metal>  (107) 
-0

>  <r_i_glide_rewards>  (107) 
-0.644225

>  <r_i_glide_evdw>  (107) 
-26.6607

>  <r_i_glide_ecoul>  (107) 
-2.77245

>  <r_i_glide_erotb>  (107) 
0.239033

>  <r_i_glide_esite>  (107) 
-0.0472694

>  <r_i_glide_emodel>  (107) 
-34.9468

>  <r_i_glide_energy>  (107) 
-29.4331

>  <r_i_glide_einternal>  (107) 
0.585146

>  <r_i_glide_intrahb_reward>  (107) 
-0

>  <i_i_glide_confnum>  (107) 
4

>  <i_i_glide_posenum>  (107) 
2

>  <r_i_glide_eff_state_penalty>  (107) 
0

>  <ligand_id>  (107) 
26

>  <original_smiles>  (107) 
CC1(C)C=C2C(C(=O)C1)C(c1cncs1)C1=C(CCCC1=O)N2c1ccccn1

>  <smiles>  (107) 
[H]C1=C2N(c3nc([H])c([H])c([H])c3[H])C3=C(C(=O)C([H])([H])C([H])([H])C3([H])[H])C([H])(c3sc([H])nc3[H])C2([H])C(=O)C([H])([H])C1(C([H])([H])[H])C([H])([H])[H]

$$$$
26:0:2
     RDKit          3D

 52 56  0  0  1  0  0  0  0  0999 V2000
    5.0936   -3.5846   -2.3560 C   0  0  0  0  0  0  0  0  0  0  0  0
    3.9761   -3.0627   -1.4333 C   0  0  0  0  0  0  0  0  0  0  0  0
    2.6407   -2.9943   -2.1950 C   0  0  0  0  0  0  0  0  0  0  0  0
    3.8407   -4.0279   -0.2603 C   0  0  0  0  0  0  0  0  0  0  0  0
    4.3516   -3.8297    0.9803 C   0  0  0  0  0  0  0  0  0  0  0  0
    5.1499   -2.5742    1.3393 C   0  0  1  0  0  0  0  0  0  0  0  0
    5.3774   -1.6416    0.1447 C   0  0  0  0  0  0  0  0  0  0  0  0
    6.3654   -0.9170    0.0793 O   0  0  0  0  0  0  0  0  0  0  0  0
    4.3082   -1.6404   -0.9408 C   0  0  0  0  0  0  0  0  0  0  0  0
    4.5790   -1.8915    2.6003 C   0  0  1  0  0  0  0  0  0  0  0  0
    3.2800   -1.1500    2.4001 C   0  0  0  0  0  0  0  0  0  0  0  0
    2.0156   -1.5669    2.7425 C   0  0  0  0  0  0  0  0  0  0  0  0
    1.0068   -0.6344    2.4876 N   0  0  0  0  0  0  0  0  0  0  0  0
    1.4907    0.4698    1.9174 C   0  0  0  0  0  0  0  0  0  0  0  0
    3.2331    0.4654    1.7253 S   0  0  0  0  0  0  0  0  0  0  0  0
    4.4529   -2.9607    3.6825 C   0  0  0  0  0  0  0  0  0  0  0  0
    4.3145   -4.2794    3.3767 C   0  0  0  0  0  0  0  0  0  0  0  0
    4.3289   -5.3545    4.4715 C   0  0  0  0  0  0  0  0  0  0  0  0
    5.0442   -4.8828    5.7390 C   0  0  0  0  0  0  0  0  0  0  0  0
    4.5037   -3.5306    6.2097 C   0  0  0  0  0  0  0  0  0  0  0  0
    4.5471   -2.4922    5.0898 C   0  0  0  0  0  0  0  0  0  0  0  0
    4.6113   -1.3027    5.4002 O   0  0  0  0  0  0  0  0  0  0  0  0
    4.1989   -4.7421    2.0417 N   0  0  0  0  0  0  0  0  0  0  0  0
    3.9316   -6.0970    1.7617 C   0  0  0  0  0  0  0  0  0  0  0  0
    4.9318   -6.8844    1.1605 C   0  0  0  0  0  0  0  0  0  0  0  0
    4.6720   -8.2445    0.9218 C   0  0  0  0  0  0  0  0  0  0  0  0
    3.4166   -8.7614    1.2806 C   0  0  0  0  0  0  0  0  0  0  0  0
    2.4723   -7.8957    1.8635 C   0  0  0  0  0  0  0  0  0  0  0  0
    2.7138   -6.5863    2.0939 N   0  0  0  0  0  0  0  0  0  0  0  0
    5.2585   -2.9238   -3.2071 H   0  0  0  0  0  0  0  0  0  0  0  0
    4.8576   -4.5793   -2.7380 H   0  0  0  0  0  0  0  0  0  0  0  0
    6.0392   -3.6731   -1.8170 H   0  0  0  0  0  0  0  0  0  0  0  0
    2.6856   -2.2873   -3.0222 H   0  0  0  0  0  0  0  0  0  0  0  0
    1.8405   -2.6688   -1.5327 H   0  0  0  0  0  0  0  0  0  0  0  0
    2.3303   -3.9517   -2.6021 H   0  0  0  0  0  0  0  0  0  0  0  0
    3.2684   -4.9200   -0.4697 H   0  0  0  0  0  0  0  0  0  0  0  0
    6.1451   -2.9433    1.5907 H   0  0  0  0  0  0  0  0  0  0  0  0
    4.6091   -0.9965   -1.7662 H   0  0  0  0  0  0  0  0  0  0  0  0
    3.4134   -1.1926   -0.5135 H   0  0  0  0  0  0  0  0  0  0  0  0
    5.3316   -1.1694    2.9196 H   0  0  0  0  0  0  0  0  0  0  0  0
    1.7475   -2.5067    3.2081 H   0  0  0  0  0  0  0  0  0  0  0  0
    0.8355    1.2749    1.6179 H   0  0  0  0  0  0  0  0  0  0  0  0
    3.2947   -5.5909    4.7214 H   0  0  0  0  0  0  0  0  0  0  0  0
    4.8006   -6.2797    4.1334 H   0  0  0  0  0  0  0  0  0  0  0  0
    4.9324   -5.6205    6.5330 H   0  0  0  0  0  0  0  0  0  0  0  0
    6.1124   -4.8068    5.5290 H   0  0  0  0  0  0  0  0  0  0  0  0
    3.4735   -3.6240    6.5560 H   0  0  0  0  0  0  0  0  0  0  0  0
    5.0951   -3.1661    7.0463 H   0  0  0  0  0  0  0  0  0  0  0  0
    5.8876   -6.4500    0.9111 H   0  0  0  0  0  0  0  0  0  0  0  0
    5.4244   -8.8812    0.4803 H   0  0  0  0  0  0  0  0  0  0  0  0
    3.1839   -9.8055    1.1148 H   0  0  0  0  0  0  0  0  0  0  0  0
    1.4982   -8.2596    2.1584 H   0  0  0  0  0  0  0  0  0  0  0  0
  1  2  1  0
  1 30  1  0
  1 31  1  0
  1 32  1  0
  2  9  1  0
  2  3  1  0
  2  4  1  0
  3 33  1  0
  3 34  1  0
  3 35  1  0
  4  5  2  0
  4 36  1  0
  5 23  1  0
  5  6  1  0
  6  7  1  0
  6 10  1  0
  6 37  1  1
  7  8  2  0
  7  9  1  0
  9 38  1  0
  9 39  1  0
 10 11  1  0
 10 16  1  0
 10 40  1  1
 11 15  1  0
 11 12  2  0
 12 13  1  0
 12 41  1  0
 13 14  2  0
 14 15  1  0
 14 42  1  0
 16 21  1  0
 16 17  2  0
 17 18  1  0
 17 23  1  0
 18 19  1  0
 18 43  1  0
 18 44  1  0
 19 20  1  0
 19 45  1  0
 19 46  1  0
 20 21  1  0
 20 47  1  0
 20 48  1  0
 21 22  2  0
 23 24  1  0
 24 29  1  0
 24 25  2  0
 25 26  1  0
 25 49  1  0
 26 27  2  0
 26 50  1  0
 27 28  1  0
 27 51  1  0
 28 29  2  0
 28 52  1  0
M  END
>  <i_m_ct_stereo_status>  (108) 
1

>  <s_m_source_file>  (108) 
/var/tmp/pbs.5076255.sched01/tmpzk3r62u5/0tgg_cfwk.sdf

>  <i_m_source_file_index>  (108) 
45

>  <i_lp_mmshare_version>  (108) 
48012

>  <i_f3d_flags>  (108) 
0

>  <s_epik_input>  (108) 
W0NIM11DKFtDSDNdKShbQ0hdPTEpW0NIMl1DKD1PKVtDQEhdKEMxMilbQ0BASF0oYzNbY0hdbltjSF1zMylDND1DKFtDSDJdW0NIMl1bQ0gyXUM0PU8pTjJjNVtjSF1bY0hdW2NIXVtjSF1uNQ==

>  <s_epik_cmdline>  (108) 
J2VwaWtfcHl0aG9uJywgJy1waHQnLCAnMi4wJywgJy1waCcsICc3LjAnLCAnLXRuJywgJzgnLCAnLW1hJywgJzIwMCcsICctaW1hZScsICc8aW5maWxlLm1hZT4nLCAnLW9tYWUnLCAnPG91dGZpbGUubWFlPic=

>  <r_lp_tautomer_probability>  (108) 
1

>  <r_epik_Ionization_Penalty>  (108) 
0.000116941

>  <r_epik_Ionization_Penalty_Charging>  (108) 
0

>  <r_epik_Ionization_Penalty_Neutral>  (108) 
0.000116941

>  <r_epik_State_Penalty>  (108) 
-0

>  <r_epik_Charging_Adjusted_Penalty>  (108) 
0

>  <i_epik_Tot_Q>  (108) 
0

>  <i_epik_Tot_abs_Q>  (108) 
0

>  <s_epik_Chemistry_Notes>  (108) 
This compound has an imine and may undergo hydrolysis.

>  <s_lp_Force_Field>  (108) 
OPLS3e

>  <r_lp_Energy>  (108) 
29.4061

>  <b_lp_Chiralities_Consistent>  (108) 
1

>  <s_lp_Variant>  (108) 
26:0-1

>  <s_i_glide_gridfile>  (108) 
pfpi4k_grid

>  <i_i_glide_lignum>  (108) 
45

>  <i_i_glide_rotatable_bonds>  (108) 
2

>  <r_i_docking_score>  (108) 
-2.61219

>  <r_i_glide_ligand_efficiency>  (108) 
-0.0900755

>  <r_i_glide_ligand_efficiency_sa>  (108) 
-0.27674

>  <r_i_glide_ligand_efficiency_ln>  (108) 
-0.598125

>  <r_i_glide_gscore>  (108) 
-2.61219

>  <r_i_glide_lipo>  (108) 
-0.450109

>  <r_i_glide_hbond>  (108) 
-0.0266045

>  <r_i_glide_metal>  (108) 
-0

>  <r_i_glide_rewards>  (108) 
-0.705628

>  <r_i_glide_evdw>  (108) 
-30.8415

>  <r_i_glide_ecoul>  (108) 
-0.845369

>  <r_i_glide_erotb>  (108) 
0.239033

>  <r_i_glide_esite>  (108) 
0

>  <r_i_glide_emodel>  (108) 
-36.8888

>  <r_i_glide_energy>  (108) 
-31.6869

>  <r_i_glide_einternal>  (108) 
0.857965

>  <r_i_glide_intrahb_reward>  (108) 
-0

>  <i_i_glide_confnum>  (108) 
4

>  <i_i_glide_posenum>  (108) 
23

>  <r_i_glide_eff_state_penalty>  (108) 
0

>  <ligand_id>  (108) 
26

>  <original_smiles>  (108) 
CC1(C)C=C2C(C(=O)C1)C(c1cncs1)C1=C(CCCC1=O)N2c1ccccn1

>  <smiles>  (108) 
[H]C1=C2N(c3nc([H])c([H])c([H])c3[H])C3=C(C(=O)C([H])([H])C([H])([H])C3([H])[H])C([H])(c3sc([H])nc3[H])C2([H])C(=O)C([H])([H])C1(C([H])([H])[H])C([H])([H])[H]

$$$$
27:0:0
     RDKit          3D

 74 80  0  0  1  0  0  0  0  0999 V2000
    0.6849    1.0501    1.9485 C   0  0  0  0  0  0  0  0  0  0  0  0
    0.0487    1.4991    3.2703 C   0  0  2  0  0  0  0  0  0  0  0  0
   -1.3098    2.2089    3.0246 C   0  0  0  0  0  0  0  0  0  0  0  0
   -1.8189    3.0023    4.2292 C   0  0  0  0  0  0  0  0  0  0  0  0
   -2.9782    3.0227    4.5788 O   0  0  0  0  0  0  0  0  0  0  0  0
   -0.7363    3.7485    4.8793 C   0  0  0  0  0  0  0  0  0  0  0  0
   -0.6013    4.9577    4.4763 N   0  0  0  0  0  0  0  0  0  0  0  0
    0.6569    5.4781    3.9221 C   0  0  0  0  0  0  0  0  0  0  0  0
    2.0058    4.7999    4.3152 C   0  0  2  0  0  0  0  0  0  0  0  0
    3.1079    5.6521    3.6505 C   0  0  0  0  0  0  0  0  0  0  0  0
    1.9927    3.3649    3.6241 C   0  0  0  0  0  0  0  0  0  0  0  0
    1.0437    2.2504    4.2300 C   0  0  1  0  0  0  0  0  0  0  0  0
    0.3232    2.8155    5.5113 C   0  0  2  0  0  0  0  0  0  0  0  0
   -0.3166    1.6950    6.3861 C   0  0  0  0  0  0  0  0  0  0  0  0
    1.4447    3.4794    6.3440 C   0  0  2  0  0  0  0  0  0  0  0  0
    1.6825    3.3766    7.8336 C   0  0  0  0  0  0  0  0  0  0  0  0
    2.8255    4.0373    8.0246 C   0  0  0  0  0  0  0  0  0  0  0  0
    3.4336    4.5398    9.5565 Cl  0  0  0  0  0  0  0  0  0  0  0  0
    3.4329    4.6705    6.7591 C   0  0  1  0  0  0  0  0  0  0  0  0
    4.6231    3.8315    6.1974 C   0  0  2  0  0  0  0  0  0  0  0  0
    4.7732    2.2986    6.5298 C   0  0  1  0  0  0  0  0  0  0  0  0
    5.6701    1.3624    5.6894 C   0  0  0  0  0  0  0  0  0  0  0  0
    6.8474    1.1190    6.2645 C   0  0  0  0  0  0  0  0  0  0  0  0
    7.0619    1.8659    7.5684 C   0  0  1  0  0  0  0  0  0  0  0  0
    8.2003    2.7677    7.5565 O   0  0  0  0  0  0  0  0  0  0  0  0
    8.0134    4.0544    8.2119 C   0  0  1  0  0  0  0  0  0  0  0  0
    9.3976    4.6953    8.3898 C   0  0  0  0  0  0  0  0  0  0  0  0
    6.9015    4.9796    7.5487 C   0  0  0  0  0  0  0  0  0  0  0  0
    6.1524    5.6896    8.6900 C   0  0  0  0  0  0  0  0  0  0  0  0
    7.5065    6.0355    6.5876 C   0  0  0  0  0  0  0  0  0  0  0  0
    6.0574    3.9625    6.7583 C   0  0  1  0  0  0  0  0  0  0  0  0
    5.7961    2.7036    7.5655 C   0  0  1  0  0  0  0  0  0  0  0  0
    2.1113    4.7872    5.9176 C   0  0  1  0  0  0  0  0  0  0  0  0
    1.4221    6.0584    6.5336 C   0  0  0  0  0  0  0  0  0  0  0  0
    0.8806    1.8966    1.2862 H   0  0  0  0  0  0  0  0  0  0  0  0
    0.0178    0.3776    1.4108 H   0  0  0  0  0  0  0  0  0  0  0  0
    1.6213    0.5266    2.1288 H   0  0  0  0  0  0  0  0  0  0  0  0
   -0.2238    0.5752    3.7824 H   0  0  0  0  0  0  0  0  0  0  0  0
   -1.2287    2.9247    2.2104 H   0  0  0  0  0  0  0  0  0  0  0  0
   -2.0778    1.4926    2.7336 H   0  0  0  0  0  0  0  0  0  0  0  0
    0.5680    5.4602    2.8379 H   0  0  0  0  0  0  0  0  0  0  0  0
    0.7066    6.5533    4.1123 H   0  0  0  0  0  0  0  0  0  0  0  0
    4.0911    5.1756    3.6959 H   0  0  0  0  0  0  0  0  0  0  0  0
    3.1753    6.6375    4.1257 H   0  0  0  0  0  0  0  0  0  0  0  0
    2.8631    5.8032    2.5917 H   0  0  0  0  0  0  0  0  0  0  0  0
    1.7317    3.4991    2.5752 H   0  0  0  0  0  0  0  0  0  0  0  0
    3.0014    2.9538    3.6189 H   0  0  0  0  0  0  0  0  0  0  0  0
    1.7027    1.4501    4.5582 H   0  0  0  0  0  0  0  0  0  0  0  0
    0.4522    1.0412    6.8081 H   0  0  0  0  0  0  0  0  0  0  0  0
   -1.0083    1.0432    5.8561 H   0  0  0  0  0  0  0  0  0  0  0  0
   -0.8687    2.1394    7.2143 H   0  0  0  0  0  0  0  0  0  0  0  0
    2.1935    2.7348    6.1167 H   0  0  0  0  0  0  0  0  0  0  0  0
    0.9916    2.9190    8.5405 H   0  0  0  0  0  0  0  0  0  0  0  0
    3.8032    5.6656    7.0065 H   0  0  0  0  0  0  0  0  0  0  0  0
    4.6688    3.9396    5.1258 H   0  0  0  0  0  0  0  0  0  0  0  0
    3.9279    1.7823    6.9683 H   0  0  0  0  0  0  0  0  0  0  0  0
    5.3337    0.9214    4.7583 H   0  0  0  0  0  0  0  0  0  0  0  0
    7.5919    0.4546    5.8520 H   0  0  0  0  0  0  0  0  0  0  0  0
    7.0709    1.1828    8.4262 H   0  0  0  0  0  0  0  0  0  0  0  0
    7.6647    3.8140    9.2157 H   0  0  0  0  0  0  0  0  0  0  0  0
    9.3268    5.6658    8.8820 H   0  0  0  0  0  0  0  0  0  0  0  0
    9.8814    4.8347    7.4176 H   0  0  0  0  0  0  0  0  0  0  0  0
   10.0410    4.0568    8.9967 H   0  0  0  0  0  0  0  0  0  0  0  0
    5.4854    6.4437    8.2788 H   0  0  0  0  0  0  0  0  0  0  0  0
    6.8771    6.2551    9.2849 H   0  0  0  0  0  0  0  0  0  0  0  0
    5.5986    4.9830    9.3062 H   0  0  0  0  0  0  0  0  0  0  0  0
    6.7131    6.5735    6.0581 H   0  0  0  0  0  0  0  0  0  0  0  0
    8.1660    5.6001    5.8273 H   0  0  0  0  0  0  0  0  0  0  0  0
    8.0844    6.7879    7.1284 H   0  0  0  0  0  0  0  0  0  0  0  0
    6.6430    3.7425    5.8705 H   0  0  0  0  0  0  0  0  0  0  0  0
    5.3583    2.8959    8.5397 H   0  0  0  0  0  0  0  0  0  0  0  0
    1.6536    6.2076    7.5863 H   0  0  0  0  0  0  0  0  0  0  0  0
    0.3322    6.0122    6.5162 H   0  0  0  0  0  0  0  0  0  0  0  0
    1.7396    6.9801    6.0315 H   0  0  0  0  0  0  0  0  0  0  0  0
  1  2  1  0
  1 35  1  0
  1 36  1  0
  1 37  1  0
  2 12  1  0
  2  3  1  0
  2 38  1  1
  3  4  1  0
  3 39  1  0
  3 40  1  0
  4  5  2  0
  4  6  1  0
  6 13  1  0
  6  7  2  0
  7  8  1  0
  8  9  1  0
  8 41  1  0
  8 42  1  0
  9 33  1  0
  9 10  1  6
  9 11  1  0
 10 43  1  0
 10 44  1  0
 10 45  1  0
 11 12  1  0
 11 46  1  0
 11 47  1  0
 12 13  1  0
 12 48  1  1
 13 14  1  1
 13 15  1  0
 14 49  1  0
 14 50  1  0
 14 51  1  0
 15 33  1  0
 15 16  1  0
 15 52  1  6
 16 17  2  0
 16 53  1  0
 17 18  1  0
 17 19  1  0
 19 20  1  0
 19 33  1  0
 19 54  1  1
 20 31  1  0
 20 21  1  0
 20 55  1  6
 21 32  1  0
 21 22  1  0
 21 56  1  1
 22 23  2  0
 22 57  1  0
 23 24  1  0
 23 58  1  0
 24 32  1  0
 24 25  1  0
 24 59  1  1
 25 26  1  0
 26 27  1  0
 26 28  1  0
 26 60  1  1
 27 61  1  0
 27 62  1  0
 27 63  1  0
 28 29  1  0
 28 30  1  0
 28 31  1  0
 29 64  1  0
 29 65  1  0
 29 66  1  0
 30 67  1  0
 30 68  1  0
 30 69  1  0
 31 32  1  0
 31 70  1  6
 32 71  1  1
 33 34  1  1
 34 72  1  0
 34 73  1  0
 34 74  1  0
M  END
>  <i_m_ct_stereo_status>  (109) 
1

>  <s_m_source_file>  (109) 
/var/tmp/pbs.5076255.sched01/tmpzk3r62u5/0tgg_cfwk.sdf

>  <i_m_source_file_index>  (109) 
46

>  <i_lp_mmshare_version>  (109) 
48012

>  <i_f3d_flags>  (109) 
0

>  <s_epik_input>  (109) 
W0NIMl0xW0NAQEhdMltDQEhdKFtDSDNdKVtDSDJdQyg9TylDKD1OW0NIMl0zKVtDQF0yKFtDSDNdKVtDQEBIXShbQ0BdNChbQ0gzXSlbQ0BAXTEzW0NIM10pW0NIXT1DKENsKVtDQEhdNFtDQEhdNVtDQEhdNkMoW0NIM10pKFtDSDNdKVtDQEhdKFtDSDNdKU9bQ0BIXShbQ0hdPVtDSF03KVtDQEBIXTZbQ0BASF01Nw==

>  <s_epik_cmdline>  (109) 
J2VwaWtfcHl0aG9uJywgJy1waHQnLCAnMi4wJywgJy1waCcsICc3LjAnLCAnLXRuJywgJzgnLCAnLW1hJywgJzIwMCcsICctaW1hZScsICc8aW5maWxlLm1hZT4nLCAnLW9tYWUnLCAnPG91dGZpbGUubWFlPic=

>  <r_lp_tautomer_probability>  (109) 
1

>  <r_epik_Ionization_Penalty>  (109) 
0.312352

>  <r_epik_Ionization_Penalty_Charging>  (109) 
0

>  <r_epik_Ionization_Penalty_Neutral>  (109) 
0.312352

>  <r_epik_State_Penalty>  (109) 
0.30645

>  <r_epik_Charging_Adjusted_Penalty>  (109) 
0.30645

>  <i_epik_Tot_Q>  (109) 
0

>  <i_epik_Tot_abs_Q>  (109) 
0

>  <s_epik_Chemistry_Notes>  (109) 
This compound has an imine and may undergo hydrolysis.

>  <s_lp_Force_Field>  (109) 
OPLS3e

>  <r_lp_Energy>  (109) 
171.564

>  <b_lp_Chiralities_Consistent>  (109) 
1

>  <s_lp_Variant>  (109) 
27:0-1

>  <s_i_glide_gridfile>  (109) 
pfpi4k_grid

>  <i_i_glide_lignum>  (109) 
46

>  <i_i_glide_rotatable_bonds>  (109) 
1

>  <r_i_docking_score>  (109) 
-2.23229

>  <r_i_glide_ligand_efficiency>  (109) 
-0.0656555

>  <r_i_glide_ligand_efficiency_sa>  (109) 
-0.212698

>  <r_i_glide_ligand_efficiency_ln>  (109) 
-0.493175

>  <r_i_glide_gscore>  (109) 
-2.23229

>  <r_i_glide_lipo>  (109) 
-0.301104

>  <r_i_glide_hbond>  (109) 
-0.0140781

>  <r_i_glide_metal>  (109) 
-0

>  <r_i_glide_rewards>  (109) 
-0.122067

>  <r_i_glide_evdw>  (109) 
-27.6848

>  <r_i_glide_ecoul>  (109) 
-2.90565

>  <r_i_glide_erotb>  (109) 
0.0873045

>  <r_i_glide_esite>  (109) 
-0.0622546

>  <r_i_glide_emodel>  (109) 
-33.0437

>  <r_i_glide_energy>  (109) 
-30.5904

>  <r_i_glide_einternal>  (109) 
1.59228

>  <r_i_glide_intrahb_reward>  (109) 
-0

>  <i_i_glide_confnum>  (109) 
6

>  <i_i_glide_posenum>  (109) 
27

>  <r_i_glide_eff_state_penalty>  (109) 
0

>  <ligand_id>  (109) 
27

>  <original_smiles>  (109) 
CC1CC(=O)C2=NCC3(C)CC1C2(C)C1C=C(Cl)C(C2C4C=CC5OC(C)C(C)(C)C2C54)C13C

>  <smiles>  (109) 
[H]C1=C([H])C2([H])C3([H])C1([H])OC([H])(C([H])([H])[H])C(C([H])([H])[H])(C([H])([H])[H])C3([H])C2([H])C1([H])C(Cl)=C([H])C2([H])C3(C([H])([H])[H])C4=NC([H])([H])C(C([H])([H])[H])(C([H])([H])C3([H])C([H])(C([H])([H])[H])C([H])([H])C4=O)C12C([H])([H])[H]

$$$$
28:0:0
     RDKit          3D

 62 66  0  0  1  0  0  0  0  0999 V2000
    6.1685    0.3930    5.2278 C   0  0  0  0  0  0  0  0  0  0  0  0
    4.7009    0.0977    5.5939 C   0  0  0  0  0  0  0  0  0  0  0  0
    4.5021    0.1642    7.1193 C   0  0  0  0  0  0  0  0  0  0  0  0
    4.1302   -1.2124    4.9523 C   0  0  2  0  0  0  0  0  0  0  0  0
    4.8473   -2.4911    5.4922 C   0  0  0  0  0  0  0  0  0  0  0  0
    4.6559   -3.8402    4.7317 C   0  0  0  0  0  0  0  0  0  0  0  0
    3.8701   -3.7785    3.3832 C   0  0  1  0  0  0  0  0  0  0  0  0
    2.3800   -3.6068    3.8679 C   0  0  0  0  0  0  0  0  0  0  0  0
    4.4201   -2.4879    2.6889 C   0  0  2  0  0  0  0  0  0  0  0  0
    4.0425   -1.1845    3.4108 C   0  0  0  0  0  0  0  0  0  0  0  0
    3.7808   -0.0681    2.7183 C   0  0  0  0  0  0  0  0  0  0  0  0
    3.9780    0.0098    1.2967 C   0  0  0  0  0  0  0  0  0  0  0  0
    4.4219   -1.0303    0.5740 C   0  0  0  0  0  0  0  0  0  0  0  0
    4.6276   -2.4446    1.1095 C   0  0  1  0  0  0  0  0  0  0  0  0
    6.0103   -2.7860    1.0068 O   0  0  0  0  0  0  0  0  0  0  0  0
    6.2647   -4.0853    1.8102 O   0  0  0  0  0  0  0  0  0  0  0  0
    5.3117   -5.0907    1.4575 C   0  0  2  0  0  0  0  0  0  0  0  0
    6.1642   -6.3814    1.4153 C   0  0  0  0  0  0  0  0  0  0  0  0
    4.9018   -4.7390    0.0154 C   0  0  0  0  0  0  0  0  0  0  0  0
    3.9685   -3.5264    0.1239 C   0  0  2  0  0  0  0  0  0  0  0  0
    3.7633   -3.0198   -1.3336 C   0  0  0  0  0  0  0  0  0  0  0  0
    2.6124   -4.0603    0.6154 C   0  0  0  0  0  0  0  0  0  0  0  0
    2.7400   -5.2585    1.5885 C   0  0  1  0  0  0  0  0  0  0  0  0
    2.5206   -6.6433    0.9310 C   0  0  0  0  0  0  0  0  0  0  0  0
    4.0431   -5.1046    2.4670 C   0  0  2  0  0  0  0  0  0  0  0  0
    4.1177   -6.3460    3.4136 C   0  0  0  0  0  0  0  0  0  0  0  0
    6.8520   -0.3233    5.6833 H   0  0  0  0  0  0  0  0  0  0  0  0
    6.4704    1.3763    5.5880 H   0  0  0  0  0  0  0  0  0  0  0  0
    6.3292    0.3751    4.1489 H   0  0  0  0  0  0  0  0  0  0  0  0
    4.1194    0.9413    5.2246 H   0  0  0  0  0  0  0  0  0  0  0  0
    5.1064   -0.5750    7.6440 H   0  0  0  0  0  0  0  0  0  0  0  0
    3.4594    0.0093    7.3913 H   0  0  0  0  0  0  0  0  0  0  0  0
    4.7894    1.1472    7.4999 H   0  0  0  0  0  0  0  0  0  0  0  0
    3.0991   -1.2285    5.2961 H   0  0  0  0  0  0  0  0  0  0  0  0
    5.9184   -2.3151    5.4880 H   0  0  0  0  0  0  0  0  0  0  0  0
    4.5966   -2.6368    6.5441 H   0  0  0  0  0  0  0  0  0  0  0  0
    5.6436   -4.2594    4.5478 H   0  0  0  0  0  0  0  0  0  0  0  0
    4.1634   -4.5394    5.4091 H   0  0  0  0  0  0  0  0  0  0  0  0
    1.7248   -3.1462    3.1298 H   0  0  0  0  0  0  0  0  0  0  0  0
    2.2627   -3.0012    4.7564 H   0  0  0  0  0  0  0  0  0  0  0  0
    1.9318   -4.5509    4.1792 H   0  0  0  0  0  0  0  0  0  0  0  0
    5.4485   -2.3964    3.0343 H   0  0  0  0  0  0  0  0  0  0  0  0
    3.5331    0.8563    3.2209 H   0  0  0  0  0  0  0  0  0  0  0  0
    3.8756    0.9615    0.8139 H   0  0  0  0  0  0  0  0  0  0  0  0
    4.6553   -0.8451   -0.4644 H   0  0  0  0  0  0  0  0  0  0  0  0
    5.5760   -7.2557    1.1293 H   0  0  0  0  0  0  0  0  0  0  0  0
    6.6436   -6.5925    2.3754 H   0  0  0  0  0  0  0  0  0  0  0  0
    6.9678   -6.2975    0.6807 H   0  0  0  0  0  0  0  0  0  0  0  0
    5.7846   -4.5174   -0.5799 H   0  0  0  0  0  0  0  0  0  0  0  0
    4.4361   -5.5555   -0.5242 H   0  0  0  0  0  0  0  0  0  0  0  0
    3.4153   -3.8235   -1.9847 H   0  0  0  0  0  0  0  0  0  0  0  0
    4.6913   -2.6468   -1.7742 H   0  0  0  0  0  0  0  0  0  0  0  0
    3.0116   -2.2271   -1.3905 H   0  0  0  0  0  0  0  0  0  0  0  0
    2.0754   -3.2271    1.0567 H   0  0  0  0  0  0  0  0  0  0  0  0
    2.0018   -4.3689   -0.2342 H   0  0  0  0  0  0  0  0  0  0  0  0
    1.8457   -5.2394    2.1953 H   0  0  0  0  0  0  0  0  0  0  0  0
    3.4078   -7.0712    0.4787 H   0  0  0  0  0  0  0  0  0  0  0  0
    1.7338   -6.5966    0.1786 H   0  0  0  0  0  0  0  0  0  0  0  0
    2.1826   -7.3706    1.6694 H   0  0  0  0  0  0  0  0  0  0  0  0
    4.1342   -7.2922    2.8702 H   0  0  0  0  0  0  0  0  0  0  0  0
    3.2592   -6.3971    4.0873 H   0  0  0  0  0  0  0  0  0  0  0  0
    5.0229   -6.3535    4.0285 H   0  0  0  0  0  0  0  0  0  0  0  0
  1  2  1  0
  1 27  1  0
  1 28  1  0
  1 29  1  0
  2  3  1  0
  2  4  1  0
  2 30  1  0
  3 31  1  0
  3 32  1  0
  3 33  1  0
  4 10  1  0
  4  5  1  0
  4 34  1  1
  5  6  1  0
  5 35  1  0
  5 36  1  0
  6  7  1  0
  6 37  1  0
  6 38  1  0
  7 25  1  0
  7  8  1  1
  7  9  1  0
  8 39  1  0
  8 40  1  0
  8 41  1  0
  9 14  1  0
  9 10  1  0
  9 42  1  1
 10 11  2  0
 11 12  1  0
 11 43  1  0
 12 13  2  0
 12 44  1  0
 14 13  1  6
 13 45  1  0
 14 20  1  0
 14 15  1  0
 15 16  1  0
 16 17  1  0
 17 25  1  0
 17 18  1  6
 17 19  1  0
 18 46  1  0
 18 47  1  0
 18 48  1  0
 19 20  1  0
 19 49  1  0
 19 50  1  0
 20 21  1  6
 20 22  1  0
 21 51  1  0
 21 52  1  0
 21 53  1  0
 22 23  1  0
 22 54  1  0
 22 55  1  0
 23 24  1  0
 23 25  1  0
 23 56  1  1
 24 57  1  0
 24 58  1  0
 24 59  1  0
 25 26  1  1
 26 60  1  0
 26 61  1  0
 26 62  1  0
M  END
>  <i_m_ct_stereo_status>  (110) 
1

>  <s_m_source_file>  (110) 
/var/tmp/pbs.5076255.sched01/tmpr0mrskr5/46emy42_dx.sdf

>  <i_m_source_file_index>  (110) 
2

>  <i_lp_mmshare_version>  (110) 
48012

>  <i_f3d_flags>  (110) 
0

>  <s_epik_input>  (110) 
W0NIXTE9W0NIXVtDSF09QzJbQ0BIXShbQ0hdKFtDSDNdKVtDSDNdKVtDSDJdW0NIMl1bQ0BAXShbQ0gzXSkoW0NASF0yW0NAQF0xMzQpW0NAXTUoW0NIM10pW0NAQF0oT08zKShbQ0gzXSlbQ0gyXVtDQEBdNChbQ0gzXSlbQ0gyXVtDQEhdNVtDSDNd

>  <s_epik_cmdline>  (110) 
J2VwaWtfcHl0aG9uJywgJy1waHQnLCAnMi4wJywgJy1waCcsICc3LjAnLCAnLXRuJywgJzgnLCAnLW1hJywgJzIwMCcsICctaW1hZScsICc8aW5maWxlLm1hZT4nLCAnLW9tYWUnLCAnPG91dGZpbGUubWFlPic=

>  <r_lp_tautomer_probability>  (110) 
1

>  <r_epik_Ionization_Penalty>  (110) 
0

>  <r_epik_Ionization_Penalty_Charging>  (110) 
0

>  <r_epik_Ionization_Penalty_Neutral>  (110) 
0

>  <r_epik_State_Penalty>  (110) 
-0

>  <r_epik_Charging_Adjusted_Penalty>  (110) 
0

>  <i_epik_Tot_Q>  (110) 
0

>  <i_epik_Tot_abs_Q>  (110) 
0

>  <s_lp_Force_Field>  (110) 
OPLS3e

>  <r_lp_Energy>  (110) 
125.223

>  <b_lp_Chiralities_Consistent>  (110) 
1

>  <s_lp_Variant>  (110) 
28:0-1

>  <s_i_glide_gridfile>  (110) 
pfpi4k_grid

>  <i_i_glide_lignum>  (110) 
2

>  <i_i_glide_rotatable_bonds>  (110) 
1

>  <r_i_docking_score>  (110) 
-2.46539

>  <r_i_glide_ligand_efficiency>  (110) 
-0.0948228

>  <r_i_glide_ligand_efficiency_sa>  (110) 
-0.280912

>  <r_i_glide_ligand_efficiency_ln>  (110) 
-0.57899

>  <r_i_glide_gscore>  (110) 
-2.46539

>  <r_i_glide_lipo>  (110) 
-0.510981

>  <r_i_glide_hbond>  (110) 
0

>  <r_i_glide_metal>  (110) 
-0

>  <r_i_glide_rewards>  (110) 
-0.978127

>  <r_i_glide_evdw>  (110) 
-17.6505

>  <r_i_glide_ecoul>  (110) 
-0.62509

>  <r_i_glide_erotb>  (110) 
0

>  <r_i_glide_esite>  (110) 
0

>  <r_i_glide_emodel>  (110) 
-20.8858

>  <r_i_glide_energy>  (110) 
-18.2756

>  <r_i_glide_einternal>  (110) 
0.128012

>  <r_i_glide_intrahb_reward>  (110) 
-0

>  <i_i_glide_confnum>  (110) 
2

>  <i_i_glide_posenum>  (110) 
39

>  <r_i_glide_eff_state_penalty>  (110) 
0

>  <ligand_id>  (110) 
28

>  <original_smiles>  (110) 
CC(C)C1CCC2(C)C3C1=CC=CC31OOC3(C)CC1(C)CC(C)C32C

>  <smiles>  (110) 
[H]C1=C2C([H])(C([H])(C([H])([H])[H])C([H])([H])[H])C([H])([H])C([H])([H])C3(C([H])([H])[H])C2([H])C2(OOC4(C([H])([H])[H])C([H])([H])C2(C([H])([H])[H])C([H])([H])C([H])(C([H])([H])[H])C43C([H])([H])[H])C([H])=C1[H]

$$$$
28:0:1
     RDKit          3D

 62 66  0  0  1  0  0  0  0  0999 V2000
    3.5566    1.6226    5.2879 C   0  0  0  0  0  0  0  0  0  0  0  0
    4.4351    0.3412    5.3495 C   0  0  0  0  0  0  0  0  0  0  0  0
    5.8763    0.6172    4.8902 C   0  0  0  0  0  0  0  0  0  0  0  0
    3.8157   -0.9523    4.7228 C   0  0  2  0  0  0  0  0  0  0  0  0
    4.3813   -2.2383    5.4420 C   0  0  0  0  0  0  0  0  0  0  0  0
    4.1822   -3.6358    4.7681 C   0  0  0  0  0  0  0  0  0  0  0  0
    3.5674   -3.6290    3.3296 C   0  0  1  0  0  0  0  0  0  0  0  0
    2.0494   -3.3253    3.6224 C   0  0  0  0  0  0  0  0  0  0  0  0
    4.2935   -2.4311    2.6219 C   0  0  2  0  0  0  0  0  0  0  0  0
    3.9078   -1.0799    3.1831 C   0  0  0  0  0  0  0  0  0  0  0  0
    3.7943    0.0092    2.3595 C   0  0  0  0  0  0  0  0  0  0  0  0
    4.1977   -0.0564    0.9830 C   0  0  0  0  0  0  0  0  0  0  0  0
    4.6641   -1.1584    0.4080 C   0  0  0  0  0  0  0  0  0  0  0  0
    4.6923   -2.5295    1.0705 C   0  0  1  0  0  0  0  0  0  0  0  0
    6.0499   -2.9845    1.1730 O   0  0  0  0  0  0  0  0  0  0  0  0
    6.0891   -4.2120    2.0943 O   0  0  0  0  0  0  0  0  0  0  0  0
    5.1201   -5.1801    1.6918 C   0  0  2  0  0  0  0  0  0  0  0  0
    5.8715   -6.5192    1.8313 C   0  0  0  0  0  0  0  0  0  0  0  0
    4.9077   -4.9054    0.1906 C   0  0  0  0  0  0  0  0  0  0  0  0
    4.0614   -3.6259    0.0974 C   0  0  2  0  0  0  0  0  0  0  0  0
    4.0700   -3.2061   -1.3981 C   0  0  0  0  0  0  0  0  0  0  0  0
    2.6219   -4.0275    0.4552 C   0  0  0  0  0  0  0  0  0  0  0  0
    2.5439   -5.1571    1.5137 C   0  0  1  0  0  0  0  0  0  0  0  0
    2.2957   -6.5662    0.9251 C   0  0  0  0  0  0  0  0  0  0  0  0
    3.7467   -5.0291    2.5362 C   0  0  2  0  0  0  0  0  0  0  0  0
    3.6152   -6.1998    3.5610 C   0  0  0  0  0  0  0  0  0  0  0  0
    3.4546    2.0951    4.3259 H   0  0  0  0  0  0  0  0  0  0  0  0
    3.9805    2.4138    5.9240 H   0  0  0  0  0  0  0  0  0  0  0  0
    2.5468    1.4310    5.6699 H   0  0  0  0  0  0  0  0  0  0  0  0
    4.4995    0.1396    6.4195 H   0  0  0  0  0  0  0  0  0  0  0  0
    5.9194    0.8757    3.8338 H   0  0  0  0  0  0  0  0  0  0  0  0
    6.5240   -0.2434    5.0377 H   0  0  0  0  0  0  0  0  0  0  0  0
    6.3152    1.4397    5.4462 H   0  0  0  0  0  0  0  0  0  0  0  0
    2.7630   -0.8979    4.9791 H   0  0  0  0  0  0  0  0  0  0  0  0
    5.4548   -2.1288    5.5626 H   0  0  0  0  0  0  0  0  0  0  0  0
    4.0075   -2.2816    6.4679 H   0  0  0  0  0  0  0  0  0  0  0  0
    5.1580   -4.1395    4.7375 H   0  0  0  0  0  0  0  0  0  0  0  0
    3.5655   -4.2472    5.4297 H   0  0  0  0  0  0  0  0  0  0  0  0
    1.5206   -2.8745    2.7846 H   0  0  0  0  0  0  0  0  0  0  0  0
    1.8745   -2.6500    4.4473 H   0  0  0  0  0  0  0  0  0  0  0  0
    1.4909   -4.2103    3.9396 H   0  0  0  0  0  0  0  0  0  0  0  0
    5.2781   -2.3892    3.0837 H   0  0  0  0  0  0  0  0  0  0  0  0
    3.5506    0.9661    2.7050 H   0  0  0  0  0  0  0  0  0  0  0  0
    4.2231    0.8770    0.4546 H   0  0  0  0  0  0  0  0  0  0  0  0
    5.0487   -1.0709   -0.5945 H   0  0  0  0  0  0  0  0  0  0  0  0
    5.2565   -7.3646    1.5319 H   0  0  0  0  0  0  0  0  0  0  0  0
    6.2185   -6.6884    2.8517 H   0  0  0  0  0  0  0  0  0  0  0  0
    6.7589   -6.5424    1.1936 H   0  0  0  0  0  0  0  0  0  0  0  0
    5.8696   -4.7796   -0.3109 H   0  0  0  0  0  0  0  0  0  0  0  0
    4.4460   -5.7225   -0.3551 H   0  0  0  0  0  0  0  0  0  0  0  0
    3.7453   -4.0251   -2.0405 H   0  0  0  0  0  0  0  0  0  0  0  0
    5.0680   -2.9287   -1.7459 H   0  0  0  0  0  0  0  0  0  0  0  0
    3.3860   -2.3739   -1.5946 H   0  0  0  0  0  0  0  0  0  0  0  0
    2.1019   -3.1212    0.7776 H   0  0  0  0  0  0  0  0  0  0  0  0
    2.0942   -4.3531   -0.4351 H   0  0  0  0  0  0  0  0  0  0  0  0
    1.5952   -5.0360    2.0098 H   0  0  0  0  0  0  0  0  0  0  0  0
    3.1990   -7.0786    0.6111 H   0  0  0  0  0  0  0  0  0  0  0  0
    1.6111   -6.5227    0.0794 H   0  0  0  0  0  0  0  0  0  0  0  0
    1.8261   -7.2146    1.6642 H   0  0  0  0  0  0  0  0  0  0  0  0
    3.6239   -7.1803    3.0849 H   0  0  0  0  0  0  0  0  0  0  0  0
    2.6821   -6.1420    4.1260 H   0  0  0  0  0  0  0  0  0  0  0  0
    4.4401   -6.2215    4.2788 H   0  0  0  0  0  0  0  0  0  0  0  0
  1  2  1  0
  1 27  1  0
  1 28  1  0
  1 29  1  0
  2  3  1  0
  2  4  1  0
  2 30  1  0
  3 31  1  0
  3 32  1  0
  3 33  1  0
  4 10  1  0
  4  5  1  0
  4 34  1  6
  5  6  1  0
  5 35  1  0
  5 36  1  0
  6  7  1  0
  6 37  1  0
  6 38  1  0
  7 25  1  0
  7  8  1  1
  7  9  1  0
  8 39  1  0
  8 40  1  0
  8 41  1  0
  9 14  1  0
  9 10  1  0
  9 42  1  1
 10 11  2  0
 11 12  1  0
 11 43  1  0
 12 13  2  0
 12 44  1  0
 14 13  1  6
 13 45  1  0
 14 20  1  0
 14 15  1  0
 15 16  1  0
 16 17  1  0
 17 25  1  0
 17 18  1  6
 17 19  1  0
 18 46  1  0
 18 47  1  0
 18 48  1  0
 19 20  1  0
 19 49  1  0
 19 50  1  0
 20 21  1  6
 20 22  1  0
 21 51  1  0
 21 52  1  0
 21 53  1  0
 22 23  1  0
 22 54  1  0
 22 55  1  0
 23 24  1  0
 23 25  1  0
 23 56  1  1
 24 57  1  0
 24 58  1  0
 24 59  1  0
 25 26  1  1
 26 60  1  0
 26 61  1  0
 26 62  1  0
M  END
>  <i_m_ct_stereo_status>  (111) 
1

>  <s_m_source_file>  (111) 
/var/tmp/pbs.5076255.sched01/tmpr0mrskr5/46emy42_dx.sdf

>  <i_m_source_file_index>  (111) 
2

>  <i_lp_mmshare_version>  (111) 
48012

>  <i_f3d_flags>  (111) 
0

>  <s_epik_input>  (111) 
W0NIXTE9W0NIXVtDSF09QzJbQ0BIXShbQ0hdKFtDSDNdKVtDSDNdKVtDSDJdW0NIMl1bQ0BAXShbQ0gzXSkoW0NASF0yW0NAQF0xMzQpW0NAXTUoW0NIM10pW0NAQF0oT08zKShbQ0gzXSlbQ0gyXVtDQEBdNChbQ0gzXSlbQ0gyXVtDQEhdNVtDSDNd

>  <s_epik_cmdline>  (111) 
J2VwaWtfcHl0aG9uJywgJy1waHQnLCAnMi4wJywgJy1waCcsICc3LjAnLCAnLXRuJywgJzgnLCAnLW1hJywgJzIwMCcsICctaW1hZScsICc8aW5maWxlLm1hZT4nLCAnLW9tYWUnLCAnPG91dGZpbGUubWFlPic=

>  <r_lp_tautomer_probability>  (111) 
1

>  <r_epik_Ionization_Penalty>  (111) 
0

>  <r_epik_Ionization_Penalty_Charging>  (111) 
0

>  <r_epik_Ionization_Penalty_Neutral>  (111) 
0

>  <r_epik_State_Penalty>  (111) 
-0

>  <r_epik_Charging_Adjusted_Penalty>  (111) 
0

>  <i_epik_Tot_Q>  (111) 
0

>  <i_epik_Tot_abs_Q>  (111) 
0

>  <s_lp_Force_Field>  (111) 
OPLS3e

>  <r_lp_Energy>  (111) 
125.223

>  <b_lp_Chiralities_Consistent>  (111) 
1

>  <s_lp_Variant>  (111) 
28:0-1

>  <s_i_glide_gridfile>  (111) 
pfpi4k_grid

>  <i_i_glide_lignum>  (111) 
2

>  <i_i_glide_rotatable_bonds>  (111) 
1

>  <r_i_docking_score>  (111) 
-2.45572

>  <r_i_glide_ligand_efficiency>  (111) 
-0.0944507

>  <r_i_glide_ligand_efficiency_sa>  (111) 
-0.27981

>  <r_i_glide_ligand_efficiency_ln>  (111) 
-0.576717

>  <r_i_glide_gscore>  (111) 
-2.45572

>  <r_i_glide_lipo>  (111) 
-0.512622

>  <r_i_glide_hbond>  (111) 
0

>  <r_i_glide_metal>  (111) 
-0

>  <r_i_glide_rewards>  (111) 
-0.978127

>  <r_i_glide_evdw>  (111) 
-17.2443

>  <r_i_glide_ecoul>  (111) 
-0.685024

>  <r_i_glide_erotb>  (111) 
0

>  <r_i_glide_esite>  (111) 
0

>  <r_i_glide_emodel>  (111) 
-19.6935

>  <r_i_glide_energy>  (111) 
-17.9293

>  <r_i_glide_einternal>  (111) 
1.32703

>  <r_i_glide_intrahb_reward>  (111) 
-0

>  <i_i_glide_confnum>  (111) 
2

>  <i_i_glide_posenum>  (111) 
1

>  <r_i_glide_eff_state_penalty>  (111) 
0

>  <ligand_id>  (111) 
28

>  <original_smiles>  (111) 
CC(C)C1CCC2(C)C3C1=CC=CC31OOC3(C)CC1(C)CC(C)C32C

>  <smiles>  (111) 
[H]C1=C2C([H])(C([H])(C([H])([H])[H])C([H])([H])[H])C([H])([H])C([H])([H])C3(C([H])([H])[H])C2([H])C2(OOC4(C([H])([H])[H])C([H])([H])C2(C([H])([H])[H])C([H])([H])C([H])(C([H])([H])[H])C43C([H])([H])[H])C([H])=C1[H]

$$$$
29:0:0
     RDKit          3D

 33 36  0  0  1  0  0  0  0  0999 V2000
    4.1835   -2.3072   -4.2956 O   0  0  0  0  0  0  0  0  0  0  0  0
    4.5125   -2.6134   -3.1483 C   0  0  0  0  0  0  0  0  0  0  0  0
    5.8285   -3.2820   -2.8147 C   0  0  0  0  0  0  0  0  0  0  0  0
    5.7511   -3.4256   -1.3030 C   0  0  1  0  0  0  0  0  0  0  0  0
    7.0657   -3.4182   -0.5531 C   0  0  0  0  0  0  0  0  0  0  0  0
    7.1936   -2.8679    0.6704 C   0  0  0  0  0  0  0  0  0  0  0  0
    6.0630   -2.1695    1.4076 C   0  0  1  0  0  0  0  0  0  0  0  0
    6.5565   -1.0530    2.1110 O   0  0  0  0  0  0  0  0  0  0  0  0
    4.9460   -1.7140    0.4924 C   0  0  1  0  0  0  0  0  0  0  0  0
    3.7337   -1.1257    1.1636 C   0  0  0  0  0  0  0  0  0  0  0  0
    2.7352   -1.9799    1.6836 C   0  0  0  0  0  0  0  0  0  0  0  0
    1.5862   -1.4408    2.2968 C   0  0  0  0  0  0  0  0  0  0  0  0
    1.4217   -0.0480    2.4083 C   0  0  0  0  0  0  0  0  0  0  0  0
    2.4190    0.8061    1.9029 C   0  0  0  0  0  0  0  0  0  0  0  0
    3.5674    0.2688    1.2794 C   0  0  0  0  0  0  0  0  0  0  0  0
    5.4197   -1.0346   -0.6842 O   0  0  0  0  0  0  0  0  0  0  0  0
    4.8190   -2.3308   -0.8622 C   0  0  1  0  0  0  0  0  0  0  0  0
    3.7050   -2.3180   -1.8939 C   0  0  1  0  0  0  0  0  0  0  0  0
    3.0165   -1.0918   -2.0236 O   0  0  0  0  0  0  0  0  0  0  0  0
    5.8786   -4.2499   -3.3130 H   0  0  0  0  0  0  0  0  0  0  0  0
    6.6614   -2.6555   -3.1186 H   0  0  0  0  0  0  0  0  0  0  0  0
    5.2738   -4.3762   -1.0714 H   0  0  0  0  0  0  0  0  0  0  0  0
    7.9094   -3.8961   -1.0164 H   0  0  0  0  0  0  0  0  0  0  0  0
    8.1401   -2.9297    1.1741 H   0  0  0  0  0  0  0  0  0  0  0  0
    5.6637   -2.8623    2.1457 H   0  0  0  0  0  0  0  0  0  0  0  0
    7.0138   -0.4584    1.5411 H   0  0  0  0  0  0  0  0  0  0  0  0
    2.8432   -3.0502    1.5730 H   0  0  0  0  0  0  0  0  0  0  0  0
    0.8203   -2.1053    2.6583 H   0  0  0  0  0  0  0  0  0  0  0  0
    0.5308    0.3628    2.8591 H   0  0  0  0  0  0  0  0  0  0  0  0
    2.2945    1.8741    1.9721 H   0  0  0  0  0  0  0  0  0  0  0  0
    4.3170    0.9365    0.8746 H   0  0  0  0  0  0  0  0  0  0  0  0
    2.9955   -3.1303   -1.7120 H   0  0  0  0  0  0  0  0  0  0  0  0
    2.2981   -1.0551   -1.3890 H   0  0  0  0  0  0  0  0  0  0  0  0
  1  2  2  0
  2 18  1  0
  2  3  1  0
  3  4  1  0
  3 20  1  0
  3 21  1  0
  4 17  1  0
  4  5  1  0
  4 22  1  6
  5  6  2  0
  5 23  1  0
  6  7  1  0
  6 24  1  0
  7  8  1  0
  7  9  1  0
  7 25  1  1
  8 26  1  0
  9 17  1  0
  9 10  1  1
  9 16  1  0
 10 15  1  0
 10 11  2  0
 11 12  1  0
 11 27  1  0
 12 13  2  0
 12 28  1  0
 13 14  1  0
 13 29  1  0
 14 15  2  0
 14 30  1  0
 15 31  1  0
 17 16  1  6
 17 18  1  0
 18 19  1  0
 18 32  1  1
 19 33  1  0
M  END
>  <i_m_ct_stereo_status>  (112) 
1

>  <s_m_source_file>  (112) 
/var/tmp/pbs.5076255.sched01/tmpr0mrskr5/46emy42_dx.sdf

>  <i_m_source_file_index>  (112) 
3

>  <i_lp_mmshare_version>  (112) 
48012

>  <i_f3d_flags>  (112) 
0

>  <s_epik_input>  (112) 
W09IXVtDQEhdMUMoPU8pW0NIMl1bQ0BIXShbQ0BAXTEyMylbQ0hdPVtDSF1bQ0BASF0oW09IXSlbQ0BdMihPMyljNFtjSF1bY0hdW2NIXVtjSF1bY0hdNA==

>  <s_epik_cmdline>  (112) 
J2VwaWtfcHl0aG9uJywgJy1waHQnLCAnMi4wJywgJy1waCcsICc3LjAnLCAnLXRuJywgJzgnLCAnLW1hJywgJzIwMCcsICctaW1hZScsICc8aW5maWxlLm1hZT4nLCAnLW9tYWUnLCAnPG91dGZpbGUubWFlPic=

>  <r_lp_tautomer_probability>  (112) 
1

>  <r_epik_Ionization_Penalty>  (112) 
4.16857e-06

>  <r_epik_Ionization_Penalty_Charging>  (112) 
0

>  <r_epik_Ionization_Penalty_Neutral>  (112) 
4.16857e-06

>  <r_epik_State_Penalty>  (112) 
-0

>  <r_epik_Charging_Adjusted_Penalty>  (112) 
0

>  <i_epik_Tot_Q>  (112) 
0

>  <i_epik_Tot_abs_Q>  (112) 
0

>  <s_lp_Force_Field>  (112) 
OPLS3e

>  <r_lp_Energy>  (112) 
19.2205

>  <b_lp_Chiralities_Consistent>  (112) 
1

>  <s_lp_Variant>  (112) 
29:0-1

>  <s_i_glide_gridfile>  (112) 
pfpi4k_grid

>  <i_i_glide_lignum>  (112) 
3

>  <i_i_glide_rotatable_bonds>  (112) 
3

>  <r_i_docking_score>  (112) 
-5.13668

>  <r_i_glide_ligand_efficiency>  (112) 
-0.270351

>  <r_i_glide_ligand_efficiency_sa>  (112) 
-0.721406

>  <r_i_glide_ligand_efficiency_ln>  (112) 
-1.30226

>  <r_i_glide_gscore>  (112) 
-5.13668

>  <r_i_glide_lipo>  (112) 
-0.822336

>  <r_i_glide_hbond>  (112) 
-0.292633

>  <r_i_glide_metal>  (112) 
-0

>  <r_i_glide_rewards>  (112) 
-1.81135

>  <r_i_glide_evdw>  (112) 
-18.8562

>  <r_i_glide_ecoul>  (112) 
-10.2155

>  <r_i_glide_erotb>  (112) 
0.264779

>  <r_i_glide_esite>  (112) 
0

>  <r_i_glide_emodel>  (112) 
-37.52

>  <r_i_glide_energy>  (112) 
-29.0717

>  <r_i_glide_einternal>  (112) 
0.831621

>  <r_i_glide_intrahb_reward>  (112) 
-0

>  <i_i_glide_confnum>  (112) 
2

>  <i_i_glide_posenum>  (112) 
19

>  <r_i_glide_eff_state_penalty>  (112) 
0

>  <ligand_id>  (112) 
29

>  <original_smiles>  (112) 
O=C1CC2C=CC(O)C3(c4ccccc4)OC23C1O

>  <smiles>  (112) 
[H]OC1([H])C([H])=C([H])C2([H])C([H])([H])C(=O)C([H])(O[H])C23OC13c1c([H])c([H])c([H])c([H])c1[H]

$$$$
29:0:1
     RDKit          3D

 33 36  0  0  1  0  0  0  0  0999 V2000
    4.1615   -2.3876   -4.2773 O   0  0  0  0  0  0  0  0  0  0  0  0
    4.5087   -2.6688   -3.1322 C   0  0  0  0  0  0  0  0  0  0  0  0
    5.8289   -3.3206   -2.8035 C   0  0  0  0  0  0  0  0  0  0  0  0
    5.7507   -3.4548   -1.2918 C   0  0  1  0  0  0  0  0  0  0  0  0
    7.0683   -3.4434   -0.5427 C   0  0  0  0  0  0  0  0  0  0  0  0
    7.1963   -2.8863    0.6701 C   0  0  0  0  0  0  0  0  0  0  0  0
    6.0685   -2.1819    1.4093 C   0  0  1  0  0  0  0  0  0  0  0  0
    6.5633   -1.0445    2.0688 O   0  0  0  0  0  0  0  0  0  0  0  0
    4.9527   -1.7359    0.4868 C   0  0  1  0  0  0  0  0  0  0  0  0
    3.7529   -1.1394    1.1597 C   0  0  0  0  0  0  0  0  0  0  0  0
    2.7418   -1.9838    1.6639 C   0  0  0  0  0  0  0  0  0  0  0  0
    1.5920   -1.4426    2.2797 C   0  0  0  0  0  0  0  0  0  0  0  0
    1.4405   -0.0486    2.4016 C   0  0  0  0  0  0  0  0  0  0  0  0
    2.4469    0.8002    1.9126 C   0  0  0  0  0  0  0  0  0  0  0  0
    3.5937    0.2568    1.2857 C   0  0  0  0  0  0  0  0  0  0  0  0
    5.4158   -1.0574   -0.6987 O   0  0  0  0  0  0  0  0  0  0  0  0
    4.8147   -2.3621   -0.8544 C   0  0  1  0  0  0  0  0  0  0  0  0
    3.6954   -2.3670   -1.8801 C   0  0  1  0  0  0  0  0  0  0  0  0
    3.0138   -1.1348   -2.0038 O   0  0  0  0  0  0  0  0  0  0  0  0
    5.8492   -4.2777   -3.3036 H   0  0  0  0  0  0  0  0  0  0  0  0
    6.6644   -2.7018   -3.1199 H   0  0  0  0  0  0  0  0  0  0  0  0
    5.2821   -4.4072   -1.0497 H   0  0  0  0  0  0  0  0  0  0  0  0
    7.9157   -3.9307   -1.0029 H   0  0  0  0  0  0  0  0  0  0  0  0
    8.1519   -2.9301    1.1688 H   0  0  0  0  0  0  0  0  0  0  0  0
    5.6800   -2.8719    2.1552 H   0  0  0  0  0  0  0  0  0  0  0  0
    5.9114   -0.7455    2.6763 H   0  0  0  0  0  0  0  0  0  0  0  0
    2.8348   -3.0575    1.5456 H   0  0  0  0  0  0  0  0  0  0  0  0
    0.8156   -2.1039    2.6324 H   0  0  0  0  0  0  0  0  0  0  0  0
    0.5497    0.3668    2.8539 H   0  0  0  0  0  0  0  0  0  0  0  0
    2.3312    1.8739    1.9861 H   0  0  0  0  0  0  0  0  0  0  0  0
    4.3454    0.9262    0.8842 H   0  0  0  0  0  0  0  0  0  0  0  0
    2.9941   -3.1847   -1.6897 H   0  0  0  0  0  0  0  0  0  0  0  0
    2.1692   -1.1625   -1.5395 H   0  0  0  0  0  0  0  0  0  0  0  0
  1  2  2  0
  2 18  1  0
  2  3  1  0
  3  4  1  0
  3 20  1  0
  3 21  1  0
  4 17  1  0
  4  5  1  0
  4 22  1  6
  5  6  2  0
  5 23  1  0
  6  7  1  0
  6 24  1  0
  7  8  1  0
  7  9  1  0
  7 25  1  1
  8 26  1  0
  9 17  1  0
  9 10  1  1
  9 16  1  0
 10 15  1  0
 10 11  2  0
 11 12  1  0
 11 27  1  0
 12 13  2  0
 12 28  1  0
 13 14  1  0
 13 29  1  0
 14 15  2  0
 14 30  1  0
 15 31  1  0
 17 16  1  6
 17 18  1  0
 18 19  1  0
 18 32  1  1
 19 33  1  0
M  END
>  <i_m_ct_stereo_status>  (113) 
1

>  <s_m_source_file>  (113) 
/var/tmp/pbs.5076255.sched01/tmpr0mrskr5/46emy42_dx.sdf

>  <i_m_source_file_index>  (113) 
3

>  <i_lp_mmshare_version>  (113) 
48012

>  <i_f3d_flags>  (113) 
0

>  <s_epik_input>  (113) 
W09IXVtDQEhdMUMoPU8pW0NIMl1bQ0BIXShbQ0BAXTEyMylbQ0hdPVtDSF1bQ0BASF0oW09IXSlbQ0BdMihPMyljNFtjSF1bY0hdW2NIXVtjSF1bY0hdNA==

>  <s_epik_cmdline>  (113) 
J2VwaWtfcHl0aG9uJywgJy1waHQnLCAnMi4wJywgJy1waCcsICc3LjAnLCAnLXRuJywgJzgnLCAnLW1hJywgJzIwMCcsICctaW1hZScsICc8aW5maWxlLm1hZT4nLCAnLW9tYWUnLCAnPG91dGZpbGUubWFlPic=

>  <r_lp_tautomer_probability>  (113) 
1

>  <r_epik_Ionization_Penalty>  (113) 
4.16857e-06

>  <r_epik_Ionization_Penalty_Charging>  (113) 
0

>  <r_epik_Ionization_Penalty_Neutral>  (113) 
4.16857e-06

>  <r_epik_State_Penalty>  (113) 
-0

>  <r_epik_Charging_Adjusted_Penalty>  (113) 
0

>  <i_epik_Tot_Q>  (113) 
0

>  <i_epik_Tot_abs_Q>  (113) 
0

>  <s_lp_Force_Field>  (113) 
OPLS3e

>  <r_lp_Energy>  (113) 
19.2205

>  <b_lp_Chiralities_Consistent>  (113) 
1

>  <s_lp_Variant>  (113) 
29:0-1

>  <s_i_glide_gridfile>  (113) 
pfpi4k_grid

>  <i_i_glide_lignum>  (113) 
3

>  <i_i_glide_rotatable_bonds>  (113) 
3

>  <r_i_docking_score>  (113) 
-4.7128

>  <r_i_glide_ligand_efficiency>  (113) 
-0.248042

>  <r_i_glide_ligand_efficiency_sa>  (113) 
-0.661876

>  <r_i_glide_ligand_efficiency_ln>  (113) 
-1.1948

>  <r_i_glide_gscore>  (113) 
-4.7128

>  <r_i_glide_lipo>  (113) 
-0.824815

>  <r_i_glide_hbond>  (113) 
-0.304

>  <r_i_glide_metal>  (113) 
-0

>  <r_i_glide_rewards>  (113) 
-1.81224

>  <r_i_glide_evdw>  (113) 
-18.6993

>  <r_i_glide_ecoul>  (113) 
-7.34371

>  <r_i_glide_erotb>  (113) 
0.264779

>  <r_i_glide_esite>  (113) 
0

>  <r_i_glide_emodel>  (113) 
-32.7064

>  <r_i_glide_energy>  (113) 
-26.043

>  <r_i_glide_einternal>  (113) 
2.0017

>  <r_i_glide_intrahb_reward>  (113) 
-0

>  <i_i_glide_confnum>  (113) 
2

>  <i_i_glide_posenum>  (113) 
2

>  <r_i_glide_eff_state_penalty>  (113) 
0

>  <ligand_id>  (113) 
29

>  <original_smiles>  (113) 
O=C1CC2C=CC(O)C3(c4ccccc4)OC23C1O

>  <smiles>  (113) 
[H]OC1([H])C([H])=C([H])C2([H])C([H])([H])C(=O)C([H])(O[H])C23OC13c1c([H])c([H])c([H])c([H])c1[H]

$$$$
29:0:2
     RDKit          3D

 33 36  0  0  1  0  0  0  0  0999 V2000
    1.5856   -5.7923    1.5567 O   0  0  0  0  0  0  0  0  0  0  0  0
    2.5525   -5.0373    1.4426 C   0  0  0  0  0  0  0  0  0  0  0  0
    3.8217   -5.1300    2.2769 C   0  0  0  0  0  0  0  0  0  0  0  0
    4.6393   -3.9510    1.7316 C   0  0  1  0  0  0  0  0  0  0  0  0
    6.1497   -4.0952    1.8006 C   0  0  0  0  0  0  0  0  0  0  0  0
    6.9801   -3.5980    0.8593 C   0  0  0  0  0  0  0  0  0  0  0  0
    6.5079   -2.8364   -0.3734 C   0  0  1  0  0  0  0  0  0  0  0  0
    7.3383   -3.0845   -1.4890 O   0  0  0  0  0  0  0  0  0  0  0  0
    5.0592   -3.1536   -0.7308 C   0  0  1  0  0  0  0  0  0  0  0  0
    4.4828   -2.3896   -1.8877 C   0  0  0  0  0  0  0  0  0  0  0  0
    4.6151   -0.9845   -1.9431 C   0  0  0  0  0  0  0  0  0  0  0  0
    4.0628   -0.2536   -3.0115 C   0  0  0  0  0  0  0  0  0  0  0  0
    3.3263   -0.9134   -4.0038 C   0  0  0  0  0  0  0  0  0  0  0  0
    3.1732   -2.3107   -3.9396 C   0  0  0  0  0  0  0  0  0  0  0  0
    3.7791   -3.0461   -2.9130 C   0  0  0  0  0  0  0  0  0  0  0  0
    4.7391   -4.5550   -0.6849 O   0  0  0  0  0  0  0  0  0  0  0  0
    4.1479   -3.7293    0.3259 C   0  0  1  0  0  0  0  0  0  0  0  0
    2.6468   -3.8984    0.4302 C   0  0  1  0  0  0  0  0  0  0  0  0
    1.9415   -4.2092   -0.7495 O   0  0  0  0  0  0  0  0  0  0  0  0
    3.5813   -5.0182    3.3358 H   0  0  0  0  0  0  0  0  0  0  0  0
    4.3060   -6.0958    2.1159 H   0  0  0  0  0  0  0  0  0  0  0  0
    4.3776   -3.0660    2.3124 H   0  0  0  0  0  0  0  0  0  0  0  0
    6.5281   -4.5979    2.6818 H   0  0  0  0  0  0  0  0  0  0  0  0
    8.0473   -3.6936    0.9864 H   0  0  0  0  0  0  0  0  0  0  0  0
    6.6208   -1.7792   -0.1284 H   0  0  0  0  0  0  0  0  0  0  0  0
    6.9859   -3.8331   -1.9538 H   0  0  0  0  0  0  0  0  0  0  0  0
    5.1206   -0.4481   -1.1577 H   0  0  0  0  0  0  0  0  0  0  0  0
    4.1704    0.8205   -3.0400 H   0  0  0  0  0  0  0  0  0  0  0  0
    2.8631   -0.3498   -4.7980 H   0  0  0  0  0  0  0  0  0  0  0  0
    2.5854   -2.8261   -4.6839 H   0  0  0  0  0  0  0  0  0  0  0  0
    3.6628   -4.1168   -2.9045 H   0  0  0  0  0  0  0  0  0  0  0  0
    2.2101   -2.9883    0.8475 H   0  0  0  0  0  0  0  0  0  0  0  0
    2.1995   -3.6027   -1.4318 H   0  0  0  0  0  0  0  0  0  0  0  0
  1  2  2  0
  2 18  1  0
  2  3  1  0
  3  4  1  0
  3 20  1  0
  3 21  1  0
  4 17  1  0
  4  5  1  0
  4 22  1  1
  5  6  2  0
  5 23  1  0
  6  7  1  0
  6 24  1  0
  7  8  1  0
  7  9  1  0
  7 25  1  1
  8 26  1  0
  9 17  1  0
  9 10  1  6
  9 16  1  0
 10 15  1  0
 10 11  2  0
 11 12  1  0
 11 27  1  0
 12 13  2  0
 12 28  1  0
 13 14  1  0
 13 29  1  0
 14 15  2  0
 14 30  1  0
 15 31  1  0
 17 16  1  6
 17 18  1  0
 18 19  1  0
 18 32  1  1
 19 33  1  0
M  END
>  <i_m_ct_stereo_status>  (114) 
1

>  <s_m_source_file>  (114) 
/var/tmp/pbs.5076255.sched01/tmpr0mrskr5/46emy42_dx.sdf

>  <i_m_source_file_index>  (114) 
3

>  <i_lp_mmshare_version>  (114) 
48012

>  <i_f3d_flags>  (114) 
0

>  <s_epik_input>  (114) 
W09IXVtDQEhdMUMoPU8pW0NIMl1bQ0BIXShbQ0BAXTEyMylbQ0hdPVtDSF1bQ0BASF0oW09IXSlbQ0BdMihPMyljNFtjSF1bY0hdW2NIXVtjSF1bY0hdNA==

>  <s_epik_cmdline>  (114) 
J2VwaWtfcHl0aG9uJywgJy1waHQnLCAnMi4wJywgJy1waCcsICc3LjAnLCAnLXRuJywgJzgnLCAnLW1hJywgJzIwMCcsICctaW1hZScsICc8aW5maWxlLm1hZT4nLCAnLW9tYWUnLCAnPG91dGZpbGUubWFlPic=

>  <r_lp_tautomer_probability>  (114) 
1

>  <r_epik_Ionization_Penalty>  (114) 
4.16857e-06

>  <r_epik_Ionization_Penalty_Charging>  (114) 
0

>  <r_epik_Ionization_Penalty_Neutral>  (114) 
4.16857e-06

>  <r_epik_State_Penalty>  (114) 
-0

>  <r_epik_Charging_Adjusted_Penalty>  (114) 
0

>  <i_epik_Tot_Q>  (114) 
0

>  <i_epik_Tot_abs_Q>  (114) 
0

>  <s_lp_Force_Field>  (114) 
OPLS3e

>  <r_lp_Energy>  (114) 
19.2205

>  <b_lp_Chiralities_Consistent>  (114) 
1

>  <s_lp_Variant>  (114) 
29:0-1

>  <s_i_glide_gridfile>  (114) 
pfpi4k_grid

>  <i_i_glide_lignum>  (114) 
3

>  <i_i_glide_rotatable_bonds>  (114) 
3

>  <r_i_docking_score>  (114) 
-3.91725

>  <r_i_glide_ligand_efficiency>  (114) 
-0.206171

>  <r_i_glide_ligand_efficiency_sa>  (114) 
-0.550147

>  <r_i_glide_ligand_efficiency_ln>  (114) 
-0.993106

>  <r_i_glide_gscore>  (114) 
-3.91725

>  <r_i_glide_lipo>  (114) 
-0.712926

>  <r_i_glide_hbond>  (114) 
-0.0779729

>  <r_i_glide_metal>  (114) 
-0

>  <r_i_glide_rewards>  (114) 
-1.64816

>  <r_i_glide_evdw>  (114) 
-22.7047

>  <r_i_glide_ecoul>  (114) 
-3.91115

>  <r_i_glide_erotb>  (114) 
0.264779

>  <r_i_glide_esite>  (114) 
-0.0210562

>  <r_i_glide_emodel>  (114) 
-32.3529

>  <r_i_glide_energy>  (114) 
-26.6158

>  <r_i_glide_einternal>  (114) 
1.55228

>  <r_i_glide_intrahb_reward>  (114) 
-0

>  <i_i_glide_confnum>  (114) 
2

>  <i_i_glide_posenum>  (114) 
14

>  <r_i_glide_eff_state_penalty>  (114) 
0

>  <ligand_id>  (114) 
29

>  <original_smiles>  (114) 
O=C1CC2C=CC(O)C3(c4ccccc4)OC23C1O

>  <smiles>  (114) 
[H]OC1([H])C([H])=C([H])C2([H])C([H])([H])C(=O)C([H])(O[H])C23OC13c1c([H])c([H])c([H])c([H])c1[H]

$$$$
30:0:0
     RDKit          3D

 49 52  0  0  1  0  0  0  0  0999 V2000
    1.3701   -3.7896   -1.6975 C   0  0  0  0  0  0  0  0  0  0  0  0
    2.7153   -3.1472   -1.6887 C   0  0  2  0  0  0  0  0  0  0  0  0
    3.2619   -3.2329   -3.1148 C   0  0  0  0  0  0  0  0  0  0  0  0
    4.5993   -2.5476   -3.1537 C   0  0  0  0  0  0  0  0  0  0  0  0
    4.7484   -1.5993   -3.9190 O   0  0  0  0  0  0  0  0  0  0  0  0
    5.6202   -3.0236   -2.0823 C   0  0  1  0  0  0  0  0  0  0  0  0
    6.8251   -2.3222   -2.2128 O   0  0  0  0  0  0  0  0  0  0  0  0
    4.9727   -2.8076   -0.6792 C   0  0  1  0  0  0  0  0  0  0  0  0
    3.7067   -3.7099   -0.6235 C   0  0  1  0  0  0  0  0  0  0  0  0
    3.1527   -3.9155    0.8003 C   0  0  2  0  0  0  0  0  0  0  0  0
    2.5686   -2.7246    1.5557 C   0  0  0  0  0  0  0  0  0  0  0  0
    3.8933   -3.3032    1.9976 C   0  0  1  0  0  0  0  0  0  0  0  0
    4.0422   -4.0479    3.2459 C   0  0  0  0  0  0  0  0  0  0  0  0
    3.4504   -5.2424    3.4682 C   0  0  0  0  0  0  0  0  0  0  0  0
    2.5463   -5.9573    2.4625 C   0  0  0  0  0  0  0  0  0  0  0  0
    3.0378   -7.4168    2.3794 C   0  0  0  0  0  0  0  0  0  0  0  0
    1.1029   -5.9090    2.9901 C   0  0  0  0  0  0  0  0  0  0  0  0
    2.5500   -5.3059    1.0660 C   0  0  0  0  0  0  0  0  0  0  0  0
    2.0512   -5.9492    0.1067 O   0  0  0  0  0  0  0  0  0  0  0  0
    5.0548   -2.5274    1.6594 O   0  0  0  0  0  0  0  0  0  0  0  0
    5.8536   -2.9778    0.5798 C   0  0  0  0  0  0  0  0  0  0  0  0
    6.3734   -4.4241    0.7714 C   0  0  0  0  0  0  0  0  0  0  0  0
    7.0086   -1.9635    0.6533 C   0  0  0  0  0  0  0  0  0  0  0  0
    1.3740   -4.8345   -1.9771 H   0  0  0  0  0  0  0  0  0  0  0  0
    0.6831   -3.2560   -2.3546 H   0  0  0  0  0  0  0  0  0  0  0  0
    1.0531   -3.6823   -0.7049 H   0  0  0  0  0  0  0  0  0  0  0  0
    2.5789   -2.0877   -1.4864 H   0  0  0  0  0  0  0  0  0  0  0  0
    3.3474   -4.2595   -3.4731 H   0  0  0  0  0  0  0  0  0  0  0  0
    2.5989   -2.7270   -3.8003 H   0  0  0  0  0  0  0  0  0  0  0  0
    5.8568   -4.0810   -2.2070 H   0  0  0  0  0  0  0  0  0  0  0  0
    7.3056   -2.6581   -2.9686 H   0  0  0  0  0  0  0  0  0  0  0  0
    4.6418   -1.7680   -0.6408 H   0  0  0  0  0  0  0  0  0  0  0  0
    4.0126   -4.6849   -0.9915 H   0  0  0  0  0  0  0  0  0  0  0  0
    2.5624   -1.7661    1.0488 H   0  0  0  0  0  0  0  0  0  0  0  0
    1.7114   -2.9150    2.1962 H   0  0  0  0  0  0  0  0  0  0  0  0
    4.6523   -3.5943    4.0176 H   0  0  0  0  0  0  0  0  0  0  0  0
    3.5953   -5.7347    4.4192 H   0  0  0  0  0  0  0  0  0  0  0  0
    4.0512   -7.4771    1.9763 H   0  0  0  0  0  0  0  0  0  0  0  0
    2.3990   -8.0422    1.7503 H   0  0  0  0  0  0  0  0  0  0  0  0
    3.0627   -7.8929    3.3645 H   0  0  0  0  0  0  0  0  0  0  0  0
    0.7424   -4.8848    3.0793 H   0  0  0  0  0  0  0  0  0  0  0  0
    1.0178   -6.3611    3.9768 H   0  0  0  0  0  0  0  0  0  0  0  0
    0.4113   -6.4444    2.3363 H   0  0  0  0  0  0  0  0  0  0  0  0
    7.0434   -4.6949   -0.0441 H   0  0  0  0  0  0  0  0  0  0  0  0
    5.5736   -5.1668    0.7866 H   0  0  0  0  0  0  0  0  0  0  0  0
    6.9257   -4.5168    1.7032 H   0  0  0  0  0  0  0  0  0  0  0  0
    7.8588   -2.2654    0.0437 H   0  0  0  0  0  0  0  0  0  0  0  0
    7.3524   -1.8975    1.6770 H   0  0  0  0  0  0  0  0  0  0  0  0
    6.6877   -0.9646    0.3522 H   0  0  0  0  0  0  0  0  0  0  0  0
  1  2  1  0
  1 24  1  0
  1 25  1  0
  1 26  1  0
  2  9  1  0
  2  3  1  0
  2 27  1  1
  3  4  1  0
  3 28  1  0
  3 29  1  0
  4  5  2  0
  4  6  1  0
  6  7  1  0
  6  8  1  0
  6 30  1  6
  7 31  1  0
  8 21  1  0
  8  9  1  0
  8 32  1  6
  9 10  1  0
  9 33  1  6
 10 12  1  0
 10 18  1  0
 10 11  1  6
 11 12  1  0
 11 34  1  0
 11 35  1  0
 12 13  1  0
 12 20  1  6
 13 14  2  0
 13 36  1  0
 14 15  1  0
 14 37  1  0
 15 16  1  0
 15 17  1  0
 15 18  1  0
 16 38  1  0
 16 39  1  0
 16 40  1  0
 17 41  1  0
 17 42  1  0
 17 43  1  0
 18 19  2  0
 20 21  1  0
 21 22  1  0
 21 23  1  0
 22 44  1  0
 22 45  1  0
 22 46  1  0
 23 47  1  0
 23 48  1  0
 23 49  1  0
M  END
>  <i_m_ct_stereo_status>  (115) 
1

>  <s_m_source_file>  (115) 
/var/tmp/pbs.5076255.sched01/tmpr0mrskr5/46emy42_dx.sdf

>  <i_m_source_file_index>  (115) 
4

>  <i_lp_mmshare_version>  (115) 
48012

>  <i_f3d_flags>  (115) 
0

>  <s_epik_input>  (115) 
W09IXVtDQEBIXTFDKD1PKVtDSDJdW0NAQEhdKFtDSDNdKVtDQEhdMltDQEhdMUMoW0NIM10pKFtDSDNdKU9bQ0BdKFtDQF0yMzQpKFtDSDJdMylbQ0hdPVtDSF1DKFtDSDNdKShbQ0gzXSlDND1P

>  <s_epik_cmdline>  (115) 
J2VwaWtfcHl0aG9uJywgJy1waHQnLCAnMi4wJywgJy1waCcsICc3LjAnLCAnLXRuJywgJzgnLCAnLW1hJywgJzIwMCcsICctaW1hZScsICc8aW5maWxlLm1hZT4nLCAnLW9tYWUnLCAnPG91dGZpbGUubWFlPic=

>  <r_lp_tautomer_probability>  (115) 
1

>  <r_epik_Ionization_Penalty>  (115) 
1.81898e-07

>  <r_epik_Ionization_Penalty_Charging>  (115) 
0

>  <r_epik_Ionization_Penalty_Neutral>  (115) 
1.81898e-07

>  <r_epik_State_Penalty>  (115) 
-0

>  <r_epik_Charging_Adjusted_Penalty>  (115) 
0

>  <i_epik_Tot_Q>  (115) 
0

>  <i_epik_Tot_abs_Q>  (115) 
0

>  <s_lp_Force_Field>  (115) 
OPLS3e

>  <r_lp_Energy>  (115) 
29.4105

>  <b_lp_Chiralities_Consistent>  (115) 
1

>  <s_lp_Variant>  (115) 
30:0-1

>  <s_i_glide_gridfile>  (115) 
pfpi4k_grid

>  <i_i_glide_lignum>  (115) 
4

>  <i_i_glide_rotatable_bonds>  (115) 
1

>  <r_i_docking_score>  (115) 
-3.54319

>  <r_i_glide_ligand_efficiency>  (115) 
-0.154052

>  <r_i_glide_ligand_efficiency_sa>  (115) 
-0.438102

>  <r_i_glide_ligand_efficiency_ln>  (115) 
-0.856775

>  <r_i_glide_gscore>  (115) 
-3.54319

>  <r_i_glide_lipo>  (115) 
-0.410782

>  <r_i_glide_hbond>  (115) 
-0.00584685

>  <r_i_glide_metal>  (115) 
-0

>  <r_i_glide_rewards>  (115) 
-1.39107

>  <r_i_glide_evdw>  (115) 
-9.68886

>  <r_i_glide_ecoul>  (115) 
-8.13054

>  <r_i_glide_erotb>  (115) 
0

>  <r_i_glide_esite>  (115) 
-0.0314656

>  <r_i_glide_emodel>  (115) 
-18.5799

>  <r_i_glide_energy>  (115) 
-17.8194

>  <r_i_glide_einternal>  (115) 
1.80677

>  <r_i_glide_intrahb_reward>  (115) 
-0

>  <i_i_glide_confnum>  (115) 
2

>  <i_i_glide_posenum>  (115) 
7

>  <r_i_glide_eff_state_penalty>  (115) 
0

>  <ligand_id>  (115) 
30

>  <original_smiles>  (115) 
CC1CC(=O)C(O)C2C1C13CC1(C=CC(C)(C)C3=O)OC2(C)C

>  <smiles>  (115) 
[H]OC1([H])C(=O)C([H])([H])C([H])(C([H])([H])[H])C2([H])C1([H])C(C([H])([H])[H])(C([H])([H])[H])OC13C([H])=C([H])C(C([H])([H])[H])(C([H])([H])[H])C(=O)C12C3([H])[H]

$$$$
30:0:1
     RDKit          3D

 49 52  0  0  1  0  0  0  0  0999 V2000
    1.4370   -5.0607   -0.6555 C   0  0  0  0  0  0  0  0  0  0  0  0
    2.3609   -3.8241   -0.7385 C   0  0  2  0  0  0  0  0  0  0  0  0
    2.5249   -3.3885   -2.2144 C   0  0  0  0  0  0  0  0  0  0  0  0
    3.4454   -2.1877   -2.3880 C   0  0  0  0  0  0  0  0  0  0  0  0
    3.2129   -1.3212   -3.2236 O   0  0  0  0  0  0  0  0  0  0  0  0
    4.7276   -2.1786   -1.5467 C   0  0  1  0  0  0  0  0  0  0  0  0
    5.4110   -0.9506   -1.7345 O   0  0  0  0  0  0  0  0  0  0  0  0
    4.3764   -2.4957   -0.0674 C   0  0  1  0  0  0  0  0  0  0  0  0
    3.7275   -3.9002   -0.0003 C   0  0  1  0  0  0  0  0  0  0  0  0
    3.6773   -4.4691    1.4414 C   0  0  2  0  0  0  0  0  0  0  0  0
    2.8357   -3.8031    2.5090 C   0  0  0  0  0  0  0  0  0  0  0  0
    4.3340   -3.7176    2.5747 C   0  0  1  0  0  0  0  0  0  0  0  0
    5.0806   -4.3951    3.6545 C   0  0  0  0  0  0  0  0  0  0  0  0
    5.1648   -5.7329    3.7098 C   0  0  0  0  0  0  0  0  0  0  0  0
    4.4753   -6.6960    2.7531 C   0  0  0  0  0  0  0  0  0  0  0  0
    5.5346   -7.7418    2.3116 C   0  0  0  0  0  0  0  0  0  0  0  0
    3.3374   -7.4218    3.5018 C   0  0  0  0  0  0  0  0  0  0  0  0
    3.9231   -5.9684    1.4878 C   0  0  0  0  0  0  0  0  0  0  0  0
    3.6892   -6.6557    0.5004 O   0  0  0  0  0  0  0  0  0  0  0  0
    4.8671   -2.4601    2.2475 O   0  0  0  0  0  0  0  0  0  0  0  0
    5.5170   -2.3512    0.9781 C   0  0  0  0  0  0  0  0  0  0  0  0
    6.6703   -3.3621    0.7916 C   0  0  0  0  0  0  0  0  0  0  0  0
    6.0979   -0.9324    1.0794 C   0  0  0  0  0  0  0  0  0  0  0  0
    1.8064   -5.9869   -1.0824 H   0  0  0  0  0  0  0  0  0  0  0  0
    0.5006   -4.8486   -1.1829 H   0  0  0  0  0  0  0  0  0  0  0  0
    1.2628   -5.3478    0.3769 H   0  0  0  0  0  0  0  0  0  0  0  0
    1.8196   -3.0145   -0.2491 H   0  0  0  0  0  0  0  0  0  0  0  0
    2.9795   -4.1774   -2.8024 H   0  0  0  0  0  0  0  0  0  0  0  0
    1.5568   -3.2013   -2.6814 H   0  0  0  0  0  0  0  0  0  0  0  0
    5.3745   -2.9639   -1.9399 H   0  0  0  0  0  0  0  0  0  0  0  0
    4.8341   -0.2404   -1.4675 H   0  0  0  0  0  0  0  0  0  0  0  0
    3.6349   -1.7513    0.2386 H   0  0  0  0  0  0  0  0  0  0  0  0
    4.3564   -4.5728   -0.5922 H   0  0  0  0  0  0  0  0  0  0  0  0
    2.2930   -2.9056    2.2156 H   0  0  0  0  0  0  0  0  0  0  0  0
    2.3349   -4.4568    3.2236 H   0  0  0  0  0  0  0  0  0  0  0  0
    5.5759   -3.7621    4.3654 H   0  0  0  0  0  0  0  0  0  0  0  0
    5.7413   -6.2032    4.4968 H   0  0  0  0  0  0  0  0  0  0  0  0
    6.3321   -7.2599    1.7467 H   0  0  0  0  0  0  0  0  0  0  0  0
    5.1137   -8.5274    1.6812 H   0  0  0  0  0  0  0  0  0  0  0  0
    6.0025   -8.2302    3.1712 H   0  0  0  0  0  0  0  0  0  0  0  0
    2.5977   -6.7100    3.8476 H   0  0  0  0  0  0  0  0  0  0  0  0
    3.7126   -7.9453    4.3815 H   0  0  0  0  0  0  0  0  0  0  0  0
    2.8302   -8.1520    2.8754 H   0  0  0  0  0  0  0  0  0  0  0  0
    7.1814   -3.1952   -0.1563 H   0  0  0  0  0  0  0  0  0  0  0  0
    6.3290   -4.3940    0.7890 H   0  0  0  0  0  0  0  0  0  0  0  0
    7.4074   -3.2677    1.5885 H   0  0  0  0  0  0  0  0  0  0  0  0
    6.8107   -0.7152    0.2832 H   0  0  0  0  0  0  0  0  0  0  0  0
    6.6360   -0.7933    2.0200 H   0  0  0  0  0  0  0  0  0  0  0  0
    5.3159   -0.1744    1.0426 H   0  0  0  0  0  0  0  0  0  0  0  0
  1  2  1  0
  1 24  1  0
  1 25  1  0
  1 26  1  0
  2  9  1  0
  2  3  1  0
  2 27  1  1
  3  4  1  0
  3 28  1  0
  3 29  1  0
  4  5  2  0
  4  6  1  0
  6  7  1  0
  6  8  1  0
  6 30  1  6
  7 31  1  0
  8 21  1  0
  8  9  1  0
  8 32  1  1
  9 10  1  0
  9 33  1  6
 10 12  1  0
 10 18  1  0
 10 11  1  1
 11 12  1  0
 11 34  1  0
 11 35  1  0
 12 13  1  0
 12 20  1  6
 13 14  2  0
 13 36  1  0
 14 15  1  0
 14 37  1  0
 15 16  1  0
 15 17  1  0
 15 18  1  0
 16 38  1  0
 16 39  1  0
 16 40  1  0
 17 41  1  0
 17 42  1  0
 17 43  1  0
 18 19  2  0
 20 21  1  0
 21 22  1  0
 21 23  1  0
 22 44  1  0
 22 45  1  0
 22 46  1  0
 23 47  1  0
 23 48  1  0
 23 49  1  0
M  END
>  <i_m_ct_stereo_status>  (116) 
1

>  <s_m_source_file>  (116) 
/var/tmp/pbs.5076255.sched01/tmpr0mrskr5/46emy42_dx.sdf

>  <i_m_source_file_index>  (116) 
4

>  <i_lp_mmshare_version>  (116) 
48012

>  <i_f3d_flags>  (116) 
0

>  <s_epik_input>  (116) 
W09IXVtDQEBIXTFDKD1PKVtDSDJdW0NAQEhdKFtDSDNdKVtDQEhdMltDQEhdMUMoW0NIM10pKFtDSDNdKU9bQ0BdKFtDQF0yMzQpKFtDSDJdMylbQ0hdPVtDSF1DKFtDSDNdKShbQ0gzXSlDND1P

>  <s_epik_cmdline>  (116) 
J2VwaWtfcHl0aG9uJywgJy1waHQnLCAnMi4wJywgJy1waCcsICc3LjAnLCAnLXRuJywgJzgnLCAnLW1hJywgJzIwMCcsICctaW1hZScsICc8aW5maWxlLm1hZT4nLCAnLW9tYWUnLCAnPG91dGZpbGUubWFlPic=

>  <r_lp_tautomer_probability>  (116) 
1

>  <r_epik_Ionization_Penalty>  (116) 
1.81898e-07

>  <r_epik_Ionization_Penalty_Charging>  (116) 
0

>  <r_epik_Ionization_Penalty_Neutral>  (116) 
1.81898e-07

>  <r_epik_State_Penalty>  (116) 
-0

>  <r_epik_Charging_Adjusted_Penalty>  (116) 
0

>  <i_epik_Tot_Q>  (116) 
0

>  <i_epik_Tot_abs_Q>  (116) 
0

>  <s_lp_Force_Field>  (116) 
OPLS3e

>  <r_lp_Energy>  (116) 
29.4105

>  <b_lp_Chiralities_Consistent>  (116) 
1

>  <s_lp_Variant>  (116) 
30:0-1

>  <s_i_glide_gridfile>  (116) 
pfpi4k_grid

>  <i_i_glide_lignum>  (116) 
4

>  <i_i_glide_rotatable_bonds>  (116) 
1

>  <r_i_docking_score>  (116) 
-2.86279

>  <r_i_glide_ligand_efficiency>  (116) 
-0.124469

>  <r_i_glide_ligand_efficiency_sa>  (116) 
-0.353973

>  <r_i_glide_ligand_efficiency_ln>  (116) 
-0.692247

>  <r_i_glide_gscore>  (116) 
-2.86279

>  <r_i_glide_lipo>  (116) 
-0.440381

>  <r_i_glide_hbond>  (116) 
0

>  <r_i_glide_metal>  (116) 
-0

>  <r_i_glide_rewards>  (116) 
-1.2956

>  <r_i_glide_evdw>  (116) 
-12.5451

>  <r_i_glide_ecoul>  (116) 
-3.11603

>  <r_i_glide_erotb>  (116) 
0

>  <r_i_glide_esite>  (116) 
-0.0321427

>  <r_i_glide_emodel>  (116) 
-16.8919

>  <r_i_glide_energy>  (116) 
-15.6612

>  <r_i_glide_einternal>  (116) 
1.3105

>  <r_i_glide_intrahb_reward>  (116) 
-0

>  <i_i_glide_confnum>  (116) 
2

>  <i_i_glide_posenum>  (116) 
5

>  <r_i_glide_eff_state_penalty>  (116) 
0

>  <ligand_id>  (116) 
30

>  <original_smiles>  (116) 
CC1CC(=O)C(O)C2C1C13CC1(C=CC(C)(C)C3=O)OC2(C)C

>  <smiles>  (116) 
[H]OC1([H])C(=O)C([H])([H])C([H])(C([H])([H])[H])C2([H])C1([H])C(C([H])([H])[H])(C([H])([H])[H])OC13C([H])=C([H])C(C([H])([H])[H])(C([H])([H])[H])C(=O)C12C3([H])[H]

$$$$
30:0:2
     RDKit          3D

 49 52  0  0  1  0  0  0  0  0999 V2000
    2.2293   -5.9405    0.6376 C   0  0  0  0  0  0  0  0  0  0  0  0
    3.0855   -5.0209    1.5136 C   0  0  2  0  0  0  0  0  0  0  0  0
    2.3610   -4.7849    2.8596 C   0  0  0  0  0  0  0  0  0  0  0  0
    3.1533   -3.8733    3.7841 C   0  0  0  0  0  0  0  0  0  0  0  0
    3.2676   -4.1489    4.9874 O   0  0  0  0  0  0  0  0  0  0  0  0
    3.7519   -2.6038    3.1653 C   0  0  1  0  0  0  0  0  0  0  0  0
    4.5586   -1.9470    4.1235 O   0  0  0  0  0  0  0  0  0  0  0  0
    4.5050   -2.9710    1.8508 C   0  0  1  0  0  0  0  0  0  0  0  0
    3.5023   -3.6555    0.8839 C   0  0  1  0  0  0  0  0  0  0  0  0
    4.0121   -3.7061   -0.5676 C   0  0  2  0  0  0  0  0  0  0  0  0
    5.2009   -4.5880   -0.9034 C   0  0  0  0  0  0  0  0  0  0  0  0
    5.3593   -3.0903   -0.9255 C   0  0  1  0  0  0  0  0  0  0  0  0
    5.5903   -2.3558   -2.1728 C   0  0  0  0  0  0  0  0  0  0  0  0
    4.6444   -2.2278   -3.1040 C   0  0  0  0  0  0  0  0  0  0  0  0
    3.2973   -2.8943   -3.0208 C   0  0  0  0  0  0  0  0  0  0  0  0
    2.2179   -1.9059   -3.4522 C   0  0  0  0  0  0  0  0  0  0  0  0
    3.3148   -3.9237   -4.1134 C   0  0  0  0  0  0  0  0  0  0  0  0
    2.9374   -3.4567   -1.6169 C   0  0  0  0  0  0  0  0  0  0  0  0
    1.7592   -3.7389   -1.3707 O   0  0  0  0  0  0  0  0  0  0  0  0
    6.0656   -2.5207    0.1485 O   0  0  0  0  0  0  0  0  0  0  0  0
    5.2916   -1.8398    1.1272 C   0  0  0  0  0  0  0  0  0  0  0  0
    4.4319   -0.6997    0.5646 C   0  0  0  0  0  0  0  0  0  0  0  0
    6.3983   -1.2284    1.9528 C   0  0  0  0  0  0  0  0  0  0  0  0
    1.2602   -5.5068    0.4021 H   0  0  0  0  0  0  0  0  0  0  0  0
    2.0464   -6.8933    1.1363 H   0  0  0  0  0  0  0  0  0  0  0  0
    2.7338   -6.1668   -0.3001 H   0  0  0  0  0  0  0  0  0  0  0  0
    3.9936   -5.5892    1.7280 H   0  0  0  0  0  0  0  0  0  0  0  0
    1.3908   -4.3175    2.6857 H   0  0  0  0  0  0  0  0  0  0  0  0
    2.1719   -5.7344    3.3633 H   0  0  0  0  0  0  0  0  0  0  0  0
    2.9226   -1.9378    2.9182 H   0  0  0  0  0  0  0  0  0  0  0  0
    4.8195   -1.1069    3.7771 H   0  0  0  0  0  0  0  0  0  0  0  0
    5.2608   -3.7087    2.1261 H   0  0  0  0  0  0  0  0  0  0  0  0
    2.6146   -3.0199    0.8737 H   0  0  0  0  0  0  0  0  0  0  0  0
    5.6765   -5.1407   -0.0965 H   0  0  0  0  0  0  0  0  0  0  0  0
    5.1730   -5.0837   -1.8716 H   0  0  0  0  0  0  0  0  0  0  0  0
    6.5562   -1.9013   -2.2867 H   0  0  0  0  0  0  0  0  0  0  0  0
    4.8449   -1.7035   -4.0201 H   0  0  0  0  0  0  0  0  0  0  0  0
    2.2336   -1.0981   -2.7378 H   0  0  0  0  0  0  0  0  0  0  0  0
    1.2674   -2.3913   -3.5148 H   0  0  0  0  0  0  0  0  0  0  0  0
    2.4485   -1.4643   -4.4240 H   0  0  0  0  0  0  0  0  0  0  0  0
    4.0880   -4.6715   -3.9653 H   0  0  0  0  0  0  0  0  0  0  0  0
    3.5097   -3.4522   -5.0807 H   0  0  0  0  0  0  0  0  0  0  0  0
    2.3648   -4.4639   -4.1544 H   0  0  0  0  0  0  0  0  0  0  0  0
    3.9348   -0.1722    1.3822 H   0  0  0  0  0  0  0  0  0  0  0  0
    3.6605   -1.0442   -0.1243 H   0  0  0  0  0  0  0  0  0  0  0  0
    5.0582    0.0266    0.0398 H   0  0  0  0  0  0  0  0  0  0  0  0
    6.0786   -0.5334    2.7226 H   0  0  0  0  0  0  0  0  0  0  0  0
    7.1533   -0.7320    1.3443 H   0  0  0  0  0  0  0  0  0  0  0  0
    6.8530   -2.0722    2.4493 H   0  0  0  0  0  0  0  0  0  0  0  0
  1  2  1  0
  1 24  1  0
  1 25  1  0
  1 26  1  0
  2  9  1  0
  2  3  1  0
  2 27  1  1
  3  4  1  0
  3 28  1  0
  3 29  1  0
  4  5  2  0
  4  6  1  0
  6  7  1  0
  6  8  1  0
  6 30  1  6
  7 31  1  0
  8 21  1  0
  8  9  1  0
  8 32  1  1
  9 10  1  0
  9 33  1  6
 10 12  1  0
 10 18  1  0
 10 11  1  6
 11 12  1  0
 11 34  1  0
 11 35  1  0
 12 13  1  0
 12 20  1  1
 13 14  2  0
 13 36  1  0
 14 15  1  0
 14 37  1  0
 15 16  1  0
 15 17  1  0
 15 18  1  0
 16 38  1  0
 16 39  1  0
 16 40  1  0
 17 41  1  0
 17 42  1  0
 17 43  1  0
 18 19  2  0
 20 21  1  0
 21 22  1  0
 21 23  1  0
 22 44  1  0
 22 45  1  0
 22 46  1  0
 23 47  1  0
 23 48  1  0
 23 49  1  0
M  END
>  <i_m_ct_stereo_status>  (117) 
1

>  <s_m_source_file>  (117) 
/var/tmp/pbs.5076255.sched01/tmpr0mrskr5/46emy42_dx.sdf

>  <i_m_source_file_index>  (117) 
4

>  <i_lp_mmshare_version>  (117) 
48012

>  <i_f3d_flags>  (117) 
0

>  <s_epik_input>  (117) 
W09IXVtDQEBIXTFDKD1PKVtDSDJdW0NAQEhdKFtDSDNdKVtDQEhdMltDQEhdMUMoW0NIM10pKFtDSDNdKU9bQ0BdKFtDQF0yMzQpKFtDSDJdMylbQ0hdPVtDSF1DKFtDSDNdKShbQ0gzXSlDND1P

>  <s_epik_cmdline>  (117) 
J2VwaWtfcHl0aG9uJywgJy1waHQnLCAnMi4wJywgJy1waCcsICc3LjAnLCAnLXRuJywgJzgnLCAnLW1hJywgJzIwMCcsICctaW1hZScsICc8aW5maWxlLm1hZT4nLCAnLW9tYWUnLCAnPG91dGZpbGUubWFlPic=

>  <r_lp_tautomer_probability>  (117) 
1

>  <r_epik_Ionization_Penalty>  (117) 
1.81898e-07

>  <r_epik_Ionization_Penalty_Charging>  (117) 
0

>  <r_epik_Ionization_Penalty_Neutral>  (117) 
1.81898e-07

>  <r_epik_State_Penalty>  (117) 
-0

>  <r_epik_Charging_Adjusted_Penalty>  (117) 
0

>  <i_epik_Tot_Q>  (117) 
0

>  <i_epik_Tot_abs_Q>  (117) 
0

>  <s_lp_Force_Field>  (117) 
OPLS3e

>  <r_lp_Energy>  (117) 
29.4105

>  <b_lp_Chiralities_Consistent>  (117) 
1

>  <s_lp_Variant>  (117) 
30:0-1

>  <s_i_glide_gridfile>  (117) 
pfpi4k_grid

>  <i_i_glide_lignum>  (117) 
4

>  <i_i_glide_rotatable_bonds>  (117) 
1

>  <r_i_docking_score>  (117) 
-2.22813

>  <r_i_glide_ligand_efficiency>  (117) 
-0.0968751

>  <r_i_glide_ligand_efficiency_sa>  (117) 
-0.2755

>  <r_i_glide_ligand_efficiency_ln>  (117) 
-0.538782

>  <r_i_glide_gscore>  (117) 
-2.22813

>  <r_i_glide_lipo>  (117) 
-0.555081

>  <r_i_glide_hbond>  (117) 
-0.00412867

>  <r_i_glide_metal>  (117) 
-0

>  <r_i_glide_rewards>  (117) 
-1.39539

>  <r_i_glide_evdw>  (117) 
-3.36413

>  <r_i_glide_ecoul>  (117) 
-0.702169

>  <r_i_glide_erotb>  (117) 
0

>  <r_i_glide_esite>  (117) 
0

>  <r_i_glide_emodel>  (117) 
-5.21963

>  <r_i_glide_energy>  (117) 
-4.06629

>  <r_i_glide_einternal>  (117) 
0.0333584

>  <r_i_glide_intrahb_reward>  (117) 
-0

>  <i_i_glide_confnum>  (117) 
1

>  <i_i_glide_posenum>  (117) 
2

>  <r_i_glide_eff_state_penalty>  (117) 
0

>  <ligand_id>  (117) 
30

>  <original_smiles>  (117) 
CC1CC(=O)C(O)C2C1C13CC1(C=CC(C)(C)C3=O)OC2(C)C

>  <smiles>  (117) 
[H]OC1([H])C(=O)C([H])([H])C([H])(C([H])([H])[H])C2([H])C1([H])C(C([H])([H])[H])(C([H])([H])[H])OC13C([H])=C([H])C(C([H])([H])[H])(C([H])([H])[H])C(=O)C12C3([H])[H]

$$$$
31:0:0
     RDKit          3D

 57 63  0  0  1  0  0  0  0  0999 V2000
    2.3766   -8.8570    1.7044 C   0  0  0  0  0  0  0  0  0  0  0  0
    2.3337   -7.4486    2.3591 C   0  0  1  0  0  0  0  0  0  0  0  0
    0.8299   -7.0236    2.3778 C   0  0  0  0  0  0  0  0  0  0  0  0
    0.3807   -6.2631    1.5250 O   0  0  0  0  0  0  0  0  0  0  0  0
   -0.0281   -7.6100    3.4449 C   0  0  0  0  0  0  0  0  0  0  0  0
   -1.3547   -7.4603    3.3088 O   0  0  0  0  0  0  0  0  0  0  0  0
    0.4859   -8.2759    4.5058 C   0  0  0  0  0  0  0  0  0  0  0  0
    1.9363   -8.4012    4.7120 C   0  0  0  0  0  0  0  0  0  0  0  0
    2.4392   -9.1322    5.5603 O   0  0  0  0  0  0  0  0  0  0  0  0
    2.8401   -7.5296    3.8341 C   0  0  2  0  0  0  0  0  0  0  0  0
    2.9784   -6.1346    4.4797 C   0  0  0  0  0  0  0  0  0  0  0  0
    3.9936   -5.2927    3.7037 C   0  0  0  0  0  0  0  0  0  0  0  0
    3.5876   -5.0459    2.2163 C   0  0  2  0  0  0  0  0  0  0  0  0
    2.6493   -3.8036    2.1505 C   0  0  0  0  0  0  0  0  0  0  0  0
    3.3454   -2.3793    2.0123 C   0  0  2  0  0  0  0  0  0  0  0  0
    3.3485   -1.9108    0.5412 C   0  0  0  0  0  0  0  0  0  0  0  0
    4.3213   -2.7243   -0.3665 C   0  0  0  0  0  0  0  0  0  0  0  0
    3.4047   -3.4448   -1.3887 C   0  0  0  0  0  0  0  0  0  0  0  0
    5.1533   -1.7392   -1.2250 C   0  0  0  0  0  0  0  0  0  0  0  0
    5.2817   -3.6149    0.5587 C   0  0  2  0  0  0  0  0  0  0  0  0
    6.0754   -4.6896   -0.1231 O   0  0  0  0  0  0  0  0  0  0  0  0
    4.9455   -5.5928    0.1806 C   0  0  1  0  0  0  0  0  0  0  0  0
    4.5684   -6.9305    0.8073 C   0  0  1  0  0  0  0  0  0  0  0  0
    5.5333   -7.4438    1.7110 O   0  0  0  0  0  0  0  0  0  0  0  0
    3.2261   -6.4363    1.5383 C   0  0  1  0  0  0  0  0  0  0  0  0
    4.7990   -4.7673    1.3958 C   0  0  2  0  0  0  0  0  0  0  0  0
    5.9337   -2.7045    1.5941 C   0  0  1  0  0  0  0  0  0  0  0  0
    5.6118   -1.3094    1.7979 O   0  0  0  0  0  0  0  0  0  0  0  0
    4.8009   -2.2418    2.5131 C   0  0  1  0  0  0  0  0  0  0  0  0
    3.3620   -9.3219    1.7755 H   0  0  0  0  0  0  0  0  0  0  0  0
    2.0996   -8.8194    0.6575 H   0  0  0  0  0  0  0  0  0  0  0  0
    1.6633   -9.5499    2.1553 H   0  0  0  0  0  0  0  0  0  0  0  0
   -0.1592   -8.7179    5.2502 H   0  0  0  0  0  0  0  0  0  0  0  0
   -1.7713   -7.9412    4.0080 H   0  0  0  0  0  0  0  0  0  0  0  0
    3.3222   -6.2380    5.5112 H   0  0  0  0  0  0  0  0  0  0  0  0
    2.0184   -5.6189    4.5325 H   0  0  0  0  0  0  0  0  0  0  0  0
    4.1452   -4.3476    4.2246 H   0  0  0  0  0  0  0  0  0  0  0  0
    4.9449   -5.8231    3.7797 H   0  0  0  0  0  0  0  0  0  0  0  0
    1.9706   -3.9376    1.3074 H   0  0  0  0  0  0  0  0  0  0  0  0
    1.9948   -3.7986    3.0249 H   0  0  0  0  0  0  0  0  0  0  0  0
    2.7426   -1.6629    2.5699 H   0  0  0  0  0  0  0  0  0  0  0  0
    2.3264   -1.9451    0.1755 H   0  0  0  0  0  0  0  0  0  0  0  0
    3.6050   -0.8490    0.5124 H   0  0  0  0  0  0  0  0  0  0  0  0
    3.9894   -4.0010   -2.1258 H   0  0  0  0  0  0  0  0  0  0  0  0
    2.8041   -2.7339   -1.9545 H   0  0  0  0  0  0  0  0  0  0  0  0
    2.6879   -4.1168   -0.9088 H   0  0  0  0  0  0  0  0  0  0  0  0
    5.8080   -2.2735   -1.9163 H   0  0  0  0  0  0  0  0  0  0  0  0
    5.7759   -1.0751   -0.6249 H   0  0  0  0  0  0  0  0  0  0  0  0
    4.5007   -1.0969   -1.8177 H   0  0  0  0  0  0  0  0  0  0  0  0
    4.2335   -5.4967   -0.6191 H   0  0  0  0  0  0  0  0  0  0  0  0
    4.3628   -7.6868    0.0525 H   0  0  0  0  0  0  0  0  0  0  0  0
    5.2015   -8.2326    2.1112 H   0  0  0  0  0  0  0  0  0  0  0  0
    2.6079   -6.1754    0.6807 H   0  0  0  0  0  0  0  0  0  0  0  0
    5.6625   -5.0098    2.0224 H   0  0  0  0  0  0  0  0  0  0  0  0
    6.8309   -3.0669    2.0788 H   0  0  0  0  0  0  0  0  0  0  0  0
    4.9583   -2.2314    3.5906 H   0  0  0  0  0  0  0  0  0  0  0  0
    3.8261   -7.9946    3.8326 H   0  0  0  0  0  0  0  0  0  0  0  0
  1 30  1  0
  1 31  1  0
  1 32  1  0
  2  1  1  6
  2 10  1  0
  2 25  1  0
  2  3  1  0
  3  4  2  0
  3  5  1  0
  5  7  2  0
  5  6  1  0
  6 34  1  0
  7 33  1  0
  7  8  1  0
  8  9  2  0
  8 10  1  0
 10 11  1  0
 10 57  1  6
 11 12  1  0
 11 35  1  0
 11 36  1  0
 13 12  1  1
 12 37  1  0
 12 38  1  0
 13 25  1  0
 13 26  1  0
 13 14  1  0
 14 15  1  0
 14 39  1  0
 14 40  1  0
 15 29  1  0
 15 16  1  0
 15 41  1  1
 16 17  1  0
 16 42  1  0
 16 43  1  0
 17 18  1  0
 17 19  1  0
 17 20  1  0
 18 44  1  0
 18 45  1  0
 18 46  1  0
 19 47  1  0
 19 48  1  0
 19 49  1  0
 20 26  1  0
 20 21  1  6
 20 27  1  0
 21 22  1  0
 22 23  1  0
 22 26  1  0
 22 50  1  6
 23 24  1  0
 23 25  1  0
 23 51  1  6
 24 52  1  0
 25 53  1  6
 26 54  1  1
 27 29  1  0
 27 28  1  0
 27 55  1  1
 28 29  1  0
 29 56  1  1
M  END
>  <i_m_ct_stereo_status>  (118) 
1

>  <s_m_source_file>  (118) 
/var/tmp/pbs.5076255.sched01/tmpr0mrskr5/46emy42_dx.sdf

>  <i_m_source_file_index>  (118) 
5

>  <i_lp_mmshare_version>  (118) 
48012

>  <i_f3d_flags>  (118) 
0

>  <s_epik_input>  (118) 
Tz1DMUMoPU8pW0NIMl1DKD1PKVtDQEhdKFtDSDJdW0NIMl0yKVtDQF0xKFtDSDNdKVtDQEBIXShbQ0BdMjM0KVtDQEhdKFtPSF0pW0NASF01W0NASF00W0NAXTYoTzUpW0NAQEhdN1tDQEBIXShPNylbQ0BIXShbQ0gyXTMpW0NIMl1DNihbQ0gzXSlbQ0gzXQ==

>  <s_epik_cmdline>  (118) 
J2VwaWtfcHl0aG9uJywgJy1waHQnLCAnMi4wJywgJy1waCcsICc3LjAnLCAnLXRuJywgJzgnLCAnLW1hJywgJzIwMCcsICctaW1hZScsICc8aW5maWxlLm1hZT4nLCAnLW9tYWUnLCAnPG91dGZpbGUubWFlPic=

>  <r_lp_tautomer_probability>  (118) 
0.996069

>  <r_epik_Ionization_Penalty>  (118) 
3.81052

>  <r_epik_Ionization_Penalty_Charging>  (118) 
0

>  <r_epik_Ionization_Penalty_Neutral>  (118) 
3.81052

>  <r_epik_State_Penalty>  (118) 
0.0892735

>  <r_epik_Charging_Adjusted_Penalty>  (118) 
0.0892735

>  <i_epik_Tot_Q>  (118) 
0

>  <i_epik_Tot_abs_Q>  (118) 
0

>  <s_lp_Force_Field>  (118) 
OPLS3e

>  <r_lp_Energy>  (118) 
144.383

>  <b_lp_Chiralities_Consistent>  (118) 
1

>  <s_lp_Variant>  (118) 
31:0-1

>  <s_i_glide_gridfile>  (118) 
pfpi4k_grid

>  <i_i_glide_lignum>  (118) 
5

>  <i_i_glide_rotatable_bonds>  (118) 
2

>  <r_i_docking_score>  (118) 
-3.54898

>  <r_i_glide_ligand_efficiency>  (118) 
-0.122379

>  <r_i_glide_ligand_efficiency_sa>  (118) 
-0.375986

>  <r_i_glide_ligand_efficiency_ln>  (118) 
-0.812627

>  <r_i_glide_gscore>  (118) 
-3.54898

>  <r_i_glide_lipo>  (118) 
-0.48794

>  <r_i_glide_hbond>  (118) 
-0.203471

>  <r_i_glide_metal>  (118) 
-0

>  <r_i_glide_rewards>  (118) 
-0.678649

>  <r_i_glide_evdw>  (118) 
-26.9984

>  <r_i_glide_ecoul>  (118) 
-5.14456

>  <r_i_glide_erotb>  (118) 
0

>  <r_i_glide_esite>  (118) 
-0.0573213

>  <r_i_glide_emodel>  (118) 
-39.5734

>  <r_i_glide_energy>  (118) 
-32.1429

>  <r_i_glide_einternal>  (118) 
0.316431

>  <r_i_glide_intrahb_reward>  (118) 
-0

>  <i_i_glide_confnum>  (118) 
1

>  <i_i_glide_posenum>  (118) 
16

>  <r_i_glide_eff_state_penalty>  (118) 
0

>  <ligand_id>  (118) 
31

>  <original_smiles>  (118) 
CC12C(=O)C(=O)CC(=O)C1CCC13CC4CC(C)(C)C5(OC(C(O)C12)C35)C1OC41

>  <smiles>  (118) 
[H]OC1=C([H])C(=O)C2([H])C([H])([H])C([H])([H])C34C([H])([H])C5([H])C([H])([H])C(C([H])([H])[H])(C([H])([H])[H])C6(OC([H])(C([H])(O[H])C3([H])C2(C([H])([H])[H])C1=O)C64[H])C1([H])OC15[H]

$$$$
31:0:1
     RDKit          3D

 57 63  0  0  1  0  0  0  0  0999 V2000
    3.1124   -8.4211    1.9564 C   0  0  0  0  0  0  0  0  0  0  0  0
    2.7536   -6.9516    2.3061 C   0  0  1  0  0  0  0  0  0  0  0  0
    1.2504   -6.7728    1.9286 C   0  0  0  0  0  0  0  0  0  0  0  0
    0.9237   -6.2514    0.8612 O   0  0  0  0  0  0  0  0  0  0  0  0
    0.2386   -7.2959    2.8874 C   0  0  0  0  0  0  0  0  0  0  0  0
   -1.0210   -7.3867    2.4430 O   0  0  0  0  0  0  0  0  0  0  0  0
    0.5588   -7.6767    4.1414 C   0  0  0  0  0  0  0  0  0  0  0  0
    1.9227   -7.5343    4.6698 C   0  0  0  0  0  0  0  0  0  0  0  0
    2.2859   -8.0129    5.7393 O   0  0  0  0  0  0  0  0  0  0  0  0
    2.9045   -6.6972    3.8392 C   0  0  2  0  0  0  0  0  0  0  0  0
    2.7228   -5.2061    4.1987 C   0  0  0  0  0  0  0  0  0  0  0  0
    3.7907   -4.3627    3.4988 C   0  0  0  0  0  0  0  0  0  0  0  0
    3.7267   -4.4456    1.9408 C   0  0  2  0  0  0  0  0  0  0  0  0
    2.6952   -3.3988    1.4213 C   0  0  0  0  0  0  0  0  0  0  0  0
    3.2327   -1.9310    1.1380 C   0  0  2  0  0  0  0  0  0  0  0  0
    3.5295   -1.7382   -0.3654 C   0  0  0  0  0  0  0  0  0  0  0  0
    4.7809   -2.5332   -0.8457 C   0  0  0  0  0  0  0  0  0  0  0  0
    4.2327   -3.5497   -1.8724 C   0  0  0  0  0  0  0  0  0  0  0  0
    5.6670   -1.5983   -1.6869 C   0  0  0  0  0  0  0  0  0  0  0  0
    5.5920   -3.0804    0.4230 C   0  0  2  0  0  0  0  0  0  0  0  0
    6.6453   -4.1252    0.1597 O   0  0  0  0  0  0  0  0  0  0  0  0
    5.5804   -5.1240    0.3981 C   0  0  1  0  0  0  0  0  0  0  0  0
    5.2162   -6.3779    1.1848 C   0  0  1  0  0  0  0  0  0  0  0  0
    5.9957   -6.5818    2.3520 O   0  0  0  0  0  0  0  0  0  0  0  0
    3.6938   -5.9717    1.5017 C   0  0  1  0  0  0  0  0  0  0  0  0
    5.0620   -4.1309    1.3602 C   0  0  2  0  0  0  0  0  0  0  0  0
    5.8655   -1.9078    1.3632 C   0  0  1  0  0  0  0  0  0  0  0  0
    5.3466   -0.5659    1.1951 O   0  0  0  0  0  0  0  0  0  0  0  0
    4.4995   -1.4757    1.8973 C   0  0  1  0  0  0  0  0  0  0  0  0
    4.0922   -8.7047    2.3454 H   0  0  0  0  0  0  0  0  0  0  0  0
    3.1200   -8.5833    0.8810 H   0  0  0  0  0  0  0  0  0  0  0  0
    2.3961   -9.1334    2.3703 H   0  0  0  0  0  0  0  0  0  0  0  0
   -0.1928   -8.0772    4.8068 H   0  0  0  0  0  0  0  0  0  0  0  0
   -1.5223   -7.8623    3.0908 H   0  0  0  0  0  0  0  0  0  0  0  0
    2.8197   -5.0721    5.2779 H   0  0  0  0  0  0  0  0  0  0  0  0
    1.7253   -4.8465    3.9409 H   0  0  0  0  0  0  0  0  0  0  0  0
    3.7057   -3.3296    3.8346 H   0  0  0  0  0  0  0  0  0  0  0  0
    4.7494   -4.7178    3.8816 H   0  0  0  0  0  0  0  0  0  0  0  0
    2.2494   -3.7809    0.5007 H   0  0  0  0  0  0  0  0  0  0  0  0
    1.8588   -3.3404    2.1204 H   0  0  0  0  0  0  0  0  0  0  0  0
    2.4367   -1.2311    1.3935 H   0  0  0  0  0  0  0  0  0  0  0  0
    2.6363   -1.9769   -0.9459 H   0  0  0  0  0  0  0  0  0  0  0  0
    3.6739   -0.6705   -0.5451 H   0  0  0  0  0  0  0  0  0  0  0  0
    5.0273   -4.1399   -2.3342 H   0  0  0  0  0  0  0  0  0  0  0  0
    3.7064   -3.0542   -2.6886 H   0  0  0  0  0  0  0  0  0  0  0  0
    3.5021   -4.2239   -1.4200 H   0  0  0  0  0  0  0  0  0  0  0  0
    6.5263   -2.1346   -2.0966 H   0  0  0  0  0  0  0  0  0  0  0  0
    6.0342   -0.7516   -1.1092 H   0  0  0  0  0  0  0  0  0  0  0  0
    5.1055   -1.1791   -2.5229 H   0  0  0  0  0  0  0  0  0  0  0  0
    5.0723   -5.2777   -0.5370 H   0  0  0  0  0  0  0  0  0  0  0  0
    5.2746   -7.2719    0.5638 H   0  0  0  0  0  0  0  0  0  0  0  0
    6.8834   -6.7665    2.0822 H   0  0  0  0  0  0  0  0  0  0  0  0
    3.2675   -5.9630    0.4989 H   0  0  0  0  0  0  0  0  0  0  0  0
    5.7739   -4.1228    2.1897 H   0  0  0  0  0  0  0  0  0  0  0  0
    6.6385   -2.0313    2.1043 H   0  0  0  0  0  0  0  0  0  0  0  0
    4.3928   -1.2535    2.9579 H   0  0  0  0  0  0  0  0  0  0  0  0
    3.9107   -6.9930    4.1373 H   0  0  0  0  0  0  0  0  0  0  0  0
  1 30  1  0
  1 31  1  0
  1 32  1  0
  2  1  1  1
  2 10  1  0
  2 25  1  0
  2  3  1  0
  3  4  2  0
  3  5  1  0
  5  7  2  0
  5  6  1  0
  6 34  1  0
  7 33  1  0
  7  8  1  0
  8  9  2  0
  8 10  1  0
 10 11  1  0
 10 57  1  1
 11 12  1  0
 11 35  1  0
 11 36  1  0
 13 12  1  1
 12 37  1  0
 12 38  1  0
 13 25  1  0
 13 26  1  0
 13 14  1  0
 14 15  1  0
 14 39  1  0
 14 40  1  0
 15 29  1  0
 15 16  1  0
 15 41  1  1
 16 17  1  0
 16 42  1  0
 16 43  1  0
 17 18  1  0
 17 19  1  0
 17 20  1  0
 18 44  1  0
 18 45  1  0
 18 46  1  0
 19 47  1  0
 19 48  1  0
 19 49  1  0
 20 26  1  0
 20 21  1  6
 20 27  1  0
 21 22  1  0
 22 23  1  0
 22 26  1  0
 22 50  1  6
 23 24  1  0
 23 25  1  0
 23 51  1  6
 24 52  1  0
 25 53  1  6
 26 54  1  1
 27 29  1  0
 27 28  1  0
 27 55  1  1
 28 29  1  0
 29 56  1  1
M  END
>  <i_m_ct_stereo_status>  (119) 
1

>  <s_m_source_file>  (119) 
/var/tmp/pbs.5076255.sched01/tmpr0mrskr5/46emy42_dx.sdf

>  <i_m_source_file_index>  (119) 
5

>  <i_lp_mmshare_version>  (119) 
48012

>  <i_f3d_flags>  (119) 
0

>  <s_epik_input>  (119) 
Tz1DMUMoPU8pW0NIMl1DKD1PKVtDQEhdKFtDSDJdW0NIMl0yKVtDQF0xKFtDSDNdKVtDQEBIXShbQ0BdMjM0KVtDQEhdKFtPSF0pW0NASF01W0NASF00W0NAXTYoTzUpW0NAQEhdN1tDQEBIXShPNylbQ0BIXShbQ0gyXTMpW0NIMl1DNihbQ0gzXSlbQ0gzXQ==

>  <s_epik_cmdline>  (119) 
J2VwaWtfcHl0aG9uJywgJy1waHQnLCAnMi4wJywgJy1waCcsICc3LjAnLCAnLXRuJywgJzgnLCAnLW1hJywgJzIwMCcsICctaW1hZScsICc8aW5maWxlLm1hZT4nLCAnLW9tYWUnLCAnPG91dGZpbGUubWFlPic=

>  <r_lp_tautomer_probability>  (119) 
0.996069

>  <r_epik_Ionization_Penalty>  (119) 
3.81052

>  <r_epik_Ionization_Penalty_Charging>  (119) 
0

>  <r_epik_Ionization_Penalty_Neutral>  (119) 
3.81052

>  <r_epik_State_Penalty>  (119) 
0.0892735

>  <r_epik_Charging_Adjusted_Penalty>  (119) 
0.0892735

>  <i_epik_Tot_Q>  (119) 
0

>  <i_epik_Tot_abs_Q>  (119) 
0

>  <s_lp_Force_Field>  (119) 
OPLS3e

>  <r_lp_Energy>  (119) 
144.383

>  <b_lp_Chiralities_Consistent>  (119) 
1

>  <s_lp_Variant>  (119) 
31:0-1

>  <s_i_glide_gridfile>  (119) 
pfpi4k_grid

>  <i_i_glide_lignum>  (119) 
5

>  <i_i_glide_rotatable_bonds>  (119) 
2

>  <r_i_docking_score>  (119) 
-3.52398

>  <r_i_glide_ligand_efficiency>  (119) 
-0.121517

>  <r_i_glide_ligand_efficiency_sa>  (119) 
-0.373337

>  <r_i_glide_ligand_efficiency_ln>  (119) 
-0.806902

>  <r_i_glide_gscore>  (119) 
-3.52398

>  <r_i_glide_lipo>  (119) 
-0.499424

>  <r_i_glide_hbond>  (119) 
-0.16

>  <r_i_glide_metal>  (119) 
-0

>  <r_i_glide_rewards>  (119) 
-0.678649

>  <r_i_glide_evdw>  (119) 
-28.7104

>  <r_i_glide_ecoul>  (119) 
-4.66061

>  <r_i_glide_erotb>  (119) 
0

>  <r_i_glide_esite>  (119) 
-0.051293

>  <r_i_glide_emodel>  (119) 
-40.6705

>  <r_i_glide_energy>  (119) 
-33.371

>  <r_i_glide_einternal>  (119) 
0.489021

>  <r_i_glide_intrahb_reward>  (119) 
-0

>  <i_i_glide_confnum>  (119) 
1

>  <i_i_glide_posenum>  (119) 
26

>  <r_i_glide_eff_state_penalty>  (119) 
0

>  <ligand_id>  (119) 
31

>  <original_smiles>  (119) 
CC12C(=O)C(=O)CC(=O)C1CCC13CC4CC(C)(C)C5(OC(C(O)C12)C35)C1OC41

>  <smiles>  (119) 
[H]OC1=C([H])C(=O)C2([H])C([H])([H])C([H])([H])C34C([H])([H])C5([H])C([H])([H])C(C([H])([H])[H])(C([H])([H])[H])C6(OC([H])(C([H])(O[H])C3([H])C2(C([H])([H])[H])C1=O)C64[H])C1([H])OC15[H]

$$$$
31:0:2
     RDKit          3D

 57 63  0  0  1  0  0  0  0  0999 V2000
    3.4270   -1.4996    0.6882 C   0  0  0  0  0  0  0  0  0  0  0  0
    3.7662   -2.9919    0.4302 C   0  0  1  0  0  0  0  0  0  0  0  0
    3.0077   -3.3811   -0.8771 C   0  0  0  0  0  0  0  0  0  0  0  0
    1.9261   -3.9675   -0.8293 O   0  0  0  0  0  0  0  0  0  0  0  0
    3.6130   -2.9731   -2.1694 C   0  0  0  0  0  0  0  0  0  0  0  0
    2.8283   -3.0593   -3.2536 O   0  0  0  0  0  0  0  0  0  0  0  0
    4.8841   -2.5269   -2.2663 C   0  0  0  0  0  0  0  0  0  0  0  0
    5.7661   -2.4595   -1.0899 C   0  0  0  0  0  0  0  0  0  0  0  0
    6.8464   -1.8702   -1.0866 O   0  0  0  0  0  0  0  0  0  0  0  0
    5.2947   -3.1776    0.1809 C   0  0  2  0  0  0  0  0  0  0  0  0
    5.6872   -4.6661    0.0929 C   0  0  0  0  0  0  0  0  0  0  0  0
    5.3603   -5.3781    1.4047 C   0  0  0  0  0  0  0  0  0  0  0  0
    3.8410   -5.3500    1.7644 C   0  0  2  0  0  0  0  0  0  0  0  0
    3.1309   -6.5385    1.0530 C   0  0  0  0  0  0  0  0  0  0  0  0
    3.1052   -7.9314    1.8191 C   0  0  2  0  0  0  0  0  0  0  0  0
    1.7518   -8.1362    2.5373 C   0  0  0  0  0  0  0  0  0  0  0  0
    1.5703   -7.1934    3.7722 C   0  0  0  0  0  0  0  0  0  0  0  0
    0.3739   -6.2810    3.4001 C   0  0  0  0  0  0  0  0  0  0  0  0
    1.0600   -8.0279    4.9724 C   0  0  0  0  0  0  0  0  0  0  0  0
    2.9741   -6.4971    4.1296 C   0  0  2  0  0  0  0  0  0  0  0  0
    2.9309   -5.3271    5.0756 O   0  0  0  0  0  0  0  0  0  0  0  0
    2.8130   -4.4734    3.8736 C   0  0  1  0  0  0  0  0  0  0  0  0
    3.3949   -3.2607    3.1552 C   0  0  1  0  0  0  0  0  0  0  0  0
    4.7192   -2.9335    3.5484 O   0  0  0  0  0  0  0  0  0  0  0  0
    3.3109   -3.8581    1.6668 C   0  0  1  0  0  0  0  0  0  0  0  0
    3.6600   -5.5001    3.2350 C   0  0  2  0  0  0  0  0  0  0  0  0
    4.0371   -7.5859    4.2739 C   0  0  1  0  0  0  0  0  0  0  0  0
    3.8249   -8.9864    3.9888 O   0  0  0  0  0  0  0  0  0  0  0  0
    4.2096   -8.1833    2.8737 C   0  0  1  0  0  0  0  0  0  0  0  0
    4.0404   -1.0673    1.4784 H   0  0  0  0  0  0  0  0  0  0  0  0
    2.3800   -1.3754    0.9671 H   0  0  0  0  0  0  0  0  0  0  0  0
    3.5775   -0.8808   -0.1982 H   0  0  0  0  0  0  0  0  0  0  0  0
    5.2914   -2.2201   -3.2180 H   0  0  0  0  0  0  0  0  0  0  0  0
    2.0235   -3.4794   -2.9784 H   0  0  0  0  0  0  0  0  0  0  0  0
    6.7592   -4.7496   -0.0909 H   0  0  0  0  0  0  0  0  0  0  0  0
    5.1963   -5.1654   -0.7451 H   0  0  0  0  0  0  0  0  0  0  0  0
    5.7290   -6.4024    1.3587 H   0  0  0  0  0  0  0  0  0  0  0  0
    5.9640   -4.8852    2.1698 H   0  0  0  0  0  0  0  0  0  0  0  0
    2.1035   -6.2507    0.8272 H   0  0  0  0  0  0  0  0  0  0  0  0
    3.5892   -6.6761    0.0732 H   0  0  0  0  0  0  0  0  0  0  0  0
    3.1900   -8.7246    1.0751 H   0  0  0  0  0  0  0  0  0  0  0  0
    0.9370   -8.0529    1.8175 H   0  0  0  0  0  0  0  0  0  0  0  0
    1.6940   -9.1793    2.8574 H   0  0  0  0  0  0  0  0  0  0  0  0
    0.1045   -5.6071    4.2154 H   0  0  0  0  0  0  0  0  0  0  0  0
   -0.5178   -6.8712    3.1891 H   0  0  0  0  0  0  0  0  0  0  0  0
    0.5691   -5.6987    2.4989 H   0  0  0  0  0  0  0  0  0  0  0  0
    0.8606   -7.3970    5.8404 H   0  0  0  0  0  0  0  0  0  0  0  0
    1.7658   -8.7976    5.2859 H   0  0  0  0  0  0  0  0  0  0  0  0
    0.1331   -8.5473    4.7240 H   0  0  0  0  0  0  0  0  0  0  0  0
    1.7688   -4.4121    3.6271 H   0  0  0  0  0  0  0  0  0  0  0  0
    2.7644   -2.3800    3.2765 H   0  0  0  0  0  0  0  0  0  0  0  0
    5.0262   -2.2067    3.0310 H   0  0  0  0  0  0  0  0  0  0  0  0
    2.2336   -3.9540    1.5393 H   0  0  0  0  0  0  0  0  0  0  0  0
    4.6496   -5.3856    3.6881 H   0  0  0  0  0  0  0  0  0  0  0  0
    4.9499   -7.3395    4.8089 H   0  0  0  0  0  0  0  0  0  0  0  0
    5.2105   -8.3952    2.5045 H   0  0  0  0  0  0  0  0  0  0  0  0
    5.8345   -2.7380    1.0198 H   0  0  0  0  0  0  0  0  0  0  0  0
  1 30  1  0
  1 31  1  0
  1 32  1  0
  2  1  1  1
  2 10  1  0
  2 25  1  0
  2  3  1  0
  3  4  2  0
  3  5  1  0
  5  7  2  0
  5  6  1  0
  6 34  1  0
  7 33  1  0
  7  8  1  0
  8  9  2  0
  8 10  1  0
 10 11  1  0
 10 57  1  1
 11 12  1  0
 11 35  1  0
 11 36  1  0
 13 12  1  1
 12 37  1  0
 12 38  1  0
 13 25  1  0
 13 26  1  0
 13 14  1  0
 14 15  1  0
 14 39  1  0
 14 40  1  0
 15 29  1  0
 15 16  1  0
 15 41  1  6
 16 17  1  0
 16 42  1  0
 16 43  1  0
 17 18  1  0
 17 19  1  0
 17 20  1  0
 18 44  1  0
 18 45  1  0
 18 46  1  0
 19 47  1  0
 19 48  1  0
 19 49  1  0
 20 26  1  0
 20 21  1  1
 20 27  1  0
 21 22  1  0
 22 23  1  0
 22 26  1  0
 22 50  1  6
 23 24  1  0
 23 25  1  0
 23 51  1  6
 24 52  1  0
 25 53  1  6
 26 54  1  1
 27 29  1  0
 27 28  1  0
 27 55  1  1
 28 29  1  0
 29 56  1  6
M  END
>  <i_m_ct_stereo_status>  (120) 
1

>  <s_m_source_file>  (120) 
/var/tmp/pbs.5076255.sched01/tmpr0mrskr5/46emy42_dx.sdf

>  <i_m_source_file_index>  (120) 
5

>  <i_lp_mmshare_version>  (120) 
48012

>  <i_f3d_flags>  (120) 
0

>  <s_epik_input>  (120) 
Tz1DMUMoPU8pW0NIMl1DKD1PKVtDQEhdKFtDSDJdW0NIMl0yKVtDQF0xKFtDSDNdKVtDQEBIXShbQ0BdMjM0KVtDQEhdKFtPSF0pW0NASF01W0NASF00W0NAXTYoTzUpW0NAQEhdN1tDQEBIXShPNylbQ0BIXShbQ0gyXTMpW0NIMl1DNihbQ0gzXSlbQ0gzXQ==

>  <s_epik_cmdline>  (120) 
J2VwaWtfcHl0aG9uJywgJy1waHQnLCAnMi4wJywgJy1waCcsICc3LjAnLCAnLXRuJywgJzgnLCAnLW1hJywgJzIwMCcsICctaW1hZScsICc8aW5maWxlLm1hZT4nLCAnLW9tYWUnLCAnPG91dGZpbGUubWFlPic=

>  <r_lp_tautomer_probability>  (120) 
0.996069

>  <r_epik_Ionization_Penalty>  (120) 
3.81052

>  <r_epik_Ionization_Penalty_Charging>  (120) 
0

>  <r_epik_Ionization_Penalty_Neutral>  (120) 
3.81052

>  <r_epik_State_Penalty>  (120) 
0.0892735

>  <r_epik_Charging_Adjusted_Penalty>  (120) 
0.0892735

>  <i_epik_Tot_Q>  (120) 
0

>  <i_epik_Tot_abs_Q>  (120) 
0

>  <s_lp_Force_Field>  (120) 
OPLS3e

>  <r_lp_Energy>  (120) 
144.383

>  <b_lp_Chiralities_Consistent>  (120) 
1

>  <s_lp_Variant>  (120) 
31:0-1

>  <s_i_glide_gridfile>  (120) 
pfpi4k_grid

>  <i_i_glide_lignum>  (120) 
5

>  <i_i_glide_rotatable_bonds>  (120) 
2

>  <r_i_docking_score>  (120) 
-3.45313

>  <r_i_glide_ligand_efficiency>  (120) 
-0.119073

>  <r_i_glide_ligand_efficiency_sa>  (120) 
-0.365831

>  <r_i_glide_ligand_efficiency_ln>  (120) 
-0.790679

>  <r_i_glide_gscore>  (120) 
-3.45313

>  <r_i_glide_lipo>  (120) 
-0.28713

>  <r_i_glide_hbond>  (120) 
-0.164533

>  <r_i_glide_metal>  (120) 
-0

>  <r_i_glide_rewards>  (120) 
-0.767332

>  <r_i_glide_evdw>  (120) 
-27.1053

>  <r_i_glide_ecoul>  (120) 
-5.71482

>  <r_i_glide_erotb>  (120) 
0

>  <r_i_glide_esite>  (120) 
-0.0216423

>  <r_i_glide_emodel>  (120) 
-39.0087

>  <r_i_glide_energy>  (120) 
-32.8202

>  <r_i_glide_einternal>  (120) 
2.41373

>  <r_i_glide_intrahb_reward>  (120) 
-0

>  <i_i_glide_confnum>  (120) 
1

>  <i_i_glide_posenum>  (120) 
35

>  <r_i_glide_eff_state_penalty>  (120) 
0

>  <ligand_id>  (120) 
31

>  <original_smiles>  (120) 
CC12C(=O)C(=O)CC(=O)C1CCC13CC4CC(C)(C)C5(OC(C(O)C12)C35)C1OC41

>  <smiles>  (120) 
[H]OC1=C([H])C(=O)C2([H])C([H])([H])C([H])([H])C34C([H])([H])C5([H])C([H])([H])C(C([H])([H])[H])(C([H])([H])[H])C6(OC([H])(C([H])(O[H])C3([H])C2(C([H])([H])[H])C1=O)C64[H])C1([H])OC15[H]

$$$$
31:1:0
     RDKit          3D

 56 62  0  0  1  0  0  0  0  0999 V2000
    2.8807   -8.3463    1.9925 C   0  0  0  0  0  0  0  0  0  0  0  0
    2.5933   -6.8585    2.3285 C   0  0  1  0  0  0  0  0  0  0  0  0
    1.0963   -6.6411    1.9371 C   0  0  0  0  0  0  0  0  0  0  0  0
    0.8229   -6.1633    0.8314 O   0  0  0  0  0  0  0  0  0  0  0  0
   -0.0095   -7.0780    2.8971 C   0  0  0  0  0  0  0  0  0  0  0  0
   -1.1561   -7.0469    2.4030 O   0  0  0  0  0  0  0  0  0  0  0  0
    0.4042   -7.4406    4.1708 C   0  0  0  0  0  0  0  0  0  0  0  0
    1.7662   -7.3557    4.6946 C   0  0  0  0  0  0  0  0  0  0  0  0
    2.1094   -7.8192    5.7790 O   0  0  0  0  0  0  0  0  0  0  0  0
    2.7710   -6.5765    3.8482 C   0  0  2  0  0  0  0  0  0  0  0  0
    2.6409   -5.0723    4.1704 C   0  0  0  0  0  0  0  0  0  0  0  0
    3.7435   -4.2906    3.4612 C   0  0  0  0  0  0  0  0  0  0  0  0
    3.6822   -4.4012    1.9031 C   0  0  2  0  0  0  0  0  0  0  0  0
    2.7095   -3.3133    1.3579 C   0  0  0  0  0  0  0  0  0  0  0  0
    3.3215   -1.8796    1.0537 C   0  0  2  0  0  0  0  0  0  0  0  0
    3.6421   -1.7227   -0.4518 C   0  0  0  0  0  0  0  0  0  0  0  0
    4.8499   -2.5920   -0.9096 C   0  0  0  0  0  0  0  0  0  0  0  0
    4.2552   -3.5981   -1.9204 C   0  0  0  0  0  0  0  0  0  0  0  0
    5.7877   -1.7252   -1.7644 C   0  0  0  0  0  0  0  0  0  0  0  0
    5.6214   -3.1588    0.3753 C   0  0  2  0  0  0  0  0  0  0  0  0
    6.6214   -4.2563    0.1379 O   0  0  0  0  0  0  0  0  0  0  0  0
    5.5080   -5.1967    0.3839 C   0  0  1  0  0  0  0  0  0  0  0  0
    5.0797   -6.4166    1.1896 C   0  0  1  0  0  0  0  0  0  0  0  0
    5.8479   -6.6336    2.3609 O   0  0  0  0  0  0  0  0  0  0  0  0
    3.5777   -5.9346    1.4994 C   0  0  1  0  0  0  0  0  0  0  0  0
    5.0319   -4.1640    1.3212 C   0  0  2  0  0  0  0  0  0  0  0  0
    5.9501   -1.9825    1.2947 C   0  0  1  0  0  0  0  0  0  0  0  0
    5.4994   -0.6204    1.0980 O   0  0  0  0  0  0  0  0  0  0  0  0
    4.6045   -1.4777    1.8091 C   0  0  1  0  0  0  0  0  0  0  0  0
    3.8424   -8.6741    2.3876 H   0  0  0  0  0  0  0  0  0  0  0  0
    2.8811   -8.5172    0.9159 H   0  0  0  0  0  0  0  0  0  0  0  0
    2.1207   -9.0114    2.4071 H   0  0  0  0  0  0  0  0  0  0  0  0
   -0.3407   -7.7934    4.8711 H   0  0  0  0  0  0  0  0  0  0  0  0
    3.7675   -6.9031    4.1476 H   0  0  0  0  0  0  0  0  0  0  0  0
    2.7323   -4.9131    5.2482 H   0  0  0  0  0  0  0  0  0  0  0  0
    1.6578   -4.6802    3.8988 H   0  0  0  0  0  0  0  0  0  0  0  0
    3.7080   -3.2462    3.7751 H   0  0  0  0  0  0  0  0  0  0  0  0
    4.6846   -4.6816    3.8524 H   0  0  0  0  0  0  0  0  0  0  0  0
    2.2508   -3.6879    0.4412 H   0  0  0  0  0  0  0  0  0  0  0  0
    1.8733   -3.2009    2.0493 H   0  0  0  0  0  0  0  0  0  0  0  0
    2.5577   -1.1351    1.2905 H   0  0  0  0  0  0  0  0  0  0  0  0
    2.7442   -1.9275   -1.0348 H   0  0  0  0  0  0  0  0  0  0  0  0
    3.8359   -0.6659   -0.6517 H   0  0  0  0  0  0  0  0  0  0  0  0
    5.0202   -4.2341   -2.3696 H   0  0  0  0  0  0  0  0  0  0  0  0
    3.7551   -3.0941   -2.7485 H   0  0  0  0  0  0  0  0  0  0  0  0
    3.4910   -4.2276   -1.4623 H   0  0  0  0  0  0  0  0  0  0  0  0
    6.6183   -2.3056   -2.1685 H   0  0  0  0  0  0  0  0  0  0  0  0
    6.1982   -0.8963   -1.1944 H   0  0  0  0  0  0  0  0  0  0  0  0
    5.2496   -1.2847   -2.6055 H   0  0  0  0  0  0  0  0  0  0  0  0
    5.0025   -5.3424   -0.5527 H   0  0  0  0  0  0  0  0  0  0  0  0
    5.0951   -7.3249    0.5878 H   0  0  0  0  0  0  0  0  0  0  0  0
    6.7253   -6.8774    2.0983 H   0  0  0  0  0  0  0  0  0  0  0  0
    3.1521   -5.9226    0.4965 H   0  0  0  0  0  0  0  0  0  0  0  0
    5.7430   -4.1746    2.1512 H   0  0  0  0  0  0  0  0  0  0  0  0
    6.7067   -2.1305    2.0502 H   0  0  0  0  0  0  0  0  0  0  0  0
    4.5022   -1.2241    2.8642 H   0  0  0  0  0  0  0  0  0  0  0  0
  1 30  1  0
  1 31  1  0
  1 32  1  0
  2  1  1  1
  2 10  1  0
  2 25  1  0
  2  3  1  0
  3  4  2  0
  3  5  1  0
  5  7  2  0
  5  6  1  0
  7 33  1  0
  7  8  1  0
  8  9  2  0
  8 10  1  0
 10 11  1  0
 10 34  1  1
 11 12  1  0
 11 35  1  0
 11 36  1  0
 13 12  1  1
 12 37  1  0
 12 38  1  0
 13 25  1  0
 13 26  1  0
 13 14  1  0
 14 15  1  0
 14 39  1  0
 14 40  1  0
 15 29  1  0
 15 16  1  0
 15 41  1  1
 16 17  1  0
 16 42  1  0
 16 43  1  0
 17 18  1  0
 17 19  1  0
 17 20  1  0
 18 44  1  0
 18 45  1  0
 18 46  1  0
 19 47  1  0
 19 48  1  0
 19 49  1  0
 20 26  1  0
 20 21  1  6
 20 27  1  0
 21 22  1  0
 22 23  1  0
 22 26  1  0
 22 50  1  6
 23 24  1  0
 23 25  1  0
 23 51  1  6
 24 52  1  0
 25 53  1  6
 26 54  1  1
 27 29  1  0
 27 28  1  0
 27 55  1  1
 28 29  1  0
 29 56  1  1
M  CHG  1   6  -1
M  END
>  <i_m_ct_stereo_status>  (121) 
1

>  <s_m_source_file>  (121) 
/var/tmp/pbs.5076255.sched01/tmpr0mrskr5/46emy42_dx.sdf

>  <i_m_source_file_index>  (121) 
6

>  <i_lp_mmshare_version>  (121) 
48012

>  <i_f3d_flags>  (121) 
0

>  <s_epik_input>  (121) 
Tz1DMUMoPU8pW0NIMl1DKD1PKVtDQEhdKFtDSDJdW0NIMl0yKVtDQF0xKFtDSDNdKVtDQEBIXShbQ0BdMjM0KVtDQEhdKFtPSF0pW0NASF01W0NASF00W0NAXTYoTzUpW0NAQEhdN1tDQEBIXShPNylbQ0BIXShbQ0gyXTMpW0NIMl1DNihbQ0gzXSlbQ0gzXQ==

>  <s_epik_cmdline>  (121) 
J2VwaWtfcHl0aG9uJywgJy1waHQnLCAnMi4wJywgJy1waCcsICc3LjAnLCAnLXRuJywgJzgnLCAnLW1hJywgJzIwMCcsICctaW1hZScsICc8aW5maWxlLm1hZT4nLCAnLW9tYWUnLCAnPG91dGZpbGUubWFlPic=

>  <r_epik_Ionization_Penalty>  (121) 
1.36144

>  <r_epik_Ionization_Penalty_Charging>  (121) 
0.000954779

>  <r_epik_Ionization_Penalty_Neutral>  (121) 
1.36049

>  <r_epik_State_Penalty>  (121) 
1.16788

>  <r_epik_Charging_Adjusted_Penalty>  (121) 
1.16884

>  <i_epik_Tot_Q>  (121) 
-1

>  <i_epik_Tot_abs_Q>  (121) 
1

>  <s_lp_Force_Field>  (121) 
OPLS3e

>  <r_lp_Energy>  (121) 
145.638

>  <b_lp_Chiralities_Consistent>  (121) 
1

>  <s_lp_Variant>  (121) 
31:0-2

>  <s_i_glide_gridfile>  (121) 
pfpi4k_grid

>  <i_i_glide_lignum>  (121) 
6

>  <i_i_glide_rotatable_bonds>  (121) 
1

>  <r_i_docking_score>  (121) 
-3.44484

>  <r_i_glide_ligand_efficiency>  (121) 
-0.118788

>  <r_i_glide_ligand_efficiency_sa>  (121) 
-0.364953

>  <r_i_glide_ligand_efficiency_ln>  (121) 
-0.788781

>  <r_i_glide_gscore>  (121) 
-3.44484

>  <r_i_glide_lipo>  (121) 
-0.503809

>  <r_i_glide_hbond>  (121) 
-0.36

>  <r_i_glide_metal>  (121) 
-0

>  <r_i_glide_rewards>  (121) 
-0.685521

>  <r_i_glide_evdw>  (121) 
-25.7315

>  <r_i_glide_ecoul>  (121) 
-3.65698

>  <r_i_glide_erotb>  (121) 
0

>  <r_i_glide_esite>  (121) 
-0.0603874

>  <r_i_glide_emodel>  (121) 
-37.0933

>  <r_i_glide_energy>  (121) 
-29.3885

>  <r_i_glide_einternal>  (121) 
0.318111

>  <r_i_glide_intrahb_reward>  (121) 
-0

>  <i_i_glide_confnum>  (121) 
2

>  <i_i_glide_posenum>  (121) 
34

>  <r_i_glide_eff_state_penalty>  (121) 
0

>  <ligand_id>  (121) 
31

>  <original_smiles>  (121) 
CC12C(=O)C(=O)CC(=O)C1CCC13CC4CC(C)(C)C5(OC(C(O)C12)C35)C1OC41

>  <smiles>  (121) 
[H]OC1([H])C2([H])OC34C5([H])OC5([H])C([H])(C([H])([H])C5(C([H])([H])C([H])([H])C6([H])C(=O)C([H])=C([O-])C(=O)C6(C([H])([H])[H])C15[H])C23[H])C([H])([H])C4(C([H])([H])[H])C([H])([H])[H]

$$$$
31:1:1
     RDKit          3D

 56 62  0  0  1  0  0  0  0  0999 V2000
    2.9317   -8.2787    2.1073 C   0  0  0  0  0  0  0  0  0  0  0  0
    2.6135   -6.7888    2.3990 C   0  0  1  0  0  0  0  0  0  0  0  0
    1.1210   -6.6046    1.9720 C   0  0  0  0  0  0  0  0  0  0  0  0
    0.8641   -6.1462    0.8525 O   0  0  0  0  0  0  0  0  0  0  0  0
    0.0050   -7.0465    2.9166 C   0  0  0  0  0  0  0  0  0  0  0  0
   -1.1323   -7.0454    2.3943 O   0  0  0  0  0  0  0  0  0  0  0  0
    0.3948   -7.3628    4.2084 C   0  0  0  0  0  0  0  0  0  0  0  0
    1.7450   -7.2390    4.7608 C   0  0  0  0  0  0  0  0  0  0  0  0
    2.0695   -7.6674    5.8629 O   0  0  0  0  0  0  0  0  0  0  0  0
    2.7533   -6.4658    3.9149 C   0  0  2  0  0  0  0  0  0  0  0  0
    2.5925   -4.9559    4.1963 C   0  0  0  0  0  0  0  0  0  0  0  0
    3.6985   -4.1722    3.4885 C   0  0  0  0  0  0  0  0  0  0  0  0
    3.6727   -4.3250    1.9342 C   0  0  2  0  0  0  0  0  0  0  0  0
    2.6952   -3.2675    1.3379 C   0  0  0  0  0  0  0  0  0  0  0  0
    3.2902   -1.8316    1.0089 C   0  0  2  0  0  0  0  0  0  0  0  0
    3.6397   -1.7122   -0.4914 C   0  0  0  0  0  0  0  0  0  0  0  0
    4.8701   -2.5704   -0.9004 C   0  0  0  0  0  0  0  0  0  0  0  0
    4.3133   -3.6112   -1.8975 C   0  0  0  0  0  0  0  0  0  0  0  0
    5.8119   -1.7117   -1.7594 C   0  0  0  0  0  0  0  0  0  0  0  0
    5.6242   -3.0922    0.4128 C   0  0  2  0  0  0  0  0  0  0  0  0
    6.6467   -4.1751    0.2296 O   0  0  0  0  0  0  0  0  0  0  0  0
    5.5458   -5.1290    0.4773 C   0  0  1  0  0  0  0  0  0  0  0  0
    5.1163   -6.3317    1.3087 C   0  0  1  0  0  0  0  0  0  0  0  0
    5.8517   -6.5172    2.5054 O   0  0  0  0  0  0  0  0  0  0  0  0
    3.5988   -5.8704    1.5688 C   0  0  1  0  0  0  0  0  0  0  0  0
    5.0300   -4.0796    1.3754 C   0  0  2  0  0  0  0  0  0  0  0  0
    5.9152   -1.8848    1.3074 C   0  0  1  0  0  0  0  0  0  0  0  0
    5.4450   -0.5350    1.0678 O   0  0  0  0  0  0  0  0  0  0  0  0
    4.5516   -1.3909    1.7816 C   0  0  1  0  0  0  0  0  0  0  0  0
    3.8889   -8.5809    2.5317 H   0  0  0  0  0  0  0  0  0  0  0  0
    2.9577   -8.4767    1.0356 H   0  0  0  0  0  0  0  0  0  0  0  0
    2.1744   -8.9470    2.5222 H   0  0  0  0  0  0  0  0  0  0  0  0
   -0.3588   -7.7057    4.9026 H   0  0  0  0  0  0  0  0  0  0  0  0
    3.7468   -6.7704    4.2454 H   0  0  0  0  0  0  0  0  0  0  0  0
    2.6593   -4.7678    5.2701 H   0  0  0  0  0  0  0  0  0  0  0  0
    1.6101   -4.5863    3.8939 H   0  0  0  0  0  0  0  0  0  0  0  0
    3.6346   -3.1214    3.7730 H   0  0  0  0  0  0  0  0  0  0  0  0
    4.6347   -4.5322    3.9159 H   0  0  0  0  0  0  0  0  0  0  0  0
    2.2615   -3.6737    0.4224 H   0  0  0  0  0  0  0  0  0  0  0  0
    1.8416   -3.1507    2.0091 H   0  0  0  0  0  0  0  0  0  0  0  0
    2.5115   -1.0958    1.2118 H   0  0  0  0  0  0  0  0  0  0  0  0
    2.7584   -1.9417   -1.0883 H   0  0  0  0  0  0  0  0  0  0  0  0
    3.8222   -0.6608   -0.7146 H   0  0  0  0  0  0  0  0  0  0  0  0
    5.0946   -4.2509   -2.3130 H   0  0  0  0  0  0  0  0  0  0  0  0
    3.8282   -3.1354   -2.7513 H   0  0  0  0  0  0  0  0  0  0  0  0
    3.5450   -4.2348   -1.4377 H   0  0  0  0  0  0  0  0  0  0  0  0
    6.6615   -2.2883   -2.1321 H   0  0  0  0  0  0  0  0  0  0  0  0
    6.1978   -0.8608   -1.2020 H   0  0  0  0  0  0  0  0  0  0  0  0
    5.2850   -1.3010   -2.6228 H   0  0  0  0  0  0  0  0  0  0  0  0
    5.0608   -5.3085   -0.4649 H   0  0  0  0  0  0  0  0  0  0  0  0
    5.1631   -7.2565    0.7358 H   0  0  0  0  0  0  0  0  0  0  0  0
    5.8730   -5.6965    2.9777 H   0  0  0  0  0  0  0  0  0  0  0  0
    3.1984   -5.8915    0.5552 H   0  0  0  0  0  0  0  0  0  0  0  0
    5.7240   -4.0508    2.2186 H   0  0  0  0  0  0  0  0  0  0  0  0
    6.6609   -1.9988    2.0783 H   0  0  0  0  0  0  0  0  0  0  0  0
    4.4227   -1.1114    2.8286 H   0  0  0  0  0  0  0  0  0  0  0  0
  1 30  1  0
  1 31  1  0
  1 32  1  0
  2  1  1  1
  2 10  1  0
  2 25  1  0
  2  3  1  0
  3  4  2  0
  3  5  1  0
  5  7  2  0
  5  6  1  0
  7 33  1  0
  7  8  1  0
  8  9  2  0
  8 10  1  0
 10 11  1  0
 10 34  1  1
 11 12  1  0
 11 35  1  0
 11 36  1  0
 13 12  1  1
 12 37  1  0
 12 38  1  0
 13 25  1  0
 13 26  1  0
 13 14  1  0
 14 15  1  0
 14 39  1  0
 14 40  1  0
 15 29  1  0
 15 16  1  0
 15 41  1  6
 16 17  1  0
 16 42  1  0
 16 43  1  0
 17 18  1  0
 17 19  1  0
 17 20  1  0
 18 44  1  0
 18 45  1  0
 18 46  1  0
 19 47  1  0
 19 48  1  0
 19 49  1  0
 20 26  1  0
 20 21  1  6
 20 27  1  0
 21 22  1  0
 22 23  1  0
 22 26  1  0
 22 50  1  6
 23 24  1  0
 23 25  1  0
 23 51  1  6
 24 52  1  0
 25 53  1  6
 26 54  1  1
 27 29  1  0
 27 28  1  0
 27 55  1  1
 28 29  1  0
 29 56  1  1
M  CHG  1   6  -1
M  END
>  <i_m_ct_stereo_status>  (122) 
1

>  <s_m_source_file>  (122) 
/var/tmp/pbs.5076255.sched01/tmpr0mrskr5/46emy42_dx.sdf

>  <i_m_source_file_index>  (122) 
6

>  <i_lp_mmshare_version>  (122) 
48012

>  <i_f3d_flags>  (122) 
0

>  <s_epik_input>  (122) 
Tz1DMUMoPU8pW0NIMl1DKD1PKVtDQEhdKFtDSDJdW0NIMl0yKVtDQF0xKFtDSDNdKVtDQEBIXShbQ0BdMjM0KVtDQEhdKFtPSF0pW0NASF01W0NASF00W0NAXTYoTzUpW0NAQEhdN1tDQEBIXShPNylbQ0BIXShbQ0gyXTMpW0NIMl1DNihbQ0gzXSlbQ0gzXQ==

>  <s_epik_cmdline>  (122) 
J2VwaWtfcHl0aG9uJywgJy1waHQnLCAnMi4wJywgJy1waCcsICc3LjAnLCAnLXRuJywgJzgnLCAnLW1hJywgJzIwMCcsICctaW1hZScsICc8aW5maWxlLm1hZT4nLCAnLW9tYWUnLCAnPG91dGZpbGUubWFlPic=

>  <r_epik_Ionization_Penalty>  (122) 
1.36144

>  <r_epik_Ionization_Penalty_Charging>  (122) 
0.000954779

>  <r_epik_Ionization_Penalty_Neutral>  (122) 
1.36049

>  <r_epik_State_Penalty>  (122) 
1.16788

>  <r_epik_Charging_Adjusted_Penalty>  (122) 
1.16884

>  <i_epik_Tot_Q>  (122) 
-1

>  <i_epik_Tot_abs_Q>  (122) 
1

>  <s_lp_Force_Field>  (122) 
OPLS3e

>  <r_lp_Energy>  (122) 
145.638

>  <b_lp_Chiralities_Consistent>  (122) 
1

>  <s_lp_Variant>  (122) 
31:0-2

>  <s_i_glide_gridfile>  (122) 
pfpi4k_grid

>  <i_i_glide_lignum>  (122) 
6

>  <i_i_glide_rotatable_bonds>  (122) 
1

>  <r_i_docking_score>  (122) 
-3.41359

>  <r_i_glide_ligand_efficiency>  (122) 
-0.11771

>  <r_i_glide_ligand_efficiency_sa>  (122) 
-0.361643

>  <r_i_glide_ligand_efficiency_ln>  (122) 
-0.781626

>  <r_i_glide_gscore>  (122) 
-3.41359

>  <r_i_glide_lipo>  (122) 
-0.483743

>  <r_i_glide_hbond>  (122) 
-0.36

>  <r_i_glide_metal>  (122) 
-0

>  <r_i_glide_rewards>  (122) 
-0.685521

>  <r_i_glide_evdw>  (122) 
-25.5477

>  <r_i_glide_ecoul>  (122) 
-3.65503

>  <r_i_glide_erotb>  (122) 
0

>  <r_i_glide_esite>  (122) 
-0.0586902

>  <r_i_glide_emodel>  (122) 
-36.9837

>  <r_i_glide_energy>  (122) 
-29.2027

>  <r_i_glide_einternal>  (122) 
0.000323537

>  <r_i_glide_intrahb_reward>  (122) 
-0

>  <i_i_glide_confnum>  (122) 
1

>  <i_i_glide_posenum>  (122) 
10

>  <r_i_glide_eff_state_penalty>  (122) 
0

>  <ligand_id>  (122) 
31

>  <original_smiles>  (122) 
CC12C(=O)C(=O)CC(=O)C1CCC13CC4CC(C)(C)C5(OC(C(O)C12)C35)C1OC41

>  <smiles>  (122) 
[H]OC1([H])C2([H])OC34C5([H])OC5([H])C([H])(C([H])([H])C5(C([H])([H])C([H])([H])C6([H])C(=O)C([H])=C([O-])C(=O)C6(C([H])([H])[H])C15[H])C23[H])C([H])([H])C4(C([H])([H])[H])C([H])([H])[H]

$$$$
31:1:2
     RDKit          3D

 56 62  0  0  1  0  0  0  0  0999 V2000
    2.7565   -8.4049    2.3675 C   0  0  0  0  0  0  0  0  0  0  0  0
    2.4325   -6.9073    2.6098 C   0  0  1  0  0  0  0  0  0  0  0  0
    0.9663   -6.7150    2.0938 C   0  0  0  0  0  0  0  0  0  0  0  0
    0.7659   -6.2546    0.9595 O   0  0  0  0  0  0  0  0  0  0  0  0
   -0.2056   -7.1281    2.9883 C   0  0  0  0  0  0  0  0  0  0  0  0
   -1.3195   -7.1026    2.4243 O   0  0  0  0  0  0  0  0  0  0  0  0
    0.1115   -7.4287    4.3038 C   0  0  0  0  0  0  0  0  0  0  0  0
    1.4282   -7.3059    4.9318 C   0  0  0  0  0  0  0  0  0  0  0  0
    1.6868   -7.7151    6.0545 O   0  0  0  0  0  0  0  0  0  0  0  0
    2.4893   -6.5560    4.1273 C   0  0  2  0  0  0  0  0  0  0  0  0
    2.3270   -5.0408    4.3721 C   0  0  0  0  0  0  0  0  0  0  0  0
    3.4816   -4.2824    3.7166 C   0  0  0  0  0  0  0  0  0  0  0  0
    3.5455   -4.4642    2.1666 C   0  0  2  0  0  0  0  0  0  0  0  0
    2.6166   -3.4101    1.4944 C   0  0  0  0  0  0  0  0  0  0  0  0
    3.2410   -1.9847    1.1742 C   0  0  2  0  0  0  0  0  0  0  0  0
    3.6788   -1.8924   -0.3057 C   0  0  0  0  0  0  0  0  0  0  0  0
    4.9274   -2.7678   -0.6259 C   0  0  0  0  0  0  0  0  0  0  0  0
    4.4229   -3.8328   -1.6246 C   0  0  0  0  0  0  0  0  0  0  0  0
    5.9225   -1.9259   -1.4477 C   0  0  0  0  0  0  0  0  0  0  0  0
    5.5970   -3.2740    0.7389 C   0  0  2  0  0  0  0  0  0  0  0  0
    6.6164   -4.3709    0.6343 O   0  0  0  0  0  0  0  0  0  0  0  0
    5.4938   -5.3100    0.8374 C   0  0  1  0  0  0  0  0  0  0  0  0
    5.0043   -6.4939    1.6648 C   0  0  1  0  0  0  0  0  0  0  0  0
    5.6693   -6.6347    2.9084 O   0  0  0  0  0  0  0  0  0  0  0  0
    3.4767   -6.0152    1.8254 C   0  0  1  0  0  0  0  0  0  0  0  0
    4.9358   -4.2392    1.6821 C   0  0  2  0  0  0  0  0  0  0  0  0
    5.8429   -2.0556    1.6302 C   0  0  1  0  0  0  0  0  0  0  0  0
    5.4019   -0.7062    1.3374 O   0  0  0  0  0  0  0  0  0  0  0  0
    4.4578   -1.5407    2.0129 C   0  0  1  0  0  0  0  0  0  0  0  0
    3.6818   -8.7112    2.8539 H   0  0  0  0  0  0  0  0  0  0  0  0
    2.8418   -8.6228    1.3028 H   0  0  0  0  0  0  0  0  0  0  0  0
    1.9696   -9.0582    2.7494 H   0  0  0  0  0  0  0  0  0  0  0  0
   -0.6841   -7.7553    4.9593 H   0  0  0  0  0  0  0  0  0  0  0  0
    3.4582   -6.8610    4.5251 H   0  0  0  0  0  0  0  0  0  0  0  0
    2.3323   -4.8333    5.4440 H   0  0  0  0  0  0  0  0  0  0  0  0
    1.3679   -4.6690    4.0059 H   0  0  0  0  0  0  0  0  0  0  0  0
    3.4117   -3.2262    3.9770 H   0  0  0  0  0  0  0  0  0  0  0  0
    4.3897   -4.6437    4.2011 H   0  0  0  0  0  0  0  0  0  0  0  0
    2.2312   -3.8300    0.5636 H   0  0  0  0  0  0  0  0  0  0  0  0
    1.7314   -3.2715    2.1162 H   0  0  0  0  0  0  0  0  0  0  0  0
    2.4577   -1.2399    1.3164 H   0  0  0  0  0  0  0  0  0  0  0  0
    2.8303   -2.1298   -0.9470 H   0  0  0  0  0  0  0  0  0  0  0  0
    3.8815   -0.8447   -0.5367 H   0  0  0  0  0  0  0  0  0  0  0  0
    5.2193   -4.4862   -1.9852 H   0  0  0  0  0  0  0  0  0  0  0  0
    3.9837   -3.3771   -2.5123 H   0  0  0  0  0  0  0  0  0  0  0  0
    3.6294   -4.4349   -1.1789 H   0  0  0  0  0  0  0  0  0  0  0  0
    6.7875   -2.5170   -1.7572 H   0  0  0  0  0  0  0  0  0  0  0  0
    6.2784   -1.0652   -0.8856 H   0  0  0  0  0  0  0  0  0  0  0  0
    5.4481   -1.5337   -2.3471 H   0  0  0  0  0  0  0  0  0  0  0  0
    5.0649   -5.5097   -0.1259 H   0  0  0  0  0  0  0  0  0  0  0  0
    5.0839   -7.4323    1.1167 H   0  0  0  0  0  0  0  0  0  0  0  0
    5.3073   -7.3754    3.3740 H   0  0  0  0  0  0  0  0  0  0  0  0
    3.1353   -6.0527    0.7921 H   0  0  0  0  0  0  0  0  0  0  0  0
    5.5805   -4.2066    2.5645 H   0  0  0  0  0  0  0  0  0  0  0  0
    6.5543   -2.1554    2.4396 H   0  0  0  0  0  0  0  0  0  0  0  0
    4.2695   -1.2398    3.0444 H   0  0  0  0  0  0  0  0  0  0  0  0
  1 30  1  0
  1 31  1  0
  1 32  1  0
  2  1  1  1
  2 10  1  0
  2 25  1  0
  2  3  1  0
  3  4  2  0
  3  5  1  0
  5  7  2  0
  5  6  1  0
  7 33  1  0
  7  8  1  0
  8  9  2  0
  8 10  1  0
 10 11  1  0
 10 34  1  1
 11 12  1  0
 11 35  1  0
 11 36  1  0
 13 12  1  1
 12 37  1  0
 12 38  1  0
 13 25  1  0
 13 26  1  0
 13 14  1  0
 14 15  1  0
 14 39  1  0
 14 40  1  0
 15 29  1  0
 15 16  1  0
 15 41  1  6
 16 17  1  0
 16 42  1  0
 16 43  1  0
 17 18  1  0
 17 19  1  0
 17 20  1  0
 18 44  1  0
 18 45  1  0
 18 46  1  0
 19 47  1  0
 19 48  1  0
 19 49  1  0
 20 26  1  0
 20 21  1  6
 20 27  1  0
 21 22  1  0
 22 23  1  0
 22 26  1  0
 22 50  1  6
 23 24  1  0
 23 25  1  0
 23 51  1  6
 24 52  1  0
 25 53  1  6
 26 54  1  1
 27 29  1  0
 27 28  1  0
 27 55  1  1
 28 29  1  0
 29 56  1  1
M  CHG  1   6  -1
M  END
>  <i_m_ct_stereo_status>  (123) 
1

>  <s_m_source_file>  (123) 
/var/tmp/pbs.5076255.sched01/tmpr0mrskr5/46emy42_dx.sdf

>  <i_m_source_file_index>  (123) 
6

>  <i_lp_mmshare_version>  (123) 
48012

>  <i_f3d_flags>  (123) 
0

>  <s_epik_input>  (123) 
Tz1DMUMoPU8pW0NIMl1DKD1PKVtDQEhdKFtDSDJdW0NIMl0yKVtDQF0xKFtDSDNdKVtDQEBIXShbQ0BdMjM0KVtDQEhdKFtPSF0pW0NASF01W0NASF00W0NAXTYoTzUpW0NAQEhdN1tDQEBIXShPNylbQ0BIXShbQ0gyXTMpW0NIMl1DNihbQ0gzXSlbQ0gzXQ==

>  <s_epik_cmdline>  (123) 
J2VwaWtfcHl0aG9uJywgJy1waHQnLCAnMi4wJywgJy1waCcsICc3LjAnLCAnLXRuJywgJzgnLCAnLW1hJywgJzIwMCcsICctaW1hZScsICc8aW5maWxlLm1hZT4nLCAnLW9tYWUnLCAnPG91dGZpbGUubWFlPic=

>  <r_epik_Ionization_Penalty>  (123) 
1.36144

>  <r_epik_Ionization_Penalty_Charging>  (123) 
0.000954779

>  <r_epik_Ionization_Penalty_Neutral>  (123) 
1.36049

>  <r_epik_State_Penalty>  (123) 
1.16788

>  <r_epik_Charging_Adjusted_Penalty>  (123) 
1.16884

>  <i_epik_Tot_Q>  (123) 
-1

>  <i_epik_Tot_abs_Q>  (123) 
1

>  <s_lp_Force_Field>  (123) 
OPLS3e

>  <r_lp_Energy>  (123) 
145.638

>  <b_lp_Chiralities_Consistent>  (123) 
1

>  <s_lp_Variant>  (123) 
31:0-2

>  <s_i_glide_gridfile>  (123) 
pfpi4k_grid

>  <i_i_glide_lignum>  (123) 
6

>  <i_i_glide_rotatable_bonds>  (123) 
1

>  <r_i_docking_score>  (123) 
-3.31096

>  <r_i_glide_ligand_efficiency>  (123) 
-0.114171

>  <r_i_glide_ligand_efficiency_sa>  (123) 
-0.350769

>  <r_i_glide_ligand_efficiency_ln>  (123) 
-0.758126

>  <r_i_glide_gscore>  (123) 
-3.31096

>  <r_i_glide_lipo>  (123) 
-0.392307

>  <r_i_glide_hbond>  (123) 
-0.36

>  <r_i_glide_metal>  (123) 
-0

>  <r_i_glide_rewards>  (123) 
-0.685521

>  <r_i_glide_evdw>  (123) 
-26.555

>  <r_i_glide_ecoul>  (123) 
-3.20991

>  <r_i_glide_erotb>  (123) 
0

>  <r_i_glide_esite>  (123) 
-0.0638921

>  <r_i_glide_emodel>  (123) 
-37.1146

>  <r_i_glide_energy>  (123) 
-29.765

>  <r_i_glide_einternal>  (123) 
0.315971

>  <r_i_glide_intrahb_reward>  (123) 
-0

>  <i_i_glide_confnum>  (123) 
1

>  <i_i_glide_posenum>  (123) 
30

>  <r_i_glide_eff_state_penalty>  (123) 
0

>  <ligand_id>  (123) 
31

>  <original_smiles>  (123) 
CC12C(=O)C(=O)CC(=O)C1CCC13CC4CC(C)(C)C5(OC(C(O)C12)C35)C1OC41

>  <smiles>  (123) 
[H]OC1([H])C2([H])OC34C5([H])OC5([H])C([H])(C([H])([H])C5(C([H])([H])C([H])([H])C6([H])C(=O)C([H])=C([O-])C(=O)C6(C([H])([H])[H])C15[H])C23[H])C([H])([H])C4(C([H])([H])[H])C([H])([H])[H]

$$$$
33:0:0
     RDKit          3D

 45 51  0  0  1  0  0  0  0  0999 V2000
    2.1895    0.0982    1.9848 C   0  0  0  0  0  0  0  0  0  0  0  0
    1.8435   -0.8442    3.0064 O   0  0  0  0  0  0  0  0  0  0  0  0
    2.0323   -2.2080    2.9069 C   0  0  0  0  0  0  0  0  0  0  0  0
    1.6881   -2.9959    3.7719 O   0  0  0  0  0  0  0  0  0  0  0  0
    2.6602   -2.6997    1.5845 C   0  0  2  0  0  0  0  0  0  0  0  0
    2.7350   -4.2535    1.5049 C   0  0  0  0  0  0  0  0  0  0  0  0
    3.5698   -4.6384    0.4294 O   0  0  0  0  0  0  0  0  0  0  0  0
    4.9353   -4.3222    0.6131 C   0  0  1  0  0  0  0  0  0  0  0  0
    5.6151   -5.3664    1.2521 O   0  0  0  0  0  0  0  0  0  0  0  0
    5.5696   -3.7603   -0.6567 C   0  0  1  0  0  0  0  0  0  0  0  0
    5.0661   -3.9849   -2.0580 C   0  0  2  0  0  0  0  0  0  0  0  0
    5.7993   -3.2114   -3.1593 C   0  0  0  0  0  0  0  0  0  0  0  0
    4.5511   -2.3580   -3.3387 C   0  0  2  0  0  0  0  0  0  0  0  0
    4.3443   -1.0541   -2.5911 C   0  0  1  0  0  0  0  0  0  0  0  0
    3.5755   -0.2066   -3.4261 O   0  0  0  0  0  0  0  0  0  0  0  0
    3.5622   -1.4311   -1.3106 C   0  0  1  0  0  0  0  0  0  0  0  0
    2.7962   -2.6986   -1.7318 C   0  0  0  0  0  0  0  0  0  0  0  0
    3.7443   -3.4191   -2.6268 C   0  0  2  0  0  0  0  0  0  0  0  0
    4.4558   -1.4820   -0.0444 C   0  0  1  0  0  0  0  0  0  0  0  0
    4.0348   -2.0574    1.3249 C   0  0  2  0  0  0  0  0  0  0  0  0
    5.2066   -2.9743    1.3079 C   0  0  1  0  0  0  0  0  0  0  0  0
    6.5764   -2.3260    1.1915 C   0  0  0  0  0  0  0  0  0  0  0  0
    5.6879   -2.4094   -0.0027 C   0  0  2  0  0  0  0  0  0  0  0  0
    1.8169    1.0783    2.2471 H   0  0  0  0  0  0  0  0  0  0  0  0
    1.7313   -0.2023    1.0394 H   0  0  0  0  0  0  0  0  0  0  0  0
    3.2520    0.1271    1.8679 H   0  0  0  0  0  0  0  0  0  0  0  0
    1.9619   -2.3730    0.8323 H   0  0  0  0  0  0  0  0  0  0  0  0
    3.1059   -4.6952    2.4312 H   0  0  0  0  0  0  0  0  0  0  0  0
    1.7425   -4.6666    1.3120 H   0  0  0  0  0  0  0  0  0  0  0  0
    5.4102   -6.1573    0.8142 H   0  0  0  0  0  0  0  0  0  0  0  0
    6.5853   -4.1888   -0.6656 H   0  0  0  0  0  0  0  0  0  0  0  0
    5.0950   -5.0483   -2.2688 H   0  0  0  0  0  0  0  0  0  0  0  0
    6.6549   -2.6468   -2.7479 H   0  0  0  0  0  0  0  0  0  0  0  0
    6.0544   -3.8336   -3.9789 H   0  0  0  0  0  0  0  0  0  0  0  0
    4.2724   -2.3292   -4.4033 H   0  0  0  0  0  0  0  0  0  0  0  0
    5.2860   -0.5564   -2.3449 H   0  0  0  0  0  0  0  0  0  0  0  0
    3.1898    0.4744   -2.9192 H   0  0  0  0  0  0  0  0  0  0  0  0
    2.8268   -0.6615   -1.1351 H   0  0  0  0  0  0  0  0  0  0  0  0
    2.3378   -3.2963   -0.9599 H   0  0  0  0  0  0  0  0  0  0  0  0
    1.9414   -2.4009   -2.3453 H   0  0  0  0  0  0  0  0  0  0  0  0
    3.2947   -4.1180   -3.3152 H   0  0  0  0  0  0  0  0  0  0  0  0
    4.7893   -0.4635    0.1434 H   0  0  0  0  0  0  0  0  0  0  0  0
    4.2747   -1.3397    2.1087 H   0  0  0  0  0  0  0  0  0  0  0  0
    6.7035   -1.3385    1.6454 H   0  0  0  0  0  0  0  0  0  0  0  0
    7.4621   -2.9639    1.2632 H   0  0  0  0  0  0  0  0  0  0  0  0
  1  2  1  0
  1 24  1  0
  1 25  1  0
  1 26  1  0
  2  3  1  0
  3  4  2  0
  3  5  1  0
  5 20  1  0
  5  6  1  0
  5 27  1  6
  6  7  1  0
  6 28  1  0
  6 29  1  0
  7  8  1  0
  8 21  1  0
  8  9  1  1
  8 10  1  0
  9 30  1  0
 10 23  1  0
 10 11  1  0
 10 31  1  6
 11 18  1  0
 11 12  1  0
 11 32  1  6
 12 13  1  0
 12 33  1  0
 12 34  1  0
 13 18  1  0
 13 14  1  0
 13 35  1  6
 14 15  1  0
 14 16  1  0
 14 36  1  1
 15 37  1  0
 16 17  1  0
 16 19  1  0
 16 38  1  1
 17 18  1  0
 17 39  1  0
 17 40  1  0
 18 41  1  6
 19 23  1  0
 19 20  1  0
 19 42  1  1
 20 21  1  0
 20 43  1  1
 21 23  1  0
 21 22  1  1
 23 22  1  1
 22 44  1  0
 22 45  1  0
M  END
>  <i_m_ct_stereo_status>  (124) 
1

>  <s_m_source_file>  (124) 
/var/tmp/pbs.5076255.sched01/tmpr0mrskr5/46emy42_dx.sdf

>  <i_m_source_file_index>  (124) 
8

>  <i_lp_mmshare_version>  (124) 
48012

>  <i_f3d_flags>  (124) 
0

>  <s_epik_input>  (124) 
W0NAQF0xMjNbQ0BAXTQoW0NIMl0zKVtDQEhdNVtDQF0xKFtPSF0pT1tDSDJdW0NAQEhdKEMoPU8pT1tDSDNdKVtDQEBIXTJbQ0BASF00W0NASF02W0NASF0oW09IXSlbQ0BASF03W0NASF0oW0NIMl02KVtDQEhdNVtDSDJdNw==

>  <s_epik_cmdline>  (124) 
J2VwaWtfcHl0aG9uJywgJy1waHQnLCAnMi4wJywgJy1waCcsICc3LjAnLCAnLXRuJywgJzgnLCAnLW1hJywgJzIwMCcsICctaW1hZScsICc8aW5maWxlLm1hZT4nLCAnLW9tYWUnLCAnPG91dGZpbGUubWFlPic=

>  <r_lp_tautomer_probability>  (124) 
1

>  <r_epik_Ionization_Penalty>  (124) 
9.19886e-07

>  <r_epik_Ionization_Penalty_Charging>  (124) 
0

>  <r_epik_Ionization_Penalty_Neutral>  (124) 
9.19886e-07

>  <r_epik_State_Penalty>  (124) 
-0

>  <r_epik_Charging_Adjusted_Penalty>  (124) 
0

>  <i_epik_Tot_Q>  (124) 
0

>  <i_epik_Tot_abs_Q>  (124) 
0

>  <s_epik_Chemistry_Notes>  (124) 
This compound has an ester and may undergo hydrolysis at high or low pH.

>  <s_lp_Force_Field>  (124) 
OPLS3e

>  <r_lp_Energy>  (124) 
72.8803

>  <b_lp_Chiralities_Consistent>  (124) 
1

>  <s_lp_Variant>  (124) 
33:0-1

>  <s_i_glide_gridfile>  (124) 
pfpi4k_grid

>  <i_i_glide_lignum>  (124) 
8

>  <i_i_glide_rotatable_bonds>  (124) 
4

>  <r_i_docking_score>  (124) 
-3.21985

>  <r_i_glide_ligand_efficiency>  (124) 
-0.139993

>  <r_i_glide_ligand_efficiency_sa>  (124) 
-0.398123

>  <r_i_glide_ligand_efficiency_ln>  (124) 
-0.778589

>  <r_i_glide_gscore>  (124) 
-3.21985

>  <r_i_glide_lipo>  (124) 
-0.40951

>  <r_i_glide_hbond>  (124) 
-0.189791

>  <r_i_glide_metal>  (124) 
-0

>  <r_i_glide_rewards>  (124) 
-1.29723

>  <r_i_glide_evdw>  (124) 
-21.5581

>  <r_i_glide_ecoul>  (124) 
-2.82578

>  <r_i_glide_erotb>  (124) 
0.183945

>  <r_i_glide_esite>  (124) 
-0.00549259

>  <r_i_glide_emodel>  (124) 
-24.371

>  <r_i_glide_energy>  (124) 
-24.3839

>  <r_i_glide_einternal>  (124) 
6.44849

>  <r_i_glide_intrahb_reward>  (124) 
-0

>  <i_i_glide_confnum>  (124) 
1

>  <i_i_glide_posenum>  (124) 
31

>  <r_i_glide_eff_state_penalty>  (124) 
0

>  <ligand_id>  (124) 
33

>  <original_smiles>  (124) 
COC(=O)C1COC2(O)C3C4CC5C(O)C(CC54)C4C1C21CC431

>  <smiles>  (124) 
[H]OC1([H])C2([H])C([H])([H])C3([H])C2([H])C([H])([H])C1([H])C1([H])C2([H])C([H])(C(=O)OC([H])([H])[H])C([H])([H])OC4(O[H])C3([H])C13C([H])([H])C423

$$$$
33:0:1
     RDKit          3D

 45 51  0  0  1  0  0  0  0  0999 V2000
    4.2541   -3.0377    3.9827 C   0  0  0  0  0  0  0  0  0  0  0  0
    2.9621   -2.4807    4.0472 O   0  0  0  0  0  0  0  0  0  0  0  0
    2.1666   -2.1976    2.9513 C   0  0  0  0  0  0  0  0  0  0  0  0
    1.0550   -1.6158    3.0315 O   0  0  0  0  0  0  0  0  0  0  0  0
    2.6800   -2.6403    1.5863 C   0  0  2  0  0  0  0  0  0  0  0  0
    2.7184   -4.1887    1.4697 C   0  0  0  0  0  0  0  0  0  0  0  0
    3.5856   -4.5864    0.4375 O   0  0  0  0  0  0  0  0  0  0  0  0
    4.9417   -4.2540    0.5933 C   0  0  1  0  0  0  0  0  0  0  0  0
    5.6223   -5.2600    1.2641 O   0  0  0  0  0  0  0  0  0  0  0  0
    5.5718   -3.7525   -0.6947 C   0  0  1  0  0  0  0  0  0  0  0  0
    5.0165   -4.0153   -2.0948 C   0  0  2  0  0  0  0  0  0  0  0  0
    5.7090   -3.2529   -3.2128 C   0  0  0  0  0  0  0  0  0  0  0  0
    4.4392   -2.4131   -3.4068 C   0  0  2  0  0  0  0  0  0  0  0  0
    4.2608   -1.0725   -2.6914 C   0  0  1  0  0  0  0  0  0  0  0  0
    3.4633   -0.2385   -3.5206 O   0  0  0  0  0  0  0  0  0  0  0  0
    3.5121   -1.4320   -1.3863 C   0  0  1  0  0  0  0  0  0  0  0  0
    2.7402   -2.7001   -1.7414 C   0  0  0  0  0  0  0  0  0  0  0  0
    3.6817   -3.4501   -2.6175 C   0  0  2  0  0  0  0  0  0  0  0  0
    4.4275   -1.4284   -0.1397 C   0  0  1  0  0  0  0  0  0  0  0  0
    4.0237   -1.9493    1.2398 C   0  0  2  0  0  0  0  0  0  0  0  0
    5.2128   -2.8817    1.2327 C   0  0  1  0  0  0  0  0  0  0  0  0
    6.6008   -2.2451    1.0629 C   0  0  0  0  0  0  0  0  0  0  0  0
    5.6528   -2.3624   -0.1104 C   0  0  2  0  0  0  0  0  0  0  0  0
    4.6640   -3.1308    4.9711 H   0  0  0  0  0  0  0  0  0  0  0  0
    4.8774   -2.3883    3.4042 H   0  0  0  0  0  0  0  0  0  0  0  0
    4.2130   -4.0064    3.5424 H   0  0  0  0  0  0  0  0  0  0  0  0
    1.9469   -2.2619    0.8849 H   0  0  0  0  0  0  0  0  0  0  0  0
    3.0096   -4.7034    2.3705 H   0  0  0  0  0  0  0  0  0  0  0  0
    1.7185   -4.5544    1.2411 H   0  0  0  0  0  0  0  0  0  0  0  0
    5.4523   -6.0741    0.8022 H   0  0  0  0  0  0  0  0  0  0  0  0
    6.5772   -4.1904   -0.7471 H   0  0  0  0  0  0  0  0  0  0  0  0
    5.0072   -5.0941   -2.2736 H   0  0  0  0  0  0  0  0  0  0  0  0
    6.5783   -2.6693   -2.8708 H   0  0  0  0  0  0  0  0  0  0  0  0
    5.9163   -3.9350   -4.0492 H   0  0  0  0  0  0  0  0  0  0  0  0
    4.1305   -2.3987   -4.4562 H   0  0  0  0  0  0  0  0  0  0  0  0
    5.2141   -0.5770   -2.4743 H   0  0  0  0  0  0  0  0  0  0  0  0
    3.0977    0.4502   -2.9853 H   0  0  0  0  0  0  0  0  0  0  0  0
    2.7587   -0.6542   -1.1838 H   0  0  0  0  0  0  0  0  0  0  0  0
    2.3099   -3.2641   -0.9321 H   0  0  0  0  0  0  0  0  0  0  0  0
    1.8567   -2.4250   -2.3285 H   0  0  0  0  0  0  0  0  0  0  0  0
    3.1707   -4.1512   -3.2853 H   0  0  0  0  0  0  0  0  0  0  0  0
    4.7924   -0.4001   -0.0416 H   0  0  0  0  0  0  0  0  0  0  0  0
    4.1980   -1.0790    1.8858 H   0  0  0  0  0  0  0  0  0  0  0  0
    6.7608   -1.2657    1.4826 H   0  0  0  0  0  0  0  0  0  0  0  0
    7.4430   -2.8956    1.1160 H   0  0  0  0  0  0  0  0  0  0  0  0
  1  2  1  0
  1 24  1  0
  1 25  1  0
  1 26  1  0
  2  3  1  0
  3  4  2  0
  3  5  1  0
  5 20  1  0
  5  6  1  0
  5 27  1  6
  6  7  1  0
  6 28  1  0
  6 29  1  0
  7  8  1  0
  8 21  1  0
  8  9  1  1
  8 10  1  0
  9 30  1  0
 10 23  1  0
 10 11  1  0
 10 31  1  6
 11 18  1  0
 11 12  1  0
 11 32  1  6
 12 13  1  0
 12 33  1  0
 12 34  1  0
 13 18  1  0
 13 14  1  0
 13 35  1  6
 14 15  1  0
 14 16  1  0
 14 36  1  1
 15 37  1  0
 16 17  1  0
 16 19  1  0
 16 38  1  1
 17 18  1  0
 17 39  1  0
 17 40  1  0
 18 41  1  6
 19 23  1  0
 19 20  1  0
 19 42  1  1
 20 21  1  0
 20 43  1  1
 21 23  1  0
 21 22  1  1
 23 22  1  1
 22 44  1  0
 22 45  1  0
M  END
>  <i_m_ct_stereo_status>  (125) 
1

>  <s_m_source_file>  (125) 
/var/tmp/pbs.5076255.sched01/tmpr0mrskr5/46emy42_dx.sdf

>  <i_m_source_file_index>  (125) 
8

>  <i_lp_mmshare_version>  (125) 
48012

>  <i_f3d_flags>  (125) 
0

>  <s_epik_input>  (125) 
W0NAQF0xMjNbQ0BAXTQoW0NIMl0zKVtDQEhdNVtDQF0xKFtPSF0pT1tDSDJdW0NAQEhdKEMoPU8pT1tDSDNdKVtDQEBIXTJbQ0BASF00W0NASF02W0NASF0oW09IXSlbQ0BASF03W0NASF0oW0NIMl02KVtDQEhdNVtDSDJdNw==

>  <s_epik_cmdline>  (125) 
J2VwaWtfcHl0aG9uJywgJy1waHQnLCAnMi4wJywgJy1waCcsICc3LjAnLCAnLXRuJywgJzgnLCAnLW1hJywgJzIwMCcsICctaW1hZScsICc8aW5maWxlLm1hZT4nLCAnLW9tYWUnLCAnPG91dGZpbGUubWFlPic=

>  <r_lp_tautomer_probability>  (125) 
1

>  <r_epik_Ionization_Penalty>  (125) 
9.19886e-07

>  <r_epik_Ionization_Penalty_Charging>  (125) 
0

>  <r_epik_Ionization_Penalty_Neutral>  (125) 
9.19886e-07

>  <r_epik_State_Penalty>  (125) 
-0

>  <r_epik_Charging_Adjusted_Penalty>  (125) 
0

>  <i_epik_Tot_Q>  (125) 
0

>  <i_epik_Tot_abs_Q>  (125) 
0

>  <s_epik_Chemistry_Notes>  (125) 
This compound has an ester and may undergo hydrolysis at high or low pH.

>  <s_lp_Force_Field>  (125) 
OPLS3e

>  <r_lp_Energy>  (125) 
72.8803

>  <b_lp_Chiralities_Consistent>  (125) 
1

>  <s_lp_Variant>  (125) 
33:0-1

>  <s_i_glide_gridfile>  (125) 
pfpi4k_grid

>  <i_i_glide_lignum>  (125) 
8

>  <i_i_glide_rotatable_bonds>  (125) 
4

>  <r_i_docking_score>  (125) 
-2.92317

>  <r_i_glide_ligand_efficiency>  (125) 
-0.127094

>  <r_i_glide_ligand_efficiency_sa>  (125) 
-0.361439

>  <r_i_glide_ligand_efficiency_ln>  (125) 
-0.706848

>  <r_i_glide_gscore>  (125) 
-2.92317

>  <r_i_glide_lipo>  (125) 
-0.443884

>  <r_i_glide_hbond>  (125) 
-0.199812

>  <r_i_glide_metal>  (125) 
-0

>  <r_i_glide_rewards>  (125) 
-1.29672

>  <r_i_glide_evdw>  (125) 
-19.6141

>  <r_i_glide_ecoul>  (125) 
-1.20397

>  <r_i_glide_erotb>  (125) 
0.183945

>  <r_i_glide_esite>  (125) 
-0.0053981

>  <r_i_glide_emodel>  (125) 
-21.1587

>  <r_i_glide_energy>  (125) 
-20.8181

>  <r_i_glide_einternal>  (125) 
5.87432

>  <r_i_glide_intrahb_reward>  (125) 
-0

>  <i_i_glide_confnum>  (125) 
4

>  <i_i_glide_posenum>  (125) 
36

>  <r_i_glide_eff_state_penalty>  (125) 
0

>  <ligand_id>  (125) 
33

>  <original_smiles>  (125) 
COC(=O)C1COC2(O)C3C4CC5C(O)C(CC54)C4C1C21CC431

>  <smiles>  (125) 
[H]OC1([H])C2([H])C([H])([H])C3([H])C2([H])C([H])([H])C1([H])C1([H])C2([H])C([H])(C(=O)OC([H])([H])[H])C([H])([H])OC4(O[H])C3([H])C13C([H])([H])C423

$$$$
33:0:2
     RDKit          3D

 45 51  0  0  1  0  0  0  0  0999 V2000
    2.1688    0.6734    1.8627 C   0  0  0  0  0  0  0  0  0  0  0  0
    3.3727    0.5146    2.6077 O   0  0  0  0  0  0  0  0  0  0  0  0
    4.3940   -0.2350    2.1305 C   0  0  0  0  0  0  0  0  0  0  0  0
    5.5016   -0.2760    2.7261 O   0  0  0  0  0  0  0  0  0  0  0  0
    4.1581   -1.0014    0.8409 C   0  0  2  0  0  0  0  0  0  0  0  0
    3.4643   -2.3408    1.1798 C   0  0  0  0  0  0  0  0  0  0  0  0
    3.4593   -3.1683    0.0434 O   0  0  0  0  0  0  0  0  0  0  0  0
    4.7425   -3.6312   -0.3102 C   0  0  1  0  0  0  0  0  0  0  0  0
    5.0673   -4.8468    0.3169 O   0  0  0  0  0  0  0  0  0  0  0  0
    4.9712   -3.5549   -1.8228 C   0  0  1  0  0  0  0  0  0  0  0  0
    3.8799   -3.4516   -2.8970 C   0  0  2  0  0  0  0  0  0  0  0  0
    4.3174   -3.3577   -4.3152 C   0  0  0  0  0  0  0  0  0  0  0  0
    3.6183   -2.0083   -4.2953 C   0  0  2  0  0  0  0  0  0  0  0  0
    4.3354   -0.7793   -3.9539 C   0  0  1  0  0  0  0  0  0  0  0  0
    3.7958    0.3250   -4.6704 O   0  0  0  0  0  0  0  0  0  0  0  0
    4.2139   -0.5879   -2.4595 C   0  0  1  0  0  0  0  0  0  0  0  0
    2.9264   -1.2442   -2.1948 C   0  0  0  0  0  0  0  0  0  0  0  0
    2.8577   -2.3783   -3.0820 C   0  0  2  0  0  0  0  0  0  0  0  0
    5.3949   -1.0663   -1.5776 C   0  0  1  0  0  0  0  0  0  0  0  0
    5.3958   -1.1711   -0.0453 C   0  0  2  0  0  0  0  0  0  0  0  0
    5.8829   -2.5962   -0.1612 C   0  0  1  0  0  0  0  0  0  0  0  0
    7.2003   -2.8177   -0.8914 C   0  0  0  0  0  0  0  0  0  0  0  0
    5.9609   -2.4727   -1.6718 C   0  0  2  0  0  0  0  0  0  0  0  0
    1.4322    1.2739    2.3955 H   0  0  0  0  0  0  0  0  0  0  0  0
    1.7145   -0.2837    1.6464 H   0  0  0  0  0  0  0  0  0  0  0  0
    2.3767    1.1643    0.9046 H   0  0  0  0  0  0  0  0  0  0  0  0
    3.4987   -0.3957    0.2287 H   0  0  0  0  0  0  0  0  0  0  0  0
    3.9424   -2.8403    2.0228 H   0  0  0  0  0  0  0  0  0  0  0  0
    2.4223   -2.1933    1.4498 H   0  0  0  0  0  0  0  0  0  0  0  0
    4.3540   -5.4418    0.0868 H   0  0  0  0  0  0  0  0  0  0  0  0
    5.4663   -4.4851   -2.0785 H   0  0  0  0  0  0  0  0  0  0  0  0
    3.1968   -4.2233   -2.8427 H   0  0  0  0  0  0  0  0  0  0  0  0
    5.3888   -3.4715   -4.3554 H   0  0  0  0  0  0  0  0  0  0  0  0
    3.8181   -4.0963   -4.9294 H   0  0  0  0  0  0  0  0  0  0  0  0
    2.9938   -1.8959   -5.1204 H   0  0  0  0  0  0  0  0  0  0  0  0
    5.3209   -0.9569   -4.2463 H   0  0  0  0  0  0  0  0  0  0  0  0
    2.9351    0.5125   -4.3349 H   0  0  0  0  0  0  0  0  0  0  0  0
    4.1211    0.4856   -2.3502 H   0  0  0  0  0  0  0  0  0  0  0  0
    2.6168   -1.4959   -1.1841 H   0  0  0  0  0  0  0  0  0  0  0  0
    2.1839   -0.5410   -2.4898 H   0  0  0  0  0  0  0  0  0  0  0  0
    1.8578   -2.8224   -3.2748 H   0  0  0  0  0  0  0  0  0  0  0  0
    6.1617   -0.3857   -1.8407 H   0  0  0  0  0  0  0  0  0  0  0  0
    6.1947   -0.5018    0.2826 H   0  0  0  0  0  0  0  0  0  0  0  0
    7.9638   -2.0431   -0.8580 H   0  0  0  0  0  0  0  0  0  0  0  0
    7.5583   -3.8347   -0.9857 H   0  0  0  0  0  0  0  0  0  0  0  0
  1  2  1  0
  1 24  1  0
  1 25  1  0
  1 26  1  0
  2  3  1  0
  3  4  2  0
  3  5  1  0
  5 20  1  0
  5  6  1  0
  5 27  1  6
  6  7  1  0
  6 28  1  0
  6 29  1  0
  7  8  1  0
  8 21  1  0
  8  9  1  1
  8 10  1  0
  9 30  1  0
 10 23  1  0
 10 11  1  0
 10 31  1  6
 11 18  1  0
 11 12  1  0
 11 32  1  6
 12 13  1  0
 12 33  1  0
 12 34  1  0
 13 18  1  0
 13 14  1  0
 13 35  1  6
 14 15  1  0
 14 16  1  0
 14 36  1  1
 15 37  1  0
 16 17  1  0
 16 19  1  0
 16 38  1  6
 17 18  1  0
 17 39  1  0
 17 40  1  0
 18 41  1  6
 19 23  1  0
 19 20  1  0
 19 42  1  1
 20 21  1  0
 20 43  1  1
 21 23  1  0
 21 22  1  1
 23 22  1  6
 22 44  1  0
 22 45  1  0
M  END
>  <i_m_ct_stereo_status>  (126) 
1

>  <s_m_source_file>  (126) 
/var/tmp/pbs.5076255.sched01/tmpr0mrskr5/46emy42_dx.sdf

>  <i_m_source_file_index>  (126) 
8

>  <i_lp_mmshare_version>  (126) 
48012

>  <i_f3d_flags>  (126) 
0

>  <s_epik_input>  (126) 
W0NAQF0xMjNbQ0BAXTQoW0NIMl0zKVtDQEhdNVtDQF0xKFtPSF0pT1tDSDJdW0NAQEhdKEMoPU8pT1tDSDNdKVtDQEBIXTJbQ0BASF00W0NASF02W0NASF0oW09IXSlbQ0BASF03W0NASF0oW0NIMl02KVtDQEhdNVtDSDJdNw==

>  <s_epik_cmdline>  (126) 
J2VwaWtfcHl0aG9uJywgJy1waHQnLCAnMi4wJywgJy1waCcsICc3LjAnLCAnLXRuJywgJzgnLCAnLW1hJywgJzIwMCcsICctaW1hZScsICc8aW5maWxlLm1hZT4nLCAnLW9tYWUnLCAnPG91dGZpbGUubWFlPic=

>  <r_lp_tautomer_probability>  (126) 
1

>  <r_epik_Ionization_Penalty>  (126) 
9.19886e-07

>  <r_epik_Ionization_Penalty_Charging>  (126) 
0

>  <r_epik_Ionization_Penalty_Neutral>  (126) 
9.19886e-07

>  <r_epik_State_Penalty>  (126) 
-0

>  <r_epik_Charging_Adjusted_Penalty>  (126) 
0

>  <i_epik_Tot_Q>  (126) 
0

>  <i_epik_Tot_abs_Q>  (126) 
0

>  <s_epik_Chemistry_Notes>  (126) 
This compound has an ester and may undergo hydrolysis at high or low pH.

>  <s_lp_Force_Field>  (126) 
OPLS3e

>  <r_lp_Energy>  (126) 
72.8803

>  <b_lp_Chiralities_Consistent>  (126) 
1

>  <s_lp_Variant>  (126) 
33:0-1

>  <s_i_glide_gridfile>  (126) 
pfpi4k_grid

>  <i_i_glide_lignum>  (126) 
8

>  <i_i_glide_rotatable_bonds>  (126) 
4

>  <r_i_docking_score>  (126) 
-2.17048

>  <r_i_glide_ligand_efficiency>  (126) 
-0.0943687

>  <r_i_glide_ligand_efficiency_sa>  (126) 
-0.268372

>  <r_i_glide_ligand_efficiency_ln>  (126) 
-0.524842

>  <r_i_glide_gscore>  (126) 
-2.17048

>  <r_i_glide_lipo>  (126) 
-0.326101

>  <r_i_glide_hbond>  (126) 
-0.0999897

>  <r_i_glide_metal>  (126) 
-0

>  <r_i_glide_rewards>  (126) 
-1.39707

>  <r_i_glide_evdw>  (126) 
-1.44083

>  <r_i_glide_ecoul>  (126) 
-3.73099

>  <r_i_glide_erotb>  (126) 
0.183945

>  <r_i_glide_esite>  (126) 
0

>  <r_i_glide_emodel>  (126) 
-0.928377

>  <r_i_glide_energy>  (126) 
-5.17182

>  <r_i_glide_einternal>  (126) 
6.37359

>  <r_i_glide_intrahb_reward>  (126) 
-0

>  <i_i_glide_confnum>  (126) 
6

>  <i_i_glide_posenum>  (126) 
2

>  <r_i_glide_eff_state_penalty>  (126) 
0

>  <ligand_id>  (126) 
33

>  <original_smiles>  (126) 
COC(=O)C1COC2(O)C3C4CC5C(O)C(CC54)C4C1C21CC431

>  <smiles>  (126) 
[H]OC1([H])C2([H])C([H])([H])C3([H])C2([H])C([H])([H])C1([H])C1([H])C2([H])C([H])(C(=O)OC([H])([H])[H])C([H])([H])OC4(O[H])C3([H])C13C([H])([H])C423

$$$$
34:0:0
     RDKit          3D

 51 54  0  0  1  0  0  0  0  0999 V2000
    1.7932   -2.6629    5.2552 C   0  0  0  0  0  0  0  0  0  0  0  0
    2.6854   -2.3079    4.3150 C   0  0  0  0  0  0  0  0  0  0  0  0
    2.3471   -1.5767    3.0936 C   0  0  0  0  0  0  0  0  0  0  0  0
    1.2253   -1.2784    2.6912 O   0  0  0  0  0  0  0  0  0  0  0  0
    3.6494   -1.2323    2.3620 C   0  0  1  0  0  0  0  0  0  0  0  0
    3.5141    0.1454    1.6648 C   0  0  0  0  0  0  0  0  0  0  0  0
    4.6314   -1.1742    3.5796 C   0  0  1  0  0  0  0  0  0  0  0  0
    4.5669    0.0900    4.4782 C   0  0  0  0  0  0  0  0  0  0  0  0
    4.1959   -2.4288    4.3490 C   0  0  2  0  0  0  0  0  0  0  0  0
    4.7254   -3.6826    3.5839 C   0  0  1  0  0  0  0  0  0  0  0  0
    4.4775   -4.8078    4.4061 O   0  0  0  0  0  0  0  0  0  0  0  0
    4.1689   -3.8626    2.1172 C   0  0  2  0  0  0  0  0  0  0  0  0
    2.7827   -4.6165    2.1529 C   0  0  0  0  0  0  0  0  0  0  0  0
    5.1056   -4.7663    1.2377 C   0  0  1  0  0  0  0  0  0  0  0  0
    5.3355   -6.0570    1.7745 O   0  0  0  0  0  0  0  0  0  0  0  0
    4.5641   -4.9647   -0.1992 C   0  0  0  0  0  0  0  0  0  0  0  0
    3.8774   -3.7410   -0.8689 C   0  0  2  0  0  0  0  0  0  0  0  0
    4.7013   -3.0525   -1.9536 C   0  0  1  0  0  0  0  0  0  0  0  0
    4.6135   -3.6968   -3.3487 C   0  0  0  0  0  0  0  0  0  0  0  0
    4.1283   -1.6473   -1.9363 C   0  0  0  0  0  0  0  0  0  0  0  0
    4.2880   -0.8227   -2.8338 O   0  0  0  0  0  0  0  0  0  0  0  0
    3.4590   -1.4563   -0.8029 O   0  0  0  0  0  0  0  0  0  0  0  0
    3.3677   -2.5930    0.0462 C   0  0  2  0  0  0  0  0  0  0  0  0
    4.1175   -2.4255    1.4061 C   0  0  1  0  0  0  0  0  0  0  0  0
    5.4388   -2.0498    1.0246 O   0  0  0  0  0  0  0  0  0  0  0  0
    2.1012   -3.1548    6.1630 H   0  0  0  0  0  0  0  0  0  0  0  0
    0.7410   -2.4656    5.1278 H   0  0  0  0  0  0  0  0  0  0  0  0
    4.4542    0.4835    1.2329 H   0  0  0  0  0  0  0  0  0  0  0  0
    3.1871    0.9198    2.3580 H   0  0  0  0  0  0  0  0  0  0  0  0
    2.7577    0.1453    0.8821 H   0  0  0  0  0  0  0  0  0  0  0  0
    5.6782   -1.2613    3.2850 H   0  0  0  0  0  0  0  0  0  0  0  0
    3.5572    0.3157    4.8290 H   0  0  0  0  0  0  0  0  0  0  0  0
    4.9368    0.9700    3.9518 H   0  0  0  0  0  0  0  0  0  0  0  0
    5.1944   -0.0333    5.3624 H   0  0  0  0  0  0  0  0  0  0  0  0
    4.5648   -2.4110    5.3766 H   0  0  0  0  0  0  0  0  0  0  0  0
    5.8111   -3.5859    3.5149 H   0  0  0  0  0  0  0  0  0  0  0  0
    4.9622   -4.7000    5.2102 H   0  0  0  0  0  0  0  0  0  0  0  0
    2.3152   -4.7186    1.1761 H   0  0  0  0  0  0  0  0  0  0  0  0
    2.0219   -4.1754    2.7851 H   0  0  0  0  0  0  0  0  0  0  0  0
    2.8941   -5.6336    2.5299 H   0  0  0  0  0  0  0  0  0  0  0  0
    6.1041   -4.3363    1.1802 H   0  0  0  0  0  0  0  0  0  0  0  0
    4.5041   -6.5023    1.8516 H   0  0  0  0  0  0  0  0  0  0  0  0
    5.3731   -5.3302   -0.8335 H   0  0  0  0  0  0  0  0  0  0  0  0
    3.8409   -5.7830   -0.1984 H   0  0  0  0  0  0  0  0  0  0  0  0
    2.9904   -4.1318   -1.3692 H   0  0  0  0  0  0  0  0  0  0  0  0
    5.7440   -2.9824   -1.6493 H   0  0  0  0  0  0  0  0  0  0  0  0
    5.2098   -3.1350   -4.0591 H   0  0  0  0  0  0  0  0  0  0  0  0
    3.5885   -3.7226   -3.7302 H   0  0  0  0  0  0  0  0  0  0  0  0
    4.9944   -4.7170   -3.3384 H   0  0  0  0  0  0  0  0  0  0  0  0
    2.3069   -2.7428    0.2519 H   0  0  0  0  0  0  0  0  0  0  0  0
    5.3723   -1.2068    0.6026 H   0  0  0  0  0  0  0  0  0  0  0  0
  1  2  2  0
  1 26  1  0
  1 27  1  0
  2  9  1  0
  2  3  1  0
  3  4  2  0
  3  5  1  0
  5 24  1  0
  5  6  1  6
  5  7  1  0
  6 28  1  0
  6 29  1  0
  6 30  1  0
  7  8  1  0
  7  9  1  0
  7 31  1  6
  8 32  1  0
  8 33  1  0
  8 34  1  0
  9 10  1  0
  9 35  1  1
 10 11  1  0
 10 12  1  0
 10 36  1  6
 11 37  1  0
 12 24  1  0
 12 13  1  1
 12 14  1  0
 13 38  1  0
 13 39  1  0
 13 40  1  0
 14 15  1  0
 14 16  1  0
 14 41  1  6
 15 42  1  0
 16 17  1  0
 16 43  1  0
 16 44  1  0
 17 23  1  0
 17 18  1  0
 17 45  1  6
 18 19  1  0
 18 20  1  0
 18 46  1  1
 19 47  1  0
 19 48  1  0
 19 49  1  0
 20 21  2  0
 20 22  1  0
 22 23  1  0
 23 24  1  0
 23 50  1  1
 24 25  1  6
 25 51  1  0
M  END
>  <i_m_ct_stereo_status>  (127) 
1

>  <s_m_source_file>  (127) 
/var/tmp/pbs.5076255.sched01/tmpr0mrskr5/46emy42_dx.sdf

>  <i_m_source_file_index>  (127) 
9

>  <i_lp_mmshare_version>  (127) 
48012

>  <i_f3d_flags>  (127) 
0

>  <s_epik_input>  (127) 
Tz1DMUMoPVtDSDJdKVtDQEhdKFtDQEBIXTJbQ0gzXSlbQ0BASF0oW09IXSlbQ0BAXShbQ0gzXSkoW0NAXTMoW09IXSlbQ0BAXTEyW0NIM10pW0NAQEhdKFtPSF0pW0NIMl1bQ0BIXTRbQ0BASF0zT0MoPU8pW0NAQEhdNFtDSDNd

>  <s_epik_cmdline>  (127) 
J2VwaWtfcHl0aG9uJywgJy1waHQnLCAnMi4wJywgJy1waCcsICc3LjAnLCAnLXRuJywgJzgnLCAnLW1hJywgJzIwMCcsICctaW1hZScsICc8aW5maWxlLm1hZT4nLCAnLW9tYWUnLCAnPG91dGZpbGUubWFlPic=

>  <r_lp_tautomer_probability>  (127) 
1

>  <r_epik_Ionization_Penalty>  (127) 
8.58389e-07

>  <r_epik_Ionization_Penalty_Charging>  (127) 
0

>  <r_epik_Ionization_Penalty_Neutral>  (127) 
8.58389e-07

>  <r_epik_State_Penalty>  (127) 
-0

>  <r_epik_Charging_Adjusted_Penalty>  (127) 
0

>  <i_epik_Tot_Q>  (127) 
0

>  <i_epik_Tot_abs_Q>  (127) 
0

>  <s_epik_Chemistry_Notes>  (127) 
This compound has an ester and may undergo hydrolysis at high or low pH.

>  <s_lp_Force_Field>  (127) 
OPLS3e

>  <r_lp_Energy>  (127) 
30.7896

>  <b_lp_Chiralities_Consistent>  (127) 
1

>  <s_lp_Variant>  (127) 
34:0-1

>  <s_i_glide_gridfile>  (127) 
pfpi4k_grid

>  <i_i_glide_lignum>  (127) 
9

>  <i_i_glide_rotatable_bonds>  (127) 
3

>  <r_i_docking_score>  (127) 
-2.62464

>  <r_i_glide_ligand_efficiency>  (127) 
-0.104986

>  <r_i_glide_ligand_efficiency_sa>  (127) 
-0.30698

>  <r_i_glide_ligand_efficiency_ln>  (127) 
-0.622119

>  <r_i_glide_gscore>  (127) 
-2.62464

>  <r_i_glide_lipo>  (127) 
-0.295396

>  <r_i_glide_hbond>  (127) 
0

>  <r_i_glide_metal>  (127) 
-0

>  <r_i_glide_rewards>  (127) 
-1.01996

>  <r_i_glide_evdw>  (127) 
-26.951

>  <r_i_glide_ecoul>  (127) 
0.517158

>  <r_i_glide_erotb>  (127) 
0

>  <r_i_glide_esite>  (127) 
-0.0393122

>  <r_i_glide_emodel>  (127) 
-30.3465

>  <r_i_glide_energy>  (127) 
-26.4339

>  <r_i_glide_einternal>  (127) 
0.34294

>  <r_i_glide_intrahb_reward>  (127) 
-0

>  <i_i_glide_confnum>  (127) 
2

>  <i_i_glide_posenum>  (127) 
39

>  <r_i_glide_eff_state_penalty>  (127) 
0

>  <ligand_id>  (127) 
34

>  <original_smiles>  (127) 
C=C1C(=O)C2(C)C(C)C1C(O)C1(C)C(O)CC3C(C)C(=O)OC3C21O

>  <smiles>  (127) 
[H]OC1([H])C([H])([H])C2([H])C([H])(OC(=O)C2([H])C([H])([H])[H])C2(O[H])C3(C([H])([H])[H])C(=O)C(=C([H])[H])C([H])(C([H])(O[H])C12C([H])([H])[H])C3([H])C([H])([H])[H]

$$$$
35:0:0
     RDKit          3D

 44 48  0  0  1  0  0  0  0  0999 V2000
    3.8089    0.0613   -4.0222 C   0  0  0  0  0  0  0  0  0  0  0  0
    3.6099   -1.0947   -4.7085 N   0  0  0  0  0  0  0  0  0  0  0  0
    3.8423   -2.0543   -3.8683 N   0  0  0  0  0  0  0  0  0  0  0  0
    4.1631   -1.4572   -2.6928 N   0  0  0  0  0  0  0  0  0  0  0  0
    4.5820   -2.1671   -1.4783 C   0  0  1  0  0  0  0  0  0  0  0  0
    6.1695   -2.8770   -1.7046 C   0  0  0  0  0  0  0  0  0  0  0  0
    7.2010   -3.5629   -0.4492 C   0  0  1  0  0  0  0  0  0  0  0  0
    7.5627   -2.4376    0.3501 C   0  0  0  0  0  0  0  0  0  0  0  0
    6.1106   -2.2072    0.6676 C   0  0  1  0  0  0  0  0  0  0  0  0
    4.6460   -3.4854    0.4000 C   0  0  0  0  0  0  0  0  0  0  0  0
    4.6267   -4.7350   -0.3962 C   0  0  1  0  0  0  0  0  0  0  0  0
    4.7785   -5.3458    1.1308 C   0  0  0  0  0  0  0  0  0  0  0  0
    5.8270   -4.4992    2.0867 C   0  0  1  0  0  0  0  0  0  0  0  0
    7.0381   -4.5862    0.9134 C   0  0  0  0  0  0  0  0  0  0  0  0
    5.1125   -2.9812    2.7663 C   0  0  0  0  0  0  0  0  0  0  0  0
    4.6235   -1.4988    1.7688 C   0  0  1  0  0  0  0  0  0  0  0  0
    5.9845   -1.0871    1.6682 C   0  0  0  0  0  0  0  0  0  0  0  0
    4.0654   -1.1335    0.0014 C   0  0  0  0  0  0  0  0  0  0  0  0
    3.9118   -3.6796   -1.4389 C   0  0  0  0  0  0  0  0  0  0  0  0
    4.2210   -0.1218   -2.7843 N   0  0  0  0  0  0  0  0  0  0  0  0
    3.7104    1.0432   -4.4621 H   0  0  0  0  0  0  0  0  0  0  0  0
    6.1261   -3.6177   -2.5063 H   0  0  0  0  0  0  0  0  0  0  0  0
    6.7758   -2.0984   -2.1667 H   0  0  0  0  0  0  0  0  0  0  0  0
    8.1012   -3.9028   -0.9579 H   0  0  0  0  0  0  0  0  0  0  0  0
    8.1924   -2.6212    1.2151 H   0  0  0  0  0  0  0  0  0  0  0  0
    8.0853   -1.6741   -0.2370 H   0  0  0  0  0  0  0  0  0  0  0  0
    6.2333   -1.3932   -0.0531 H   0  0  0  0  0  0  0  0  0  0  0  0
    3.8124   -3.5473    1.1348 H   0  0  0  0  0  0  0  0  0  0  0  0
    3.5771   -3.1726    0.5030 H   0  0  0  0  0  0  0  0  0  0  0  0
    5.4682   -5.1371   -0.9443 H   0  0  0  0  0  0  0  0  0  0  0  0
    3.8233   -5.5084    1.6383 H   0  0  0  0  0  0  0  0  0  0  0  0
    5.1475   -6.3679    1.0379 H   0  0  0  0  0  0  0  0  0  0  0  0
    6.1085   -5.1328    2.9331 H   0  0  0  0  0  0  0  0  0  0  0  0
    7.0867   -5.6034    0.5270 H   0  0  0  0  0  0  0  0  0  0  0  0
    7.9738   -4.5990    1.4747 H   0  0  0  0  0  0  0  0  0  0  0  0
    4.2003   -3.3064    3.2639 H   0  0  0  0  0  0  0  0  0  0  0  0
    5.7180   -2.6847    3.6241 H   0  0  0  0  0  0  0  0  0  0  0  0
    4.0854   -0.8223    2.4290 H   0  0  0  0  0  0  0  0  0  0  0  0
    6.6064   -1.1636    2.5605 H   0  0  0  0  0  0  0  0  0  0  0  0
    6.0712   -0.0629    1.2944 H   0  0  0  0  0  0  0  0  0  0  0  0
    4.3168   -0.0885   -0.1864 H   0  0  0  0  0  0  0  0  0  0  0  0
    2.9765   -1.1344    0.0037 H   0  0  0  0  0  0  0  0  0  0  0  0
    2.8246   -3.6231   -1.3370 H   0  0  0  0  0  0  0  0  0  0  0  0
    4.0275   -4.1448   -2.4163 H   0  0  0  0  0  0  0  0  0  0  0  0
  1 20  2  0
  1  2  1  0
  1 21  1  0
  2  3  2  0
  3  4  1  0
  5  4  1  6
  4 20  1  0
  5 18  1  0
  5 19  1  0
  5  6  1  0
  6  7  1  0
  6 22  1  0
  6 23  1  0
  7 14  1  0
  7  8  1  0
  7 24  1  6
  8  9  1  0
  8 25  1  0
  8 26  1  0
  9 17  1  0
  9 10  1  0
  9 27  1  6
 10 11  1  0
 10 28  1  0
 10 29  1  0
 11 12  1  0
 11 19  1  0
 11 30  1  6
 12 13  1  0
 12 31  1  0
 12 32  1  0
 13 14  1  0
 13 15  1  0
 13 33  1  1
 14 34  1  0
 14 35  1  0
 15 16  1  0
 15 36  1  0
 15 37  1  0
 16 17  1  0
 16 18  1  0
 16 38  1  1
 17 39  1  0
 17 40  1  0
 18 41  1  0
 18 42  1  0
 19 43  1  0
 19 44  1  0
M  END
>  <i_m_ct_stereo_status>  (128) 
1

>  <s_m_source_file>  (128) 
/var/tmp/pbs.5076255.sched01/tmpr0mrskr5/46emy42_dx.sdf

>  <i_m_source_file_index>  (128) 
10

>  <i_lp_mmshare_version>  (128) 
48012

>  <i_f3d_flags>  (128) 
0

>  <s_epik_input>  (128) 
bjFbY0hdbm5uMUMyM1tDSDJdW0NASF00W0NIMl1bQ0hdNVtDSDJdW0NIXShbQ0gyXTMpW0NIMl1bQ0hdKFtDSDJdNClbQ0gyXVtDQEBIXShbQ0gyXTUpW0NIMl0y

>  <s_epik_cmdline>  (128) 
J2VwaWtfcHl0aG9uJywgJy1waHQnLCAnMi4wJywgJy1waCcsICc3LjAnLCAnLXRuJywgJzgnLCAnLW1hJywgJzIwMCcsICctaW1hZScsICc8aW5maWxlLm1hZT4nLCAnLW9tYWUnLCAnPG91dGZpbGUubWFlPic=

>  <r_lp_tautomer_probability>  (128) 
1

>  <r_epik_Ionization_Penalty>  (128) 
2.83526e-06

>  <r_epik_Ionization_Penalty_Charging>  (128) 
0

>  <r_epik_Ionization_Penalty_Neutral>  (128) 
2.83526e-06

>  <r_epik_State_Penalty>  (128) 
-0

>  <r_epik_Charging_Adjusted_Penalty>  (128) 
0

>  <i_epik_Tot_Q>  (128) 
0

>  <i_epik_Tot_abs_Q>  (128) 
0

>  <s_lp_Force_Field>  (128) 
OPLS3e

>  <r_lp_Energy>  (128) 
775.348

>  <b_lp_Chiralities_Consistent>  (128) 
1

>  <s_lp_Variant>  (128) 
35:0-1

>  <s_i_glide_gridfile>  (128) 
pfpi4k_grid

>  <i_i_glide_lignum>  (128) 
10

>  <i_i_glide_rotatable_bonds>  (128) 
1

>  <r_i_docking_score>  (128) 
-4.01669

>  <r_i_glide_ligand_efficiency>  (128) 
-0.200834

>  <r_i_glide_ligand_efficiency_sa>  (128) 
-0.545148

>  <r_i_glide_ligand_efficiency_ln>  (128) 
-1.00524

>  <r_i_glide_gscore>  (128) 
-4.01669

>  <r_i_glide_lipo>  (128) 
-0.890986

>  <r_i_glide_hbond>  (128) 
0

>  <r_i_glide_metal>  (128) 
-0

>  <r_i_glide_rewards>  (128) 
-1.72898

>  <r_i_glide_evdw>  (128) 
-26.1852

>  <r_i_glide_ecoul>  (128) 
-1.86239

>  <r_i_glide_erotb>  (128) 
0.241535

>  <r_i_glide_esite>  (128) 
-0.0496402

>  <r_i_glide_emodel>  (128) 
-34.0924

>  <r_i_glide_energy>  (128) 
-28.0476

>  <r_i_glide_einternal>  (128) 
1.19463

>  <r_i_glide_intrahb_reward>  (128) 
-0

>  <i_i_glide_confnum>  (128) 
1

>  <i_i_glide_posenum>  (128) 
35

>  <r_i_glide_eff_state_penalty>  (128) 
0

>  <ligand_id>  (128) 
35

>  <original_smiles>  (128) 
c1nnn(C23CC4CC5CC(CC(C4)CC(C5)C2)C3)n1

>  <smiles>  (128) 
[H]c1nnn(C23C([H])([H])C4([H])C([H])([H])C5([H])C([H])([H])C([H])(C([H])([H])C([H])(C4([H])[H])C([H])([H])C([H])(C5([H])[H])C2([H])[H])C3([H])[H])n1

$$$$
35:0:1
     RDKit          3D

 44 48  0  0  1  0  0  0  0  0999 V2000
    3.0306   -1.0166   -4.1761 C   0  0  0  0  0  0  0  0  0  0  0  0
    3.9679   -0.1033   -3.8371 N   0  0  0  0  0  0  0  0  0  0  0  0
    4.4414   -0.4936   -2.6864 N   0  0  0  0  0  0  0  0  0  0  0  0
    3.7362   -1.5900   -2.3577 N   0  0  0  0  0  0  0  0  0  0  0  0
    3.9318   -2.2688   -1.0787 C   0  0  1  0  0  0  0  0  0  0  0  0
    5.1967   -3.4798   -1.1957 C   0  0  0  0  0  0  0  0  0  0  0  0
    5.9457   -4.3472    0.1396 C   0  0  1  0  0  0  0  0  0  0  0  0
    6.6683   -3.3292    0.8399 C   0  0  0  0  0  0  0  0  0  0  0  0
    5.3822   -2.6040    1.1005 C   0  0  1  0  0  0  0  0  0  0  0  0
    3.5649   -3.3525    0.9134 C   0  0  0  0  0  0  0  0  0  0  0  0
    3.1426   -4.5964    0.2374 C   0  0  1  0  0  0  0  0  0  0  0  0
    3.0818   -5.0678    1.8123 C   0  0  0  0  0  0  0  0  0  0  0  0
    4.3606   -4.5252    2.7153 C   0  0  1  0  0  0  0  0  0  0  0  0
    5.4661   -5.1157    1.5841 C   0  0  0  0  0  0  0  0  0  0  0  0
    4.1938   -2.7985    3.2298 C   0  0  0  0  0  0  0  0  0  0  0  0
    4.2172   -1.3418    2.0881 C   0  0  1  0  0  0  0  0  0  0  0  0
    5.6358   -1.4144    1.9877 C   0  0  0  0  0  0  0  0  0  0  0  0
    3.7998   -0.9869    0.2833 C   0  0  0  0  0  0  0  0  0  0  0  0
    2.7979   -3.4797   -0.9106 C   0  0  0  0  0  0  0  0  0  0  0  0
    2.9010   -2.0127   -3.3251 N   0  0  0  0  0  0  0  0  0  0  0  0
    2.4398   -0.9408   -5.0660 H   0  0  0  0  0  0  0  0  0  0  0  0
    4.9046   -4.2272   -1.9309 H   0  0  0  0  0  0  0  0  0  0  0  0
    6.0214   -2.9850   -1.7140 H   0  0  0  0  0  0  0  0  0  0  0  0
    6.6590   -5.0284   -0.3102 H   0  0  0  0  0  0  0  0  0  0  0  0
    7.2219   -3.6074    1.7356 H   0  0  0  0  0  0  0  0  0  0  0  0
    7.4038   -2.8391    0.1906 H   0  0  0  0  0  0  0  0  0  0  0  0
    5.7614   -1.9482    0.3123 H   0  0  0  0  0  0  0  0  0  0  0  0
    2.7697   -3.0676    1.6265 H   0  0  0  0  0  0  0  0  0  0  0  0
    2.6701   -2.6939    0.9474 H   0  0  0  0  0  0  0  0  0  0  0  0
    3.7992   -5.3067   -0.2571 H   0  0  0  0  0  0  0  0  0  0  0  0
    2.1305   -4.8545    2.3089 H   0  0  0  0  0  0  0  0  0  0  0  0
    3.0934   -6.1540    1.8264 H   0  0  0  0  0  0  0  0  0  0  0  0
    4.4168   -5.1270    3.6130 H   0  0  0  0  0  0  0  0  0  0  0  0
    5.1730   -6.1256    1.3010 H   0  0  0  0  0  0  0  0  0  0  0  0
    6.3506   -5.3793    2.1662 H   0  0  0  0  0  0  0  0  0  0  0  0
    3.2282   -2.7564    3.7276 H   0  0  0  0  0  0  0  0  0  0  0  0
    4.8634   -2.6389    4.0758 H   0  0  0  0  0  0  0  0  0  0  0  0
    3.9358   -0.4711    2.6644 H   0  0  0  0  0  0  0  0  0  0  0  0
    6.1987   -1.6147    2.8986 H   0  0  0  0  0  0  0  0  0  0  0  0
    6.0640   -0.5173    1.5281 H   0  0  0  0  0  0  0  0  0  0  0  0
    4.3737   -0.1051   -0.0119 H   0  0  0  0  0  0  0  0  0  0  0  0
    2.7755   -0.6315    0.2578 H   0  0  0  0  0  0  0  0  0  0  0  0
    1.7874   -3.0662   -0.8472 H   0  0  0  0  0  0  0  0  0  0  0  0
    2.7452   -4.0304   -1.8403 H   0  0  0  0  0  0  0  0  0  0  0  0
  1 20  2  0
  1  2  1  0
  1 21  1  0
  2  3  2  0
  3  4  1  0
  5  4  1  6
  4 20  1  0
  5 18  1  0
  5 19  1  0
  5  6  1  0
  6  7  1  0
  6 22  1  0
  6 23  1  0
  7 14  1  0
  7  8  1  0
  7 24  1  6
  8  9  1  0
  8 25  1  0
  8 26  1  0
  9 17  1  0
  9 10  1  0
  9 27  1  6
 10 11  1  0
 10 28  1  0
 10 29  1  0
 11 12  1  0
 11 19  1  0
 11 30  1  6
 12 13  1  0
 12 31  1  0
 12 32  1  0
 13 14  1  0
 13 15  1  0
 13 33  1  1
 14 34  1  0
 14 35  1  0
 15 16  1  0
 15 36  1  0
 15 37  1  0
 16 17  1  0
 16 18  1  0
 16 38  1  1
 17 39  1  0
 17 40  1  0
 18 41  1  0
 18 42  1  0
 19 43  1  0
 19 44  1  0
M  END
>  <i_m_ct_stereo_status>  (129) 
1

>  <s_m_source_file>  (129) 
/var/tmp/pbs.5076255.sched01/tmpr0mrskr5/46emy42_dx.sdf

>  <i_m_source_file_index>  (129) 
10

>  <i_lp_mmshare_version>  (129) 
48012

>  <i_f3d_flags>  (129) 
0

>  <s_epik_input>  (129) 
bjFbY0hdbm5uMUMyM1tDSDJdW0NASF00W0NIMl1bQ0hdNVtDSDJdW0NIXShbQ0gyXTMpW0NIMl1bQ0hdKFtDSDJdNClbQ0gyXVtDQEBIXShbQ0gyXTUpW0NIMl0y

>  <s_epik_cmdline>  (129) 
J2VwaWtfcHl0aG9uJywgJy1waHQnLCAnMi4wJywgJy1waCcsICc3LjAnLCAnLXRuJywgJzgnLCAnLW1hJywgJzIwMCcsICctaW1hZScsICc8aW5maWxlLm1hZT4nLCAnLW9tYWUnLCAnPG91dGZpbGUubWFlPic=

>  <r_lp_tautomer_probability>  (129) 
1

>  <r_epik_Ionization_Penalty>  (129) 
2.83526e-06

>  <r_epik_Ionization_Penalty_Charging>  (129) 
0

>  <r_epik_Ionization_Penalty_Neutral>  (129) 
2.83526e-06

>  <r_epik_State_Penalty>  (129) 
-0

>  <r_epik_Charging_Adjusted_Penalty>  (129) 
0

>  <i_epik_Tot_Q>  (129) 
0

>  <i_epik_Tot_abs_Q>  (129) 
0

>  <s_lp_Force_Field>  (129) 
OPLS3e

>  <r_lp_Energy>  (129) 
775.348

>  <b_lp_Chiralities_Consistent>  (129) 
1

>  <s_lp_Variant>  (129) 
35:0-1

>  <s_i_glide_gridfile>  (129) 
pfpi4k_grid

>  <i_i_glide_lignum>  (129) 
10

>  <i_i_glide_rotatable_bonds>  (129) 
1

>  <r_i_docking_score>  (129) 
-3.40366

>  <r_i_glide_ligand_efficiency>  (129) 
-0.170183

>  <r_i_glide_ligand_efficiency_sa>  (129) 
-0.461947

>  <r_i_glide_ligand_efficiency_ln>  (129) 
-0.851823

>  <r_i_glide_gscore>  (129) 
-3.40366

>  <r_i_glide_lipo>  (129) 
-0.479888

>  <r_i_glide_hbond>  (129) 
0

>  <r_i_glide_metal>  (129) 
-0

>  <r_i_glide_rewards>  (129) 
-1.6886

>  <r_i_glide_evdw>  (129) 
-25.3389

>  <r_i_glide_ecoul>  (129) 
-1.08069

>  <r_i_glide_erotb>  (129) 
0.241535

>  <r_i_glide_esite>  (129) 
-0.0476633

>  <r_i_glide_emodel>  (129) 
-30.8717

>  <r_i_glide_energy>  (129) 
-26.4195

>  <r_i_glide_einternal>  (129) 
1.81305

>  <r_i_glide_intrahb_reward>  (129) 
-0

>  <i_i_glide_confnum>  (129) 
1

>  <i_i_glide_posenum>  (129) 
1

>  <r_i_glide_eff_state_penalty>  (129) 
0

>  <ligand_id>  (129) 
35

>  <original_smiles>  (129) 
c1nnn(C23CC4CC5CC(CC(C4)CC(C5)C2)C3)n1

>  <smiles>  (129) 
[H]c1nnn(C23C([H])([H])C4([H])C([H])([H])C5([H])C([H])([H])C([H])(C([H])([H])C([H])(C4([H])[H])C([H])([H])C([H])(C5([H])[H])C2([H])[H])C3([H])[H])n1

$$$$
35:0:2
     RDKit          3D

 44 48  0  0  1  0  0  0  0  0999 V2000
    3.5646   -5.4398    4.6147 C   0  0  0  0  0  0  0  0  0  0  0  0
    2.2616   -5.4903    4.2227 N   0  0  0  0  0  0  0  0  0  0  0  0
    2.2236   -4.9853    3.0312 N   0  0  0  0  0  0  0  0  0  0  0  0
    3.5037   -4.6792    2.7117 N   0  0  0  0  0  0  0  0  0  0  0  0
    3.9006   -4.0569    1.4435 C   0  0  1  0  0  0  0  0  0  0  0  0
    3.3283   -2.4017    1.3744 C   0  0  0  0  0  0  0  0  0  0  0  0
    3.8157   -1.1685    0.2100 C   0  0  1  0  0  0  0  0  0  0  0  0
    5.1923   -0.9223    0.5274 C   0  0  0  0  0  0  0  0  0  0  0  0
    5.5026   -2.3606    0.2162 C   0  0  1  0  0  0  0  0  0  0  0  0
    4.3522   -3.6162   -0.7670 C   0  0  0  0  0  0  0  0  0  0  0  0
    2.9115   -3.4967   -1.1062 C   0  0  1  0  0  0  0  0  0  0  0  0
    3.6091   -3.1074   -2.5570 C   0  0  0  0  0  0  0  0  0  0  0  0
    4.9386   -2.1437   -2.4272 C   0  0  1  0  0  0  0  0  0  0  0  0
    4.0936   -1.0529   -1.4712 C   0  0  0  0  0  0  0  0  0  0  0  0
    6.4382   -3.0345   -1.9459 C   0  0  0  0  0  0  0  0  0  0  0  0
    6.7098   -3.8395   -0.2995 C   0  0  1  0  0  0  0  0  0  0  0  0
    6.9910   -2.5735    0.2926 C   0  0  0  0  0  0  0  0  0  0  0  0
    5.6521   -4.6078    1.0632 C   0  0  0  0  0  0  0  0  0  0  0  0
    2.8453   -4.4697    0.2257 C   0  0  0  0  0  0  0  0  0  0  0  0
    4.3741   -4.9048    3.7169 N   0  0  0  0  0  0  0  0  0  0  0  0
    3.9148   -5.7862    5.5752 H   0  0  0  0  0  0  0  0  0  0  0  0
    2.2361   -2.3917    1.3920 H   0  0  0  0  0  0  0  0  0  0  0  0
    3.5596   -1.9733    2.3503 H   0  0  0  0  0  0  0  0  0  0  0  0
    3.2363   -0.2799    0.4656 H   0  0  0  0  0  0  0  0  0  0  0  0
    5.7542   -0.2055   -0.0710 H   0  0  0  0  0  0  0  0  0  0  0  0
    5.3066   -0.5922    1.5669 H   0  0  0  0  0  0  0  0  0  0  0  0
    5.5472   -2.4400    1.3072 H   0  0  0  0  0  0  0  0  0  0  0  0
    4.7989   -4.3573   -1.4658 H   0  0  0  0  0  0  0  0  0  0  0  0
    4.5826   -4.7070   -0.8052 H   0  0  0  0  0  0  0  0  0  0  0  0
    2.2758   -2.6562   -0.8634 H   0  0  0  0  0  0  0  0  0  0  0  0
    3.8196   -3.9697   -3.1944 H   0  0  0  0  0  0  0  0  0  0  0  0
    2.8567   -2.5891   -3.1526 H   0  0  0  0  0  0  0  0  0  0  0  0
    5.1028   -1.6966   -3.4071 H   0  0  0  0  0  0  0  0  0  0  0  0
    3.1147   -0.8680   -1.9152 H   0  0  0  0  0  0  0  0  0  0  0  0
    4.5421   -0.0863   -1.6963 H   0  0  0  0  0  0  0  0  0  0  0  0
    6.5269   -3.8336   -2.6802 H   0  0  0  0  0  0  0  0  0  0  0  0
    7.2981   -2.4225   -2.2227 H   0  0  0  0  0  0  0  0  0  0  0  0
    7.6355   -4.4084   -0.3386 H   0  0  0  0  0  0  0  0  0  0  0  0
    7.6117   -1.8735   -0.2670 H   0  0  0  0  0  0  0  0  0  0  0  0
    7.4355   -2.6842    1.2831 H   0  0  0  0  0  0  0  0  0  0  0  0
    6.2481   -4.5538    1.9759 H   0  0  0  0  0  0  0  0  0  0  0  0
    5.5981   -5.6804    0.8659 H   0  0  0  0  0  0  0  0  0  0  0  0
    2.9106   -5.5371   -0.0053 H   0  0  0  0  0  0  0  0  0  0  0  0
    1.8210   -4.3851    0.5840 H   0  0  0  0  0  0  0  0  0  0  0  0
  1 20  2  0
  1  2  1  0
  1 21  1  0
  2  3  2  0
  3  4  1  0
  5  4  1  1
  4 20  1  0
  5 18  1  0
  5 19  1  0
  5  6  1  0
  6  7  1  0
  6 22  1  0
  6 23  1  0
  7 14  1  0
  7  8  1  0
  7 24  1  1
  8  9  1  0
  8 25  1  0
  8 26  1  0
  9 17  1  0
  9 10  1  0
  9 27  1  1
 10 11  1  0
 10 28  1  0
 10 29  1  0
 11 12  1  0
 11 19  1  0
 11 30  1  1
 12 13  1  0
 12 31  1  0
 12 32  1  0
 13 14  1  0
 13 15  1  0
 13 33  1  6
 14 34  1  0
 14 35  1  0
 15 16  1  0
 15 36  1  0
 15 37  1  0
 16 17  1  0
 16 18  1  0
 16 38  1  6
 17 39  1  0
 17 40  1  0
 18 41  1  0
 18 42  1  0
 19 43  1  0
 19 44  1  0
M  END
>  <i_m_ct_stereo_status>  (130) 
1

>  <s_m_source_file>  (130) 
/var/tmp/pbs.5076255.sched01/tmpr0mrskr5/46emy42_dx.sdf

>  <i_m_source_file_index>  (130) 
10

>  <i_lp_mmshare_version>  (130) 
48012

>  <i_f3d_flags>  (130) 
0

>  <s_epik_input>  (130) 
bjFbY0hdbm5uMUMyM1tDSDJdW0NASF00W0NIMl1bQ0hdNVtDSDJdW0NIXShbQ0gyXTMpW0NIMl1bQ0hdKFtDSDJdNClbQ0gyXVtDQEBIXShbQ0gyXTUpW0NIMl0y

>  <s_epik_cmdline>  (130) 
J2VwaWtfcHl0aG9uJywgJy1waHQnLCAnMi4wJywgJy1waCcsICc3LjAnLCAnLXRuJywgJzgnLCAnLW1hJywgJzIwMCcsICctaW1hZScsICc8aW5maWxlLm1hZT4nLCAnLW9tYWUnLCAnPG91dGZpbGUubWFlPic=

>  <r_lp_tautomer_probability>  (130) 
1

>  <r_epik_Ionization_Penalty>  (130) 
2.83526e-06

>  <r_epik_Ionization_Penalty_Charging>  (130) 
0

>  <r_epik_Ionization_Penalty_Neutral>  (130) 
2.83526e-06

>  <r_epik_State_Penalty>  (130) 
-0

>  <r_epik_Charging_Adjusted_Penalty>  (130) 
0

>  <i_epik_Tot_Q>  (130) 
0

>  <i_epik_Tot_abs_Q>  (130) 
0

>  <s_lp_Force_Field>  (130) 
OPLS3e

>  <r_lp_Energy>  (130) 
775.348

>  <b_lp_Chiralities_Consistent>  (130) 
1

>  <s_lp_Variant>  (130) 
35:0-1

>  <s_i_glide_gridfile>  (130) 
pfpi4k_grid

>  <i_i_glide_lignum>  (130) 
10

>  <i_i_glide_rotatable_bonds>  (130) 
1

>  <r_i_docking_score>  (130) 
-3.08773

>  <r_i_glide_ligand_efficiency>  (130) 
-0.154387

>  <r_i_glide_ligand_efficiency_sa>  (130) 
-0.41907

>  <r_i_glide_ligand_efficiency_ln>  (130) 
-0.772758

>  <r_i_glide_gscore>  (130) 
-3.08773

>  <r_i_glide_lipo>  (130) 
-0.587204

>  <r_i_glide_hbond>  (130) 
0

>  <r_i_glide_metal>  (130) 
-0

>  <r_i_glide_rewards>  (130) 
-1.5519

>  <r_i_glide_evdw>  (130) 
-23.3215

>  <r_i_glide_ecoul>  (130) 
-0.130638

>  <r_i_glide_erotb>  (130) 
0.241535

>  <r_i_glide_esite>  (130) 
-0.00449817

>  <r_i_glide_emodel>  (130) 
-27.8995

>  <r_i_glide_energy>  (130) 
-23.4521

>  <r_i_glide_einternal>  (130) 
1.24883

>  <r_i_glide_intrahb_reward>  (130) 
-0

>  <i_i_glide_confnum>  (130) 
5

>  <i_i_glide_posenum>  (130) 
6

>  <r_i_glide_eff_state_penalty>  (130) 
0

>  <ligand_id>  (130) 
35

>  <original_smiles>  (130) 
c1nnn(C23CC4CC5CC(CC(C4)CC(C5)C2)C3)n1

>  <smiles>  (130) 
[H]c1nnn(C23C([H])([H])C4([H])C([H])([H])C5([H])C([H])([H])C([H])(C([H])([H])C([H])(C4([H])[H])C([H])([H])C([H])(C5([H])[H])C2([H])[H])C3([H])[H])n1

$$$$
36:0:0
     RDKit          3D

 26 28  0  0  1  0  0  0  0  0999 V2000
    3.8224   -0.9298   -4.1318 C   0  0  0  0  0  0  0  0  0  0  0  0
    3.6729   -2.1167   -3.1655 C   0  0  0  0  0  0  0  0  0  0  0  0
    4.3223   -3.3869   -3.7520 C   0  0  0  0  0  0  0  0  0  0  0  0
    4.2471   -1.7594   -1.7757 C   0  0  0  0  0  0  0  0  0  0  0  0
    3.8616   -2.7691   -0.7199 C   0  0  0  0  0  0  0  0  0  0  0  0
    4.6961   -2.9076    0.3099 N   0  0  0  0  0  0  0  0  0  0  0  0
    4.2256   -3.8585    1.1672 N   0  0  0  0  0  0  0  0  0  0  0  0
    4.7956   -4.3005    2.3192 C   0  0  0  0  0  0  0  0  0  0  0  0
    4.0147   -5.2181    2.8958 N   0  0  0  0  0  0  0  0  0  0  0  0
    2.8916   -5.3998    2.0906 N   0  0  0  0  0  0  0  0  0  0  0  0
    3.0271   -4.5946    1.0353 C   0  0  0  0  0  0  0  0  0  0  0  0
    2.2250   -4.4164   -0.0293 N   0  0  0  0  0  0  0  0  0  0  0  0
    2.6558   -3.5106   -0.8958 C   0  0  0  0  0  0  0  0  0  0  0  0
    1.8311   -3.3378   -2.1594 C   0  0  0  0  0  0  0  0  0  0  0  0
    2.2694   -2.2986   -3.0265 O   0  0  0  0  0  0  0  0  0  0  0  0
    4.8691   -0.6925   -4.3003 H   0  0  0  0  0  0  0  0  0  0  0  0
    3.3430   -0.0303   -3.7426 H   0  0  0  0  0  0  0  0  0  0  0  0
    3.3863   -1.1347   -5.1082 H   0  0  0  0  0  0  0  0  0  0  0  0
    5.3878   -3.2381   -3.9106 H   0  0  0  0  0  0  0  0  0  0  0  0
    3.8455   -3.6797   -4.6896 H   0  0  0  0  0  0  0  0  0  0  0  0
    4.2575   -4.2388   -3.0780 H   0  0  0  0  0  0  0  0  0  0  0  0
    5.3326   -1.6474   -1.8216 H   0  0  0  0  0  0  0  0  0  0  0  0
    3.8413   -0.7980   -1.4547 H   0  0  0  0  0  0  0  0  0  0  0  0
    5.7433   -3.9669    2.7207 H   0  0  0  0  0  0  0  0  0  0  0  0
    1.8231   -4.2574   -2.7297 H   0  0  0  0  0  0  0  0  0  0  0  0
    0.7945   -3.1535   -1.9013 H   0  0  0  0  0  0  0  0  0  0  0  0
  1  2  1  0
  1 16  1  0
  1 17  1  0
  1 18  1  0
  2 15  1  0
  2  3  1  0
  2  4  1  0
  3 19  1  0
  3 20  1  0
  3 21  1  0
  4  5  1  0
  4 22  1  0
  4 23  1  0
  5 13  1  0
  5  6  2  0
  6  7  1  0
  7 11  1  0
  7  8  1  0
  8  9  2  0
  8 24  1  0
  9 10  1  0
 10 11  2  0
 11 12  1  0
 12 13  2  0
 13 14  1  0
 14 15  1  0
 14 25  1  0
 14 26  1  0
M  END
>  <i_m_ct_stereo_status>  (131) 
1

>  <s_m_source_file>  (131) 
/var/tmp/pbs.5076255.sched01/tmpr0mrskr5/46emy42_dx.sdf

>  <i_m_source_file_index>  (131) 
11

>  <i_lp_mmshare_version>  (131) 
48012

>  <i_f3d_flags>  (131) 
0

>  <s_epik_input>  (131) 
W0NIM11DKFtDSDNdKShbQ0gyXTEpT1tDSDJdYyhjMTIpbmMzbihuMilbY0hdbm4z

>  <s_epik_cmdline>  (131) 
J2VwaWtfcHl0aG9uJywgJy1waHQnLCAnMi4wJywgJy1waCcsICc3LjAnLCAnLXRuJywgJzgnLCAnLW1hJywgJzIwMCcsICctaW1hZScsICc8aW5maWxlLm1hZT4nLCAnLW9tYWUnLCAnPG91dGZpbGUubWFlPic=

>  <r_lp_tautomer_probability>  (131) 
1

>  <r_epik_Ionization_Penalty>  (131) 
6.10384e-10

>  <r_epik_Ionization_Penalty_Charging>  (131) 
0

>  <r_epik_Ionization_Penalty_Neutral>  (131) 
6.10384e-10

>  <r_epik_State_Penalty>  (131) 
-0

>  <r_epik_Charging_Adjusted_Penalty>  (131) 
0

>  <i_epik_Tot_Q>  (131) 
0

>  <i_epik_Tot_abs_Q>  (131) 
0

>  <s_lp_Force_Field>  (131) 
OPLS3e

>  <r_lp_Energy>  (131) 
20.2083

>  <b_lp_Chiralities_Consistent>  (131) 
1

>  <s_lp_Variant>  (131) 
36:0-1

>  <s_i_glide_gridfile>  (131) 
pfpi4k_grid

>  <i_i_glide_lignum>  (131) 
11

>  <i_i_glide_rotatable_bonds>  (131) 
0

>  <r_i_docking_score>  (131) 
-3.79642

>  <r_i_glide_ligand_efficiency>  (131) 
-0.253095

>  <r_i_glide_ligand_efficiency_sa>  (131) 
-0.624186

>  <r_i_glide_ligand_efficiency_ln>  (131) 
-1.02383

>  <r_i_glide_gscore>  (131) 
-3.79642

>  <r_i_glide_lipo>  (131) 
-0.515765

>  <r_i_glide_hbond>  (131) 
-0.00157065

>  <r_i_glide_metal>  (131) 
-0

>  <r_i_glide_rewards>  (131) 
-2.06129

>  <r_i_glide_evdw>  (131) 
-18.5886

>  <r_i_glide_ecoul>  (131) 
-1.83116

>  <r_i_glide_erotb>  (131) 
0

>  <r_i_glide_esite>  (131) 
-0.013689

>  <r_i_glide_emodel>  (131) 
-25.187

>  <r_i_glide_energy>  (131) 
-20.4198

>  <r_i_glide_einternal>  (131) 
0

>  <r_i_glide_intrahb_reward>  (131) 
-0

>  <i_i_glide_confnum>  (131) 
2

>  <i_i_glide_posenum>  (131) 
16

>  <r_i_glide_eff_state_penalty>  (131) 
0

>  <ligand_id>  (131) 
36

>  <original_smiles>  (131) 
CC1(C)Cc2nn3cnnc3nc2CO1

>  <smiles>  (131) 
[H]c1nnc2nc3c(nn12)C([H])([H])C(C([H])([H])[H])(C([H])([H])[H])OC3([H])[H]

$$$$
36:0:1
     RDKit          3D

 26 28  0  0  1  0  0  0  0  0999 V2000
    4.3581   -0.7210   -2.8035 C   0  0  0  0  0  0  0  0  0  0  0  0
    4.0452   -2.0798   -2.1701 C   0  0  0  0  0  0  0  0  0  0  0  0
    4.8635   -3.1860   -2.8671 C   0  0  0  0  0  0  0  0  0  0  0  0
    4.2930   -2.0293   -0.6442 C   0  0  0  0  0  0  0  0  0  0  0  0
    3.7320   -3.2405    0.0664 C   0  0  0  0  0  0  0  0  0  0  0  0
    4.3371   -3.6030    1.1987 N   0  0  0  0  0  0  0  0  0  0  0  0
    3.7460   -4.7125    1.7175 N   0  0  0  0  0  0  0  0  0  0  0  0
    4.0773   -5.3938    2.8458 C   0  0  0  0  0  0  0  0  0  0  0  0
    3.2288   -6.4073    3.0330 N   0  0  0  0  0  0  0  0  0  0  0  0
    2.3151   -6.4114    1.9845 N   0  0  0  0  0  0  0  0  0  0  0  0
    2.6420   -5.4032    1.1788 C   0  0  0  0  0  0  0  0  0  0  0  0
    2.0813   -4.9969    0.0299 N   0  0  0  0  0  0  0  0  0  0  0  0
    2.6289   -3.9126   -0.5168 C   0  0  0  0  0  0  0  0  0  0  0  0
    2.0654   -3.4594   -1.8593 C   0  0  0  0  0  0  0  0  0  0  0  0
    2.6512   -2.2689   -2.3801 O   0  0  0  0  0  0  0  0  0  0  0  0
    5.4044   -0.4608   -2.6662 H   0  0  0  0  0  0  0  0  0  0  0  0
    3.7888    0.0850   -2.3534 H   0  0  0  0  0  0  0  0  0  0  0  0
    4.1387   -0.7144   -3.8718 H   0  0  0  0  0  0  0  0  0  0  0  0
    5.9335   -2.9828   -2.8101 H   0  0  0  0  0  0  0  0  0  0  0  0
    4.5897   -3.2706   -3.9200 H   0  0  0  0  0  0  0  0  0  0  0  0
    4.7025   -4.1623   -2.4106 H   0  0  0  0  0  0  0  0  0  0  0  0
    5.3559   -1.9144   -0.4255 H   0  0  0  0  0  0  0  0  0  0  0  0
    3.7812   -1.1627   -0.2202 H   0  0  0  0  0  0  0  0  0  0  0  0
    4.8997   -5.1513    3.5038 H   0  0  0  0  0  0  0  0  0  0  0  0
    2.1997   -4.2441   -2.5948 H   0  0  0  0  0  0  0  0  0  0  0  0
    0.9846   -3.3241   -1.7953 H   0  0  0  0  0  0  0  0  0  0  0  0
  1  2  1  0
  1 16  1  0
  1 17  1  0
  1 18  1  0
  2 15  1  0
  2  3  1  0
  2  4  1  0
  3 19  1  0
  3 20  1  0
  3 21  1  0
  4  5  1  0
  4 22  1  0
  4 23  1  0
  5 13  1  0
  5  6  2  0
  6  7  1  0
  7 11  1  0
  7  8  1  0
  8  9  2  0
  8 24  1  0
  9 10  1  0
 10 11  2  0
 11 12  1  0
 12 13  2  0
 13 14  1  0
 14 15  1  0
 14 25  1  0
 14 26  1  0
M  END
>  <i_m_ct_stereo_status>  (132) 
1

>  <s_m_source_file>  (132) 
/var/tmp/pbs.5076255.sched01/tmpr0mrskr5/46emy42_dx.sdf

>  <i_m_source_file_index>  (132) 
11

>  <i_lp_mmshare_version>  (132) 
48012

>  <i_f3d_flags>  (132) 
0

>  <s_epik_input>  (132) 
W0NIM11DKFtDSDNdKShbQ0gyXTEpT1tDSDJdYyhjMTIpbmMzbihuMilbY0hdbm4z

>  <s_epik_cmdline>  (132) 
J2VwaWtfcHl0aG9uJywgJy1waHQnLCAnMi4wJywgJy1waCcsICc3LjAnLCAnLXRuJywgJzgnLCAnLW1hJywgJzIwMCcsICctaW1hZScsICc8aW5maWxlLm1hZT4nLCAnLW9tYWUnLCAnPG91dGZpbGUubWFlPic=

>  <r_lp_tautomer_probability>  (132) 
1

>  <r_epik_Ionization_Penalty>  (132) 
6.10384e-10

>  <r_epik_Ionization_Penalty_Charging>  (132) 
0

>  <r_epik_Ionization_Penalty_Neutral>  (132) 
6.10384e-10

>  <r_epik_State_Penalty>  (132) 
-0

>  <r_epik_Charging_Adjusted_Penalty>  (132) 
0

>  <i_epik_Tot_Q>  (132) 
0

>  <i_epik_Tot_abs_Q>  (132) 
0

>  <s_lp_Force_Field>  (132) 
OPLS3e

>  <r_lp_Energy>  (132) 
20.2083

>  <b_lp_Chiralities_Consistent>  (132) 
1

>  <s_lp_Variant>  (132) 
36:0-1

>  <s_i_glide_gridfile>  (132) 
pfpi4k_grid

>  <i_i_glide_lignum>  (132) 
11

>  <i_i_glide_rotatable_bonds>  (132) 
0

>  <r_i_docking_score>  (132) 
-3.54376

>  <r_i_glide_ligand_efficiency>  (132) 
-0.236251

>  <r_i_glide_ligand_efficiency_sa>  (132) 
-0.582644

>  <r_i_glide_ligand_efficiency_ln>  (132) 
-0.955694

>  <r_i_glide_gscore>  (132) 
-3.54376

>  <r_i_glide_lipo>  (132) 
-0.374969

>  <r_i_glide_hbond>  (132) 
-0.0252276

>  <r_i_glide_metal>  (132) 
-0

>  <r_i_glide_rewards>  (132) 
-2.02171

>  <r_i_glide_evdw>  (132) 
-15.6568

>  <r_i_glide_ecoul>  (132) 
-2.02023

>  <r_i_glide_erotb>  (132) 
0

>  <r_i_glide_esite>  (132) 
-0.0359759

>  <r_i_glide_emodel>  (132) 
-22.0996

>  <r_i_glide_energy>  (132) 
-17.677

>  <r_i_glide_einternal>  (132) 
0

>  <r_i_glide_intrahb_reward>  (132) 
-0

>  <i_i_glide_confnum>  (132) 
2

>  <i_i_glide_posenum>  (132) 
24

>  <r_i_glide_eff_state_penalty>  (132) 
0

>  <ligand_id>  (132) 
36

>  <original_smiles>  (132) 
CC1(C)Cc2nn3cnnc3nc2CO1

>  <smiles>  (132) 
[H]c1nnc2nc3c(nn12)C([H])([H])C(C([H])([H])[H])(C([H])([H])[H])OC3([H])[H]

$$$$
36:0:2
     RDKit          3D

 26 28  0  0  1  0  0  0  0  0999 V2000
   -2.5163    2.9369    4.2457 C   0  0  0  0  0  0  0  0  0  0  0  0
   -1.2148    2.1168    4.3373 C   0  0  0  0  0  0  0  0  0  0  0  0
   -1.4824    0.7530    5.0155 C   0  0  0  0  0  0  0  0  0  0  0  0
   -0.5809    1.9527    2.9400 C   0  0  0  0  0  0  0  0  0  0  0  0
    0.8391    1.4293    3.0168 C   0  0  0  0  0  0  0  0  0  0  0  0
    1.2727    0.7392    1.9627 N   0  0  0  0  0  0  0  0  0  0  0  0
    2.5519    0.3137    2.1590 N   0  0  0  0  0  0  0  0  0  0  0  0
    3.3235   -0.4347    1.3269 C   0  0  0  0  0  0  0  0  0  0  0  0
    4.5214   -0.6464    1.8797 N   0  0  0  0  0  0  0  0  0  0  0  0
    4.5380   -0.0343    3.1286 N   0  0  0  0  0  0  0  0  0  0  0  0
    3.3488    0.5558    3.2976 C   0  0  0  0  0  0  0  0  0  0  0  0
    2.8569    1.2582    4.3346 N   0  0  0  0  0  0  0  0  0  0  0  0
    1.6071    1.6836    4.1832 C   0  0  0  0  0  0  0  0  0  0  0  0
    0.9752    2.3832    5.3756 C   0  0  0  0  0  0  0  0  0  0  0  0
   -0.3252    2.9155    5.1213 O   0  0  0  0  0  0  0  0  0  0  0  0
   -3.2627    2.4353    3.6311 H   0  0  0  0  0  0  0  0  0  0  0  0
   -2.3382    3.9164    3.8033 H   0  0  0  0  0  0  0  0  0  0  0  0
   -2.9585    3.0942    5.2301 H   0  0  0  0  0  0  0  0  0  0  0  0
   -2.2393    0.1863    4.4738 H   0  0  0  0  0  0  0  0  0  0  0  0
   -1.8341    0.8821    6.0393 H   0  0  0  0  0  0  0  0  0  0  0  0
   -0.5901    0.1270    5.0470 H   0  0  0  0  0  0  0  0  0  0  0  0
   -1.1954    1.3270    2.2932 H   0  0  0  0  0  0  0  0  0  0  0  0
   -0.5180    2.9325    2.4718 H   0  0  0  0  0  0  0  0  0  0  0  0
    3.0103   -0.8158    0.3668 H   0  0  0  0  0  0  0  0  0  0  0  0
    0.9127    1.6728    6.2014 H   0  0  0  0  0  0  0  0  0  0  0  0
    1.6186    3.1996    5.7073 H   0  0  0  0  0  0  0  0  0  0  0  0
  1  2  1  0
  1 16  1  0
  1 17  1  0
  1 18  1  0
  2 15  1  0
  2  3  1  0
  2  4  1  0
  3 19  1  0
  3 20  1  0
  3 21  1  0
  4  5  1  0
  4 22  1  0
  4 23  1  0
  5 13  1  0
  5  6  2  0
  6  7  1  0
  7 11  1  0
  7  8  1  0
  8  9  2  0
  8 24  1  0
  9 10  1  0
 10 11  2  0
 11 12  1  0
 12 13  2  0
 13 14  1  0
 14 15  1  0
 14 25  1  0
 14 26  1  0
M  END
>  <i_m_ct_stereo_status>  (133) 
1

>  <s_m_source_file>  (133) 
/var/tmp/pbs.5076255.sched01/tmpr0mrskr5/46emy42_dx.sdf

>  <i_m_source_file_index>  (133) 
11

>  <i_lp_mmshare_version>  (133) 
48012

>  <i_f3d_flags>  (133) 
0

>  <s_epik_input>  (133) 
W0NIM11DKFtDSDNdKShbQ0gyXTEpT1tDSDJdYyhjMTIpbmMzbihuMilbY0hdbm4z

>  <s_epik_cmdline>  (133) 
J2VwaWtfcHl0aG9uJywgJy1waHQnLCAnMi4wJywgJy1waCcsICc3LjAnLCAnLXRuJywgJzgnLCAnLW1hJywgJzIwMCcsICctaW1hZScsICc8aW5maWxlLm1hZT4nLCAnLW9tYWUnLCAnPG91dGZpbGUubWFlPic=

>  <r_lp_tautomer_probability>  (133) 
1

>  <r_epik_Ionization_Penalty>  (133) 
6.10384e-10

>  <r_epik_Ionization_Penalty_Charging>  (133) 
0

>  <r_epik_Ionization_Penalty_Neutral>  (133) 
6.10384e-10

>  <r_epik_State_Penalty>  (133) 
-0

>  <r_epik_Charging_Adjusted_Penalty>  (133) 
0

>  <i_epik_Tot_Q>  (133) 
0

>  <i_epik_Tot_abs_Q>  (133) 
0

>  <s_lp_Force_Field>  (133) 
OPLS3e

>  <r_lp_Energy>  (133) 
20.2083

>  <b_lp_Chiralities_Consistent>  (133) 
1

>  <s_lp_Variant>  (133) 
36:0-1

>  <s_i_glide_gridfile>  (133) 
pfpi4k_grid

>  <i_i_glide_lignum>  (133) 
11

>  <i_i_glide_rotatable_bonds>  (133) 
0

>  <r_i_docking_score>  (133) 
-3.23063

>  <r_i_glide_ligand_efficiency>  (133) 
-0.215375

>  <r_i_glide_ligand_efficiency_sa>  (133) 
-0.531161

>  <r_i_glide_ligand_efficiency_ln>  (133) 
-0.871247

>  <r_i_glide_gscore>  (133) 
-3.23063

>  <r_i_glide_lipo>  (133) 
0

>  <r_i_glide_hbond>  (133) 
0

>  <r_i_glide_metal>  (133) 
-0

>  <r_i_glide_rewards>  (133) 
-2.00989

>  <r_i_glide_evdw>  (133) 
-18.3512

>  <r_i_glide_ecoul>  (133) 
-1.77803

>  <r_i_glide_erotb>  (133) 
0

>  <r_i_glide_esite>  (133) 
-0.0364763

>  <r_i_glide_emodel>  (133) 
-24.2098

>  <r_i_glide_energy>  (133) 
-20.1293

>  <r_i_glide_einternal>  (133) 
0

>  <r_i_glide_intrahb_reward>  (133) 
-0

>  <i_i_glide_confnum>  (133) 
1

>  <i_i_glide_posenum>  (133) 
1

>  <r_i_glide_eff_state_penalty>  (133) 
0

>  <ligand_id>  (133) 
36

>  <original_smiles>  (133) 
CC1(C)Cc2nn3cnnc3nc2CO1

>  <smiles>  (133) 
[H]c1nnc2nc3c(nn12)C([H])([H])C(C([H])([H])[H])(C([H])([H])[H])OC3([H])[H]

$$$$
38:0:0
     RDKit          3D

 42 47  0  0  1  0  0  0  0  0999 V2000
   -0.9868   -9.7441    2.4787 C   0  0  0  0  0  0  0  0  0  0  0  0
   -0.9600   -8.2650    2.0862 C   0  0  0  0  0  0  0  0  0  0  0  0
    0.2868   -7.5604    2.6166 C   0  0  0  0  0  0  0  0  0  0  0  0
    0.2144   -6.1873    2.2611 O   0  0  0  0  0  0  0  0  0  0  0  0
    1.2894   -5.3949    2.7726 C   0  0  0  0  0  0  0  0  0  0  0  0
    2.5797   -5.6171    1.9548 C   0  0  2  0  0  0  0  0  0  0  0  0
    3.8427   -4.8502    2.4036 C   0  0  2  0  0  0  0  0  0  0  0  0
    3.4758   -3.3307    2.3551 C   0  0  1  0  0  0  0  0  0  0  0  0
    4.7423   -2.4782    2.2564 C   0  0  0  0  0  0  0  0  0  0  0  0
    4.9723   -2.3159    0.7435 C   0  0  2  0  0  0  0  0  0  0  0  0
    5.0627   -3.3620   -0.2456 C   0  0  1  0  0  0  0  0  0  0  0  0
    5.8770   -4.5054    0.5303 C   0  0  0  0  0  0  0  0  0  0  0  0
    4.7725   -5.3398    1.2413 C   0  0  2  0  0  0  0  0  0  0  0  0
    3.7671   -5.0563    0.1579 C   0  0  2  0  0  0  0  0  0  0  0  0
    3.7900   -3.0431    0.1819 C   0  0  1  0  0  0  0  0  0  0  0  0
    2.6922   -3.0472    1.0388 C   0  0  1  0  0  0  0  0  0  0  0  0
    3.1010   -3.9226   -0.1608 C   0  0  2  0  0  0  0  0  0  0  0  0
    2.4802   -5.2406    0.4421 C   0  0  2  0  0  0  0  0  0  0  0  0
   -1.8799  -10.2255    2.0827 H   0  0  0  0  0  0  0  0  0  0  0  0
   -0.9866   -9.8536    3.5622 H   0  0  0  0  0  0  0  0  0  0  0  0
   -0.1243  -10.2872    2.0892 H   0  0  0  0  0  0  0  0  0  0  0  0
   -0.9865   -8.1769    1.0013 H   0  0  0  0  0  0  0  0  0  0  0  0
   -1.8525   -7.7737    2.4734 H   0  0  0  0  0  0  0  0  0  0  0  0
    0.3484   -7.6618    3.7008 H   0  0  0  0  0  0  0  0  0  0  0  0
    1.1632   -8.0431    2.1887 H   0  0  0  0  0  0  0  0  0  0  0  0
    0.9727   -4.3524    2.7276 H   0  0  0  0  0  0  0  0  0  0  0  0
    1.4536   -5.6021    3.8320 H   0  0  0  0  0  0  0  0  0  0  0  0
    2.8442   -6.6729    2.0256 H   0  0  0  0  0  0  0  0  0  0  0  0
    4.2123   -5.1559    3.3843 H   0  0  0  0  0  0  0  0  0  0  0  0
    2.8893   -3.0502    3.2307 H   0  0  0  0  0  0  0  0  0  0  0  0
    4.5533   -1.4965    2.6941 H   0  0  0  0  0  0  0  0  0  0  0  0
    5.5898   -2.9138    2.7918 H   0  0  0  0  0  0  0  0  0  0  0  0
    5.0674   -1.2897    0.3788 H   0  0  0  0  0  0  0  0  0  0  0  0
    5.5075   -3.0963   -1.2062 H   0  0  0  0  0  0  0  0  0  0  0  0
    6.3478   -5.1441   -0.2252 H   0  0  0  0  0  0  0  0  0  0  0  0
    6.6811   -4.1483    1.1798 H   0  0  0  0  0  0  0  0  0  0  0  0
    5.0283   -6.4030    1.3257 H   0  0  0  0  0  0  0  0  0  0  0  0
    4.1265   -5.6609   -0.7202 H   0  0  0  0  0  0  0  0  0  0  0  0
    3.4919   -2.0890   -0.5430 H   0  0  0  0  0  0  0  0  0  0  0  0
    2.1312   -2.1174    0.9216 H   0  0  0  0  0  0  0  0  0  0  0  0
    2.4540   -3.8163   -1.1196 H   0  0  0  0  0  0  0  0  0  0  0  0
    1.9901   -5.9475   -0.2359 H   0  0  0  0  0  0  0  0  0  0  0  0
  1  2  1  0
  1 19  1  0
  1 20  1  0
  1 21  1  0
  2  3  1  0
  2 22  1  0
  2 23  1  0
  3  4  1  0
  3 24  1  0
  3 25  1  0
  4  5  1  0
  5  6  1  0
  5 26  1  0
  5 27  1  0
  6 18  1  0
  6  7  1  0
  6 28  1  6
  7 13  1  0
  7  8  1  0
  7 29  1  1
  8 16  1  0
  8  9  1  0
  8 30  1  1
  9 10  1  0
  9 31  1  0
  9 32  1  0
 10 15  1  0
 10 11  1  0
 10 33  1  1
 11 17  1  0
 11 12  1  0
 11 34  1  6
 12 13  1  0
 12 35  1  0
 12 36  1  0
 13 14  1  0
 13 37  1  1
 14 18  1  0
 14 15  1  0
 14 38  1  6
 15 16  1  0
 15 39  1  6
 16 17  1  0
 16 40  1  1
 17 18  1  0
 17 41  1  6
 18 42  1  6
M  END
>  <i_m_ct_stereo_status>  (134) 
1

>  <s_m_source_file>  (134) 
/var/tmp/pbs.5076255.sched01/tmpr0mrskr5/46emy42_dx.sdf

>  <i_m_source_file_index>  (134) 
13

>  <i_lp_mmshare_version>  (134) 
48012

>  <i_f3d_flags>  (134) 
0

>  <s_epik_input>  (134) 
W0NIM11bQ0gyXVtDSDJdT1tDSDJdW0NASF0xW0NASF0oW0NAQEhdMltDQEhdM1tDSDJdNClbQ0BASF01W0NASF00W0NASF0oW0NIMl02KVtDQEBIXTJbQ0hdNVtDQEBIXTZbQ0BASF0xMw==

>  <s_epik_cmdline>  (134) 
J2VwaWtfcHl0aG9uJywgJy1waHQnLCAnMi4wJywgJy1waCcsICc3LjAnLCAnLXRuJywgJzgnLCAnLW1hJywgJzIwMCcsICctaW1hZScsICc8aW5maWxlLm1hZT4nLCAnLW9tYWUnLCAnPG91dGZpbGUubWFlPic=

>  <r_lp_tautomer_probability>  (134) 
1

>  <r_epik_Ionization_Penalty>  (134) 
4.71504e-11

>  <r_epik_Ionization_Penalty_Charging>  (134) 
0

>  <r_epik_Ionization_Penalty_Neutral>  (134) 
4.71504e-11

>  <r_epik_State_Penalty>  (134) 
-0

>  <r_epik_Charging_Adjusted_Penalty>  (134) 
0

>  <i_epik_Tot_Q>  (134) 
0

>  <i_epik_Tot_abs_Q>  (134) 
0

>  <s_lp_Force_Field>  (134) 
OPLS3e

>  <r_lp_Energy>  (134) 
627.101

>  <b_lp_Chiralities_Consistent>  (134) 
1

>  <s_lp_Variant>  (134) 
38:0-1

>  <s_i_glide_gridfile>  (134) 
pfpi4k_grid

>  <i_i_glide_lignum>  (134) 
13

>  <i_i_glide_rotatable_bonds>  (134) 
4

>  <r_i_docking_score>  (134) 
-2.94106

>  <r_i_glide_ligand_efficiency>  (134) 
-0.163392

>  <r_i_glide_ligand_efficiency_sa>  (134) 
-0.428209

>  <r_i_glide_ligand_efficiency_ln>  (134) 
-0.755985

>  <r_i_glide_gscore>  (134) 
-2.94106

>  <r_i_glide_lipo>  (134) 
-0.3641

>  <r_i_glide_hbond>  (134) 
-0.207541

>  <r_i_glide_metal>  (134) 
-0

>  <r_i_glide_rewards>  (134) 
-1.74292

>  <r_i_glide_evdw>  (134) 
-14.6208

>  <r_i_glide_ecoul>  (134) 
-3.18482

>  <r_i_glide_erotb>  (134) 
0.58226

>  <r_i_glide_esite>  (134) 
0

>  <r_i_glide_emodel>  (134) 
-20.9247

>  <r_i_glide_energy>  (134) 
-17.8056

>  <r_i_glide_einternal>  (134) 
0.970162

>  <r_i_glide_intrahb_reward>  (134) 
-0

>  <i_i_glide_confnum>  (134) 
4

>  <i_i_glide_posenum>  (134) 
28

>  <r_i_glide_eff_state_penalty>  (134) 
0

>  <ligand_id>  (134) 
38

>  <original_smiles>  (134) 
CCCOCC1C2C3CC4C5CC2C2C4C3C5C12

>  <smiles>  (134) 
[H]C([H])([H])C([H])([H])C([H])([H])OC([H])([H])C1([H])C2([H])C3([H])C([H])([H])C4([H])C5([H])C([H])([H])C2([H])C2([H])C4([H])C1([H])C3([H])C52[H]

$$$$
38:0:1
     RDKit          3D

 42 47  0  0  1  0  0  0  0  0999 V2000
   -1.6036   -8.9926    2.2300 C   0  0  0  0  0  0  0  0  0  0  0  0
   -1.5142   -8.0375    3.4351 C   0  0  0  0  0  0  0  0  0  0  0  0
   -0.1374   -7.3768    3.5282 C   0  0  0  0  0  0  0  0  0  0  0  0
    0.0635   -6.4692    2.4379 O   0  0  0  0  0  0  0  0  0  0  0  0
    1.4269   -6.0727    2.2673 C   0  0  0  0  0  0  0  0  0  0  0  0
    2.2964   -7.1986    1.6295 C   0  0  2  0  0  0  0  0  0  0  0  0
    2.9121   -8.3024    2.5500 C   0  0  2  0  0  0  0  0  0  0  0  0
    3.7377   -7.5067    3.6181 C   0  0  1  0  0  0  0  0  0  0  0  0
    4.7372   -8.4345    4.2848 C   0  0  0  0  0  0  0  0  0  0  0  0
    5.9867   -8.3140    3.4051 C   0  0  2  0  0  0  0  0  0  0  0  0
    6.0680   -8.4916    1.9782 C   0  0  1  0  0  0  0  0  0  0  0  0
    5.0991   -9.7198    1.6923 C   0  0  0  0  0  0  0  0  0  0  0  0
    3.7315   -9.0249    1.4480 C   0  0  2  0  0  0  0  0  0  0  0  0
    4.3377   -7.7782    0.8680 C   0  0  2  0  0  0  0  0  0  0  0  0
    5.5559   -7.2788    2.3983 C   0  0  1  0  0  0  0  0  0  0  0  0
    4.5901   -6.4148    2.8998 C   0  0  1  0  0  0  0  0  0  0  0  0
    5.0311   -6.7972    1.4745 C   0  0  2  0  0  0  0  0  0  0  0  0
    3.5722   -6.6788    0.8679 C   0  0  2  0  0  0  0  0  0  0  0  0
   -2.5850   -9.4600    2.1841 H   0  0  0  0  0  0  0  0  0  0  0  0
   -0.8713   -9.8092    2.2605 H   0  0  0  0  0  0  0  0  0  0  0  0
   -1.4325   -8.4723    1.2852 H   0  0  0  0  0  0  0  0  0  0  0  0
   -2.3084   -7.2917    3.4100 H   0  0  0  0  0  0  0  0  0  0  0  0
   -1.6350   -8.6364    4.3334 H   0  0  0  0  0  0  0  0  0  0  0  0
    0.0164   -6.8459    4.4806 H   0  0  0  0  0  0  0  0  0  0  0  0
    0.5181   -8.2176    3.5223 H   0  0  0  0  0  0  0  0  0  0  0  0
    1.4201   -5.2308    1.5804 H   0  0  0  0  0  0  0  0  0  0  0  0
    1.8312   -5.6528    3.1884 H   0  0  0  0  0  0  0  0  0  0  0  0
    1.6586   -7.6788    0.8831 H   0  0  0  0  0  0  0  0  0  0  0  0
    2.3170   -9.0995    2.9873 H   0  0  0  0  0  0  0  0  0  0  0  0
    3.0854   -7.0650    4.3653 H   0  0  0  0  0  0  0  0  0  0  0  0
    4.9541   -8.0748    5.2917 H   0  0  0  0  0  0  0  0  0  0  0  0
    4.3410   -9.4506    4.3845 H   0  0  0  0  0  0  0  0  0  0  0  0
    6.9089   -8.0602    3.9232 H   0  0  0  0  0  0  0  0  0  0  0  0
    7.0770   -8.6478    1.5631 H   0  0  0  0  0  0  0  0  0  0  0  0
    5.3988  -10.2005    0.7670 H   0  0  0  0  0  0  0  0  0  0  0  0
    5.0753  -10.4948    2.4667 H   0  0  0  0  0  0  0  0  0  0  0  0
    3.0844   -9.5719    0.7693 H   0  0  0  0  0  0  0  0  0  0  0  0
    4.7125   -8.0870   -0.1470 H   0  0  0  0  0  0  0  0  0  0  0  0
    6.5828   -6.5981    2.6084 H   0  0  0  0  0  0  0  0  0  0  0  0
    5.0623   -5.6140    3.4678 H   0  0  0  0  0  0  0  0  0  0  0  0
    5.5825   -5.9623    0.8645 H   0  0  0  0  0  0  0  0  0  0  0  0
    3.4653   -6.2688   -0.1385 H   0  0  0  0  0  0  0  0  0  0  0  0
  1  2  1  0
  1 19  1  0
  1 20  1  0
  1 21  1  0
  2  3  1  0
  2 22  1  0
  2 23  1  0
  3  4  1  0
  3 24  1  0
  3 25  1  0
  4  5  1  0
  5  6  1  0
  5 26  1  0
  5 27  1  0
  6 18  1  0
  6  7  1  0
  6 28  1  6
  7 13  1  0
  7  8  1  0
  7 29  1  1
  8 16  1  0
  8  9  1  0
  8 30  1  1
  9 10  1  0
  9 31  1  0
  9 32  1  0
 10 15  1  0
 10 11  1  0
 10 33  1  1
 11 17  1  0
 11 12  1  0
 11 34  1  6
 12 13  1  0
 12 35  1  0
 12 36  1  0
 13 14  1  0
 13 37  1  6
 14 18  1  0
 14 15  1  0
 14 38  1  6
 15 16  1  0
 15 39  1  6
 16 17  1  0
 16 40  1  1
 17 18  1  0
 17 41  1  6
 18 42  1  6
M  END
>  <i_m_ct_stereo_status>  (135) 
1

>  <s_m_source_file>  (135) 
/var/tmp/pbs.5076255.sched01/tmpr0mrskr5/46emy42_dx.sdf

>  <i_m_source_file_index>  (135) 
13

>  <i_lp_mmshare_version>  (135) 
48012

>  <i_f3d_flags>  (135) 
0

>  <s_epik_input>  (135) 
W0NIM11bQ0gyXVtDSDJdT1tDSDJdW0NASF0xW0NASF0oW0NAQEhdMltDQEhdM1tDSDJdNClbQ0BASF01W0NASF00W0NASF0oW0NIMl02KVtDQEBIXTJbQ0hdNVtDQEBIXTZbQ0BASF0xMw==

>  <s_epik_cmdline>  (135) 
J2VwaWtfcHl0aG9uJywgJy1waHQnLCAnMi4wJywgJy1waCcsICc3LjAnLCAnLXRuJywgJzgnLCAnLW1hJywgJzIwMCcsICctaW1hZScsICc8aW5maWxlLm1hZT4nLCAnLW9tYWUnLCAnPG91dGZpbGUubWFlPic=

>  <r_lp_tautomer_probability>  (135) 
1

>  <r_epik_Ionization_Penalty>  (135) 
4.71504e-11

>  <r_epik_Ionization_Penalty_Charging>  (135) 
0

>  <r_epik_Ionization_Penalty_Neutral>  (135) 
4.71504e-11

>  <r_epik_State_Penalty>  (135) 
-0

>  <r_epik_Charging_Adjusted_Penalty>  (135) 
0

>  <i_epik_Tot_Q>  (135) 
0

>  <i_epik_Tot_abs_Q>  (135) 
0

>  <s_lp_Force_Field>  (135) 
OPLS3e

>  <r_lp_Energy>  (135) 
627.101

>  <b_lp_Chiralities_Consistent>  (135) 
1

>  <s_lp_Variant>  (135) 
38:0-1

>  <s_i_glide_gridfile>  (135) 
pfpi4k_grid

>  <i_i_glide_lignum>  (135) 
13

>  <i_i_glide_rotatable_bonds>  (135) 
4

>  <r_i_docking_score>  (135) 
-2.92464

>  <r_i_glide_ligand_efficiency>  (135) 
-0.16248

>  <r_i_glide_ligand_efficiency_sa>  (135) 
-0.425818

>  <r_i_glide_ligand_efficiency_ln>  (135) 
-0.751764

>  <r_i_glide_gscore>  (135) 
-2.92464

>  <r_i_glide_lipo>  (135) 
-0.473411

>  <r_i_glide_hbond>  (135) 
-0.16

>  <r_i_glide_metal>  (135) 
-0

>  <r_i_glide_rewards>  (135) 
-1.74292

>  <r_i_glide_evdw>  (135) 
-15.9937

>  <r_i_glide_ecoul>  (135) 
-2.2059

>  <r_i_glide_erotb>  (135) 
0.58226

>  <r_i_glide_esite>  (135) 
0

>  <r_i_glide_emodel>  (135) 
-19.9347

>  <r_i_glide_energy>  (135) 
-18.1996

>  <r_i_glide_einternal>  (135) 
2.40121

>  <r_i_glide_intrahb_reward>  (135) 
-0

>  <i_i_glide_confnum>  (135) 
4

>  <i_i_glide_posenum>  (135) 
1

>  <r_i_glide_eff_state_penalty>  (135) 
0

>  <ligand_id>  (135) 
38

>  <original_smiles>  (135) 
CCCOCC1C2C3CC4C5CC2C2C4C3C5C12

>  <smiles>  (135) 
[H]C([H])([H])C([H])([H])C([H])([H])OC([H])([H])C1([H])C2([H])C3([H])C([H])([H])C4([H])C5([H])C([H])([H])C2([H])C2([H])C4([H])C1([H])C3([H])C52[H]

$$$$
38:0:2
     RDKit          3D

 42 47  0  0  1  0  0  0  0  0999 V2000
   -1.0680   -9.6854    2.6892 C   0  0  0  0  0  0  0  0  0  0  0  0
   -1.3541   -8.7016    3.8339 C   0  0  0  0  0  0  0  0  0  0  0  0
   -1.6833   -7.3087    3.2865 C   0  0  0  0  0  0  0  0  0  0  0  0
   -0.6135   -6.6745    2.5763 O   0  0  0  0  0  0  0  0  0  0  0  0
    0.5109   -6.3004    3.3548 C   0  0  0  0  0  0  0  0  0  0  0  0
    1.7040   -6.0310    2.4292 C   0  0  2  0  0  0  0  0  0  0  0  0
    2.0810   -7.1817    1.4693 C   0  0  2  0  0  0  0  0  0  0  0  0
    2.3812   -8.4784    2.3275 C   0  0  1  0  0  0  0  0  0  0  0  0
    3.2566   -9.4541    1.5307 C   0  0  0  0  0  0  0  0  0  0  0  0
    4.6894   -9.0795    1.9358 C   0  0  2  0  0  0  0  0  0  0  0  0
    5.2915   -7.7636    1.8415 C   0  0  1  0  0  0  0  0  0  0  0  0
    4.7090   -7.1942    0.4716 C   0  0  0  0  0  0  0  0  0  0  0  0
    3.3629   -6.4834    0.8932 C   0  0  2  0  0  0  0  0  0  0  0  0
    3.9458   -6.1132    2.2449 C   0  0  2  0  0  0  0  0  0  0  0  0
    4.4449   -7.9546    2.9097 C   0  0  1  0  0  0  0  0  0  0  0  0
    3.2353   -8.0773    3.5543 C   0  0  1  0  0  0  0  0  0  0  0  0
    4.1976   -6.9032    3.3341 C   0  0  2  0  0  0  0  0  0  0  0  0
    3.0449   -5.7979    3.2018 C   0  0  2  0  0  0  0  0  0  0  0  0
   -0.5634  -10.5689    3.0753 H   0  0  0  0  0  0  0  0  0  0  0  0
   -0.3950   -9.2549    1.9315 H   0  0  0  0  0  0  0  0  0  0  0  0
   -1.9753  -10.0004    2.1749 H   0  0  0  0  0  0  0  0  0  0  0  0
   -2.2170   -9.0445    4.3996 H   0  0  0  0  0  0  0  0  0  0  0  0
   -0.5194   -8.6934    4.5566 H   0  0  0  0  0  0  0  0  0  0  0  0
   -2.5162   -7.4319    2.6007 H   0  0  0  0  0  0  0  0  0  0  0  0
   -2.0497   -6.6640    4.0760 H   0  0  0  0  0  0  0  0  0  0  0  0
    0.2461   -5.4098    3.9210 H   0  0  0  0  0  0  0  0  0  0  0  0
    0.8209   -7.0776    4.0700 H   0  0  0  0  0  0  0  0  0  0  0  0
    1.4738   -5.1419    1.8325 H   0  0  0  0  0  0  0  0  0  0  0  0
    1.3458   -7.3870    0.6930 H   0  0  0  0  0  0  0  0  0  0  0  0
    1.4963   -8.9868    2.7457 H   0  0  0  0  0  0  0  0  0  0  0  0
    3.0515  -10.4676    1.8791 H   0  0  0  0  0  0  0  0  0  0  0  0
    3.0644   -9.4495    0.4560 H   0  0  0  0  0  0  0  0  0  0  0  0
    5.3109   -9.8758    2.3365 H   0  0  0  0  0  0  0  0  0  0  0  0
    6.4109   -7.7171    1.8985 H   0  0  0  0  0  0  0  0  0  0  0  0
    5.3878   -6.4179    0.1111 H   0  0  0  0  0  0  0  0  0  0  0  0
    4.6130   -7.9473   -0.3288 H   0  0  0  0  0  0  0  0  0  0  0  0
    3.1433   -5.6036    0.2763 H   0  0  0  0  0  0  0  0  0  0  0  0
    4.7127   -5.2982    2.0649 H   0  0  0  0  0  0  0  0  0  0  0  0
    5.1882   -8.5144    3.7591 H   0  0  0  0  0  0  0  0  0  0  0  0
    3.3316   -8.7805    4.3823 H   0  0  0  0  0  0  0  0  0  0  0  0
    4.7278   -6.5060    4.3011 H   0  0  0  0  0  0  0  0  0  0  0  0
    3.2182   -4.8145    3.6365 H   0  0  0  0  0  0  0  0  0  0  0  0
  1  2  1  0
  1 19  1  0
  1 20  1  0
  1 21  1  0
  2  3  1  0
  2 22  1  0
  2 23  1  0
  3  4  1  0
  3 24  1  0
  3 25  1  0
  4  5  1  0
  5  6  1  0
  5 26  1  0
  5 27  1  0
  6 18  1  0
  6  7  1  0
  6 28  1  6
  7 13  1  0
  7  8  1  0
  7 29  1  6
  8 16  1  0
  8  9  1  0
  8 30  1  1
  9 10  1  0
  9 31  1  0
  9 32  1  0
 10 15  1  0
 10 11  1  0
 10 33  1  1
 11 17  1  0
 11 12  1  0
 11 34  1  1
 12 13  1  0
 12 35  1  0
 12 36  1  0
 13 14  1  0
 13 37  1  6
 14 18  1  0
 14 15  1  0
 14 38  1  6
 15 16  1  0
 15 39  1  1
 16 17  1  0
 16 40  1  1
 17 18  1  0
 17 41  1  1
 18 42  1  1
M  END
>  <i_m_ct_stereo_status>  (136) 
1

>  <s_m_source_file>  (136) 
/var/tmp/pbs.5076255.sched01/tmpr0mrskr5/46emy42_dx.sdf

>  <i_m_source_file_index>  (136) 
13

>  <i_lp_mmshare_version>  (136) 
48012

>  <i_f3d_flags>  (136) 
0

>  <s_epik_input>  (136) 
W0NIM11bQ0gyXVtDSDJdT1tDSDJdW0NASF0xW0NASF0oW0NAQEhdMltDQEhdM1tDSDJdNClbQ0BASF01W0NASF00W0NASF0oW0NIMl02KVtDQEBIXTJbQ0hdNVtDQEBIXTZbQ0BASF0xMw==

>  <s_epik_cmdline>  (136) 
J2VwaWtfcHl0aG9uJywgJy1waHQnLCAnMi4wJywgJy1waCcsICc3LjAnLCAnLXRuJywgJzgnLCAnLW1hJywgJzIwMCcsICctaW1hZScsICc8aW5maWxlLm1hZT4nLCAnLW9tYWUnLCAnPG91dGZpbGUubWFlPic=

>  <r_lp_tautomer_probability>  (136) 
1

>  <r_epik_Ionization_Penalty>  (136) 
4.71504e-11

>  <r_epik_Ionization_Penalty_Charging>  (136) 
0

>  <r_epik_Ionization_Penalty_Neutral>  (136) 
4.71504e-11

>  <r_epik_State_Penalty>  (136) 
-0

>  <r_epik_Charging_Adjusted_Penalty>  (136) 
0

>  <i_epik_Tot_Q>  (136) 
0

>  <i_epik_Tot_abs_Q>  (136) 
0

>  <s_lp_Force_Field>  (136) 
OPLS3e

>  <r_lp_Energy>  (136) 
627.101

>  <b_lp_Chiralities_Consistent>  (136) 
1

>  <s_lp_Variant>  (136) 
38:0-1

>  <s_i_glide_gridfile>  (136) 
pfpi4k_grid

>  <i_i_glide_lignum>  (136) 
13

>  <i_i_glide_rotatable_bonds>  (136) 
4

>  <r_i_docking_score>  (136) 
-2.72082

>  <r_i_glide_ligand_efficiency>  (136) 
-0.151157

>  <r_i_glide_ligand_efficiency_sa>  (136) 
-0.396142

>  <r_i_glide_ligand_efficiency_ln>  (136) 
-0.699373

>  <r_i_glide_gscore>  (136) 
-2.72082

>  <r_i_glide_lipo>  (136) 
-0.223271

>  <r_i_glide_hbond>  (136) 
-0.16

>  <r_i_glide_metal>  (136) 
-0

>  <r_i_glide_rewards>  (136) 
-1.74292

>  <r_i_glide_evdw>  (136) 
-15.4949

>  <r_i_glide_ecoul>  (136) 
-2.68098

>  <r_i_glide_erotb>  (136) 
0.58226

>  <r_i_glide_esite>  (136) 
0

>  <r_i_glide_emodel>  (136) 
-19.7851

>  <r_i_glide_energy>  (136) 
-18.1758

>  <r_i_glide_einternal>  (136) 
2.12201

>  <r_i_glide_intrahb_reward>  (136) 
-0

>  <i_i_glide_confnum>  (136) 
2

>  <i_i_glide_posenum>  (136) 
12

>  <r_i_glide_eff_state_penalty>  (136) 
0

>  <ligand_id>  (136) 
38

>  <original_smiles>  (136) 
CCCOCC1C2C3CC4C5CC2C2C4C3C5C12

>  <smiles>  (136) 
[H]C([H])([H])C([H])([H])C([H])([H])OC([H])([H])C1([H])C2([H])C3([H])C([H])([H])C4([H])C5([H])C([H])([H])C2([H])C2([H])C4([H])C1([H])C3([H])C52[H]

$$$$
40:0:0
     RDKit          3D

 92102  0  0  1  0  0  0  0  0999 V2000
   -1.5788   -7.5834    3.2083 C   0  0  0  0  0  0  0  0  0  0  0  0
   -0.1478   -7.8436    3.6347 C   0  0  0  0  0  0  0  0  0  0  0  0
    0.6004   -8.9439    3.4960 C   0  0  0  0  0  0  0  0  0  0  0  0
    1.9465   -8.7813    4.1778 C   0  0  1  0  0  0  0  0  0  0  0  0
    3.1974   -9.5105    3.6368 C   0  0  1  0  0  0  0  0  0  0  0  0
    3.1697  -10.0280    2.1730 C   0  0  0  0  0  0  0  0  0  0  0  0
    2.6082   -9.1285    1.2620 O   0  0  0  0  0  0  0  0  0  0  0  0
    4.4228   -8.6867    4.0869 C   0  0  1  0  0  0  0  0  0  0  0  0
    5.5508   -8.8394    3.2440 O   0  0  0  0  0  0  0  0  0  0  0  0
    4.1344   -7.1804    4.2249 C   0  0  2  0  0  0  0  0  0  0  0  0
    3.1215   -6.5917    5.2612 C   0  0  1  0  0  0  0  0  0  0  0  0
    3.3164   -5.0436    5.2263 C   0  0  2  0  0  0  0  0  0  0  0  0
    4.5505   -5.1366    5.9786 O   0  0  0  0  0  0  0  0  0  0  0  0
    5.6464   -4.2278    6.0502 C   0  0  0  0  0  0  0  0  0  0  0  0
    5.4171   -2.8093    6.6284 C   0  0  0  0  0  0  0  0  0  0  0  0
    5.2177   -1.7872    5.6471 O   0  0  0  0  0  0  0  0  0  0  0  0
    4.2204   -2.1617    4.7284 C   0  0  2  0  0  0  0  0  0  0  0  0
    3.1524   -1.2153    4.4236 O   0  0  0  0  0  0  0  0  0  0  0  0
    2.9182   -1.9938    5.5586 C   0  0  1  0  0  0  0  0  0  0  0  0
    1.9925   -3.0426    5.4996 O   0  0  0  0  0  0  0  0  0  0  0  0
    2.3231   -4.2113    6.0640 C   0  0  0  0  0  0  0  0  0  0  0  0
    1.9054   -4.5986    7.1505 O   0  0  0  0  0  0  0  0  0  0  0  0
    4.8091   -2.7042    3.4010 C   0  0  2  0  0  0  0  0  0  0  0  0
    5.1108   -1.5594    2.3270 C   0  0  0  0  0  0  0  0  0  0  0  0
    5.8643   -1.8395    0.9354 C   0  0  1  0  0  0  0  0  0  0  0  0
    6.6196   -3.1821    0.9883 C   0  0  2  0  0  0  0  0  0  0  0  0
    8.0170   -3.8037    0.8827 C   0  0  0  0  0  0  0  0  0  0  0  0
    7.9294   -5.1492    1.7530 C   0  0  0  0  0  0  0  0  0  0  0  0
    6.5616   -5.3631    2.5007 C   0  0  0  0  0  0  0  0  0  0  0  0
    5.4028   -4.8169    2.0123 C   0  0  0  0  0  0  0  0  0  0  0  0
    5.6343   -4.2581    0.6196 C   0  0  1  0  0  0  0  0  0  0  0  0
    4.6469   -3.5930   -0.3981 C   0  0  2  0  0  0  0  0  0  0  0  0
    3.1789   -4.0915   -0.3681 C   0  0  0  0  0  0  0  0  0  0  0  0
    5.1652   -3.9115   -1.8359 C   0  0  0  0  0  0  0  0  0  0  0  0
    5.1432   -2.6229   -2.6291 C   0  0  0  0  0  0  0  0  0  0  0  0
    5.6159   -1.6379   -1.5796 C   0  0  0  0  0  0  0  0  0  0  0  0
    4.8908   -2.0429   -0.2727 C   0  0  2  0  0  0  0  0  0  0  0  0
    3.5941   -1.1996   -0.2246 C   0  0  0  0  0  0  0  0  0  0  0  0
    4.3300   -4.1015    2.8720 C   0  0  1  0  0  0  0  0  0  0  0  0
    3.1903   -4.9016    3.6436 C   0  0  2  0  0  0  0  0  0  0  0  0
    1.8631   -4.2549    3.0760 C   0  0  0  0  0  0  0  0  0  0  0  0
    3.0996   -6.4234    3.3638 C   0  0  1  0  0  0  0  0  0  0  0  0
    3.0759   -6.6383    1.9746 O   0  0  0  0  0  0  0  0  0  0  0  0
    2.0942   -7.2282    4.2865 C   0  0  1  0  0  0  0  0  0  0  0  0
    0.6195   -6.8487    4.3757 C   0  0  0  0  0  0  0  0  0  0  0  0
    0.0677   -5.9842    5.0538 O   0  0  0  0  0  0  0  0  0  0  0  0
   -1.6116   -6.9166    2.3496 H   0  0  0  0  0  0  0  0  0  0  0  0
   -2.1308   -7.1112    4.0228 H   0  0  0  0  0  0  0  0  0  0  0  0
   -2.0886   -8.5102    2.9517 H   0  0  0  0  0  0  0  0  0  0  0  0
    0.2828   -9.8678    3.0340 H   0  0  0  0  0  0  0  0  0  0  0  0
    1.7989   -9.1749    5.1861 H   0  0  0  0  0  0  0  0  0  0  0  0
    3.2727  -10.4405    4.2003 H   0  0  0  0  0  0  0  0  0  0  0  0
    4.1689  -10.2842    1.8165 H   0  0  0  0  0  0  0  0  0  0  0  0
    2.6102  -10.9611    2.1236 H   0  0  0  0  0  0  0  0  0  0  0  0
    1.6669   -9.2186    1.2664 H   0  0  0  0  0  0  0  0  0  0  0  0
    4.7302   -9.0593    5.0674 H   0  0  0  0  0  0  0  0  0  0  0  0
    5.7488   -9.7574    3.1519 H   0  0  0  0  0  0  0  0  0  0  0  0
    5.0799   -6.6565    4.3035 H   0  0  0  0  0  0  0  0  0  0  0  0
    3.1535   -7.0726    6.2445 H   0  0  0  0  0  0  0  0  0  0  0  0
    6.2952   -4.7204    6.7739 H   0  0  0  0  0  0  0  0  0  0  0  0
    6.2455   -4.2605    5.1515 H   0  0  0  0  0  0  0  0  0  0  0  0
    4.6207   -2.8197    7.3727 H   0  0  0  0  0  0  0  0  0  0  0  0
    6.3165   -2.5082    7.1637 H   0  0  0  0  0  0  0  0  0  0  0  0
    2.8934   -1.4317    6.4878 H   0  0  0  0  0  0  0  0  0  0  0  0
    5.8143   -2.9172    3.7338 H   0  0  0  0  0  0  0  0  0  0  0  0
    4.2135   -0.9654    2.1746 H   0  0  0  0  0  0  0  0  0  0  0  0
    5.7542   -0.8507    2.8483 H   0  0  0  0  0  0  0  0  0  0  0  0
    6.5469   -1.0114    0.7410 H   0  0  0  0  0  0  0  0  0  0  0  0
    6.8472   -3.0285    2.0315 H   0  0  0  0  0  0  0  0  0  0  0  0
    8.2508   -4.0316   -0.1595 H   0  0  0  0  0  0  0  0  0  0  0  0
    8.8082   -3.1446    1.2460 H   0  0  0  0  0  0  0  0  0  0  0  0
    8.1342   -6.0254    1.1341 H   0  0  0  0  0  0  0  0  0  0  0  0
    8.7214   -5.1276    2.5042 H   0  0  0  0  0  0  0  0  0  0  0  0
    6.6725   -5.6233    3.5368 H   0  0  0  0  0  0  0  0  0  0  0  0
    6.0818   -5.1003    0.0871 H   0  0  0  0  0  0  0  0  0  0  0  0
    2.6630   -3.8411   -1.2954 H   0  0  0  0  0  0  0  0  0  0  0  0
    2.5666   -3.6557    0.4126 H   0  0  0  0  0  0  0  0  0  0  0  0
    3.1418   -5.1764   -0.2654 H   0  0  0  0  0  0  0  0  0  0  0  0
    6.2046   -4.2356   -1.8165 H   0  0  0  0  0  0  0  0  0  0  0  0
    4.6106   -4.6885   -2.3451 H   0  0  0  0  0  0  0  0  0  0  0  0
    5.7959   -2.6635   -3.5013 H   0  0  0  0  0  0  0  0  0  0  0  0
    4.1322   -2.3903   -2.9658 H   0  0  0  0  0  0  0  0  0  0  0  0
    6.6923   -1.7718   -1.4716 H   0  0  0  0  0  0  0  0  0  0  0  0
    5.4294   -0.6046   -1.8785 H   0  0  0  0  0  0  0  0  0  0  0  0
    3.0278   -1.2760   -1.1542 H   0  0  0  0  0  0  0  0  0  0  0  0
    3.8356   -0.1494   -0.0712 H   0  0  0  0  0  0  0  0  0  0  0  0
    2.9121   -1.4942    0.5711 H   0  0  0  0  0  0  0  0  0  0  0  0
    3.7807   -3.7279    2.0351 H   0  0  0  0  0  0  0  0  0  0  0  0
    1.5849   -4.6774    2.1153 H   0  0  0  0  0  0  0  0  0  0  0  0
    1.9568   -3.1788    2.9216 H   0  0  0  0  0  0  0  0  0  0  0  0
    0.9775   -4.3427    3.6869 H   0  0  0  0  0  0  0  0  0  0  0  0
    3.0737   -7.5843    1.8314 H   0  0  0  0  0  0  0  0  0  0  0  0
  1  2  1  0
  1 47  1  0
  1 48  1  0
  1 49  1  0
  2 45  1  0
  2  3  2  0
  3  4  1  0
  3 50  1  0
  4 44  1  0
  4  5  1  0
  4 51  1  1
  5  6  1  0
  5  8  1  0
  5 52  1  1
  6  7  1  0
  6 53  1  0
  6 54  1  0
  7 55  1  0
  8  9  1  0
  8 10  1  0
  8 56  1  1
  9 57  1  0
 10 42  1  0
 10 11  1  0
 10 58  1  1
 11 44  1  0
 11 12  1  0
 11 59  1  1
 12 21  1  0
 12 40  1  0
 12 13  1  1
 13 14  1  0
 14 15  1  0
 14 60  1  0
 14 61  1  0
 15 16  1  0
 15 62  1  0
 15 63  1  0
 16 17  1  0
 17 19  1  0
 17 18  1  6
 17 23  1  0
 18 19  1  0
 19 20  1  0
 19 64  1  1
 20 21  1  0
 21 22  2  0
 23 39  1  0
 23 24  1  0
 23 65  1  1
 24 25  1  0
 24 66  1  0
 24 67  1  0
 25 37  1  0
 25 26  1  0
 25 68  1  6
 26 31  1  0
 26 27  1  0
 26 69  1  1
 27 28  1  0
 27 70  1  0
 27 71  1  0
 28 29  1  0
 28 72  1  0
 28 73  1  0
 29 30  2  0
 29 74  1  0
 30 31  1  0
 30 39  1  0
 31 32  1  0
 31 75  1  6
 32 37  1  0
 32 33  1  6
 32 34  1  0
 33 76  1  0
 33 77  1  0
 33 78  1  0
 34 35  1  0
 34 79  1  0
 34 80  1  0
 35 36  1  0
 35 81  1  0
 35 82  1  0
 36 37  1  0
 36 83  1  0
 36 84  1  0
 37 38  1  1
 38 85  1  0
 38 86  1  0
 38 87  1  0
 39 40  1  0
 39 88  1  6
 40 41  1  1
 40 42  1  0
 41 89  1  0
 41 90  1  0
 41 91  1  0
 42 43  1  6
 42 44  1  0
 43 92  1  0
 44 45  1  1
 45 46  2  0
M  END
>  <i_m_ct_stereo_status>  (137) 
1

>  <s_m_source_file>  (137) 
/var/tmp/pbs.5076255.sched01/tmpr0mrskr5/46emy42_dx.sdf

>  <i_m_source_file_index>  (137) 
15

>  <i_lp_mmshare_version>  (137) 
48012

>  <i_f3d_flags>  (137) 
2

>  <s_epik_input>  (137) 
Tz1DMUMoW0NIM10pPVtDSF1bQ0BIXShbQ0BdMTJbQ0BASF0zW0NAXTQ1NilbQ0BASF0oW0NIMl1bT0hdKVtDQEBIXShbT0hdKVtDQEhdM1tDQF0yKFtPSF0pW0NAXTYoW0NIM10pW0NASF03W0NASF0oW0NAXTgoT1tDSDJdW0NIMl1PNClbQ0BASF0oTzgpT0M1PU8pW0NIMl1bQ0BASF05W0NASF0xW0NAQEhdKEM3PVtDSF1bQ0gyXVtDSDJdMSlbQ0BAXTEoW0NIM10pW0NAQF05KFtDSDNdKVtDSDJdW0NIMl1bQ0gyXTE=

>  <s_epik_cmdline>  (137) 
J2VwaWtfcHl0aG9uJywgJy1waHQnLCAnMi4wJywgJy1waCcsICc3LjAnLCAnLXRuJywgJzgnLCAnLW1hJywgJzIwMCcsICctaW1hZScsICc8aW5maWxlLm1hZT4nLCAnLW9tYWUnLCAnPG91dGZpbGUubWFlPic=

>  <r_lp_tautomer_probability>  (137) 
1

>  <r_epik_Ionization_Penalty>  (137) 
4.51119e-07

>  <r_epik_Ionization_Penalty_Charging>  (137) 
0

>  <r_epik_Ionization_Penalty_Neutral>  (137) 
4.51119e-07

>  <r_epik_State_Penalty>  (137) 
-0

>  <r_epik_Charging_Adjusted_Penalty>  (137) 
0

>  <i_epik_Tot_Q>  (137) 
0

>  <i_epik_Tot_abs_Q>  (137) 
0

>  <s_epik_Chemistry_Notes>  (137) 
This compound has an ester and may undergo hydrolysis at high or low pH. This compound contains an acetal/aminal-like group ( X-CH(R)-Y where X, Y are N, S, or O) that may be acid/base labile, releasing an aldehyde.

>  <s_lp_Force_Field>  (137) 
OPLS3e

>  <r_lp_Energy>  (137) 
276.723

>  <b_lp_Chiralities_Consistent>  (137) 
0

>  <s_lp_Variant>  (137) 
40:0-1

>  <s_i_glide_gridfile>  (137) 
pfpi4k_grid

>  <i_i_glide_lignum>  (137) 
15

>  <i_i_glide_rotatable_bonds>  (137) 
4

>  <r_i_docking_score>  (137) 
-3.37597

>  <r_i_glide_ligand_efficiency>  (137) 
-0.0733906

>  <r_i_glide_ligand_efficiency_sa>  (137) 
-0.262962

>  <r_i_glide_ligand_efficiency_ln>  (137) 
-0.699155

>  <r_i_glide_gscore>  (137) 
-3.37597

>  <r_i_glide_lipo>  (137) 
-0.911262

>  <r_i_glide_hbond>  (137) 
0

>  <r_i_glide_metal>  (137) 
-0

>  <r_i_glide_rewards>  (137) 
-0.506044

>  <r_i_glide_evdw>  (137) 
-31.1694

>  <r_i_glide_ecoul>  (137) 
-2.90177

>  <r_i_glide_erotb>  (137) 
0.0525311

>  <r_i_glide_esite>  (137) 
-0.0174554

>  <r_i_glide_emodel>  (137) 
-43.2353

>  <r_i_glide_energy>  (137) 
-34.0712

>  <r_i_glide_einternal>  (137) 
2.58607

>  <r_i_glide_intrahb_reward>  (137) 
-0.5

>  <i_i_glide_confnum>  (137) 
2

>  <i_i_glide_posenum>  (137) 
13

>  <r_i_glide_eff_state_penalty>  (137) 
0

>  <ligand_id>  (137) 
40

>  <original_smiles>  (137) 
CC1=CC2C(CO)C(O)C3C4C56OCCOC7(OC7OC5=O)C5CC7C8CCC=C(C8C8(C)CCCC78C)C5C6(C)C3(O)C24C1=O

>  <smiles>  (137) 
[H]OC([H])([H])C1([H])C([H])(O[H])C2([H])C3([H])C45OC([H])([H])C([H])([H])OC6(OC6([H])OC4=O)C4([H])C([H])([H])C6([H])C7([H])C([H])([H])C([H])([H])C([H])=C(C4([H])C5(C([H])([H])[H])C2(O[H])C32C(=O)C(C([H])([H])[H])=C([H])C12[H])C7([H])C1(C([H])([H])[H])C([H])([H])C([H])([H])C([H])([H])C61C([H])([H])[H]

$$$$
40:0:1
     RDKit          3D

 92102  0  0  1  0  0  0  0  0999 V2000
   -1.5878   -7.5732    3.2091 C   0  0  0  0  0  0  0  0  0  0  0  0
   -0.1594   -7.8331    3.6379 C   0  0  0  0  0  0  0  0  0  0  0  0
    0.5899   -8.9374    3.4996 C   0  0  0  0  0  0  0  0  0  0  0  0
    1.9361   -8.7731    4.1817 C   0  0  1  0  0  0  0  0  0  0  0  0
    3.1875   -9.5060    3.6443 C   0  0  1  0  0  0  0  0  0  0  0  0
    3.1596  -10.0305    2.1861 C   0  0  0  0  0  0  0  0  0  0  0  0
    2.6185   -9.1159    1.2719 O   0  0  0  0  0  0  0  0  0  0  0  0
    4.4141   -8.6780    4.0868 C   0  0  1  0  0  0  0  0  0  0  0  0
    5.5437   -8.8532    3.2535 O   0  0  0  0  0  0  0  0  0  0  0  0
    4.1258   -7.1705    4.2270 C   0  0  2  0  0  0  0  0  0  0  0  0
    3.1111   -6.5816    5.2609 C   0  0  1  0  0  0  0  0  0  0  0  0
    3.3058   -5.0332    5.2274 C   0  0  2  0  0  0  0  0  0  0  0  0
    4.5384   -5.1263    5.9794 O   0  0  0  0  0  0  0  0  0  0  0  0
    5.6347   -4.2173    6.0513 C   0  0  0  0  0  0  0  0  0  0  0  0
    5.4064   -2.7971    6.6266 C   0  0  0  0  0  0  0  0  0  0  0  0
    5.2075   -1.7766    5.6445 O   0  0  0  0  0  0  0  0  0  0  0  0
    4.2131   -2.1556    4.7251 C   0  0  2  0  0  0  0  0  0  0  0  0
    3.1442   -1.2107    4.4171 O   0  0  0  0  0  0  0  0  0  0  0  0
    2.9087   -1.9854    5.5557 C   0  0  1  0  0  0  0  0  0  0  0  0
    1.9844   -3.0314    5.4945 O   0  0  0  0  0  0  0  0  0  0  0  0
    2.3095   -4.1998    6.0562 C   0  0  0  0  0  0  0  0  0  0  0  0
    1.8879   -4.5857    7.1484 O   0  0  0  0  0  0  0  0  0  0  0  0
    4.8052   -2.7007    3.4004 C   0  0  2  0  0  0  0  0  0  0  0  0
    5.1051   -1.5566    2.3239 C   0  0  0  0  0  0  0  0  0  0  0  0
    5.8611   -1.8402    0.9338 C   0  0  1  0  0  0  0  0  0  0  0  0
    6.6172   -3.1831    0.9903 C   0  0  2  0  0  0  0  0  0  0  0  0
    8.0127   -3.8046    0.8882 C   0  0  0  0  0  0  0  0  0  0  0  0
    7.9236   -5.1489    1.7613 C   0  0  0  0  0  0  0  0  0  0  0  0
    6.5518   -5.3609    2.5061 C   0  0  0  0  0  0  0  0  0  0  0  0
    5.3972   -4.8141    2.0161 C   0  0  0  0  0  0  0  0  0  0  0  0
    5.6302   -4.2582    0.6224 C   0  0  1  0  0  0  0  0  0  0  0  0
    4.6440   -3.5921   -0.3947 C   0  0  2  0  0  0  0  0  0  0  0  0
    3.1760   -4.0909   -0.3695 C   0  0  0  0  0  0  0  0  0  0  0  0
    5.1668   -3.9103   -1.8314 C   0  0  0  0  0  0  0  0  0  0  0  0
    5.1466   -2.6252   -2.6297 C   0  0  0  0  0  0  0  0  0  0  0  0
    5.6170   -1.6417   -1.5812 C   0  0  0  0  0  0  0  0  0  0  0  0
    4.8886   -2.0435   -0.2753 C   0  0  2  0  0  0  0  0  0  0  0  0
    3.5934   -1.1993   -0.2291 C   0  0  0  0  0  0  0  0  0  0  0  0
    4.3216   -4.0972    2.8708 C   0  0  1  0  0  0  0  0  0  0  0  0
    3.1827   -4.8923    3.6440 C   0  0  2  0  0  0  0  0  0  0  0  0
    1.8556   -4.2489    3.0731 C   0  0  0  0  0  0  0  0  0  0  0  0
    3.0943   -6.4153    3.3656 C   0  0  1  0  0  0  0  0  0  0  0  0
    3.0838   -6.6285    1.9786 O   0  0  0  0  0  0  0  0  0  0  0  0
    2.0855   -7.2203    4.2864 C   0  0  1  0  0  0  0  0  0  0  0  0
    0.6112   -6.8407    4.3756 C   0  0  0  0  0  0  0  0  0  0  0  0
    0.0557   -5.9751    5.0526 O   0  0  0  0  0  0  0  0  0  0  0  0
   -1.6193   -6.9084    2.3476 H   0  0  0  0  0  0  0  0  0  0  0  0
   -2.1405   -7.0977    4.0199 H   0  0  0  0  0  0  0  0  0  0  0  0
   -2.0997   -8.5000    2.9535 H   0  0  0  0  0  0  0  0  0  0  0  0
    0.2713   -9.8592    3.0378 H   0  0  0  0  0  0  0  0  0  0  0  0
    1.7857   -9.1636    5.1924 H   0  0  0  0  0  0  0  0  0  0  0  0
    3.2643  -10.4324    4.2128 H   0  0  0  0  0  0  0  0  0  0  0  0
    4.1553  -10.3048    1.8401 H   0  0  0  0  0  0  0  0  0  0  0  0
    2.5849  -10.9523    2.1317 H   0  0  0  0  0  0  0  0  0  0  0  0
    1.6770   -9.2106    1.2568 H   0  0  0  0  0  0  0  0  0  0  0  0
    4.7213   -9.0465    5.0680 H   0  0  0  0  0  0  0  0  0  0  0  0
    5.3191   -8.5827    2.3763 H   0  0  0  0  0  0  0  0  0  0  0  0
    5.0697   -6.6483    4.3098 H   0  0  0  0  0  0  0  0  0  0  0  0
    3.1415   -7.0617    6.2446 H   0  0  0  0  0  0  0  0  0  0  0  0
    6.2791   -4.7096    6.7782 H   0  0  0  0  0  0  0  0  0  0  0  0
    6.2371   -4.2536    5.1547 H   0  0  0  0  0  0  0  0  0  0  0  0
    4.6099   -2.8059    7.3720 H   0  0  0  0  0  0  0  0  0  0  0  0
    6.3058   -2.4967    7.1599 H   0  0  0  0  0  0  0  0  0  0  0  0
    2.8845   -1.4200    6.4836 H   0  0  0  0  0  0  0  0  0  0  0  0
    5.8128   -2.9128    3.7334 H   0  0  0  0  0  0  0  0  0  0  0  0
    4.2083   -0.9622    2.1700 H   0  0  0  0  0  0  0  0  0  0  0  0
    5.7492   -0.8463    2.8449 H   0  0  0  0  0  0  0  0  0  0  0  0
    6.5447   -1.0109    0.7404 H   0  0  0  0  0  0  0  0  0  0  0  0
    6.8403   -3.0282    2.0334 H   0  0  0  0  0  0  0  0  0  0  0  0
    8.2488   -4.0350   -0.1514 H   0  0  0  0  0  0  0  0  0  0  0  0
    8.8044   -3.1460    1.2503 H   0  0  0  0  0  0  0  0  0  0  0  0
    8.1306   -6.0254    1.1444 H   0  0  0  0  0  0  0  0  0  0  0  0
    8.7121   -5.1246    2.5135 H   0  0  0  0  0  0  0  0  0  0  0  0
    6.6638   -5.6195    3.5442 H   0  0  0  0  0  0  0  0  0  0  0  0
    6.0796   -5.1010    0.0915 H   0  0  0  0  0  0  0  0  0  0  0  0
    2.6630   -3.8419   -1.2981 H   0  0  0  0  0  0  0  0  0  0  0  0
    2.5625   -3.6521    0.4080 H   0  0  0  0  0  0  0  0  0  0  0  0
    3.1382   -5.1750   -0.2640 H   0  0  0  0  0  0  0  0  0  0  0  0
    6.2037   -4.2414   -1.8129 H   0  0  0  0  0  0  0  0  0  0  0  0
    4.6161   -4.6943   -2.3439 H   0  0  0  0  0  0  0  0  0  0  0  0
    5.8011   -2.6711   -3.4995 H   0  0  0  0  0  0  0  0  0  0  0  0
    4.1363   -2.3965   -2.9701 H   0  0  0  0  0  0  0  0  0  0  0  0
    6.6934   -1.7751   -1.4706 H   0  0  0  0  0  0  0  0  0  0  0  0
    5.4307   -0.6105   -1.8822 H   0  0  0  0  0  0  0  0  0  0  0  0
    3.0282   -1.2761   -1.1592 H   0  0  0  0  0  0  0  0  0  0  0  0
    3.8362   -0.1508   -0.0759 H   0  0  0  0  0  0  0  0  0  0  0  0
    2.9105   -1.4919    0.5650 H   0  0  0  0  0  0  0  0  0  0  0  0
    3.7729   -3.7249    2.0329 H   0  0  0  0  0  0  0  0  0  0  0  0
    1.5788   -4.6750    2.1133 H   0  0  0  0  0  0  0  0  0  0  0  0
    1.9496   -3.1728    2.9156 H   0  0  0  0  0  0  0  0  0  0  0  0
    0.9695   -4.3353    3.6829 H   0  0  0  0  0  0  0  0  0  0  0  0
    3.0247   -7.5718    1.8330 H   0  0  0  0  0  0  0  0  0  0  0  0
  1  2  1  0
  1 47  1  0
  1 48  1  0
  1 49  1  0
  2 45  1  0
  2  3  2  0
  3  4  1  0
  3 50  1  0
  4 44  1  0
  4  5  1  0
  4 51  1  1
  5  6  1  0
  5  8  1  0
  5 52  1  1
  6  7  1  0
  6 53  1  0
  6 54  1  0
  7 55  1  0
  8  9  1  0
  8 10  1  0
  8 56  1  1
  9 57  1  0
 10 42  1  0
 10 11  1  0
 10 58  1  1
 11 44  1  0
 11 12  1  0
 11 59  1  1
 12 21  1  0
 12 40  1  0
 12 13  1  1
 13 14  1  0
 14 15  1  0
 14 60  1  0
 14 61  1  0
 15 16  1  0
 15 62  1  0
 15 63  1  0
 16 17  1  0
 17 19  1  0
 17 18  1  6
 17 23  1  0
 18 19  1  0
 19 20  1  0
 19 64  1  1
 20 21  1  0
 21 22  2  0
 23 39  1  0
 23 24  1  0
 23 65  1  1
 24 25  1  0
 24 66  1  0
 24 67  1  0
 25 37  1  0
 25 26  1  0
 25 68  1  6
 26 31  1  0
 26 27  1  0
 26 69  1  1
 27 28  1  0
 27 70  1  0
 27 71  1  0
 28 29  1  0
 28 72  1  0
 28 73  1  0
 29 30  2  0
 29 74  1  0
 30 31  1  0
 30 39  1  0
 31 32  1  0
 31 75  1  6
 32 37  1  0
 32 33  1  6
 32 34  1  0
 33 76  1  0
 33 77  1  0
 33 78  1  0
 34 35  1  0
 34 79  1  0
 34 80  1  0
 35 36  1  0
 35 81  1  0
 35 82  1  0
 36 37  1  0
 36 83  1  0
 36 84  1  0
 37 38  1  1
 38 85  1  0
 38 86  1  0
 38 87  1  0
 39 40  1  0
 39 88  1  6
 40 41  1  1
 40 42  1  0
 41 89  1  0
 41 90  1  0
 41 91  1  0
 42 43  1  6
 42 44  1  0
 43 92  1  0
 44 45  1  1
 45 46  2  0
M  END
>  <i_m_ct_stereo_status>  (138) 
1

>  <s_m_source_file>  (138) 
/var/tmp/pbs.5076255.sched01/tmpr0mrskr5/46emy42_dx.sdf

>  <i_m_source_file_index>  (138) 
15

>  <i_lp_mmshare_version>  (138) 
48012

>  <i_f3d_flags>  (138) 
2

>  <s_epik_input>  (138) 
Tz1DMUMoW0NIM10pPVtDSF1bQ0BIXShbQ0BdMTJbQ0BASF0zW0NAXTQ1NilbQ0BASF0oW0NIMl1bT0hdKVtDQEBIXShbT0hdKVtDQEhdM1tDQF0yKFtPSF0pW0NAXTYoW0NIM10pW0NASF03W0NASF0oW0NAXTgoT1tDSDJdW0NIMl1PNClbQ0BASF0oTzgpT0M1PU8pW0NIMl1bQ0BASF05W0NASF0xW0NAQEhdKEM3PVtDSF1bQ0gyXVtDSDJdMSlbQ0BAXTEoW0NIM10pW0NAQF05KFtDSDNdKVtDSDJdW0NIMl1bQ0gyXTE=

>  <s_epik_cmdline>  (138) 
J2VwaWtfcHl0aG9uJywgJy1waHQnLCAnMi4wJywgJy1waCcsICc3LjAnLCAnLXRuJywgJzgnLCAnLW1hJywgJzIwMCcsICctaW1hZScsICc8aW5maWxlLm1hZT4nLCAnLW9tYWUnLCAnPG91dGZpbGUubWFlPic=

>  <r_lp_tautomer_probability>  (138) 
1

>  <r_epik_Ionization_Penalty>  (138) 
4.51119e-07

>  <r_epik_Ionization_Penalty_Charging>  (138) 
0

>  <r_epik_Ionization_Penalty_Neutral>  (138) 
4.51119e-07

>  <r_epik_State_Penalty>  (138) 
-0

>  <r_epik_Charging_Adjusted_Penalty>  (138) 
0

>  <i_epik_Tot_Q>  (138) 
0

>  <i_epik_Tot_abs_Q>  (138) 
0

>  <s_epik_Chemistry_Notes>  (138) 
This compound has an ester and may undergo hydrolysis at high or low pH. This compound contains an acetal/aminal-like group ( X-CH(R)-Y where X, Y are N, S, or O) that may be acid/base labile, releasing an aldehyde.

>  <s_lp_Force_Field>  (138) 
OPLS3e

>  <r_lp_Energy>  (138) 
276.723

>  <b_lp_Chiralities_Consistent>  (138) 
0

>  <s_lp_Variant>  (138) 
40:0-1

>  <s_i_glide_gridfile>  (138) 
pfpi4k_grid

>  <i_i_glide_lignum>  (138) 
15

>  <i_i_glide_rotatable_bonds>  (138) 
4

>  <r_i_docking_score>  (138) 
-3.34628

>  <r_i_glide_ligand_efficiency>  (138) 
-0.0727453

>  <r_i_glide_ligand_efficiency_sa>  (138) 
-0.26065

>  <r_i_glide_ligand_efficiency_ln>  (138) 
-0.693007

>  <r_i_glide_gscore>  (138) 
-3.34628

>  <r_i_glide_lipo>  (138) 
-0.906685

>  <r_i_glide_hbond>  (138) 
0

>  <r_i_glide_metal>  (138) 
-0

>  <r_i_glide_rewards>  (138) 
-0.505635

>  <r_i_glide_evdw>  (138) 
-31.214

>  <r_i_glide_ecoul>  (138) 
-2.72131

>  <r_i_glide_erotb>  (138) 
0.0525311

>  <r_i_glide_esite>  (138) 
-0.0175979

>  <r_i_glide_emodel>  (138) 
-43.3137

>  <r_i_glide_energy>  (138) 
-33.9353

>  <r_i_glide_einternal>  (138) 
2.19456

>  <r_i_glide_intrahb_reward>  (138) 
-0.5

>  <i_i_glide_confnum>  (138) 
5

>  <i_i_glide_posenum>  (138) 
18

>  <r_i_glide_eff_state_penalty>  (138) 
0

>  <ligand_id>  (138) 
40

>  <original_smiles>  (138) 
CC1=CC2C(CO)C(O)C3C4C56OCCOC7(OC7OC5=O)C5CC7C8CCC=C(C8C8(C)CCCC78C)C5C6(C)C3(O)C24C1=O

>  <smiles>  (138) 
[H]OC([H])([H])C1([H])C([H])(O[H])C2([H])C3([H])C45OC([H])([H])C([H])([H])OC6(OC6([H])OC4=O)C4([H])C([H])([H])C6([H])C7([H])C([H])([H])C([H])([H])C([H])=C(C4([H])C5(C([H])([H])[H])C2(O[H])C32C(=O)C(C([H])([H])[H])=C([H])C12[H])C7([H])C1(C([H])([H])[H])C([H])([H])C([H])([H])C([H])([H])C61C([H])([H])[H]

$$$$
40:0:2
     RDKit          3D

 92102  0  0  1  0  0  0  0  0999 V2000
   -1.6777   -7.3728    3.2330 C   0  0  0  0  0  0  0  0  0  0  0  0
   -0.2582   -7.6593    3.6524 C   0  0  0  0  0  0  0  0  0  0  0  0
    0.4824   -8.7751    3.5193 C   0  0  0  0  0  0  0  0  0  0  0  0
    1.8157   -8.6268    4.2072 C   0  0  1  0  0  0  0  0  0  0  0  0
    3.0355   -9.4051    3.6861 C   0  0  1  0  0  0  0  0  0  0  0  0
    3.0080   -9.9417    2.2319 C   0  0  0  0  0  0  0  0  0  0  0  0
    3.0594   -8.9518    1.2374 O   0  0  0  0  0  0  0  0  0  0  0  0
    4.2805   -8.5977    4.1231 C   0  0  1  0  0  0  0  0  0  0  0  0
    5.4063   -8.8029    3.2757 O   0  0  0  0  0  0  0  0  0  0  0  0
    4.0314   -7.0782    4.2453 C   0  0  2  0  0  0  0  0  0  0  0  0
    3.0338   -6.4745    5.2829 C   0  0  1  0  0  0  0  0  0  0  0  0
    3.2627   -4.9351    5.2373 C   0  0  2  0  0  0  0  0  0  0  0  0
    4.4928   -5.0262    5.9948 O   0  0  0  0  0  0  0  0  0  0  0  0
    5.6103   -4.1485    6.0565 C   0  0  0  0  0  0  0  0  0  0  0  0
    5.4076   -2.7265    6.6230 C   0  0  0  0  0  0  0  0  0  0  0  0
    5.2389   -1.7114    5.6352 O   0  0  0  0  0  0  0  0  0  0  0  0
    4.2253   -2.0605    4.7302 C   0  0  2  0  0  0  0  0  0  0  0  0
    3.1953   -1.1016    4.3998 O   0  0  0  0  0  0  0  0  0  0  0  0
    2.9315   -1.8673    5.5512 C   0  0  1  0  0  0  0  0  0  0  0  0
    1.9719   -2.8929    5.5096 O   0  0  0  0  0  0  0  0  0  0  0  0
    2.3047   -4.0505    6.0731 C   0  0  0  0  0  0  0  0  0  0  0  0
    1.8414   -4.4198    7.1426 O   0  0  0  0  0  0  0  0  0  0  0  0
    4.8138   -2.6314    3.4150 C   0  0  2  0  0  0  0  0  0  0  0  0
    5.1408   -1.5059    2.3105 C   0  0  0  0  0  0  0  0  0  0  0  0
    5.8919   -1.8105    0.9209 C   0  0  1  0  0  0  0  0  0  0  0  0
    6.6113   -3.1708    0.9869 C   0  0  2  0  0  0  0  0  0  0  0  0
    7.9996   -3.8296    0.8944 C   0  0  0  0  0  0  0  0  0  0  0  0
    7.8753   -5.1664    1.7764 C   0  0  0  0  0  0  0  0  0  0  0  0
    6.4999   -5.3436    2.5209 C   0  0  0  0  0  0  0  0  0  0  0  0
    5.3563   -4.7767    2.0236 C   0  0  0  0  0  0  0  0  0  0  0  0
    5.6016   -4.2318    0.6271 C   0  0  1  0  0  0  0  0  0  0  0  0
    4.6394   -3.5527   -0.3995 C   0  0  2  0  0  0  0  0  0  0  0  0
    3.1600   -4.0150   -0.3696 C   0  0  0  0  0  0  0  0  0  0  0  0
    5.1666   -3.8911   -1.8286 C   0  0  0  0  0  0  0  0  0  0  0  0
    5.1627   -2.6102   -2.6336 C   0  0  0  0  0  0  0  0  0  0  0  0
    5.6542   -1.6281   -1.5919 C   0  0  0  0  0  0  0  0  0  0  0  0
    4.9180   -2.0063   -0.2798 C   0  0  2  0  0  0  0  0  0  0  0  0
    3.6414   -1.1323   -0.2420 C   0  0  0  0  0  0  0  0  0  0  0  0
    4.2950   -4.0200    2.8798 C   0  0  1  0  0  0  0  0  0  0  0  0
    3.1383   -4.7865    3.6520 C   0  0  2  0  0  0  0  0  0  0  0  0
    1.8256   -4.1048    3.0858 C   0  0  0  0  0  0  0  0  0  0  0  0
    2.9996   -6.2935    3.3861 C   0  0  1  0  0  0  0  0  0  0  0  0
    2.9251   -6.4922    1.9911 O   0  0  0  0  0  0  0  0  0  0  0  0
    1.9856   -7.0853    4.3175 C   0  0  1  0  0  0  0  0  0  0  0  0
    0.5139   -6.6822    4.4016 C   0  0  0  0  0  0  0  0  0  0  0  0
   -0.0109   -5.7938    5.0787 O   0  0  0  0  0  0  0  0  0  0  0  0
   -1.6982   -6.7095    2.3698 H   0  0  0  0  0  0  0  0  0  0  0  0
   -2.2199   -6.8808    4.0455 H   0  0  0  0  0  0  0  0  0  0  0  0
   -2.2111   -8.2862    2.9804 H   0  0  0  0  0  0  0  0  0  0  0  0
    0.1278   -9.6858    3.0579 H   0  0  0  0  0  0  0  0  0  0  0  0
    1.6502   -9.0181    5.2092 H   0  0  0  0  0  0  0  0  0  0  0  0
    3.0721  -10.3319    4.2605 H   0  0  0  0  0  0  0  0  0  0  0  0
    3.8561  -10.6176    2.0829 H   0  0  0  0  0  0  0  0  0  0  0  0
    2.1247  -10.5650    2.0889 H   0  0  0  0  0  0  0  0  0  0  0  0
    3.1683   -9.4223    0.4143 H   0  0  0  0  0  0  0  0  0  0  0  0
    4.5857   -8.9802    5.1111 H   0  0  0  0  0  0  0  0  0  0  0  0
    5.6018   -9.7279    3.2211 H   0  0  0  0  0  0  0  0  0  0  0  0
    4.9978   -6.5840    4.3237 H   0  0  0  0  0  0  0  0  0  0  0  0
    3.0588   -6.9383    6.2715 H   0  0  0  0  0  0  0  0  0  0  0  0
    6.2385   -4.6513    6.7876 H   0  0  0  0  0  0  0  0  0  0  0  0
    6.2138   -4.2067    5.1610 H   0  0  0  0  0  0  0  0  0  0  0  0
    4.6126   -2.7117    7.3702 H   0  0  0  0  0  0  0  0  0  0  0  0
    6.3149   -2.4378    7.1545 H   0  0  0  0  0  0  0  0  0  0  0  0
    2.9262   -1.2955    6.4636 H   0  0  0  0  0  0  0  0  0  0  0  0
    5.8186   -2.8726    3.7270 H   0  0  0  0  0  0  0  0  0  0  0  0
    4.2580   -0.8952    2.1526 H   0  0  0  0  0  0  0  0  0  0  0  0
    5.7990   -0.8110    2.8280 H   0  0  0  0  0  0  0  0  0  0  0  0
    6.5924   -1.0059    0.7281 H   0  0  0  0  0  0  0  0  0  0  0  0
    6.8393   -3.0207    2.0330 H   0  0  0  0  0  0  0  0  0  0  0  0
    8.2292   -4.0731   -0.1425 H   0  0  0  0  0  0  0  0  0  0  0  0
    8.8043   -3.1816    1.2528 H   0  0  0  0  0  0  0  0  0  0  0  0
    8.0622   -6.0452    1.1645 H   0  0  0  0  0  0  0  0  0  0  0  0
    8.6642   -5.1520    2.5289 H   0  0  0  0  0  0  0  0  0  0  0  0
    6.6045   -5.5972    3.5610 H   0  0  0  0  0  0  0  0  0  0  0  0
    6.0363   -5.0865    0.1053 H   0  0  0  0  0  0  0  0  0  0  0  0
    2.6536   -3.7599   -1.3005 H   0  0  0  0  0  0  0  0  0  0  0  0
    2.5526   -3.5592    0.4049 H   0  0  0  0  0  0  0  0  0  0  0  0
    3.0979   -5.0962   -0.2568 H   0  0  0  0  0  0  0  0  0  0  0  0
    6.2005   -4.2240   -1.7925 H   0  0  0  0  0  0  0  0  0  0  0  0
    4.6157   -4.6689   -2.3384 H   0  0  0  0  0  0  0  0  0  0  0  0
    5.8122   -2.6702   -3.5035 H   0  0  0  0  0  0  0  0  0  0  0  0
    4.1557   -2.3600   -2.9716 H   0  0  0  0  0  0  0  0  0  0  0  0
    6.7268   -1.7901   -1.4770 H   0  0  0  0  0  0  0  0  0  0  0  0
    5.4894   -0.5928   -1.8985 H   0  0  0  0  0  0  0  0  0  0  0  0
    3.0744   -1.2014   -1.1750 H   0  0  0  0  0  0  0  0  0  0  0  0
    3.9121   -0.0875   -0.0927 H   0  0  0  0  0  0  0  0  0  0  0  0
    2.9486   -1.4060    0.5518 H   0  0  0  0  0  0  0  0  0  0  0  0
    3.7534   -3.6493    2.0323 H   0  0  0  0  0  0  0  0  0  0  0  0
    1.5396   -4.5266    2.1251 H   0  0  0  0  0  0  0  0  0  0  0  0
    1.9470   -3.0363    2.9148 H   0  0  0  0  0  0  0  0  0  0  0  0
    0.9359   -4.1826    3.6910 H   0  0  0  0  0  0  0  0  0  0  0  0
    3.0054   -7.4316    1.8527 H   0  0  0  0  0  0  0  0  0  0  0  0
  1  2  1  0
  1 47  1  0
  1 48  1  0
  1 49  1  0
  2 45  1  0
  2  3  2  0
  3  4  1  0
  3 50  1  0
  4 44  1  0
  4  5  1  0
  4 51  1  1
  5  6  1  0
  5  8  1  0
  5 52  1  1
  6  7  1  0
  6 53  1  0
  6 54  1  0
  7 55  1  0
  8  9  1  0
  8 10  1  0
  8 56  1  1
  9 57  1  0
 10 42  1  0
 10 11  1  0
 10 58  1  1
 11 44  1  0
 11 12  1  0
 11 59  1  1
 12 21  1  0
 12 40  1  0
 12 13  1  1
 13 14  1  0
 14 15  1  0
 14 60  1  0
 14 61  1  0
 15 16  1  0
 15 62  1  0
 15 63  1  0
 16 17  1  0
 17 19  1  0
 17 18  1  6
 17 23  1  0
 18 19  1  0
 19 20  1  0
 19 64  1  1
 20 21  1  0
 21 22  2  0
 23 39  1  0
 23 24  1  0
 23 65  1  1
 24 25  1  0
 24 66  1  0
 24 67  1  0
 25 37  1  0
 25 26  1  0
 25 68  1  6
 26 31  1  0
 26 27  1  0
 26 69  1  1
 27 28  1  0
 27 70  1  0
 27 71  1  0
 28 29  1  0
 28 72  1  0
 28 73  1  0
 29 30  2  0
 29 74  1  0
 30 31  1  0
 30 39  1  0
 31 32  1  0
 31 75  1  6
 32 37  1  0
 32 33  1  6
 32 34  1  0
 33 76  1  0
 33 77  1  0
 33 78  1  0
 34 35  1  0
 34 79  1  0
 34 80  1  0
 35 36  1  0
 35 81  1  0
 35 82  1  0
 36 37  1  0
 36 83  1  0
 36 84  1  0
 37 38  1  1
 38 85  1  0
 38 86  1  0
 38 87  1  0
 39 40  1  0
 39 88  1  6
 40 41  1  1
 40 42  1  0
 41 89  1  0
 41 90  1  0
 41 91  1  0
 42 43  1  6
 42 44  1  0
 43 92  1  0
 44 45  1  1
 45 46  2  0
M  END
>  <i_m_ct_stereo_status>  (139) 
1

>  <s_m_source_file>  (139) 
/var/tmp/pbs.5076255.sched01/tmpr0mrskr5/46emy42_dx.sdf

>  <i_m_source_file_index>  (139) 
15

>  <i_lp_mmshare_version>  (139) 
48012

>  <i_f3d_flags>  (139) 
2

>  <s_epik_input>  (139) 
Tz1DMUMoW0NIM10pPVtDSF1bQ0BIXShbQ0BdMTJbQ0BASF0zW0NAXTQ1NilbQ0BASF0oW0NIMl1bT0hdKVtDQEBIXShbT0hdKVtDQEhdM1tDQF0yKFtPSF0pW0NAXTYoW0NIM10pW0NASF03W0NASF0oW0NAXTgoT1tDSDJdW0NIMl1PNClbQ0BASF0oTzgpT0M1PU8pW0NIMl1bQ0BASF05W0NASF0xW0NAQEhdKEM3PVtDSF1bQ0gyXVtDSDJdMSlbQ0BAXTEoW0NIM10pW0NAQF05KFtDSDNdKVtDSDJdW0NIMl1bQ0gyXTE=

>  <s_epik_cmdline>  (139) 
J2VwaWtfcHl0aG9uJywgJy1waHQnLCAnMi4wJywgJy1waCcsICc3LjAnLCAnLXRuJywgJzgnLCAnLW1hJywgJzIwMCcsICctaW1hZScsICc8aW5maWxlLm1hZT4nLCAnLW9tYWUnLCAnPG91dGZpbGUubWFlPic=

>  <r_lp_tautomer_probability>  (139) 
1

>  <r_epik_Ionization_Penalty>  (139) 
4.51119e-07

>  <r_epik_Ionization_Penalty_Charging>  (139) 
0

>  <r_epik_Ionization_Penalty_Neutral>  (139) 
4.51119e-07

>  <r_epik_State_Penalty>  (139) 
-0

>  <r_epik_Charging_Adjusted_Penalty>  (139) 
0

>  <i_epik_Tot_Q>  (139) 
0

>  <i_epik_Tot_abs_Q>  (139) 
0

>  <s_epik_Chemistry_Notes>  (139) 
This compound has an ester and may undergo hydrolysis at high or low pH. This compound contains an acetal/aminal-like group ( X-CH(R)-Y where X, Y are N, S, or O) that may be acid/base labile, releasing an aldehyde.

>  <s_lp_Force_Field>  (139) 
OPLS3e

>  <r_lp_Energy>  (139) 
276.723

>  <b_lp_Chiralities_Consistent>  (139) 
0

>  <s_lp_Variant>  (139) 
40:0-1

>  <s_i_glide_gridfile>  (139) 
pfpi4k_grid

>  <i_i_glide_lignum>  (139) 
15

>  <i_i_glide_rotatable_bonds>  (139) 
4

>  <r_i_docking_score>  (139) 
-3.0926

>  <r_i_glide_ligand_efficiency>  (139) 
-0.0672305

>  <r_i_glide_ligand_efficiency_sa>  (139) 
-0.24089

>  <r_i_glide_ligand_efficiency_ln>  (139) 
-0.640471

>  <r_i_glide_gscore>  (139) 
-3.0926

>  <r_i_glide_lipo>  (139) 
-0.907801

>  <r_i_glide_hbond>  (139) 
0

>  <r_i_glide_metal>  (139) 
-0

>  <r_i_glide_rewards>  (139) 
-0.506394

>  <r_i_glide_evdw>  (139) 
-31.311

>  <r_i_glide_ecoul>  (139) 
-0.976543

>  <r_i_glide_erotb>  (139) 
0.0525311

>  <r_i_glide_esite>  (139) 
-0.0189088

>  <r_i_glide_emodel>  (139) 
-42.5835

>  <r_i_glide_energy>  (139) 
-32.2875

>  <r_i_glide_einternal>  (139) 
1.07181

>  <r_i_glide_intrahb_reward>  (139) 
-0.5

>  <i_i_glide_confnum>  (139) 
5

>  <i_i_glide_posenum>  (139) 
25

>  <r_i_glide_eff_state_penalty>  (139) 
0

>  <ligand_id>  (139) 
40

>  <original_smiles>  (139) 
CC1=CC2C(CO)C(O)C3C4C56OCCOC7(OC7OC5=O)C5CC7C8CCC=C(C8C8(C)CCCC78C)C5C6(C)C3(O)C24C1=O

>  <smiles>  (139) 
[H]OC([H])([H])C1([H])C([H])(O[H])C2([H])C3([H])C45OC([H])([H])C([H])([H])OC6(OC6([H])OC4=O)C4([H])C([H])([H])C6([H])C7([H])C([H])([H])C([H])([H])C([H])=C(C4([H])C5(C([H])([H])[H])C2(O[H])C32C(=O)C(C([H])([H])[H])=C([H])C12[H])C7([H])C1(C([H])([H])[H])C([H])([H])C([H])([H])C([H])([H])C61C([H])([H])[H]

$$$$
41:0:0
     RDKit          3D

 27 28  0  0  1  0  0  0  0  0999 V2000
   -1.1956    2.6898   10.5612 C   0  0  0  0  0  0  0  0  0  0  0  0
   -2.4408    2.8290    9.6726 C   0  0  0  0  0  0  0  0  0  0  0  0
   -2.1404    2.5507    8.2842 N   0  0  0  0  0  0  0  0  0  0  0  0
   -2.3390    3.3601    7.1793 C   0  0  0  0  0  0  0  0  0  0  0  0
   -1.8757    2.6227    6.1329 C   0  0  0  0  0  0  0  0  0  0  0  0
   -1.7881    2.9003    4.6768 C   0  0  0  0  0  0  0  0  0  0  0  0
   -2.1823    3.9827    4.2334 O   0  0  0  0  0  0  0  0  0  0  0  0
   -1.2553    1.8768    3.9360 N   0  0  0  0  0  0  0  0  0  0  0  0
   -1.1528    2.1240    2.4862 C   0  0  0  0  0  0  0  0  0  0  0  0
   -0.8065    0.6695    4.4323 C   0  0  0  0  0  0  0  0  0  0  0  0
   -0.3285   -0.1968    3.6949 O   0  0  0  0  0  0  0  0  0  0  0  0
   -0.9018    0.4340    5.7787 N   0  0  0  0  0  0  0  0  0  0  0  0
   -0.4411   -0.8444    6.3269 C   0  0  0  0  0  0  0  0  0  0  0  0
   -1.4294    1.4109    6.6568 C   0  0  0  0  0  0  0  0  0  0  0  0
   -1.6016    1.3457    7.9620 N   0  0  0  0  0  0  0  0  0  0  0  0
   -1.4291    2.9304   11.5982 H   0  0  0  0  0  0  0  0  0  0  0  0
   -0.4025    3.3584   10.2265 H   0  0  0  0  0  0  0  0  0  0  0  0
   -0.8003    1.6718   10.5458 H   0  0  0  0  0  0  0  0  0  0  0  0
   -3.2229    2.1458   10.0029 H   0  0  0  0  0  0  0  0  0  0  0  0
   -2.8471    3.8393    9.7482 H   0  0  0  0  0  0  0  0  0  0  0  0
   -2.7676    4.3462    7.2519 H   0  0  0  0  0  0  0  0  0  0  0  0
   -0.8021    1.2859    1.8770 H   0  0  0  0  0  0  0  0  0  0  0  0
   -0.4432    2.9353    2.3183 H   0  0  0  0  0  0  0  0  0  0  0  0
   -2.1194    2.4159    2.0780 H   0  0  0  0  0  0  0  0  0  0  0  0
   -0.5621   -0.9126    7.4042 H   0  0  0  0  0  0  0  0  0  0  0  0
    0.6202   -0.9843    6.1256 H   0  0  0  0  0  0  0  0  0  0  0  0
   -0.9882   -1.6738    5.8802 H   0  0  0  0  0  0  0  0  0  0  0  0
  1  2  1  0
  1 16  1  0
  1 17  1  0
  1 18  1  0
  2  3  1  0
  2 19  1  0
  2 20  1  0
  3 15  1  0
  3  4  1  0
  4  5  2  0
  4 21  1  0
  5 14  1  0
  5  6  1  0
  6  7  2  0
  6  8  1  0
  8  9  1  0
  8 10  1  0
  9 22  1  0
  9 23  1  0
  9 24  1  0
 10 11  2  0
 10 12  1  0
 12 13  1  0
 12 14  1  0
 13 25  1  0
 13 26  1  0
 13 27  1  0
 14 15  2  0
M  END
>  <i_m_ct_stereo_status>  (140) 
1

>  <s_m_source_file>  (140) 
/var/tmp/pbs.5076255.sched01/tmpr0mrskr5/46emy42_dx.sdf

>  <i_m_source_file_index>  (140) 
16

>  <i_lp_mmshare_version>  (140) 
48012

>  <i_f3d_flags>  (140) 
0

>  <s_epik_input>  (140) 
W0NIM11bQ0gyXW4oW2NIXTEpbmMoYzEyKW4oW0NIM10pYyg9TyluKGMyPU8pW0NIM10=

>  <s_epik_cmdline>  (140) 
J2VwaWtfcHl0aG9uJywgJy1waHQnLCAnMi4wJywgJy1waCcsICc3LjAnLCAnLXRuJywgJzgnLCAnLW1hJywgJzIwMCcsICctaW1hZScsICc8aW5maWxlLm1hZT4nLCAnLW9tYWUnLCAnPG91dGZpbGUubWFlPic=

>  <r_lp_tautomer_probability>  (140) 
1

>  <r_epik_Ionization_Penalty>  (140) 
4.37706e-08

>  <r_epik_Ionization_Penalty_Charging>  (140) 
1.0602e-09

>  <r_epik_Ionization_Penalty_Neutral>  (140) 
4.27105e-08

>  <r_epik_State_Penalty>  (140) 
-0

>  <r_epik_Charging_Adjusted_Penalty>  (140) 
1.0602e-09

>  <i_epik_Tot_Q>  (140) 
0

>  <i_epik_Tot_abs_Q>  (140) 
0

>  <s_lp_Force_Field>  (140) 
OPLS3e

>  <r_lp_Energy>  (140) 
17.735

>  <b_lp_Chiralities_Consistent>  (140) 
1

>  <s_lp_Variant>  (140) 
41:0-1

>  <s_i_glide_gridfile>  (140) 
pfpi4k_grid

>  <i_i_glide_lignum>  (140) 
16

>  <i_i_glide_rotatable_bonds>  (140) 
1

>  <r_i_docking_score>  (140) 
-3.57443

>  <r_i_glide_ligand_efficiency>  (140) 
-0.238295

>  <r_i_glide_ligand_efficiency_sa>  (140) 
-0.587686

>  <r_i_glide_ligand_efficiency_ln>  (140) 
-0.963964

>  <r_i_glide_gscore>  (140) 
-3.57443

>  <r_i_glide_lipo>  (140) 
-0.163653

>  <r_i_glide_hbond>  (140) 
-0.0864476

>  <r_i_glide_metal>  (140) 
-0

>  <r_i_glide_rewards>  (140) 
-1.98943

>  <r_i_glide_evdw>  (140) 
-17.7586

>  <r_i_glide_ecoul>  (140) 
-2.13553

>  <r_i_glide_erotb>  (140) 
0

>  <r_i_glide_esite>  (140) 
-0.12664

>  <r_i_glide_emodel>  (140) 
-25.2441

>  <r_i_glide_energy>  (140) 
-19.8941

>  <r_i_glide_einternal>  (140) 
0.203394

>  <r_i_glide_intrahb_reward>  (140) 
-0

>  <i_i_glide_confnum>  (140) 
2

>  <i_i_glide_posenum>  (140) 
15

>  <r_i_glide_eff_state_penalty>  (140) 
0

>  <ligand_id>  (140) 
41

>  <original_smiles>  (140) 
CCn1cc2c(=O)n(C)c(=O)n(C)c2n1

>  <smiles>  (140) 
[H]c1c2c(=O)n(C([H])([H])[H])c(=O)n(C([H])([H])[H])c2nn1C([H])([H])C([H])([H])[H]

$$$$
41:0:1
     RDKit          3D

 27 28  0  0  1  0  0  0  0  0999 V2000
   -3.4098    3.2902   10.2037 C   0  0  0  0  0  0  0  0  0  0  0  0
   -1.9938    2.8176    9.8736 C   0  0  0  0  0  0  0  0  0  0  0  0
   -1.8462    2.5410    8.4617 N   0  0  0  0  0  0  0  0  0  0  0  0
   -2.0800    3.3882    7.3854 C   0  0  0  0  0  0  0  0  0  0  0  0
   -1.7645    2.6372    6.2939 C   0  0  0  0  0  0  0  0  0  0  0  0
   -1.7969    2.9327    4.8399 C   0  0  0  0  0  0  0  0  0  0  0  0
   -2.1709    4.0396    4.4445 O   0  0  0  0  0  0  0  0  0  0  0  0
   -1.3952    1.8965    4.0412 N   0  0  0  0  0  0  0  0  0  0  0  0
   -1.4167    2.1611    2.5917 C   0  0  0  0  0  0  0  0  0  0  0  0
   -0.9734    0.6562    4.4846 C   0  0  0  0  0  0  0  0  0  0  0  0
   -0.6133   -0.2242    3.6994 O   0  0  0  0  0  0  0  0  0  0  0  0
   -0.9622    0.4041    5.8303 N   0  0  0  0  0  0  0  0  0  0  0  0
   -0.5255   -0.9072    6.3215 C   0  0  0  0  0  0  0  0  0  0  0  0
   -1.3445    1.3949    6.7639 C   0  0  0  0  0  0  0  0  0  0  0  0
   -1.3853    1.3208    8.0796 N   0  0  0  0  0  0  0  0  0  0  0  0
   -3.5124    3.4654   11.2754 H   0  0  0  0  0  0  0  0  0  0  0  0
   -4.1494    2.5442    9.9141 H   0  0  0  0  0  0  0  0  0  0  0  0
   -3.6477    4.2170    9.6812 H   0  0  0  0  0  0  0  0  0  0  0  0
   -1.2569    3.5694   10.1537 H   0  0  0  0  0  0  0  0  0  0  0  0
   -1.7613    1.9175   10.4454 H   0  0  0  0  0  0  0  0  0  0  0  0
   -2.4355    4.4017    7.4974 H   0  0  0  0  0  0  0  0  0  0  0  0
   -1.1810    1.3093    1.9521 H   0  0  0  0  0  0  0  0  0  0  0  0
   -0.6920    2.9397    2.3562 H   0  0  0  0  0  0  0  0  0  0  0  0
   -2.4027    2.5065    2.2798 H   0  0  0  0  0  0  0  0  0  0  0  0
   -0.5489   -0.9839    7.4059 H   0  0  0  0  0  0  0  0  0  0  0  0
    0.5018   -1.1053    6.0152 H   0  0  0  0  0  0  0  0  0  0  0  0
   -1.1611   -1.6967    5.9202 H   0  0  0  0  0  0  0  0  0  0  0  0
  1  2  1  0
  1 16  1  0
  1 17  1  0
  1 18  1  0
  2  3  1  0
  2 19  1  0
  2 20  1  0
  3 15  1  0
  3  4  1  0
  4  5  2  0
  4 21  1  0
  5 14  1  0
  5  6  1  0
  6  7  2  0
  6  8  1  0
  8  9  1  0
  8 10  1  0
  9 22  1  0
  9 23  1  0
  9 24  1  0
 10 11  2  0
 10 12  1  0
 12 13  1  0
 12 14  1  0
 13 25  1  0
 13 26  1  0
 13 27  1  0
 14 15  2  0
M  END
>  <i_m_ct_stereo_status>  (141) 
1

>  <s_m_source_file>  (141) 
/var/tmp/pbs.5076255.sched01/tmpr0mrskr5/46emy42_dx.sdf

>  <i_m_source_file_index>  (141) 
16

>  <i_lp_mmshare_version>  (141) 
48012

>  <i_f3d_flags>  (141) 
0

>  <s_epik_input>  (141) 
W0NIM11bQ0gyXW4oW2NIXTEpbmMoYzEyKW4oW0NIM10pYyg9TyluKGMyPU8pW0NIM10=

>  <s_epik_cmdline>  (141) 
J2VwaWtfcHl0aG9uJywgJy1waHQnLCAnMi4wJywgJy1waCcsICc3LjAnLCAnLXRuJywgJzgnLCAnLW1hJywgJzIwMCcsICctaW1hZScsICc8aW5maWxlLm1hZT4nLCAnLW9tYWUnLCAnPG91dGZpbGUubWFlPic=

>  <r_lp_tautomer_probability>  (141) 
1

>  <r_epik_Ionization_Penalty>  (141) 
4.37706e-08

>  <r_epik_Ionization_Penalty_Charging>  (141) 
1.0602e-09

>  <r_epik_Ionization_Penalty_Neutral>  (141) 
4.27105e-08

>  <r_epik_State_Penalty>  (141) 
-0

>  <r_epik_Charging_Adjusted_Penalty>  (141) 
1.0602e-09

>  <i_epik_Tot_Q>  (141) 
0

>  <i_epik_Tot_abs_Q>  (141) 
0

>  <s_lp_Force_Field>  (141) 
OPLS3e

>  <r_lp_Energy>  (141) 
17.735

>  <b_lp_Chiralities_Consistent>  (141) 
1

>  <s_lp_Variant>  (141) 
41:0-1

>  <s_i_glide_gridfile>  (141) 
pfpi4k_grid

>  <i_i_glide_lignum>  (141) 
16

>  <i_i_glide_rotatable_bonds>  (141) 
1

>  <r_i_docking_score>  (141) 
-3.56673

>  <r_i_glide_ligand_efficiency>  (141) 
-0.237782

>  <r_i_glide_ligand_efficiency_sa>  (141) 
-0.586421

>  <r_i_glide_ligand_efficiency_ln>  (141) 
-0.961888

>  <r_i_glide_gscore>  (141) 
-3.56673

>  <r_i_glide_lipo>  (141) 
-0.131928

>  <r_i_glide_hbond>  (141) 
-0.0577442

>  <r_i_glide_metal>  (141) 
-0

>  <r_i_glide_rewards>  (141) 
-1.98943

>  <r_i_glide_evdw>  (141) 
-18.8244

>  <r_i_glide_ecoul>  (141) 
-1.98533

>  <r_i_glide_erotb>  (141) 
0

>  <r_i_glide_esite>  (141) 
-0.14861

>  <r_i_glide_emodel>  (141) 
-26.0287

>  <r_i_glide_energy>  (141) 
-20.8097

>  <r_i_glide_einternal>  (141) 
0.515955

>  <r_i_glide_intrahb_reward>  (141) 
-0

>  <i_i_glide_confnum>  (141) 
1

>  <i_i_glide_posenum>  (141) 
14

>  <r_i_glide_eff_state_penalty>  (141) 
0

>  <ligand_id>  (141) 
41

>  <original_smiles>  (141) 
CCn1cc2c(=O)n(C)c(=O)n(C)c2n1

>  <smiles>  (141) 
[H]c1c2c(=O)n(C([H])([H])[H])c(=O)n(C([H])([H])[H])c2nn1C([H])([H])C([H])([H])[H]

$$$$
41:0:2
     RDKit          3D

 27 28  0  0  1  0  0  0  0  0999 V2000
   -3.8008    3.1179    9.2211 C   0  0  0  0  0  0  0  0  0  0  0  0
   -2.6437    3.8060    8.5000 C   0  0  0  0  0  0  0  0  0  0  0  0
   -2.1326    2.9741    7.4367 N   0  0  0  0  0  0  0  0  0  0  0  0
   -1.4376    1.7748    7.5418 C   0  0  0  0  0  0  0  0  0  0  0  0
   -1.1996    1.4194    6.2496 C   0  0  0  0  0  0  0  0  0  0  0  0
   -0.5142    0.2436    5.6573 C   0  0  0  0  0  0  0  0  0  0  0  0
   -0.0783   -0.6423    6.3931 O   0  0  0  0  0  0  0  0  0  0  0  0
   -0.4556    0.2426    4.2914 N   0  0  0  0  0  0  0  0  0  0  0  0
    0.2200   -0.9216    3.6798 C   0  0  0  0  0  0  0  0  0  0  0  0
   -0.9828    1.2190    3.4654 C   0  0  0  0  0  0  0  0  0  0  0  0
   -0.9148    1.1241    2.2390 O   0  0  0  0  0  0  0  0  0  0  0  0
   -1.6134    2.2962    4.0357 N   0  0  0  0  0  0  0  0  0  0  0  0
   -2.1702    3.3462    3.1801 C   0  0  0  0  0  0  0  0  0  0  0  0
   -1.7398    2.4162    5.4400 C   0  0  0  0  0  0  0  0  0  0  0  0
   -2.3250    3.3642    6.1485 N   0  0  0  0  0  0  0  0  0  0  0  0
   -4.1586    3.7388   10.0368 H   0  0  0  0  0  0  0  0  0  0  0  0
   -3.4844    2.1680    9.6533 H   0  0  0  0  0  0  0  0  0  0  0  0
   -4.6388    2.9447    8.5432 H   0  0  0  0  0  0  0  0  0  0  0  0
   -2.9781    4.7579    8.0878 H   0  0  0  0  0  0  0  0  0  0  0  0
   -1.8280    4.0244    9.1891 H   0  0  0  0  0  0  0  0  0  0  0  0
   -1.1915    1.3082    8.4863 H   0  0  0  0  0  0  0  0  0  0  0  0
    0.3454   -0.8711    2.5975 H   0  0  0  0  0  0  0  0  0  0  0  0
   -0.3374   -1.8360    3.8821 H   0  0  0  0  0  0  0  0  0  0  0  0
    1.2253   -1.0435    4.0817 H   0  0  0  0  0  0  0  0  0  0  0  0
   -2.6280    4.1485    3.7504 H   0  0  0  0  0  0  0  0  0  0  0  0
   -2.9366    2.9353    2.5231 H   0  0  0  0  0  0  0  0  0  0  0  0
   -1.3865    3.7914    2.5660 H   0  0  0  0  0  0  0  0  0  0  0  0
  1  2  1  0
  1 16  1  0
  1 17  1  0
  1 18  1  0
  2  3  1  0
  2 19  1  0
  2 20  1  0
  3 15  1  0
  3  4  1  0
  4  5  2  0
  4 21  1  0
  5 14  1  0
  5  6  1  0
  6  7  2  0
  6  8  1  0
  8  9  1  0
  8 10  1  0
  9 22  1  0
  9 23  1  0
  9 24  1  0
 10 11  2  0
 10 12  1  0
 12 13  1  0
 12 14  1  0
 13 25  1  0
 13 26  1  0
 13 27  1  0
 14 15  2  0
M  END
>  <i_m_ct_stereo_status>  (142) 
1

>  <s_m_source_file>  (142) 
/var/tmp/pbs.5076255.sched01/tmpr0mrskr5/46emy42_dx.sdf

>  <i_m_source_file_index>  (142) 
16

>  <i_lp_mmshare_version>  (142) 
48012

>  <i_f3d_flags>  (142) 
0

>  <s_epik_input>  (142) 
W0NIM11bQ0gyXW4oW2NIXTEpbmMoYzEyKW4oW0NIM10pYyg9TyluKGMyPU8pW0NIM10=

>  <s_epik_cmdline>  (142) 
J2VwaWtfcHl0aG9uJywgJy1waHQnLCAnMi4wJywgJy1waCcsICc3LjAnLCAnLXRuJywgJzgnLCAnLW1hJywgJzIwMCcsICctaW1hZScsICc8aW5maWxlLm1hZT4nLCAnLW9tYWUnLCAnPG91dGZpbGUubWFlPic=

>  <r_lp_tautomer_probability>  (142) 
1

>  <r_epik_Ionization_Penalty>  (142) 
4.37706e-08

>  <r_epik_Ionization_Penalty_Charging>  (142) 
1.0602e-09

>  <r_epik_Ionization_Penalty_Neutral>  (142) 
4.27105e-08

>  <r_epik_State_Penalty>  (142) 
-0

>  <r_epik_Charging_Adjusted_Penalty>  (142) 
1.0602e-09

>  <i_epik_Tot_Q>  (142) 
0

>  <i_epik_Tot_abs_Q>  (142) 
0

>  <s_lp_Force_Field>  (142) 
OPLS3e

>  <r_lp_Energy>  (142) 
17.735

>  <b_lp_Chiralities_Consistent>  (142) 
1

>  <s_lp_Variant>  (142) 
41:0-1

>  <s_i_glide_gridfile>  (142) 
pfpi4k_grid

>  <i_i_glide_lignum>  (142) 
16

>  <i_i_glide_rotatable_bonds>  (142) 
1

>  <r_i_docking_score>  (142) 
-3.41759

>  <r_i_glide_ligand_efficiency>  (142) 
-0.227839

>  <r_i_glide_ligand_efficiency_sa>  (142) 
-0.5619

>  <r_i_glide_ligand_efficiency_ln>  (142) 
-0.921667

>  <r_i_glide_gscore>  (142) 
-3.41759

>  <r_i_glide_lipo>  (142) 
-0.0970091

>  <r_i_glide_hbond>  (142) 
0

>  <r_i_glide_metal>  (142) 
-0

>  <r_i_glide_rewards>  (142) 
-2.11795

>  <r_i_glide_evdw>  (142) 
-20.491

>  <r_i_glide_ecoul>  (142) 
-0.671793

>  <r_i_glide_erotb>  (142) 
0

>  <r_i_glide_esite>  (142) 
-0.0773118

>  <r_i_glide_emodel>  (142) 
-26.2316

>  <r_i_glide_energy>  (142) 
-21.1628

>  <r_i_glide_einternal>  (142) 
0.350305

>  <r_i_glide_intrahb_reward>  (142) 
-0

>  <i_i_glide_confnum>  (142) 
2

>  <i_i_glide_posenum>  (142) 
40

>  <r_i_glide_eff_state_penalty>  (142) 
0

>  <ligand_id>  (142) 
41

>  <original_smiles>  (142) 
CCn1cc2c(=O)n(C)c(=O)n(C)c2n1

>  <smiles>  (142) 
[H]c1c2c(=O)n(C([H])([H])[H])c(=O)n(C([H])([H])[H])c2nn1C([H])([H])C([H])([H])[H]

$$$$
42:0:0
     RDKit          3D

 90 98  0  0  1  0  0  0  0  0999 V2000
    5.0652   -2.2082    3.6536 C   0  0  0  0  0  0  0  0  0  0  0  0
    5.4010   -3.5244    3.1931 O   0  0  0  0  0  0  0  0  0  0  0  0
    4.5553   -4.4127    2.4051 C   0  0  1  0  0  0  0  0  0  0  0  0
    4.2751   -3.7601    0.9633 C   0  0  0  0  0  0  0  0  0  0  0  0
    2.8790   -4.0050    0.3161 C   0  0  0  0  0  0  0  0  0  0  0  0
    4.4102   -2.2180    0.7798 C   0  0  0  0  0  0  0  0  0  0  0  0
    5.4166   -4.4288    0.1550 C   0  0  1  0  0  0  0  0  0  0  0  0
    6.8161   -4.0690    0.7142 C   0  0  0  0  0  0  0  0  0  0  0  0
    6.9056   -4.8719    1.9057 O   0  0  0  0  0  0  0  0  0  0  0  0
    5.6771   -5.6047    2.0870 C   0  0  2  0  0  0  0  0  0  0  0  0
    5.4987   -5.8708    0.5749 C   0  0  1  0  0  0  0  0  0  0  0  0
    4.4440   -6.9061    0.1972 C   0  0  0  0  0  0  0  0  0  0  0  0
    4.7912   -8.2185    0.8817 C   0  0  0  0  0  0  0  0  0  0  0  0
    4.8932   -7.9904    2.4199 C   0  0  1  0  0  0  0  0  0  0  0  0
    4.4819   -9.2590    3.2323 C   0  0  1  0  0  0  0  0  0  0  0  0
    5.3001  -10.3481    2.8395 O   0  0  0  0  0  0  0  0  0  0  0  0
    4.6468   -9.1178    4.7698 C   0  0  0  0  0  0  0  0  0  0  0  0
    4.7746   -7.6375    5.2570 C   0  0  2  0  0  0  0  0  0  0  0  0
    3.3468   -6.8044    5.2888 C   0  0  2  0  0  0  0  0  0  0  0  0
    3.0390   -6.3823    6.6326 O   0  0  0  0  0  0  0  0  0  0  0  0
    2.0380   -5.4540    6.9826 C   0  0  0  0  0  0  0  0  0  0  0  0
    1.8577   -5.1106    8.1504 O   0  0  0  0  0  0  0  0  0  0  0  0
    1.1452   -4.8278    5.8670 C   0  0  0  0  0  0  0  0  0  0  0  0
    0.5323   -5.6786    4.6913 C   0  0  2  0  0  0  0  0  0  0  0  0
   -0.1550   -6.7110    5.4170 O   0  0  0  0  0  0  0  0  0  0  0  0
    0.6362   -7.8493    5.8014 C   0  0  0  0  0  0  0  0  0  0  0  0
    0.7092   -8.0568    7.3503 C   0  0  0  0  0  0  0  0  0  0  0  0
   -0.2891   -9.0429    5.3842 C   0  0  0  0  0  0  0  0  0  0  0  0
    2.0386   -7.8119    5.0158 C   0  0  1  0  0  0  0  0  0  0  0  0
    1.5659   -7.7575    3.5777 C   0  0  2  0  0  0  0  0  0  0  0  0
    2.2577   -8.5013    2.5861 O   0  0  0  0  0  0  0  0  0  0  0  0
    2.9997   -9.5972    2.9033 C   0  0  0  0  0  0  0  0  0  0  0  0
    2.5650  -10.7451    2.9163 O   0  0  0  0  0  0  0  0  0  0  0  0
    1.2676   -6.2803    3.3718 C   0  0  2  0  0  0  0  0  0  0  0  0
    2.4294   -5.7554    2.6921 O   0  0  0  0  0  0  0  0  0  0  0  0
    3.2206   -4.7961    3.2840 C   0  0  2  0  0  0  0  0  0  0  0  0
    2.4356   -3.6312    3.4034 O   0  0  0  0  0  0  0  0  0  0  0  0
    3.6620   -5.3239    4.6730 C   0  0  1  0  0  0  0  0  0  0  0  0
    4.1473   -4.3054    5.5485 O   0  0  0  0  0  0  0  0  0  0  0  0
    6.1624   -7.1133    4.5381 C   0  0  0  0  0  0  0  0  0  0  0  0
    6.7644   -5.8196    5.1918 C   0  0  0  0  0  0  0  0  0  0  0  0
    7.3012   -8.1121    4.9934 C   0  0  0  0  0  0  0  0  0  0  0  0
    6.0268   -7.0209    2.8940 C   0  0  2  0  0  0  0  0  0  0  0  0
    7.3731   -7.5608    2.2965 C   0  0  0  0  0  0  0  0  0  0  0  0
    5.1565   -2.1452    4.7371 H   0  0  0  0  0  0  0  0  0  0  0  0
    4.0781   -1.8458    3.3841 H   0  0  0  0  0  0  0  0  0  0  0  0
    5.7981   -1.4994    3.2641 H   0  0  0  0  0  0  0  0  0  0  0  0
    2.9171   -3.8023   -0.7564 H   0  0  0  0  0  0  0  0  0  0  0  0
    2.1377   -3.3214    0.7257 H   0  0  0  0  0  0  0  0  0  0  0  0
    2.4420   -4.9846    0.4186 H   0  0  0  0  0  0  0  0  0  0  0  0
    4.3430   -1.9514   -0.2771 H   0  0  0  0  0  0  0  0  0  0  0  0
    5.3434   -1.7855    1.1245 H   0  0  0  0  0  0  0  0  0  0  0  0
    3.6008   -1.6765    1.2693 H   0  0  0  0  0  0  0  0  0  0  0  0
    5.3357   -4.2792   -0.9233 H   0  0  0  0  0  0  0  0  0  0  0  0
    7.6050   -4.3775    0.0278 H   0  0  0  0  0  0  0  0  0  0  0  0
    6.9921   -3.0178    0.9246 H   0  0  0  0  0  0  0  0  0  0  0  0
    6.3865   -6.2630    0.0859 H   0  0  0  0  0  0  0  0  0  0  0  0
    3.4467   -6.6623    0.5264 H   0  0  0  0  0  0  0  0  0  0  0  0
    4.4226   -7.0400   -0.8812 H   0  0  0  0  0  0  0  0  0  0  0  0
    4.0099   -8.9288    0.6094 H   0  0  0  0  0  0  0  0  0  0  0  0
    5.7037   -8.6527    0.4794 H   0  0  0  0  0  0  0  0  0  0  0  0
    4.1115   -7.2932    2.6473 H   0  0  0  0  0  0  0  0  0  0  0  0
    5.0080  -10.6529    1.9897 H   0  0  0  0  0  0  0  0  0  0  0  0
    3.9494   -9.7235    5.3354 H   0  0  0  0  0  0  0  0  0  0  0  0
    5.4911   -9.7095    5.0960 H   0  0  0  0  0  0  0  0  0  0  0  0
    5.0273   -7.7246    6.3144 H   0  0  0  0  0  0  0  0  0  0  0  0
    0.2791   -4.4575    6.4145 H   0  0  0  0  0  0  0  0  0  0  0  0
    1.6114   -3.9107    5.5245 H   0  0  0  0  0  0  0  0  0  0  0  0
   -0.2462   -5.0324    4.2906 H   0  0  0  0  0  0  0  0  0  0  0  0
    1.7315   -8.1381    7.7165 H   0  0  0  0  0  0  0  0  0  0  0  0
    0.2333   -8.9733    7.7040 H   0  0  0  0  0  0  0  0  0  0  0  0
    0.2018   -7.2480    7.8801 H   0  0  0  0  0  0  0  0  0  0  0  0
    0.2624   -9.9798    5.2993 H   0  0  0  0  0  0  0  0  0  0  0  0
   -0.8522   -8.8916    4.4641 H   0  0  0  0  0  0  0  0  0  0  0  0
   -1.0909   -9.2083    6.1022 H   0  0  0  0  0  0  0  0  0  0  0  0
    2.2739   -8.8154    5.3030 H   0  0  0  0  0  0  0  0  0  0  0  0
    0.6078   -8.2206    3.4258 H   0  0  0  0  0  0  0  0  0  0  0  0
    0.5015   -6.2676    2.5940 H   0  0  0  0  0  0  0  0  0  0  0  0
    2.4171   -3.2124    2.5547 H   0  0  0  0  0  0  0  0  0  0  0  0
    4.6089   -5.5191    4.3284 H   0  0  0  0  0  0  0  0  0  0  0  0
    4.7939   -4.6919    6.1212 H   0  0  0  0  0  0  0  0  0  0  0  0
    7.8501   -5.8082    5.2707 H   0  0  0  0  0  0  0  0  0  0  0  0
    6.3895   -5.6836    6.2047 H   0  0  0  0  0  0  0  0  0  0  0  0
    6.5697   -4.9193    4.6292 H   0  0  0  0  0  0  0  0  0  0  0  0
    8.3132   -7.7552    4.7987 H   0  0  0  0  0  0  0  0  0  0  0  0
    7.2939   -9.0836    4.5032 H   0  0  0  0  0  0  0  0  0  0  0  0
    7.2579   -8.3006    6.0682 H   0  0  0  0  0  0  0  0  0  0  0  0
    7.5084   -8.6267    2.4719 H   0  0  0  0  0  0  0  0  0  0  0  0
    8.2348   -7.0297    2.6988 H   0  0  0  0  0  0  0  0  0  0  0  0
    7.4777   -7.4893    1.2237 H   0  0  0  0  0  0  0  0  0  0  0  0
  1  2  1  0
  1 45  1  0
  1 46  1  0
  1 47  1  0
  3  2  1  1
  3 10  1  0
  3 36  1  0
  3  4  1  0
  4  5  1  0
  4  6  1  0
  4  7  1  0
  5 48  1  0
  5 49  1  0
  5 50  1  0
  6 51  1  0
  6 52  1  0
  6 53  1  0
  7 11  1  0
  7  8  1  0
  7 54  1  6
  8  9  1  0
  8 55  1  0
  8 56  1  0
 10  9  1  6
 10 43  1  0
 10 11  1  0
 11 12  1  0
 11 57  1  6
 12 13  1  0
 12 58  1  0
 12 59  1  0
 13 14  1  0
 13 60  1  0
 13 61  1  0
 14 43  1  0
 14 15  1  0
 14 62  1  1
 15 32  1  0
 15 16  1  6
 15 17  1  0
 16 63  1  0
 17 18  1  0
 17 64  1  0
 17 65  1  0
 18 19  1  0
 18 40  1  0
 18 66  1  1
 19 29  1  0
 19 38  1  0
 19 20  1  1
 20 21  1  0
 21 22  2  0
 21 23  1  0
 23 24  1  0
 23 67  1  0
 23 68  1  0
 24 34  1  0
 24 25  1  0
 24 69  1  6
 25 26  1  0
 26 27  1  0
 26 28  1  0
 26 29  1  0
 27 70  1  0
 27 71  1  0
 27 72  1  0
 28 73  1  0
 28 74  1  0
 28 75  1  0
 29 30  1  0
 29 76  1  6
 30 31  1  0
 30 34  1  0
 30 77  1  1
 31 32  1  0
 32 33  2  0
 34 35  1  0
 34 78  1  6
 35 36  1  0
 36 37  1  1
 36 38  1  0
 37 79  1  0
 38 39  1  0
 38 80  1  6
 39 81  1  0
 40 41  1  0
 40 42  1  0
 40 43  1  0
 41 82  1  0
 41 83  1  0
 41 84  1  0
 42 85  1  0
 42 86  1  0
 42 87  1  0
 43 44  1  6
 44 88  1  0
 44 89  1  0
 44 90  1  0
M  END
>  <i_m_ct_stereo_status>  (143) 
1

>  <s_m_source_file>  (143) 
/var/tmp/pbs.5076255.sched01/tmpr0mrskr5/46emy42_dx.sdf

>  <i_m_source_file_index>  (143) 
17

>  <i_lp_mmshare_version>  (143) 
48012

>  <i_f3d_flags>  (143) 
2

>  <s_epik_input>  (143) 
W0NIM11PW0NAXTEoW0NAQF0yMzQpW0NAXTUoW09IXSlPW0NASF02W0NASF03W0NIMl1DKD1PKU9bQ0BdOChbQ0BASF01W09IXSlbQ0BASF05W0NIMl1bQ0BdKFtPSF0pKEMoPU8pT1tDQEBIXTZbQ0BIXThDKE83KShbQ0gzXSlbQ0gzXSlbQ0BASF0oW0NAQF00KFtDSDNdKUM5KFtDSDNdKVtDSDNdKVtDSDJdW0NIMl1bQ0BASF0zW0NAQEhdKFtDSDJdTzIpQzEoW0NIM10pW0NIM10=

>  <s_epik_cmdline>  (143) 
J2VwaWtfcHl0aG9uJywgJy1waHQnLCAnMi4wJywgJy1waCcsICc3LjAnLCAnLXRuJywgJzgnLCAnLW1hJywgJzIwMCcsICctaW1hZScsICc8aW5maWxlLm1hZT4nLCAnLW9tYWUnLCAnPG91dGZpbGUubWFlPic=

>  <r_lp_tautomer_probability>  (143) 
1

>  <r_epik_Ionization_Penalty>  (143) 
0.000138962

>  <r_epik_Ionization_Penalty_Charging>  (143) 
0

>  <r_epik_Ionization_Penalty_Neutral>  (143) 
0.000138962

>  <r_epik_State_Penalty>  (143) 
-0

>  <r_epik_Charging_Adjusted_Penalty>  (143) 
0

>  <i_epik_Tot_Q>  (143) 
0

>  <i_epik_Tot_abs_Q>  (143) 
0

>  <s_epik_Chemistry_Notes>  (143) 
This compound has an ester and may undergo hydrolysis at high or low pH.

>  <s_lp_Force_Field>  (143) 
OPLS3e

>  <r_lp_Energy>  (143) 
348.599

>  <b_lp_Chiralities_Consistent>  (143) 
0

>  <s_lp_Variant>  (143) 
42:0-1

>  <s_i_glide_gridfile>  (143) 
pfpi4k_grid

>  <i_i_glide_lignum>  (143) 
17

>  <i_i_glide_rotatable_bonds>  (143) 
4

>  <r_i_docking_score>  (143) 
-2.15376

>  <r_i_glide_ligand_efficiency>  (143) 
-0.0489491

>  <r_i_glide_ligand_efficiency_sa>  (143) 
-0.172808

>  <r_i_glide_ligand_efficiency_ln>  (143) 
-0.450183

>  <r_i_glide_gscore>  (143) 
-2.15376

>  <r_i_glide_lipo>  (143) 
-0.532852

>  <r_i_glide_hbond>  (143) 
0

>  <r_i_glide_metal>  (143) 
-0

>  <r_i_glide_rewards>  (143) 
0

>  <r_i_glide_evdw>  (143) 
-26.059

>  <r_i_glide_ecoul>  (143) 
-1.99476

>  <r_i_glide_erotb>  (143) 
0

>  <r_i_glide_esite>  (143) 
-0.0187454

>  <r_i_glide_emodel>  (143) 
-29.5229

>  <r_i_glide_energy>  (143) 
-28.0538

>  <r_i_glide_einternal>  (143) 
2.46649

>  <r_i_glide_intrahb_reward>  (143) 
-0

>  <i_i_glide_confnum>  (143) 
1

>  <i_i_glide_posenum>  (143) 
37

>  <r_i_glide_eff_state_penalty>  (143) 
0

>  <ligand_id>  (143) 
42

>  <original_smiles>  (143) 
COC12C(C)(C)C3COC14C3CCC1C3(O)CC(C56OC(=O)CC7OC(C)(C)C5C(OC3=O)C7OC2(O)C6O)C(C)(C)C14C

>  <smiles>  (143) 
[H]OC1([H])C2(O[H])OC3([H])C4([H])OC(C([H])([H])[H])(C([H])([H])[H])C5([H])C3([H])OC(=O)C3(O[H])C([H])([H])C([H])(C15OC(=O)C4([H])[H])C(C([H])([H])[H])(C([H])([H])[H])C1(C([H])([H])[H])C3([H])C([H])([H])C([H])([H])C3([H])C4([H])C([H])([H])OC31C2(OC([H])([H])[H])C4(C([H])([H])[H])C([H])([H])[H]

$$$$
42:0:1
     RDKit          3D

 90 98  0  0  1  0  0  0  0  0999 V2000
    4.8768   -2.0958    3.4218 C   0  0  0  0  0  0  0  0  0  0  0  0
    5.2914   -3.4125    3.0342 O   0  0  0  0  0  0  0  0  0  0  0  0
    4.5150   -4.3812    2.2692 C   0  0  1  0  0  0  0  0  0  0  0  0
    4.2372   -3.8121    0.7917 C   0  0  0  0  0  0  0  0  0  0  0  0
    2.8754   -4.1658    0.1221 C   0  0  0  0  0  0  0  0  0  0  0  0
    4.2899   -2.2752    0.5344 C   0  0  0  0  0  0  0  0  0  0  0  0
    5.4357   -4.4499    0.0436 C   0  0  1  0  0  0  0  0  0  0  0  0
    6.7975   -3.9863    0.6174 C   0  0  0  0  0  0  0  0  0  0  0  0
    6.9001   -4.7287    1.8455 O   0  0  0  0  0  0  0  0  0  0  0  0
    5.7087   -5.5209    2.0350 C   0  0  2  0  0  0  0  0  0  0  0  0
    5.5858   -5.8641    0.5333 C   0  0  1  0  0  0  0  0  0  0  0  0
    4.6025   -6.9745    0.1771 C   0  0  0  0  0  0  0  0  0  0  0  0
    5.0064   -8.2335    0.9314 C   0  0  0  0  0  0  0  0  0  0  0  0
    5.0535   -7.9309    2.4601 C   0  0  1  0  0  0  0  0  0  0  0  0
    4.6900   -9.1807    3.3214 C   0  0  1  0  0  0  0  0  0  0  0  0
    5.5949  -10.2263    3.0098 O   0  0  0  0  0  0  0  0  0  0  0  0
    4.8014   -8.9628    4.8552 C   0  0  0  0  0  0  0  0  0  0  0  0
    4.8313   -7.4579    5.2721 C   0  0  2  0  0  0  0  0  0  0  0  0
    3.3602   -6.7082    5.2281 C   0  0  2  0  0  0  0  0  0  0  0  0
    2.9862   -6.2505    6.5433 O   0  0  0  0  0  0  0  0  0  0  0  0
    1.9277   -5.3663    6.8246 C   0  0  0  0  0  0  0  0  0  0  0  0
    1.7045   -4.9681    7.9686 O   0  0  0  0  0  0  0  0  0  0  0  0
    1.0375   -4.8376    5.6600 C   0  0  0  0  0  0  0  0  0  0  0  0
    0.5061   -5.7740    4.5144 C   0  0  2  0  0  0  0  0  0  0  0  0
   -0.1436   -6.8089    5.2685 O   0  0  0  0  0  0  0  0  0  0  0  0
    0.6979   -7.8828    5.7221 C   0  0  0  0  0  0  0  0  0  0  0  0
    0.7417   -8.0183    7.2808 C   0  0  0  0  0  0  0  0  0  0  0  0
   -0.1578   -9.1372    5.3421 C   0  0  0  0  0  0  0  0  0  0  0  0
    2.1176   -7.8006    4.9681 C   0  0  1  0  0  0  0  0  0  0  0  0
    1.6816   -7.8371    3.5184 C   0  0  2  0  0  0  0  0  0  0  0  0
    2.4528   -8.5709    2.5814 O   0  0  0  0  0  0  0  0  0  0  0  0
    3.2370   -9.6170    2.9659 C   0  0  0  0  0  0  0  0  0  0  0  0
    2.8417  -10.7755    3.0638 O   0  0  0  0  0  0  0  0  0  0  0  0
    1.3094   -6.3876    3.2403 C   0  0  2  0  0  0  0  0  0  0  0  0
    2.4575   -5.8246    2.5659 O   0  0  0  0  0  0  0  0  0  0  0  0
    3.1821   -4.7985    3.1347 C   0  0  2  0  0  0  0  0  0  0  0  0
    2.3393   -3.6709    3.1917 O   0  0  0  0  0  0  0  0  0  0  0  0
    3.6125   -5.2395    4.5548 C   0  0  1  0  0  0  0  0  0  0  0  0
    4.0173   -4.1539    5.3933 O   0  0  0  0  0  0  0  0  0  0  0  0
    6.2092   -6.8882    4.5654 C   0  0  0  0  0  0  0  0  0  0  0  0
    6.7195   -5.5327    5.1737 C   0  0  0  0  0  0  0  0  0  0  0  0
    7.3900   -7.7966    5.0950 C   0  0  0  0  0  0  0  0  0  0  0  0
    6.1162   -6.8777    2.9143 C   0  0  2  0  0  0  0  0  0  0  0  0
    7.5079   -7.3619    2.3773 C   0  0  0  0  0  0  0  0  0  0  0  0
    4.9262   -1.9797    4.5036 H   0  0  0  0  0  0  0  0  0  0  0  0
    3.8819   -1.8004    3.1018 H   0  0  0  0  0  0  0  0  0  0  0  0
    5.5862   -1.3692    3.0205 H   0  0  0  0  0  0  0  0  0  0  0  0
    2.9334   -4.0091   -0.9576 H   0  0  0  0  0  0  0  0  0  0  0  0
    2.0864   -3.5075    0.4800 H   0  0  0  0  0  0  0  0  0  0  0  0
    2.4893   -5.1627    0.2586 H   0  0  0  0  0  0  0  0  0  0  0  0
    4.2373   -2.0654   -0.5365 H   0  0  0  0  0  0  0  0  0  0  0  0
    5.1874   -1.7731    0.8802 H   0  0  0  0  0  0  0  0  0  0  0  0
    3.4375   -1.7576    0.9751 H   0  0  0  0  0  0  0  0  0  0  0  0
    5.3736   -4.3546   -1.0420 H   0  0  0  0  0  0  0  0  0  0  0  0
    7.6209   -4.2789   -0.0356 H   0  0  0  0  0  0  0  0  0  0  0  0
    6.9040   -2.9188    0.7888 H   0  0  0  0  0  0  0  0  0  0  0  0
    6.5061   -6.2344    0.0873 H   0  0  0  0  0  0  0  0  0  0  0  0
    3.5841   -6.7718    0.4724 H   0  0  0  0  0  0  0  0  0  0  0  0
    4.6054   -7.1507   -0.8970 H   0  0  0  0  0  0  0  0  0  0  0  0
    4.2755   -8.9998    0.6742 H   0  0  0  0  0  0  0  0  0  0  0  0
    5.9515   -8.6394    0.5759 H   0  0  0  0  0  0  0  0  0  0  0  0
    4.2311   -7.2656    2.6383 H   0  0  0  0  0  0  0  0  0  0  0  0
    6.4707   -9.9327    3.2057 H   0  0  0  0  0  0  0  0  0  0  0  0
    4.1212   -9.5805    5.4258 H   0  0  0  0  0  0  0  0  0  0  0  0
    5.6672   -9.4854    5.2379 H   0  0  0  0  0  0  0  0  0  0  0  0
    5.0590   -7.4766    6.3377 H   0  0  0  0  0  0  0  0  0  0  0  0
    0.1348   -4.5012    6.1664 H   0  0  0  0  0  0  0  0  0  0  0  0
    1.4483   -3.9073    5.2832 H   0  0  0  0  0  0  0  0  0  0  0  0
   -0.3000   -5.1913    4.0801 H   0  0  0  0  0  0  0  0  0  0  0  0
    1.7572   -8.0256    7.6744 H   0  0  0  0  0  0  0  0  0  0  0  0
    0.3092   -8.9447    7.6614 H   0  0  0  0  0  0  0  0  0  0  0  0
    0.1724   -7.2177    7.7584 H   0  0  0  0  0  0  0  0  0  0  0  0
    0.4497  -10.0428    5.3152 H   0  0  0  0  0  0  0  0  0  0  0  0
   -0.7002   -9.0571    4.4013 H   0  0  0  0  0  0  0  0  0  0  0  0
   -0.9686   -9.3139    6.0514 H   0  0  0  0  0  0  0  0  0  0  0  0
    2.3986   -8.7750    5.3068 H   0  0  0  0  0  0  0  0  0  0  0  0
    0.7576   -8.3648    3.3617 H   0  0  0  0  0  0  0  0  0  0  0  0
    0.5655   -6.4561    2.4431 H   0  0  0  0  0  0  0  0  0  0  0  0
    2.3243   -3.2875    2.3281 H   0  0  0  0  0  0  0  0  0  0  0  0
    4.5786   -5.3926    4.2461 H   0  0  0  0  0  0  0  0  0  0  0  0
    3.2440   -3.7500    5.7582 H   0  0  0  0  0  0  0  0  0  0  0  0
    7.7994   -5.4537    5.2788 H   0  0  0  0  0  0  0  0  0  0  0  0
    6.3022   -5.3754    6.1668 H   0  0  0  0  0  0  0  0  0  0  0  0
    6.4834   -4.6691    4.5705 H   0  0  0  0  0  0  0  0  0  0  0  0
    8.3831   -7.3886    4.9079 H   0  0  0  0  0  0  0  0  0  0  0  0
    7.4521   -8.7888    4.6533 H   0  0  0  0  0  0  0  0  0  0  0  0
    7.3254   -7.9316    6.1763 H   0  0  0  0  0  0  0  0  0  0  0  0
    7.7040   -8.4068    2.6048 H   0  0  0  0  0  0  0  0  0  0  0  0
    8.3227   -6.7585    2.7743 H   0  0  0  0  0  0  0  0  0  0  0  0
    7.6362   -7.3334    1.3056 H   0  0  0  0  0  0  0  0  0  0  0  0
  1  2  1  0
  1 45  1  0
  1 46  1  0
  1 47  1  0
  3  2  1  1
  3 10  1  0
  3 36  1  0
  3  4  1  0
  4  5  1  0
  4  6  1  0
  4  7  1  0
  5 48  1  0
  5 49  1  0
  5 50  1  0
  6 51  1  0
  6 52  1  0
  6 53  1  0
  7 11  1  0
  7  8  1  0
  7 54  1  6
  8  9  1  0
  8 55  1  0
  8 56  1  0
 10  9  1  6
 10 43  1  0
 10 11  1  0
 11 12  1  0
 11 57  1  6
 12 13  1  0
 12 58  1  0
 12 59  1  0
 13 14  1  0
 13 60  1  0
 13 61  1  0
 14 43  1  0
 14 15  1  0
 14 62  1  6
 15 32  1  0
 15 16  1  6
 15 17  1  0
 16 63  1  0
 17 18  1  0
 17 64  1  0
 17 65  1  0
 18 19  1  0
 18 40  1  0
 18 66  1  1
 19 29  1  0
 19 38  1  0
 19 20  1  1
 20 21  1  0
 21 22  2  0
 21 23  1  0
 23 24  1  0
 23 67  1  0
 23 68  1  0
 24 34  1  0
 24 25  1  0
 24 69  1  6
 25 26  1  0
 26 27  1  0
 26 28  1  0
 26 29  1  0
 27 70  1  0
 27 71  1  0
 27 72  1  0
 28 73  1  0
 28 74  1  0
 28 75  1  0
 29 30  1  0
 29 76  1  1
 30 31  1  0
 30 34  1  0
 30 77  1  1
 31 32  1  0
 32 33  2  0
 34 35  1  0
 34 78  1  6
 35 36  1  0
 36 37  1  1
 36 38  1  0
 37 79  1  0
 38 39  1  0
 38 80  1  6
 39 81  1  0
 40 41  1  0
 40 42  1  0
 40 43  1  0
 41 82  1  0
 41 83  1  0
 41 84  1  0
 42 85  1  0
 42 86  1  0
 42 87  1  0
 43 44  1  6
 44 88  1  0
 44 89  1  0
 44 90  1  0
M  END
>  <i_m_ct_stereo_status>  (144) 
1

>  <s_m_source_file>  (144) 
/var/tmp/pbs.5076255.sched01/tmpr0mrskr5/46emy42_dx.sdf

>  <i_m_source_file_index>  (144) 
17

>  <i_lp_mmshare_version>  (144) 
48012

>  <i_f3d_flags>  (144) 
2

>  <s_epik_input>  (144) 
W0NIM11PW0NAXTEoW0NAQF0yMzQpW0NAXTUoW09IXSlPW0NASF02W0NASF03W0NIMl1DKD1PKU9bQ0BdOChbQ0BASF01W09IXSlbQ0BASF05W0NIMl1bQ0BdKFtPSF0pKEMoPU8pT1tDQEBIXTZbQ0BIXThDKE83KShbQ0gzXSlbQ0gzXSlbQ0BASF0oW0NAQF00KFtDSDNdKUM5KFtDSDNdKVtDSDNdKVtDSDJdW0NIMl1bQ0BASF0zW0NAQEhdKFtDSDJdTzIpQzEoW0NIM10pW0NIM10=

>  <s_epik_cmdline>  (144) 
J2VwaWtfcHl0aG9uJywgJy1waHQnLCAnMi4wJywgJy1waCcsICc3LjAnLCAnLXRuJywgJzgnLCAnLW1hJywgJzIwMCcsICctaW1hZScsICc8aW5maWxlLm1hZT4nLCAnLW9tYWUnLCAnPG91dGZpbGUubWFlPic=

>  <r_lp_tautomer_probability>  (144) 
1

>  <r_epik_Ionization_Penalty>  (144) 
0.000138962

>  <r_epik_Ionization_Penalty_Charging>  (144) 
0

>  <r_epik_Ionization_Penalty_Neutral>  (144) 
0.000138962

>  <r_epik_State_Penalty>  (144) 
-0

>  <r_epik_Charging_Adjusted_Penalty>  (144) 
0

>  <i_epik_Tot_Q>  (144) 
0

>  <i_epik_Tot_abs_Q>  (144) 
0

>  <s_epik_Chemistry_Notes>  (144) 
This compound has an ester and may undergo hydrolysis at high or low pH.

>  <s_lp_Force_Field>  (144) 
OPLS3e

>  <r_lp_Energy>  (144) 
348.599

>  <b_lp_Chiralities_Consistent>  (144) 
0

>  <s_lp_Variant>  (144) 
42:0-1

>  <s_i_glide_gridfile>  (144) 
pfpi4k_grid

>  <i_i_glide_lignum>  (144) 
17

>  <i_i_glide_rotatable_bonds>  (144) 
4

>  <r_i_docking_score>  (144) 
-1.9159

>  <r_i_glide_ligand_efficiency>  (144) 
-0.0435431

>  <r_i_glide_ligand_efficiency_sa>  (144) 
-0.153722

>  <r_i_glide_ligand_efficiency_ln>  (144) 
-0.400464

>  <r_i_glide_gscore>  (144) 
-1.9159

>  <r_i_glide_lipo>  (144) 
-0.53035

>  <r_i_glide_hbond>  (144) 
0

>  <r_i_glide_metal>  (144) 
-0

>  <r_i_glide_rewards>  (144) 
0

>  <r_i_glide_evdw>  (144) 
-25.9676

>  <r_i_glide_ecoul>  (144) 
-0.436129

>  <r_i_glide_erotb>  (144) 
0

>  <r_i_glide_esite>  (144) 
-0.0217448

>  <r_i_glide_emodel>  (144) 
-29.1526

>  <r_i_glide_energy>  (144) 
-26.4038

>  <r_i_glide_einternal>  (144) 
0.0601996

>  <r_i_glide_intrahb_reward>  (144) 
-0

>  <i_i_glide_confnum>  (144) 
1

>  <i_i_glide_posenum>  (144) 
1

>  <r_i_glide_eff_state_penalty>  (144) 
0

>  <ligand_id>  (144) 
42

>  <original_smiles>  (144) 
COC12C(C)(C)C3COC14C3CCC1C3(O)CC(C56OC(=O)CC7OC(C)(C)C5C(OC3=O)C7OC2(O)C6O)C(C)(C)C14C

>  <smiles>  (144) 
[H]OC1([H])C2(O[H])OC3([H])C4([H])OC(C([H])([H])[H])(C([H])([H])[H])C5([H])C3([H])OC(=O)C3(O[H])C([H])([H])C([H])(C15OC(=O)C4([H])[H])C(C([H])([H])[H])(C([H])([H])[H])C1(C([H])([H])[H])C3([H])C([H])([H])C([H])([H])C3([H])C4([H])C([H])([H])OC31C2(OC([H])([H])[H])C4(C([H])([H])[H])C([H])([H])[H]

$$$$
42:0:2
     RDKit          3D

 90 98  0  0  1  0  0  0  0  0999 V2000
    4.5551    6.1475    7.4734 C   0  0  0  0  0  0  0  0  0  0  0  0
    4.0030    5.0063    8.1430 O   0  0  0  0  0  0  0  0  0  0  0  0
    4.0989    3.6170    7.7126 C   0  0  1  0  0  0  0  0  0  0  0  0
    5.6322    3.1400    7.7353 C   0  0  0  0  0  0  0  0  0  0  0  0
    6.0978    2.1348    6.6395 C   0  0  0  0  0  0  0  0  0  0  0  0
    6.7682    4.2027    7.6500 C   0  0  0  0  0  0  0  0  0  0  0  0
    5.6852    2.5184    9.1527 C   0  0  1  0  0  0  0  0  0  0  0  0
    5.3588    3.5538   10.2596 C   0  0  0  0  0  0  0  0  0  0  0  0
    3.9317    3.7095   10.1478 O   0  0  0  0  0  0  0  0  0  0  0  0
    3.4418    2.8956    9.0631 C   0  0  2  0  0  0  0  0  0  0  0  0
    4.4192    1.7326    9.3603 C   0  0  1  0  0  0  0  0  0  0  0  0
    4.1363    0.4130    8.6429 C   0  0  0  0  0  0  0  0  0  0  0  0
    2.7275   -0.0260    9.0158 C   0  0  0  0  0  0  0  0  0  0  0  0
    1.7147    1.0999    8.6412 C   0  0  1  0  0  0  0  0  0  0  0  0
    0.3172    0.5292    8.2426 C   0  0  1  0  0  0  0  0  0  0  0  0
   -0.1836   -0.2490    9.3174 O   0  0  0  0  0  0  0  0  0  0  0  0
   -0.7621    1.6061    7.9476 C   0  0  0  0  0  0  0  0  0  0  0  0
   -0.1698    3.0244    7.6776 C   0  0  2  0  0  0  0  0  0  0  0  0
    0.4988    3.2117    6.1767 C   0  0  2  0  0  0  0  0  0  0  0  0
   -0.2099    4.2231    5.4359 O   0  0  0  0  0  0  0  0  0  0  0  0
    0.2322    4.8084    4.2332 C   0  0  0  0  0  0  0  0  0  0  0  0
   -0.3987    5.7212    3.7049 O   0  0  0  0  0  0  0  0  0  0  0  0
    1.5734    4.3266    3.5871 C   0  0  0  0  0  0  0  0  0  0  0  0
    1.9708    2.8028    3.4811 C   0  0  2  0  0  0  0  0  0  0  0  0
    0.8219    2.2495    2.8223 O   0  0  0  0  0  0  0  0  0  0  0  0
   -0.2974    1.9065    3.6531 C   0  0  0  0  0  0  0  0  0  0  0  0
   -1.6001    2.7114    3.3259 C   0  0  0  0  0  0  0  0  0  0  0  0
   -0.6736    0.4966    3.0883 C   0  0  0  0  0  0  0  0  0  0  0  0
    0.1782    1.8983    5.1895 C   0  0  1  0  0  0  0  0  0  0  0  0
    1.3413    0.9284    5.1298 C   0  0  2  0  0  0  0  0  0  0  0  0
    1.5233    0.0053    6.1929 O   0  0  0  0  0  0  0  0  0  0  0  0
    0.4938   -0.3775    6.9925 C   0  0  0  0  0  0  0  0  0  0  0  0
   -0.2502   -1.3330    6.7652 O   0  0  0  0  0  0  0  0  0  0  0  0
    2.4923    1.8014    4.6470 C   0  0  2  0  0  0  0  0  0  0  0  0
    3.2190    2.1494    5.8494 O   0  0  0  0  0  0  0  0  0  0  0  0
    3.3267    3.4572    6.2710 C   0  0  2  0  0  0  0  0  0  0  0  0
    4.0882    4.1535    5.3065 O   0  0  0  0  0  0  0  0  0  0  0  0
    1.8962    4.0380    6.3875 C   0  0  1  0  0  0  0  0  0  0  0  0
    1.8543    5.4677    6.4267 O   0  0  0  0  0  0  0  0  0  0  0  0
    0.5698    3.4098    9.0999 C   0  0  0  0  0  0  0  0  0  0  0  0
    0.8676    4.9413    9.2645 C   0  0  0  0  0  0  0  0  0  0  0  0
   -0.5418    3.3027   10.2200 C   0  0  0  0  0  0  0  0  0  0  0  0
    1.8754    2.4479    9.4128 C   0  0  2  0  0  0  0  0  0  0  0  0
    1.8325    2.1134   10.9441 C   0  0  0  0  0  0  0  0  0  0  0  0
    3.7753    6.8718    7.2402 H   0  0  0  0  0  0  0  0  0  0  0  0
    5.1005    5.9420    6.5579 H   0  0  0  0  0  0  0  0  0  0  0  0
    5.2348    6.6639    8.1536 H   0  0  0  0  0  0  0  0  0  0  0  0
    7.0336    1.6554    6.9345 H   0  0  0  0  0  0  0  0  0  0  0  0
    6.3025    2.6513    5.7040 H   0  0  0  0  0  0  0  0  0  0  0  0
    5.4231    1.3420    6.3627 H   0  0  0  0  0  0  0  0  0  0  0  0
    7.7411    3.7410    7.8349 H   0  0  0  0  0  0  0  0  0  0  0  0
    6.7007    5.0193    8.3605 H   0  0  0  0  0  0  0  0  0  0  0  0
    6.8347    4.6413    6.6547 H   0  0  0  0  0  0  0  0  0  0  0  0
    6.6004    1.9579    9.3512 H   0  0  0  0  0  0  0  0  0  0  0  0
    5.5883    3.1563   11.2494 H   0  0  0  0  0  0  0  0  0  0  0  0
    5.8736    4.5072   10.1838 H   0  0  0  0  0  0  0  0  0  0  0  0
    4.4356    1.4198   10.4035 H   0  0  0  0  0  0  0  0  0  0  0  0
    4.1440    0.4844    7.5674 H   0  0  0  0  0  0  0  0  0  0  0  0
    4.8620   -0.3465    8.9363 H   0  0  0  0  0  0  0  0  0  0  0  0
    2.5388   -0.9562    8.4802 H   0  0  0  0  0  0  0  0  0  0  0  0
    2.6639   -0.2968   10.0678 H   0  0  0  0  0  0  0  0  0  0  0  0
    2.0801    1.5071    7.7208 H   0  0  0  0  0  0  0  0  0  0  0  0
   -0.1697    0.2818   10.1010 H   0  0  0  0  0  0  0  0  0  0  0  0
   -1.5091    1.2866    7.2319 H   0  0  0  0  0  0  0  0  0  0  0  0
   -1.4827    1.6355    8.7546 H   0  0  0  0  0  0  0  0  0  0  0  0
   -1.0409    3.6802    7.6347 H   0  0  0  0  0  0  0  0  0  0  0  0
    1.4803    4.6510    2.5495 H   0  0  0  0  0  0  0  0  0  0  0  0
    2.3818    4.9558    3.9461 H   0  0  0  0  0  0  0  0  0  0  0  0
    2.7663    2.7833    2.7351 H   0  0  0  0  0  0  0  0  0  0  0  0
   -2.0357    3.1911    4.2007 H   0  0  0  0  0  0  0  0  0  0  0  0
   -2.4191    2.1104    2.9272 H   0  0  0  0  0  0  0  0  0  0  0  0
   -1.4061    3.4599    2.5538 H   0  0  0  0  0  0  0  0  0  0  0  0
   -1.2844   -0.0711    3.7914 H   0  0  0  0  0  0  0  0  0  0  0  0
    0.1737   -0.1170    2.7881 H   0  0  0  0  0  0  0  0  0  0  0  0
   -1.2294    0.5690    2.1512 H   0  0  0  0  0  0  0  0  0  0  0  0
   -0.7174    1.4050    5.5022 H   0  0  0  0  0  0  0  0  0  0  0  0
    1.2467    0.1976    4.3462 H   0  0  0  0  0  0  0  0  0  0  0  0
    3.1648    1.1029    4.1446 H   0  0  0  0  0  0  0  0  0  0  0  0
    3.6086    4.1440    4.4942 H   0  0  0  0  0  0  0  0  0  0  0  0
    1.9254    3.9868    7.4119 H   0  0  0  0  0  0  0  0  0  0  0  0
    1.9763    5.8062    5.5552 H   0  0  0  0  0  0  0  0  0  0  0  0
    0.6989    5.3372   10.2653 H   0  0  0  0  0  0  0  0  0  0  0  0
    0.2424    5.5316    8.5951 H   0  0  0  0  0  0  0  0  0  0  0  0
    1.8989    5.2085    9.0865 H   0  0  0  0  0  0  0  0  0  0  0  0
   -0.2639    3.7647   11.1688 H   0  0  0  0  0  0  0  0  0  0  0  0
   -0.8155    2.2938   10.5222 H   0  0  0  0  0  0  0  0  0  0  0  0
   -1.4634    3.8022    9.9114 H   0  0  0  0  0  0  0  0  0  0  0  0
    0.9896    1.4801   11.2123 H   0  0  0  0  0  0  0  0  0  0  0  0
    1.7968    3.0186   11.5487 H   0  0  0  0  0  0  0  0  0  0  0  0
    2.6734    1.5534   11.3274 H   0  0  0  0  0  0  0  0  0  0  0  0
  1  2  1  0
  1 45  1  0
  1 46  1  0
  1 47  1  0
  3  2  1  1
  3 10  1  0
  3 36  1  0
  3  4  1  0
  4  5  1  0
  4  6  1  0
  4  7  1  0
  5 48  1  0
  5 49  1  0
  5 50  1  0
  6 51  1  0
  6 52  1  0
  6 53  1  0
  7 11  1  0
  7  8  1  0
  7 54  1  1
  8  9  1  0
  8 55  1  0
  8 56  1  0
 10  9  1  1
 10 43  1  0
 10 11  1  0
 11 12  1  0
 11 57  1  1
 12 13  1  0
 12 58  1  0
 12 59  1  0
 13 14  1  0
 13 60  1  0
 13 61  1  0
 14 43  1  0
 14 15  1  0
 14 62  1  6
 15 32  1  0
 15 16  1  1
 15 17  1  0
 16 63  1  0
 17 18  1  0
 17 64  1  0
 17 65  1  0
 18 19  1  0
 18 40  1  0
 18 66  1  6
 19 29  1  0
 19 38  1  0
 19 20  1  6
 20 21  1  0
 21 22  2  0
 21 23  1  0
 23 24  1  0
 23 67  1  0
 23 68  1  0
 24 34  1  0
 24 25  1  0
 24 69  1  6
 25 26  1  0
 26 27  1  0
 26 28  1  0
 26 29  1  0
 27 70  1  0
 27 71  1  0
 27 72  1  0
 28 73  1  0
 28 74  1  0
 28 75  1  0
 29 30  1  0
 29 76  1  1
 30 31  1  0
 30 34  1  0
 30 77  1  6
 31 32  1  0
 32 33  2  0
 34 35  1  0
 34 78  1  6
 35 36  1  0
 36 37  1  6
 36 38  1  0
 37 79  1  0
 38 39  1  0
 38 80  1  1
 39 81  1  0
 40 41  1  0
 40 42  1  0
 40 43  1  0
 41 82  1  0
 41 83  1  0
 41 84  1  0
 42 85  1  0
 42 86  1  0
 42 87  1  0
 43 44  1  1
 44 88  1  0
 44 89  1  0
 44 90  1  0
M  END
>  <i_m_ct_stereo_status>  (145) 
1

>  <s_m_source_file>  (145) 
/var/tmp/pbs.5076255.sched01/tmpr0mrskr5/46emy42_dx.sdf

>  <i_m_source_file_index>  (145) 
17

>  <i_lp_mmshare_version>  (145) 
48012

>  <i_f3d_flags>  (145) 
2

>  <s_epik_input>  (145) 
W0NIM11PW0NAXTEoW0NAQF0yMzQpW0NAXTUoW09IXSlPW0NASF02W0NASF03W0NIMl1DKD1PKU9bQ0BdOChbQ0BASF01W09IXSlbQ0BASF05W0NIMl1bQ0BdKFtPSF0pKEMoPU8pT1tDQEBIXTZbQ0BIXThDKE83KShbQ0gzXSlbQ0gzXSlbQ0BASF0oW0NAQF00KFtDSDNdKUM5KFtDSDNdKVtDSDNdKVtDSDJdW0NIMl1bQ0BASF0zW0NAQEhdKFtDSDJdTzIpQzEoW0NIM10pW0NIM10=

>  <s_epik_cmdline>  (145) 
J2VwaWtfcHl0aG9uJywgJy1waHQnLCAnMi4wJywgJy1waCcsICc3LjAnLCAnLXRuJywgJzgnLCAnLW1hJywgJzIwMCcsICctaW1hZScsICc8aW5maWxlLm1hZT4nLCAnLW9tYWUnLCAnPG91dGZpbGUubWFlPic=

>  <r_lp_tautomer_probability>  (145) 
1

>  <r_epik_Ionization_Penalty>  (145) 
0.000138962

>  <r_epik_Ionization_Penalty_Charging>  (145) 
0

>  <r_epik_Ionization_Penalty_Neutral>  (145) 
0.000138962

>  <r_epik_State_Penalty>  (145) 
-0

>  <r_epik_Charging_Adjusted_Penalty>  (145) 
0

>  <i_epik_Tot_Q>  (145) 
0

>  <i_epik_Tot_abs_Q>  (145) 
0

>  <s_epik_Chemistry_Notes>  (145) 
This compound has an ester and may undergo hydrolysis at high or low pH.

>  <s_lp_Force_Field>  (145) 
OPLS3e

>  <r_lp_Energy>  (145) 
348.599

>  <b_lp_Chiralities_Consistent>  (145) 
0

>  <s_lp_Variant>  (145) 
42:0-1

>  <s_i_glide_gridfile>  (145) 
pfpi4k_grid

>  <i_i_glide_lignum>  (145) 
17

>  <i_i_glide_rotatable_bonds>  (145) 
4

>  <r_i_docking_score>  (145) 
-1.86218

>  <r_i_glide_ligand_efficiency>  (145) 
-0.0423223

>  <r_i_glide_ligand_efficiency_sa>  (145) 
-0.149413

>  <r_i_glide_ligand_efficiency_ln>  (145) 
-0.389237

>  <r_i_glide_gscore>  (145) 
-1.86218

>  <r_i_glide_lipo>  (145) 
-0.0366702

>  <r_i_glide_hbond>  (145) 
-0.0615465

>  <r_i_glide_metal>  (145) 
-0

>  <r_i_glide_rewards>  (145) 
0

>  <r_i_glide_evdw>  (145) 
-18.6455

>  <r_i_glide_ecoul>  (145) 
-4.97273

>  <r_i_glide_erotb>  (145) 
0

>  <r_i_glide_esite>  (145) 
-0.0857783

>  <r_i_glide_emodel>  (145) 
-26.3634

>  <r_i_glide_energy>  (145) 
-23.6183

>  <r_i_glide_einternal>  (145) 
0.126629

>  <r_i_glide_intrahb_reward>  (145) 
-0

>  <i_i_glide_confnum>  (145) 
1

>  <i_i_glide_posenum>  (145) 
4

>  <r_i_glide_eff_state_penalty>  (145) 
0

>  <ligand_id>  (145) 
42

>  <original_smiles>  (145) 
COC12C(C)(C)C3COC14C3CCC1C3(O)CC(C56OC(=O)CC7OC(C)(C)C5C(OC3=O)C7OC2(O)C6O)C(C)(C)C14C

>  <smiles>  (145) 
[H]OC1([H])C2(O[H])OC3([H])C4([H])OC(C([H])([H])[H])(C([H])([H])[H])C5([H])C3([H])OC(=O)C3(O[H])C([H])([H])C([H])(C15OC(=O)C4([H])[H])C(C([H])([H])[H])(C([H])([H])[H])C1(C([H])([H])[H])C3([H])C([H])([H])C([H])([H])C3([H])C4([H])C([H])([H])OC31C2(OC([H])([H])[H])C4(C([H])([H])[H])C([H])([H])[H]

$$$$
43:0:0
     RDKit          3D

 14 15  0  0  1  0  0  0  0  0999 V2000
   -2.1854   -7.5895    3.2977 O   0  0  0  0  0  0  0  0  0  0  0  0
   -1.0244   -7.6206    2.9168 C   0  0  0  0  0  0  0  0  0  0  0  0
   -0.1339   -8.6846    3.4039 C   0  0  0  0  0  0  0  0  0  0  0  0
    1.1698   -8.6957    3.0285 C   0  0  0  0  0  0  0  0  0  0  0  0
    1.5482   -7.6519    2.1715 N   0  0  0  0  0  0  0  0  0  0  0  0
    2.8331   -7.4736    1.6820 C   0  0  0  0  0  0  0  0  0  0  0  0
    2.7481   -6.3377    0.8968 C   0  0  0  0  0  0  0  0  0  0  0  0
    1.4241   -5.8593    0.8866 N   0  0  0  0  0  0  0  0  0  0  0  0
    0.7677   -6.6876    1.6885 C   0  0  0  0  0  0  0  0  0  0  0  0
   -0.5273   -6.6568    2.0720 N   0  0  0  0  0  0  0  0  0  0  0  0
   -0.5351   -9.4527    4.0733 H   0  0  0  0  0  0  0  0  0  0  0  0
    1.9490   -9.3996    3.3015 H   0  0  0  0  0  0  0  0  0  0  0  0
    3.6686   -8.1280    1.9009 H   0  0  0  0  0  0  0  0  0  0  0  0
    3.5101   -5.8431    0.3098 H   0  0  0  0  0  0  0  0  0  0  0  0
  1  2  2  0
  2 10  1  0
  2  3  1  0
  3  4  2  0
  3 11  1  0
  4  5  1  0
  4 12  1  0
  5  9  1  0
  5  6  1  0
  6  7  2  0
  6 13  1  0
  7  8  1  0
  7 14  1  0
  8  9  2  0
  9 10  1  0
M  CHG  1  10  -1
M  END
>  <i_m_ct_stereo_status>  (146) 
1

>  <s_m_source_file>  (146) 
/var/tmp/pbs.5076255.sched01/tmpr0mrskr5/46emy42_dx.sdf

>  <i_m_source_file_index>  (146) 
18

>  <i_lp_mmshare_version>  (146) 
48012

>  <i_f3d_flags>  (146) 
0

>  <s_epik_input>  (146) 
W2NIXTFbY0hdYyg9TyluYyhuMTIpW25IXVtjSF1bY0hdMg==

>  <s_epik_cmdline>  (146) 
J2VwaWtfcHl0aG9uJywgJy1waHQnLCAnMi4wJywgJy1waCcsICc3LjAnLCAnLXRuJywgJzgnLCAnLW1hJywgJzIwMCcsICctaW1hZScsICc8aW5maWxlLm1hZT4nLCAnLW9tYWUnLCAnPG91dGZpbGUubWFlPic=

>  <r_epik_Ionization_Penalty>  (146) 
0.0165749

>  <r_epik_Ionization_Penalty_Charging>  (146) 
0.0165749

>  <r_epik_Ionization_Penalty_Neutral>  (146) 
3.77292e-08

>  <r_epik_State_Penalty>  (146) 
0.0130903

>  <r_epik_Charging_Adjusted_Penalty>  (146) 
0.0296652

>  <i_epik_Tot_Q>  (146) 
-1

>  <i_epik_Tot_abs_Q>  (146) 
1

>  <s_lp_Force_Field>  (146) 
OPLS3e

>  <r_lp_Energy>  (146) 
26.6193

>  <b_lp_Chiralities_Consistent>  (146) 
1

>  <s_lp_Variant>  (146) 
43:0-1

>  <s_i_glide_gridfile>  (146) 
pfpi4k_grid

>  <i_i_glide_lignum>  (146) 
18

>  <i_i_glide_rotatable_bonds>  (146) 
0

>  <r_i_docking_score>  (146) 
-4.38

>  <r_i_glide_ligand_efficiency>  (146) 
-0.438

>  <r_i_glide_ligand_efficiency_sa>  (146) 
-0.943641

>  <r_i_glide_ligand_efficiency_ln>  (146) 
-1.32623

>  <r_i_glide_gscore>  (146) 
-4.38

>  <r_i_glide_lipo>  (146) 
-0.0120523

>  <r_i_glide_hbond>  (146) 
-0.354063

>  <r_i_glide_metal>  (146) 
-0

>  <r_i_glide_rewards>  (146) 
-2.25

>  <r_i_glide_evdw>  (146) 
-12.5841

>  <r_i_glide_ecoul>  (146) 
-6.83545

>  <r_i_glide_erotb>  (146) 
0

>  <r_i_glide_esite>  (146) 
-0.109357

>  <r_i_glide_emodel>  (146) 
-29.0735

>  <r_i_glide_energy>  (146) 
-19.4196

>  <r_i_glide_einternal>  (146) 
0

>  <r_i_glide_intrahb_reward>  (146) 
-0

>  <i_i_glide_confnum>  (146) 
1

>  <i_i_glide_posenum>  (146) 
25

>  <r_i_glide_eff_state_penalty>  (146) 
0

>  <ligand_id>  (146) 
43

>  <original_smiles>  (146) 
O=c1ccn2cc[nH]c2n1

>  <smiles>  (146) 
[H]c1nc2[n-]c(=O)c([H])c([H])n2c1[H]

$$$$
43:0:1
     RDKit          3D

 14 15  0  0  1  0  0  0  0  0999 V2000
    2.0427   -5.5130    0.5126 O   0  0  0  0  0  0  0  0  0  0  0  0
    1.5188   -6.3650    1.2221 C   0  0  0  0  0  0  0  0  0  0  0  0
    2.3065   -7.5319    1.6865 C   0  0  0  0  0  0  0  0  0  0  0  0
    1.7123   -8.4698    2.4699 C   0  0  0  0  0  0  0  0  0  0  0  0
    0.3684   -8.2193    2.7830 N   0  0  0  0  0  0  0  0  0  0  0  0
   -0.4170   -9.0380    3.5791 C   0  0  0  0  0  0  0  0  0  0  0  0
   -1.6387   -8.4057    3.6207 C   0  0  0  0  0  0  0  0  0  0  0  0
   -1.6000   -7.2119    2.8879 N   0  0  0  0  0  0  0  0  0  0  0  0
   -0.3734   -7.1782    2.3882 C   0  0  0  0  0  0  0  0  0  0  0  0
    0.2035   -6.2557    1.5830 N   0  0  0  0  0  0  0  0  0  0  0  0
    3.3496   -7.6361    1.3832 H   0  0  0  0  0  0  0  0  0  0  0  0
    2.1200   -9.3785    2.8903 H   0  0  0  0  0  0  0  0  0  0  0  0
   -0.0970   -9.9632    4.0372 H   0  0  0  0  0  0  0  0  0  0  0  0
   -2.5446   -8.7160    4.1145 H   0  0  0  0  0  0  0  0  0  0  0  0
  1  2  2  0
  2 10  1  0
  2  3  1  0
  3  4  2  0
  3 11  1  0
  4  5  1  0
  4 12  1  0
  5  9  1  0
  5  6  1  0
  6  7  2  0
  6 13  1  0
  7  8  1  0
  7 14  1  0
  8  9  2  0
  9 10  1  0
M  CHG  1  10  -1
M  END
>  <i_m_ct_stereo_status>  (147) 
1

>  <s_m_source_file>  (147) 
/var/tmp/pbs.5076255.sched01/tmpr0mrskr5/46emy42_dx.sdf

>  <i_m_source_file_index>  (147) 
18

>  <i_lp_mmshare_version>  (147) 
48012

>  <i_f3d_flags>  (147) 
0

>  <s_epik_input>  (147) 
W2NIXTFbY0hdYyg9TyluYyhuMTIpW25IXVtjSF1bY0hdMg==

>  <s_epik_cmdline>  (147) 
J2VwaWtfcHl0aG9uJywgJy1waHQnLCAnMi4wJywgJy1waCcsICc3LjAnLCAnLXRuJywgJzgnLCAnLW1hJywgJzIwMCcsICctaW1hZScsICc8aW5maWxlLm1hZT4nLCAnLW9tYWUnLCAnPG91dGZpbGUubWFlPic=

>  <r_epik_Ionization_Penalty>  (147) 
0.0165749

>  <r_epik_Ionization_Penalty_Charging>  (147) 
0.0165749

>  <r_epik_Ionization_Penalty_Neutral>  (147) 
3.77292e-08

>  <r_epik_State_Penalty>  (147) 
0.0130903

>  <r_epik_Charging_Adjusted_Penalty>  (147) 
0.0296652

>  <i_epik_Tot_Q>  (147) 
-1

>  <i_epik_Tot_abs_Q>  (147) 
1

>  <s_lp_Force_Field>  (147) 
OPLS3e

>  <r_lp_Energy>  (147) 
26.6193

>  <b_lp_Chiralities_Consistent>  (147) 
1

>  <s_lp_Variant>  (147) 
43:0-1

>  <s_i_glide_gridfile>  (147) 
pfpi4k_grid

>  <i_i_glide_lignum>  (147) 
18

>  <i_i_glide_rotatable_bonds>  (147) 
0

>  <r_i_docking_score>  (147) 
-4.28745

>  <r_i_glide_ligand_efficiency>  (147) 
-0.428745

>  <r_i_glide_ligand_efficiency_sa>  (147) 
-0.923704

>  <r_i_glide_ligand_efficiency_ln>  (147) 
-1.29821

>  <r_i_glide_gscore>  (147) 
-4.28745

>  <r_i_glide_lipo>  (147) 
0

>  <r_i_glide_hbond>  (147) 
-0.506357

>  <r_i_glide_metal>  (147) 
-0

>  <r_i_glide_rewards>  (147) 
-2.25

>  <r_i_glide_evdw>  (147) 
-12.4487

>  <r_i_glide_ecoul>  (147) 
-5.17643

>  <r_i_glide_erotb>  (147) 
0

>  <r_i_glide_esite>  (147) 
-0.132196

>  <r_i_glide_emodel>  (147) 
-27.0829

>  <r_i_glide_energy>  (147) 
-17.6252

>  <r_i_glide_einternal>  (147) 
0

>  <r_i_glide_intrahb_reward>  (147) 
-0

>  <i_i_glide_confnum>  (147) 
1

>  <i_i_glide_posenum>  (147) 
2

>  <r_i_glide_eff_state_penalty>  (147) 
0

>  <ligand_id>  (147) 
43

>  <original_smiles>  (147) 
O=c1ccn2cc[nH]c2n1

>  <smiles>  (147) 
[H]c1nc2[n-]c(=O)c([H])c([H])n2c1[H]

$$$$
43:0:2
     RDKit          3D

 14 15  0  0  1  0  0  0  0  0999 V2000
   -0.8752   -7.0180    2.1191 O   0  0  0  0  0  0  0  0  0  0  0  0
    0.3134   -7.0890    1.8348 C   0  0  0  0  0  0  0  0  0  0  0  0
    1.0751   -8.3212    2.1208 C   0  0  0  0  0  0  0  0  0  0  0  0
    2.4036   -8.3835    1.8445 C   0  0  0  0  0  0  0  0  0  0  0  0
    2.9555   -7.2185    1.2950 N   0  0  0  0  0  0  0  0  0  0  0  0
    4.2833   -7.0750    0.9404 C   0  0  0  0  0  0  0  0  0  0  0  0
    4.3684   -5.7903    0.4476 C   0  0  0  0  0  0  0  0  0  0  0  0
    3.1186   -5.1621    0.4992 N   0  0  0  0  0  0  0  0  0  0  0  0
    2.3092   -6.0882    1.0091 C   0  0  0  0  0  0  0  0  0  0  0  0
    0.9843   -6.0334    1.2501 N   0  0  0  0  0  0  0  0  0  0  0  0
    0.5617   -9.1861    2.5426 H   0  0  0  0  0  0  0  0  0  0  0  0
    3.0948   -9.2007    1.9794 H   0  0  0  0  0  0  0  0  0  0  0  0
    5.0218   -7.8547    1.0575 H   0  0  0  0  0  0  0  0  0  0  0  0
    5.2333   -5.2681    0.0512 H   0  0  0  0  0  0  0  0  0  0  0  0
  1  2  2  0
  2 10  1  0
  2  3  1  0
  3  4  2  0
  3 11  1  0
  4  5  1  0
  4 12  1  0
  5  9  1  0
  5  6  1  0
  6  7  2  0
  6 13  1  0
  7  8  1  0
  7 14  1  0
  8  9  2  0
  9 10  1  0
M  CHG  1  10  -1
M  END
>  <i_m_ct_stereo_status>  (148) 
1

>  <s_m_source_file>  (148) 
/var/tmp/pbs.5076255.sched01/tmpr0mrskr5/46emy42_dx.sdf

>  <i_m_source_file_index>  (148) 
18

>  <i_lp_mmshare_version>  (148) 
48012

>  <i_f3d_flags>  (148) 
0

>  <s_epik_input>  (148) 
W2NIXTFbY0hdYyg9TyluYyhuMTIpW25IXVtjSF1bY0hdMg==

>  <s_epik_cmdline>  (148) 
J2VwaWtfcHl0aG9uJywgJy1waHQnLCAnMi4wJywgJy1waCcsICc3LjAnLCAnLXRuJywgJzgnLCAnLW1hJywgJzIwMCcsICctaW1hZScsICc8aW5maWxlLm1hZT4nLCAnLW9tYWUnLCAnPG91dGZpbGUubWFlPic=

>  <r_epik_Ionization_Penalty>  (148) 
0.0165749

>  <r_epik_Ionization_Penalty_Charging>  (148) 
0.0165749

>  <r_epik_Ionization_Penalty_Neutral>  (148) 
3.77292e-08

>  <r_epik_State_Penalty>  (148) 
0.0130903

>  <r_epik_Charging_Adjusted_Penalty>  (148) 
0.0296652

>  <i_epik_Tot_Q>  (148) 
-1

>  <i_epik_Tot_abs_Q>  (148) 
1

>  <s_lp_Force_Field>  (148) 
OPLS3e

>  <r_lp_Energy>  (148) 
26.6193

>  <b_lp_Chiralities_Consistent>  (148) 
1

>  <s_lp_Variant>  (148) 
43:0-1

>  <s_i_glide_gridfile>  (148) 
pfpi4k_grid

>  <i_i_glide_lignum>  (148) 
18

>  <i_i_glide_rotatable_bonds>  (148) 
0

>  <r_i_docking_score>  (148) 
-4.10767

>  <r_i_glide_ligand_efficiency>  (148) 
-0.410767

>  <r_i_glide_ligand_efficiency_sa>  (148) 
-0.88497

>  <r_i_glide_ligand_efficiency_ln>  (148) 
-1.24377

>  <r_i_glide_gscore>  (148) 
-4.10767

>  <r_i_glide_lipo>  (148) 
-0.214555

>  <r_i_glide_hbond>  (148) 
-0.36

>  <r_i_glide_metal>  (148) 
-0

>  <r_i_glide_rewards>  (148) 
-2.31036

>  <r_i_glide_evdw>  (148) 
-11.4475

>  <r_i_glide_ecoul>  (148) 
-4.15663

>  <r_i_glide_erotb>  (148) 
0

>  <r_i_glide_esite>  (148) 
-0.0268808

>  <r_i_glide_emodel>  (148) 
-24.6669

>  <r_i_glide_energy>  (148) 
-15.6041

>  <r_i_glide_einternal>  (148) 
0

>  <r_i_glide_intrahb_reward>  (148) 
-0

>  <i_i_glide_confnum>  (148) 
2

>  <i_i_glide_posenum>  (148) 
23

>  <r_i_glide_eff_state_penalty>  (148) 
0

>  <ligand_id>  (148) 
43

>  <original_smiles>  (148) 
O=c1ccn2cc[nH]c2n1

>  <smiles>  (148) 
[H]c1nc2[n-]c(=O)c([H])c([H])n2c1[H]

$$$$
43:1:0
     RDKit          3D

 15 16  0  0  1  0  0  0  0  0999 V2000
   -2.1366    0.1039    6.2824 O   0  0  0  0  0  0  0  0  0  0  0  0
   -1.4465    0.4927    5.3417 C   0  0  0  0  0  0  0  0  0  0  0  0
   -1.4647    1.9172    4.9487 C   0  0  0  0  0  0  0  0  0  0  0  0
   -0.6942    2.3354    3.9236 C   0  0  0  0  0  0  0  0  0  0  0  0
    0.0987    1.4275    3.2672 N   0  0  0  0  0  0  0  0  0  0  0  0
    0.9592    1.6090    2.2159 C   0  0  0  0  0  0  0  0  0  0  0  0
    1.5033    0.4224    1.9366 C   0  0  0  0  0  0  0  0  0  0  0  0
    1.0024   -0.5289    2.8061 N   0  0  0  0  0  0  0  0  0  0  0  0
    0.1021    0.1029    3.6523 C   0  0  0  0  0  0  0  0  0  0  0  0
   -0.6165   -0.3944    4.6165 N   0  0  0  0  0  0  0  0  0  0  0  0
    1.2491   -1.5061    2.7661 H   0  0  0  0  0  0  0  0  0  0  0  0
   -2.0931    2.6072    5.4879 H   0  0  0  0  0  0  0  0  0  0  0  0
   -0.6400    3.3547    3.5645 H   0  0  0  0  0  0  0  0  0  0  0  0
    1.0865    2.5765    1.7566 H   0  0  0  0  0  0  0  0  0  0  0  0
    2.2066    0.1338    1.1688 H   0  0  0  0  0  0  0  0  0  0  0  0
  1  2  2  0
  2 10  1  0
  2  3  1  0
  3  4  2  0
  3 12  1  0
  4  5  1  0
  4 13  1  0
  5  9  1  0
  5  6  1  0
  6  7  2  0
  6 14  1  0
  7  8  1  0
  7 15  1  0
  8 11  1  0
  8  9  1  0
  9 10  2  0
M  END
>  <i_m_ct_stereo_status>  (149) 
1

>  <s_m_source_file>  (149) 
/var/tmp/pbs.5076255.sched01/tmpr0mrskr5/46emy42_dx.sdf

>  <i_m_source_file_index>  (149) 
19

>  <i_lp_mmshare_version>  (149) 
48012

>  <i_f3d_flags>  (149) 
0

>  <s_epik_input>  (149) 
W2NIXTFbY0hdYyg9TyluYyhuMTIpW25IXVtjSF1bY0hdMg==

>  <s_epik_cmdline>  (149) 
J2VwaWtfcHl0aG9uJywgJy1waHQnLCAnMi4wJywgJy1waCcsICc3LjAnLCAnLXRuJywgJzgnLCAnLW1hJywgJzIwMCcsICctaW1hZScsICc8aW5maWxlLm1hZT4nLCAnLW9tYWUnLCAnPG91dGZpbGUubWFlPic=

>  <r_epik_Ionization_Penalty>  (149) 
2.12726

>  <r_epik_Ionization_Penalty_Charging>  (149) 
1.07856e-08

>  <r_epik_Ionization_Penalty_Neutral>  (149) 
2.12726

>  <r_epik_State_Penalty>  (149) 
2.26536

>  <r_epik_Charging_Adjusted_Penalty>  (149) 
2.26536

>  <i_epik_Tot_Q>  (149) 
0

>  <i_epik_Tot_abs_Q>  (149) 
0

>  <s_lp_Force_Field>  (149) 
OPLS3e

>  <r_lp_Energy>  (149) 
8.72094

>  <b_lp_Chiralities_Consistent>  (149) 
1

>  <s_lp_Variant>  (149) 
43:0-2

>  <s_i_glide_gridfile>  (149) 
pfpi4k_grid

>  <i_i_glide_lignum>  (149) 
19

>  <i_i_glide_rotatable_bonds>  (149) 
0

>  <r_i_docking_score>  (149) 
-4.25376

>  <r_i_glide_ligand_efficiency>  (149) 
-0.425376

>  <r_i_glide_ligand_efficiency_sa>  (149) 
-0.916445

>  <r_i_glide_ligand_efficiency_ln>  (149) 
-1.28801

>  <r_i_glide_gscore>  (149) 
-4.25376

>  <r_i_glide_lipo>  (149) 
0

>  <r_i_glide_hbond>  (149) 
-0.16

>  <r_i_glide_metal>  (149) 
-0

>  <r_i_glide_rewards>  (149) 
-2.25

>  <r_i_glide_evdw>  (149) 
-11.8543

>  <r_i_glide_ecoul>  (149) 
-7.7757

>  <r_i_glide_erotb>  (149) 
0

>  <r_i_glide_esite>  (149) 
-0.0846896

>  <r_i_glide_emodel>  (149) 
-26.3566

>  <r_i_glide_energy>  (149) 
-19.63

>  <r_i_glide_einternal>  (149) 
0

>  <r_i_glide_intrahb_reward>  (149) 
-0

>  <i_i_glide_confnum>  (149) 
1

>  <i_i_glide_posenum>  (149) 
3

>  <r_i_glide_eff_state_penalty>  (149) 
0

>  <ligand_id>  (149) 
43

>  <original_smiles>  (149) 
O=c1ccn2cc[nH]c2n1

>  <smiles>  (149) 
[H]c1c([H])n2c([H])c([H])n([H])c2nc1=O

$$$$
43:1:1
     RDKit          3D

 15 16  0  0  1  0  0  0  0  0999 V2000
   -2.1267    1.3084    7.8012 O   0  0  0  0  0  0  0  0  0  0  0  0
   -1.8571    1.5420    6.6300 C   0  0  0  0  0  0  0  0  0  0  0  0
   -2.1854    2.8567    6.0508 C   0  0  0  0  0  0  0  0  0  0  0  0
   -1.8882    3.0993    4.7590 C   0  0  0  0  0  0  0  0  0  0  0  0
   -1.2887    2.1145    4.0137 N   0  0  0  0  0  0  0  0  0  0  0  0
   -0.8835    2.1339    2.7077 C   0  0  0  0  0  0  0  0  0  0  0  0
   -0.3368    0.9451    2.4429 C   0  0  0  0  0  0  0  0  0  0  0  0
   -0.3885    0.1500    3.5734 N   0  0  0  0  0  0  0  0  0  0  0  0
   -0.9932    0.8904    4.5793 C   0  0  0  0  0  0  0  0  0  0  0  0
   -1.2560    0.5609    5.8098 N   0  0  0  0  0  0  0  0  0  0  0  0
   -0.0223   -0.7909    3.6135 H   0  0  0  0  0  0  0  0  0  0  0  0
   -2.6645    3.6038    6.6642 H   0  0  0  0  0  0  0  0  0  0  0  0
   -2.0933    4.0243    4.2398 H   0  0  0  0  0  0  0  0  0  0  0  0
   -1.0328    3.0049    2.0874 H   0  0  0  0  0  0  0  0  0  0  0  0
    0.0921    0.5609    1.5281 H   0  0  0  0  0  0  0  0  0  0  0  0
  1  2  2  0
  2 10  1  0
  2  3  1  0
  3  4  2  0
  3 12  1  0
  4  5  1  0
  4 13  1  0
  5  9  1  0
  5  6  1  0
  6  7  2  0
  6 14  1  0
  7  8  1  0
  7 15  1  0
  8 11  1  0
  8  9  1  0
  9 10  2  0
M  END
>  <i_m_ct_stereo_status>  (150) 
1

>  <s_m_source_file>  (150) 
/var/tmp/pbs.5076255.sched01/tmpr0mrskr5/46emy42_dx.sdf

>  <i_m_source_file_index>  (150) 
19

>  <i_lp_mmshare_version>  (150) 
48012

>  <i_f3d_flags>  (150) 
0

>  <s_epik_input>  (150) 
W2NIXTFbY0hdYyg9TyluYyhuMTIpW25IXVtjSF1bY0hdMg==

>  <s_epik_cmdline>  (150) 
J2VwaWtfcHl0aG9uJywgJy1waHQnLCAnMi4wJywgJy1waCcsICc3LjAnLCAnLXRuJywgJzgnLCAnLW1hJywgJzIwMCcsICctaW1hZScsICc8aW5maWxlLm1hZT4nLCAnLW9tYWUnLCAnPG91dGZpbGUubWFlPic=

>  <r_epik_Ionization_Penalty>  (150) 
2.12726

>  <r_epik_Ionization_Penalty_Charging>  (150) 
1.07856e-08

>  <r_epik_Ionization_Penalty_Neutral>  (150) 
2.12726

>  <r_epik_State_Penalty>  (150) 
2.26536

>  <r_epik_Charging_Adjusted_Penalty>  (150) 
2.26536

>  <i_epik_Tot_Q>  (150) 
0

>  <i_epik_Tot_abs_Q>  (150) 
0

>  <s_lp_Force_Field>  (150) 
OPLS3e

>  <r_lp_Energy>  (150) 
8.72094

>  <b_lp_Chiralities_Consistent>  (150) 
1

>  <s_lp_Variant>  (150) 
43:0-2

>  <s_i_glide_gridfile>  (150) 
pfpi4k_grid

>  <i_i_glide_lignum>  (150) 
19

>  <i_i_glide_rotatable_bonds>  (150) 
0

>  <r_i_docking_score>  (150) 
-4.07939

>  <r_i_glide_ligand_efficiency>  (150) 
-0.407939

>  <r_i_glide_ligand_efficiency_sa>  (150) 
-0.878878

>  <r_i_glide_ligand_efficiency_ln>  (150) 
-1.23521

>  <r_i_glide_gscore>  (150) 
-4.07939

>  <r_i_glide_lipo>  (150) 
-0.0764186

>  <r_i_glide_hbond>  (150) 
-0.128873

>  <r_i_glide_metal>  (150) 
-0

>  <r_i_glide_rewards>  (150) 
-2.25

>  <r_i_glide_evdw>  (150) 
-13.0039

>  <r_i_glide_ecoul>  (150) 
-6.01089

>  <r_i_glide_erotb>  (150) 
0

>  <r_i_glide_esite>  (150) 
-0.0722708

>  <r_i_glide_emodel>  (150) 
-25.4646

>  <r_i_glide_energy>  (150) 
-19.0148

>  <r_i_glide_einternal>  (150) 
0

>  <r_i_glide_intrahb_reward>  (150) 
-0

>  <i_i_glide_confnum>  (150) 
2

>  <i_i_glide_posenum>  (150) 
11

>  <r_i_glide_eff_state_penalty>  (150) 
0

>  <ligand_id>  (150) 
43

>  <original_smiles>  (150) 
O=c1ccn2cc[nH]c2n1

>  <smiles>  (150) 
[H]c1c([H])n2c([H])c([H])n([H])c2nc1=O

$$$$
43:1:2
     RDKit          3D

 15 16  0  0  1  0  0  0  0  0999 V2000
   -2.1794   -0.9609    5.6526 O   0  0  0  0  0  0  0  0  0  0  0  0
   -1.2435   -0.6732    4.9040 C   0  0  0  0  0  0  0  0  0  0  0  0
   -0.1711   -1.6566    4.6357 C   0  0  0  0  0  0  0  0  0  0  0  0
    0.8480   -1.3228    3.8160 C   0  0  0  0  0  0  0  0  0  0  0  0
    0.8717   -0.0730    3.2411 N   0  0  0  0  0  0  0  0  0  0  0  0
    1.7882    0.4907    2.3887 C   0  0  0  0  0  0  0  0  0  0  0  0
    1.3646    1.7292    2.1188 C   0  0  0  0  0  0  0  0  0  0  0  0
    0.1847    1.9716    2.7942 N   0  0  0  0  0  0  0  0  0  0  0  0
   -0.1396    0.8283    3.5081 C   0  0  0  0  0  0  0  0  0  0  0  0
   -1.1551    0.5945    4.2863 N   0  0  0  0  0  0  0  0  0  0  0  0
   -0.3253    2.8396    2.6977 H   0  0  0  0  0  0  0  0  0  0  0  0
   -0.2088   -2.6340    5.0918 H   0  0  0  0  0  0  0  0  0  0  0  0
    1.6729   -1.9749    3.5630 H   0  0  0  0  0  0  0  0  0  0  0  0
    2.6581   -0.0568    2.0551 H   0  0  0  0  0  0  0  0  0  0  0  0
    1.7863    2.5021    1.4935 H   0  0  0  0  0  0  0  0  0  0  0  0
  1  2  2  0
  2 10  1  0
  2  3  1  0
  3  4  2  0
  3 12  1  0
  4  5  1  0
  4 13  1  0
  5  9  1  0
  5  6  1  0
  6  7  2  0
  6 14  1  0
  7  8  1  0
  7 15  1  0
  8 11  1  0
  8  9  1  0
  9 10  2  0
M  END
>  <i_m_ct_stereo_status>  (151) 
1

>  <s_m_source_file>  (151) 
/var/tmp/pbs.5076255.sched01/tmpr0mrskr5/46emy42_dx.sdf

>  <i_m_source_file_index>  (151) 
19

>  <i_lp_mmshare_version>  (151) 
48012

>  <i_f3d_flags>  (151) 
0

>  <s_epik_input>  (151) 
W2NIXTFbY0hdYyg9TyluYyhuMTIpW25IXVtjSF1bY0hdMg==

>  <s_epik_cmdline>  (151) 
J2VwaWtfcHl0aG9uJywgJy1waHQnLCAnMi4wJywgJy1waCcsICc3LjAnLCAnLXRuJywgJzgnLCAnLW1hJywgJzIwMCcsICctaW1hZScsICc8aW5maWxlLm1hZT4nLCAnLW9tYWUnLCAnPG91dGZpbGUubWFlPic=

>  <r_epik_Ionization_Penalty>  (151) 
2.12726

>  <r_epik_Ionization_Penalty_Charging>  (151) 
1.07856e-08

>  <r_epik_Ionization_Penalty_Neutral>  (151) 
2.12726

>  <r_epik_State_Penalty>  (151) 
2.26536

>  <r_epik_Charging_Adjusted_Penalty>  (151) 
2.26536

>  <i_epik_Tot_Q>  (151) 
0

>  <i_epik_Tot_abs_Q>  (151) 
0

>  <s_lp_Force_Field>  (151) 
OPLS3e

>  <r_lp_Energy>  (151) 
8.72094

>  <b_lp_Chiralities_Consistent>  (151) 
1

>  <s_lp_Variant>  (151) 
43:0-2

>  <s_i_glide_gridfile>  (151) 
pfpi4k_grid

>  <i_i_glide_lignum>  (151) 
19

>  <i_i_glide_rotatable_bonds>  (151) 
0

>  <r_i_docking_score>  (151) 
-3.88802

>  <r_i_glide_ligand_efficiency>  (151) 
-0.388802

>  <r_i_glide_ligand_efficiency_sa>  (151) 
-0.837648

>  <r_i_glide_ligand_efficiency_ln>  (151) 
-1.17727

>  <r_i_glide_gscore>  (151) 
-3.88802

>  <r_i_glide_lipo>  (151) 
0

>  <r_i_glide_hbond>  (151) 
-0.0467426

>  <r_i_glide_metal>  (151) 
-0

>  <r_i_glide_rewards>  (151) 
-2.25

>  <r_i_glide_evdw>  (151) 
-14.2706

>  <r_i_glide_ecoul>  (151) 
-5.06133

>  <r_i_glide_erotb>  (151) 
0

>  <r_i_glide_esite>  (151) 
-0.118548

>  <r_i_glide_emodel>  (151) 
-25.4786

>  <r_i_glide_energy>  (151) 
-19.3319

>  <r_i_glide_einternal>  (151) 
0

>  <r_i_glide_intrahb_reward>  (151) 
-0

>  <i_i_glide_confnum>  (151) 
2

>  <i_i_glide_posenum>  (151) 
8

>  <r_i_glide_eff_state_penalty>  (151) 
0

>  <ligand_id>  (151) 
43

>  <original_smiles>  (151) 
O=c1ccn2cc[nH]c2n1

>  <smiles>  (151) 
[H]c1c([H])n2c([H])c([H])n([H])c2nc1=O

$$$$
44:0:0
     RDKit          3D

 36 40  0  0  1  0  0  0  0  0999 V2000
    1.1414   -5.9891    0.6067 O   0  0  0  0  0  0  0  0  0  0  0  0
    1.5015   -6.8686    1.3915 C   0  0  0  0  0  0  0  0  0  0  0  0
    0.4765   -7.7184    2.0900 C   0  0  0  0  0  0  0  0  0  0  0  0
   -0.8484   -7.5441    2.1291 N   0  0  0  0  0  0  0  0  0  0  0  0
   -1.1996   -8.6586    2.8506 C   0  0  0  0  0  0  0  0  0  0  0  0
   -0.1954   -9.4251    3.2691 N   0  0  0  0  0  0  0  0  0  0  0  0
    0.8892   -8.7886    2.7630 N   0  0  0  0  0  0  0  0  0  0  0  0
    2.2509   -9.2588    2.9257 C   0  0  0  0  0  0  0  0  0  0  0  0
    3.2048   -8.0519    2.8278 C   0  0  0  0  0  0  0  0  0  0  0  0
    2.8641   -7.1961    1.6430 N   0  0  0  0  0  0  0  0  0  0  0  0
    3.9156   -6.5184    0.8226 C   0  0  2  0  0  0  0  0  0  0  0  0
    5.1902   -7.1388    1.0015 O   0  0  0  0  0  0  0  0  0  0  0  0
    6.2062   -6.1072    1.2350 C   0  0  0  0  0  0  0  0  0  0  0  0
    5.4617   -4.9340    0.6321 C   0  0  2  0  0  0  0  0  0  0  0  0
    5.5351   -3.4156    0.8241 C   0  0  1  0  0  0  0  0  0  0  0  0
    4.8810   -2.7879   -0.4151 C   0  0  0  0  0  0  0  0  0  0  0  0
    3.4226   -3.2922   -0.3013 C   0  0  0  0  0  0  0  0  0  0  0  0
    3.3938   -3.9090    1.1049 C   0  0  2  0  0  0  0  0  0  0  0  0
    4.4398   -3.1329    1.7090 O   0  0  0  0  0  0  0  0  0  0  0  0
    4.1909   -5.1666    1.3580 C   0  0  1  0  0  0  0  0  0  0  0  0
   -2.2284   -8.9113    3.0866 H   0  0  0  0  0  0  0  0  0  0  0  0
    2.3469   -9.7415    3.8848 H   0  0  0  0  0  0  0  0  0  0  0  0
    2.4719   -9.9880    2.1508 H   0  0  0  0  0  0  0  0  0  0  0  0
    3.0442   -7.4085    3.6926 H   0  0  0  0  0  0  0  0  0  0  0  0
    4.2561   -8.3609    2.8735 H   0  0  0  0  0  0  0  0  0  0  0  0
    3.6439   -6.5607   -0.2373 H   0  0  0  0  0  0  0  0  0  0  0  0
    6.4197   -6.0005    2.3062 H   0  0  0  0  0  0  0  0  0  0  0  0
    7.1160   -6.3358    0.6788 H   0  0  0  0  0  0  0  0  0  0  0  0
    5.4036   -5.1438   -0.4439 H   0  0  0  0  0  0  0  0  0  0  0  0
    6.4946   -3.0063    1.1391 H   0  0  0  0  0  0  0  0  0  0  0  0
    4.9209   -1.6985   -0.3469 H   0  0  0  0  0  0  0  0  0  0  0  0
    5.3550   -3.1144   -1.3407 H   0  0  0  0  0  0  0  0  0  0  0  0
    2.7228   -2.4550   -0.3720 H   0  0  0  0  0  0  0  0  0  0  0  0
    3.1686   -4.0446   -1.0502 H   0  0  0  0  0  0  0  0  0  0  0  0
    2.4615   -3.8200    1.6580 H   0  0  0  0  0  0  0  0  0  0  0  0
    4.3295   -5.2604    2.4482 H   0  0  0  0  0  0  0  0  0  0  0  0
  1  2  2  0
  2 10  1  0
  2  3  1  0
  3  7  1  0
  3  4  2  0
  4  5  1  0
  5  6  2  0
  5 21  1  0
  6  7  1  0
  7  8  1  0
  8  9  1  0
  8 22  1  0
  8 23  1  0
  9 10  1  0
  9 24  1  0
  9 25  1  0
 10 11  1  0
 11 20  1  0
 11 12  1  0
 11 26  1  6
 12 13  1  0
 13 14  1  0
 13 27  1  0
 13 28  1  0
 14 20  1  0
 14 15  1  0
 14 29  1  6
 15 19  1  0
 15 16  1  0
 15 30  1  1
 16 17  1  0
 16 31  1  0
 16 32  1  0
 17 18  1  0
 17 33  1  0
 17 34  1  0
 18 19  1  0
 18 20  1  0
 18 35  1  1
 20 36  1  1
M  END
>  <i_m_ct_stereo_status>  (152) 
1

>  <s_m_source_file>  (152) 
/var/tmp/pbs.5076255.sched01/tmpr0mrskr5/46emy42_dx.sdf

>  <i_m_source_file_index>  (152) 
20

>  <i_lp_mmshare_version>  (152) 
48012

>  <i_f3d_flags>  (152) 
0

>  <s_epik_input>  (152) 
bjFbY0hdbm4oYzEyKVtDSDJdW0NIMl1OKEMyPU8pW0NASF0oT1tDSDJdMylbQ0BASF00W0NAQEhdKE81KVtDSDJdW0NIMl1bQ0BASF01W0NAQEhdMzQ=

>  <s_epik_cmdline>  (152) 
J2VwaWtfcHl0aG9uJywgJy1waHQnLCAnMi4wJywgJy1waCcsICc3LjAnLCAnLXRuJywgJzgnLCAnLW1hJywgJzIwMCcsICctaW1hZScsICc8aW5maWxlLm1hZT4nLCAnLW9tYWUnLCAnPG91dGZpbGUubWFlPic=

>  <r_lp_tautomer_probability>  (152) 
1

>  <r_epik_Ionization_Penalty>  (152) 
4.30966e-09

>  <r_epik_Ionization_Penalty_Charging>  (152) 
0

>  <r_epik_Ionization_Penalty_Neutral>  (152) 
4.30966e-09

>  <r_epik_State_Penalty>  (152) 
-0

>  <r_epik_Charging_Adjusted_Penalty>  (152) 
0

>  <i_epik_Tot_Q>  (152) 
0

>  <i_epik_Tot_abs_Q>  (152) 
0

>  <s_epik_Chemistry_Notes>  (152) 
This compound contains an acetal/aminal-like group ( X-CH(R)-Y where X, Y are N, S, or O) that may be acid/base labile, releasing an aldehyde.

>  <s_lp_Force_Field>  (152) 
OPLS3e

>  <r_lp_Energy>  (152) 
67.331

>  <b_lp_Chiralities_Consistent>  (152) 
1

>  <s_lp_Variant>  (152) 
44:0-1

>  <s_i_glide_gridfile>  (152) 
pfpi4k_grid

>  <i_i_glide_lignum>  (152) 
20

>  <i_i_glide_rotatable_bonds>  (152) 
1

>  <r_i_docking_score>  (152) 
-4.05744

>  <r_i_glide_ligand_efficiency>  (152) 
-0.202872

>  <r_i_glide_ligand_efficiency_sa>  (152) 
-0.550679

>  <r_i_glide_ligand_efficiency_ln>  (152) 
-1.01544

>  <r_i_glide_gscore>  (152) 
-4.05744

>  <r_i_glide_lipo>  (152) 
-0.283958

>  <r_i_glide_hbond>  (152) 
-0.16

>  <r_i_glide_metal>  (152) 
-0

>  <r_i_glide_rewards>  (152) 
-1.68725

>  <r_i_glide_evdw>  (152) 
-25.0349

>  <r_i_glide_ecoul>  (152) 
-5.10946

>  <r_i_glide_erotb>  (152) 
0.235654

>  <r_i_glide_esite>  (152) 
-0.143725

>  <r_i_glide_emodel>  (152) 
-34.6215

>  <r_i_glide_energy>  (152) 
-30.1443

>  <r_i_glide_einternal>  (152) 
5.82716

>  <r_i_glide_intrahb_reward>  (152) 
-0

>  <i_i_glide_confnum>  (152) 
3

>  <i_i_glide_posenum>  (152) 
14

>  <r_i_glide_eff_state_penalty>  (152) 
0

>  <ligand_id>  (152) 
44

>  <original_smiles>  (152) 
O=C1c2ncnn2CCN1C1OCC2C3CCC(O3)C21

>  <smiles>  (152) 
[H]c1nc2n(n1)C([H])([H])C([H])([H])N(C1([H])OC([H])([H])C3([H])C4([H])OC([H])(C([H])([H])C4([H])[H])C13[H])C2=O

$$$$
44:0:1
     RDKit          3D

 36 40  0  0  1  0  0  0  0  0999 V2000
    1.0042   -6.0998    0.7213 O   0  0  0  0  0  0  0  0  0  0  0  0
    2.2029   -5.9751    0.9565 C   0  0  0  0  0  0  0  0  0  0  0  0
    2.9455   -4.7893    0.4320 C   0  0  0  0  0  0  0  0  0  0  0  0
    2.4723   -3.8422   -0.3713 N   0  0  0  0  0  0  0  0  0  0  0  0
    3.5755   -3.0523   -0.4885 C   0  0  0  0  0  0  0  0  0  0  0  0
    4.6531   -3.4436    0.1954 N   0  0  0  0  0  0  0  0  0  0  0  0
    4.2117   -4.5814    0.7843 N   0  0  0  0  0  0  0  0  0  0  0  0
    5.0074   -5.3855    1.6887 C   0  0  0  0  0  0  0  0  0  0  0  0
    4.4564   -6.8269    1.6509 C   0  0  0  0  0  0  0  0  0  0  0  0
    2.9589   -6.8556    1.7787 N   0  0  0  0  0  0  0  0  0  0  0  0
    2.2875   -7.8929    2.6422 C   0  0  2  0  0  0  0  0  0  0  0  0
    1.4464   -8.7061    1.8333 O   0  0  0  0  0  0  0  0  0  0  0  0
    0.1540   -8.9191    2.4867 C   0  0  0  0  0  0  0  0  0  0  0  0
    0.5973   -8.6374    3.9007 C   0  0  2  0  0  0  0  0  0  0  0  0
   -0.1427   -8.2433    5.1809 C   0  0  1  0  0  0  0  0  0  0  0  0
    0.7792   -8.6448    6.3422 C   0  0  0  0  0  0  0  0  0  0  0  0
    2.0057   -7.7372    6.1040 C   0  0  0  0  0  0  0  0  0  0  0  0
    1.5186   -6.7803    5.0046 C   0  0  2  0  0  0  0  0  0  0  0  0
    0.1113   -6.8340    5.2919 O   0  0  0  0  0  0  0  0  0  0  0  0
    1.2722   -7.3438    3.6176 C   0  0  1  0  0  0  0  0  0  0  0  0
    3.5721   -2.1509   -1.0919 H   0  0  0  0  0  0  0  0  0  0  0  0
    6.0561   -5.3453    1.3974 H   0  0  0  0  0  0  0  0  0  0  0  0
    4.9375   -4.9670    2.6928 H   0  0  0  0  0  0  0  0  0  0  0  0
    4.6848   -7.2523    0.6713 H   0  0  0  0  0  0  0  0  0  0  0  0
    4.9696   -7.4612    2.3805 H   0  0  0  0  0  0  0  0  0  0  0  0
    3.0700   -8.5082    3.1026 H   0  0  0  0  0  0  0  0  0  0  0  0
   -0.6222   -8.2289    2.1305 H   0  0  0  0  0  0  0  0  0  0  0  0
   -0.1802   -9.9462    2.3535 H   0  0  0  0  0  0  0  0  0  0  0  0
    1.2778   -9.4580    4.1427 H   0  0  0  0  0  0  0  0  0  0  0  0
   -1.1817   -8.5673    5.2638 H   0  0  0  0  0  0  0  0  0  0  0  0
    0.3049   -8.4230    7.2999 H   0  0  0  0  0  0  0  0  0  0  0  0
    1.0373   -9.7040    6.3180 H   0  0  0  0  0  0  0  0  0  0  0  0
    2.2611   -7.1890    7.0145 H   0  0  0  0  0  0  0  0  0  0  0  0
    2.8798   -8.2844    5.7547 H   0  0  0  0  0  0  0  0  0  0  0  0
    1.9203   -5.7696    5.0240 H   0  0  0  0  0  0  0  0  0  0  0  0
    0.6049   -6.6370    3.1133 H   0  0  0  0  0  0  0  0  0  0  0  0
  1  2  2  0
  2 10  1  0
  2  3  1  0
  3  7  1  0
  3  4  2  0
  4  5  1  0
  5  6  2  0
  5 21  1  0
  6  7  1  0
  7  8  1  0
  8  9  1  0
  8 22  1  0
  8 23  1  0
  9 10  1  0
  9 24  1  0
  9 25  1  0
 10 11  1  0
 11 20  1  0
 11 12  1  0
 11 26  1  1
 12 13  1  0
 13 14  1  0
 13 27  1  0
 13 28  1  0
 14 20  1  0
 14 15  1  0
 14 29  1  1
 15 19  1  0
 15 16  1  0
 15 30  1  1
 16 17  1  0
 16 31  1  0
 16 32  1  0
 17 18  1  0
 17 33  1  0
 17 34  1  0
 18 19  1  0
 18 20  1  0
 18 35  1  6
 20 36  1  6
M  END
>  <i_m_ct_stereo_status>  (153) 
1

>  <s_m_source_file>  (153) 
/var/tmp/pbs.5076255.sched01/tmpr0mrskr5/46emy42_dx.sdf

>  <i_m_source_file_index>  (153) 
20

>  <i_lp_mmshare_version>  (153) 
48012

>  <i_f3d_flags>  (153) 
0

>  <s_epik_input>  (153) 
bjFbY0hdbm4oYzEyKVtDSDJdW0NIMl1OKEMyPU8pW0NASF0oT1tDSDJdMylbQ0BASF00W0NAQEhdKE81KVtDSDJdW0NIMl1bQ0BASF01W0NAQEhdMzQ=

>  <s_epik_cmdline>  (153) 
J2VwaWtfcHl0aG9uJywgJy1waHQnLCAnMi4wJywgJy1waCcsICc3LjAnLCAnLXRuJywgJzgnLCAnLW1hJywgJzIwMCcsICctaW1hZScsICc8aW5maWxlLm1hZT4nLCAnLW9tYWUnLCAnPG91dGZpbGUubWFlPic=

>  <r_lp_tautomer_probability>  (153) 
1

>  <r_epik_Ionization_Penalty>  (153) 
4.30966e-09

>  <r_epik_Ionization_Penalty_Charging>  (153) 
0

>  <r_epik_Ionization_Penalty_Neutral>  (153) 
4.30966e-09

>  <r_epik_State_Penalty>  (153) 
-0

>  <r_epik_Charging_Adjusted_Penalty>  (153) 
0

>  <i_epik_Tot_Q>  (153) 
0

>  <i_epik_Tot_abs_Q>  (153) 
0

>  <s_epik_Chemistry_Notes>  (153) 
This compound contains an acetal/aminal-like group ( X-CH(R)-Y where X, Y are N, S, or O) that may be acid/base labile, releasing an aldehyde.

>  <s_lp_Force_Field>  (153) 
OPLS3e

>  <r_lp_Energy>  (153) 
67.331

>  <b_lp_Chiralities_Consistent>  (153) 
1

>  <s_lp_Variant>  (153) 
44:0-1

>  <s_i_glide_gridfile>  (153) 
pfpi4k_grid

>  <i_i_glide_lignum>  (153) 
20

>  <i_i_glide_rotatable_bonds>  (153) 
1

>  <r_i_docking_score>  (153) 
-3.18474

>  <r_i_glide_ligand_efficiency>  (153) 
-0.159237

>  <r_i_glide_ligand_efficiency_sa>  (153) 
-0.432236

>  <r_i_glide_ligand_efficiency_ln>  (153) 
-0.797036

>  <r_i_glide_gscore>  (153) 
-3.18474

>  <r_i_glide_lipo>  (153) 
-0.0899246

>  <r_i_glide_hbond>  (153) 
-0.16

>  <r_i_glide_metal>  (153) 
-0

>  <r_i_glide_rewards>  (153) 
-1.59724

>  <r_i_glide_evdw>  (153) 
-20.204

>  <r_i_glide_ecoul>  (153) 
-3.27276

>  <r_i_glide_erotb>  (153) 
0.235654

>  <r_i_glide_esite>  (153) 
-0.0721156

>  <r_i_glide_emodel>  (153) 
-29.3234

>  <r_i_glide_energy>  (153) 
-23.4768

>  <r_i_glide_einternal>  (153) 
0.0178413

>  <r_i_glide_intrahb_reward>  (153) 
-0

>  <i_i_glide_confnum>  (153) 
4

>  <i_i_glide_posenum>  (153) 
9

>  <r_i_glide_eff_state_penalty>  (153) 
0

>  <ligand_id>  (153) 
44

>  <original_smiles>  (153) 
O=C1c2ncnn2CCN1C1OCC2C3CCC(O3)C21

>  <smiles>  (153) 
[H]c1nc2n(n1)C([H])([H])C([H])([H])N(C1([H])OC([H])([H])C3([H])C4([H])OC([H])(C([H])([H])C4([H])[H])C13[H])C2=O

$$$$
44:0:2
     RDKit          3D

 36 40  0  0  1  0  0  0  0  0999 V2000
    1.8657   -5.3849    1.4159 O   0  0  0  0  0  0  0  0  0  0  0  0
    2.9616   -5.9565    1.3336 C   0  0  0  0  0  0  0  0  0  0  0  0
    4.2004   -5.1657    1.0766 C   0  0  0  0  0  0  0  0  0  0  0  0
    4.3072   -3.8659    0.8287 N   0  0  0  0  0  0  0  0  0  0  0  0
    5.6552   -3.7488    0.7121 C   0  0  0  0  0  0  0  0  0  0  0  0
    6.3636   -4.8741    0.8832 N   0  0  0  0  0  0  0  0  0  0  0  0
    5.3909   -5.7814    1.1162 N   0  0  0  0  0  0  0  0  0  0  0  0
    5.6428   -7.1759    1.4120 C   0  0  0  0  0  0  0  0  0  0  0  0
    4.3972   -7.9845    1.0056 C   0  0  0  0  0  0  0  0  0  0  0  0
    3.1314   -7.3478    1.5239 N   0  0  0  0  0  0  0  0  0  0  0  0
    2.0222   -8.1991    2.0813 C   0  0  2  0  0  0  0  0  0  0  0  0
    0.8160   -7.9044    1.3825 O   0  0  0  0  0  0  0  0  0  0  0  0
   -0.3044   -7.8302    2.3096 C   0  0  0  0  0  0  0  0  0  0  0  0
    0.3187   -8.5778    3.4675 C   0  0  2  0  0  0  0  0  0  0  0  0
    0.0412   -8.6139    4.9751 C   0  0  1  0  0  0  0  0  0  0  0  0
    0.6257   -9.9395    5.4842 C   0  0  0  0  0  0  0  0  0  0  0  0
    2.1302   -9.7553    5.1961 C   0  0  0  0  0  0  0  0  0  0  0  0
    2.2253   -8.2728    4.8012 C   0  0  2  0  0  0  0  0  0  0  0  0
    1.0805   -7.7922    5.5185 O   0  0  0  0  0  0  0  0  0  0  0  0
    1.6024   -7.8329    3.4839 C   0  0  1  0  0  0  0  0  0  0  0  0
    6.1346   -2.7996    0.5083 H   0  0  0  0  0  0  0  0  0  0  0  0
    6.5284   -7.5118    0.8762 H   0  0  0  0  0  0  0  0  0  0  0  0
    5.8490   -7.2872    2.4764 H   0  0  0  0  0  0  0  0  0  0  0  0
    4.3196   -7.9681   -0.0836 H   0  0  0  0  0  0  0  0  0  0  0  0
    4.4955   -9.0386    1.2793 H   0  0  0  0  0  0  0  0  0  0  0  0
    2.3089   -9.2477    1.9623 H   0  0  0  0  0  0  0  0  0  0  0  0
   -0.5576   -6.7932    2.5574 H   0  0  0  0  0  0  0  0  0  0  0  0
   -1.1822   -8.3395    1.9104 H   0  0  0  0  0  0  0  0  0  0  0  0
    0.3988   -9.6117    3.1150 H   0  0  0  0  0  0  0  0  0  0  0  0
   -0.9807   -8.3975    5.2896 H   0  0  0  0  0  0  0  0  0  0  0  0
    0.4402  -10.0589    6.5541 H   0  0  0  0  0  0  0  0  0  0  0  0
    0.2107  -10.8069    4.9682 H   0  0  0  0  0  0  0  0  0  0  0  0
    2.7151   -9.9658    6.0969 H   0  0  0  0  0  0  0  0  0  0  0  0
    2.4885  -10.3874    4.3827 H   0  0  0  0  0  0  0  0  0  0  0  0
    3.1453   -7.7588    5.0702 H   0  0  0  0  0  0  0  0  0  0  0  0
    1.4569   -6.7508    3.5522 H   0  0  0  0  0  0  0  0  0  0  0  0
  1  2  2  0
  2 10  1  0
  2  3  1  0
  3  7  1  0
  3  4  2  0
  4  5  1  0
  5  6  2  0
  5 21  1  0
  6  7  1  0
  7  8  1  0
  8  9  1  0
  8 22  1  0
  8 23  1  0
  9 10  1  0
  9 24  1  0
  9 25  1  0
 10 11  1  0
 11 20  1  0
 11 12  1  0
 11 26  1  1
 12 13  1  0
 13 14  1  0
 13 27  1  0
 13 28  1  0
 14 20  1  0
 14 15  1  0
 14 29  1  6
 15 19  1  0
 15 16  1  0
 15 30  1  6
 16 17  1  0
 16 31  1  0
 16 32  1  0
 17 18  1  0
 17 33  1  0
 17 34  1  0
 18 19  1  0
 18 20  1  0
 18 35  1  1
 20 36  1  6
M  END
>  <i_m_ct_stereo_status>  (154) 
1

>  <s_m_source_file>  (154) 
/var/tmp/pbs.5076255.sched01/tmpr0mrskr5/46emy42_dx.sdf

>  <i_m_source_file_index>  (154) 
20

>  <i_lp_mmshare_version>  (154) 
48012

>  <i_f3d_flags>  (154) 
0

>  <s_epik_input>  (154) 
bjFbY0hdbm4oYzEyKVtDSDJdW0NIMl1OKEMyPU8pW0NASF0oT1tDSDJdMylbQ0BASF00W0NAQEhdKE81KVtDSDJdW0NIMl1bQ0BASF01W0NAQEhdMzQ=

>  <s_epik_cmdline>  (154) 
J2VwaWtfcHl0aG9uJywgJy1waHQnLCAnMi4wJywgJy1waCcsICc3LjAnLCAnLXRuJywgJzgnLCAnLW1hJywgJzIwMCcsICctaW1hZScsICc8aW5maWxlLm1hZT4nLCAnLW9tYWUnLCAnPG91dGZpbGUubWFlPic=

>  <r_lp_tautomer_probability>  (154) 
1

>  <r_epik_Ionization_Penalty>  (154) 
4.30966e-09

>  <r_epik_Ionization_Penalty_Charging>  (154) 
0

>  <r_epik_Ionization_Penalty_Neutral>  (154) 
4.30966e-09

>  <r_epik_State_Penalty>  (154) 
-0

>  <r_epik_Charging_Adjusted_Penalty>  (154) 
0

>  <i_epik_Tot_Q>  (154) 
0

>  <i_epik_Tot_abs_Q>  (154) 
0

>  <s_epik_Chemistry_Notes>  (154) 
This compound contains an acetal/aminal-like group ( X-CH(R)-Y where X, Y are N, S, or O) that may be acid/base labile, releasing an aldehyde.

>  <s_lp_Force_Field>  (154) 
OPLS3e

>  <r_lp_Energy>  (154) 
67.331

>  <b_lp_Chiralities_Consistent>  (154) 
1

>  <s_lp_Variant>  (154) 
44:0-1

>  <s_i_glide_gridfile>  (154) 
pfpi4k_grid

>  <i_i_glide_lignum>  (154) 
20

>  <i_i_glide_rotatable_bonds>  (154) 
1

>  <r_i_docking_score>  (154) 
-2.97632

>  <r_i_glide_ligand_efficiency>  (154) 
-0.148816

>  <r_i_glide_ligand_efficiency_sa>  (154) 
-0.403949

>  <r_i_glide_ligand_efficiency_ln>  (154) 
-0.744875

>  <r_i_glide_gscore>  (154) 
-2.97632

>  <r_i_glide_lipo>  (154) 
-0.11593

>  <r_i_glide_hbond>  (154) 
-0.0572667

>  <r_i_glide_metal>  (154) 
-0

>  <r_i_glide_rewards>  (154) 
-1.86313

>  <r_i_glide_evdw>  (154) 
-21.5747

>  <r_i_glide_ecoul>  (154) 
-0.52408

>  <r_i_glide_erotb>  (154) 
0.235654

>  <r_i_glide_esite>  (154) 
-0.0182951

>  <r_i_glide_emodel>  (154) 
-27.4334

>  <r_i_glide_energy>  (154) 
-22.0988

>  <r_i_glide_einternal>  (154) 
0.192508

>  <r_i_glide_intrahb_reward>  (154) 
-0

>  <i_i_glide_confnum>  (154) 
4

>  <i_i_glide_posenum>  (154) 
28

>  <r_i_glide_eff_state_penalty>  (154) 
0

>  <ligand_id>  (154) 
44

>  <original_smiles>  (154) 
O=C1c2ncnn2CCN1C1OCC2C3CCC(O3)C21

>  <smiles>  (154) 
[H]c1nc2n(n1)C([H])([H])C([H])([H])N(C1([H])OC([H])([H])C3([H])C4([H])OC([H])(C([H])([H])C4([H])[H])C13[H])C2=O

$$$$
45:0:0
     RDKit          3D

 57 62  0  0  1  0  0  0  0  0999 V2000
    3.7013    0.3723   -4.3824 C   0  0  0  0  0  0  0  0  0  0  0  0
    3.7729   -0.7009   -3.3227 C   0  0  0  0  0  0  0  0  0  0  0  0
    3.1290   -1.8770   -3.2937 C   0  0  0  0  0  0  0  0  0  0  0  0
    3.4513   -2.4449   -1.9502 C   0  0  1  0  0  0  0  0  0  0  0  0
    3.4262   -3.8210   -1.5141 C   0  0  0  0  0  0  0  0  0  0  0  0
    4.3112   -4.0616   -0.5275 C   0  0  0  0  0  0  0  0  0  0  0  0
    3.9979   -5.2012    0.4929 C   0  0  1  0  0  0  0  0  0  0  0  0
    5.0002   -5.4927    1.6392 C   0  0  0  0  0  0  0  0  0  0  0  0
    4.6104   -6.7906    2.4116 C   0  0  0  0  0  0  0  0  0  0  0  0
    6.3918   -5.8959    1.0934 C   0  0  0  0  0  0  0  0  0  0  0  0
    4.7262   -4.2314    2.5624 C   0  0  1  0  0  0  0  0  0  0  0  0
    5.3015   -4.3844    3.9863 C   0  0  0  0  0  0  0  0  0  0  0  0
    5.2676   -2.8895    1.9763 C   0  0  0  0  0  0  0  0  0  0  0  0
    4.6294   -2.1913    1.0292 C   0  0  0  0  0  0  0  0  0  0  0  0
    3.5609   -1.1250    1.2518 C   0  0  0  0  0  0  0  0  0  0  0  0
    5.1219   -2.7181   -0.3076 C   0  0  1  0  0  0  0  0  0  0  0  0
    6.6260   -2.8056   -0.0327 C   0  0  0  0  0  0  0  0  0  0  0  0
    6.6750   -2.9580    1.4613 C   0  0  0  0  0  0  0  0  0  0  0  0
    4.8750   -2.0296   -1.6842 C   0  0  1  0  0  0  0  0  0  0  0  0
    5.8702   -2.6806   -2.7055 C   0  0  0  0  0  0  0  0  0  0  0  0
    4.6909   -0.5664   -2.0844 C   0  0  0  0  0  0  0  0  0  0  0  0
    3.1768   -4.2456    2.5914 C   0  0  1  0  0  0  0  0  0  0  0  0
    2.3783   -3.5732    1.6165 O   0  0  0  0  0  0  0  0  0  0  0  0
    2.7319   -4.8985    1.2801 C   0  0  1  0  0  0  0  0  0  0  0  0
    1.3683   -6.1891    1.3206 S   0  0  0  0  0  0  0  0  0  0  0  0
    1.9754   -7.4947    1.4300 O   0  0  0  0  0  0  0  0  0  0  0  0
    0.5426   -5.7804    2.4767 O   0  0  0  0  0  0  0  0  0  0  0  0
    0.6782   -5.8800    0.0347 O   0  0  0  0  0  0  0  0  0  0  0  0
    4.6696    0.5806   -4.7975 H   0  0  0  0  0  0  0  0  0  0  0  0
    3.3552    1.2735   -3.9155 H   0  0  0  0  0  0  0  0  0  0  0  0
    3.0171    0.0695   -5.1697 H   0  0  0  0  0  0  0  0  0  0  0  0
    2.4246   -2.2938   -3.9967 H   0  0  0  0  0  0  0  0  0  0  0  0
    2.7172   -1.9769   -1.2999 H   0  0  0  0  0  0  0  0  0  0  0  0
    2.4873   -4.3562   -1.6729 H   0  0  0  0  0  0  0  0  0  0  0  0
    3.8188   -6.0975   -0.0940 H   0  0  0  0  0  0  0  0  0  0  0  0
    5.3881   -7.0911    3.1089 H   0  0  0  0  0  0  0  0  0  0  0  0
    4.4642   -7.6363    1.7392 H   0  0  0  0  0  0  0  0  0  0  0  0
    3.7030   -6.7153    3.0056 H   0  0  0  0  0  0  0  0  0  0  0  0
    7.1573   -5.8833    1.8690 H   0  0  0  0  0  0  0  0  0  0  0  0
    6.7182   -5.3243    0.2382 H   0  0  0  0  0  0  0  0  0  0  0  0
    6.3712   -6.9167    0.7085 H   0  0  0  0  0  0  0  0  0  0  0  0
    4.8302   -5.1951    4.5383 H   0  0  0  0  0  0  0  0  0  0  0  0
    5.1589   -3.4646    4.5606 H   0  0  0  0  0  0  0  0  0  0  0  0
    6.3641   -4.6214    3.9541 H   0  0  0  0  0  0  0  0  0  0  0  0
    3.9484   -0.1320    1.0251 H   0  0  0  0  0  0  0  0  0  0  0  0
    3.2535   -1.1359    2.3011 H   0  0  0  0  0  0  0  0  0  0  0  0
    2.6716   -1.3041    0.6565 H   0  0  0  0  0  0  0  0  0  0  0  0
    7.1917   -3.5324   -0.6087 H   0  0  0  0  0  0  0  0  0  0  0  0
    7.0843   -1.8425   -0.2785 H   0  0  0  0  0  0  0  0  0  0  0  0
    7.0610   -1.9947    1.7685 H   0  0  0  0  0  0  0  0  0  0  0  0
    7.3421   -3.7237    1.8344 H   0  0  0  0  0  0  0  0  0  0  0  0
    6.8608   -2.2327   -2.6040 H   0  0  0  0  0  0  0  0  0  0  0  0
    5.5502   -2.5313   -3.7413 H   0  0  0  0  0  0  0  0  0  0  0  0
    5.9650   -3.7669   -2.5951 H   0  0  0  0  0  0  0  0  0  0  0  0
    5.6410   -0.0909   -2.3071 H   0  0  0  0  0  0  0  0  0  0  0  0
    4.2117    0.0035   -1.2817 H   0  0  0  0  0  0  0  0  0  0  0  0
    2.6777   -4.5126    3.5130 H   0  0  0  0  0  0  0  0  0  0  0  0
  1  2  1  0
  1 29  1  0
  1 30  1  0
  1 31  1  0
  2 21  1  0
  2  3  2  0
  3  4  1  0
  3 32  1  0
  4 19  1  0
  4  5  1  0
  4 33  1  1
  5  6  2  0
  5 34  1  0
  6 16  1  0
  6  7  1  0
  7 24  1  0
  7  8  1  0
  7 35  1  6
  8  9  1  0
  8 10  1  0
  8 11  1  0
  9 36  1  0
  9 37  1  0
  9 38  1  0
 10 39  1  0
 10 40  1  0
 10 41  1  0
 11 12  1  1
 11 13  1  0
 11 22  1  0
 12 42  1  0
 12 43  1  0
 12 44  1  0
 13 18  1  0
 13 14  2  0
 14 15  1  0
 14 16  1  0
 15 45  1  0
 15 46  1  0
 15 47  1  0
 16 17  1  1
 16 19  1  0
 17 18  1  0
 17 48  1  0
 17 49  1  0
 18 50  1  0
 18 51  1  0
 19 20  1  6
 19 21  1  0
 20 52  1  0
 20 53  1  0
 20 54  1  0
 21 55  1  0
 21 56  1  0
 22 24  1  0
 22 23  1  0
 22 57  1  1
 23 24  1  0
 24 25  1  1
 25 26  2  0
 25 27  2  0
 25 28  1  0
M  CHG  1  28  -1
M  END
>  <i_m_ct_stereo_status>  (155) 
1

>  <s_m_source_file>  (155) 
/var/tmp/pbs.5076255.sched01/tmpr0mrskr5/46emy42_dx.sdf

>  <i_m_source_file_index>  (155) 
21

>  <i_lp_mmshare_version>  (155) 
48012

>  <i_f3d_flags>  (155) 
1

>  <s_epik_input>  (155) 
W0NIM11DKD1bQ0hdMSlbQ0gyXVtDQF0yKFtDSDNdKVtDQEBIXTFbQ0hdPUMoW0NAQF0yMzQpW0NAQEhdNVtDQEBdNihTKD1PKSg9TylbT0hdKVtDQEhdKE82KVtDQEBdKFtDSDNdKShDNShbQ0gzXSlbQ0gzXSlDKD1DM1tDSDNdKVtDSDJdW0NIMl00

>  <s_epik_cmdline>  (155) 
J2VwaWtfcHl0aG9uJywgJy1waHQnLCAnMi4wJywgJy1waCcsICc3LjAnLCAnLXRuJywgJzgnLCAnLW1hJywgJzIwMCcsICctaW1hZScsICc8aW5maWxlLm1hZT4nLCAnLW9tYWUnLCAnPG91dGZpbGUubWFlPic=

>  <r_lp_tautomer_probability>  (155) 
1

>  <r_epik_Ionization_Penalty>  (155) 
9.96284e-09

>  <r_epik_Ionization_Penalty_Charging>  (155) 
9.96046e-09

>  <r_epik_Ionization_Penalty_Neutral>  (155) 
2.38594e-12

>  <r_epik_State_Penalty>  (155) 
-0

>  <r_epik_Charging_Adjusted_Penalty>  (155) 
9.96046e-09

>  <i_epik_Tot_Q>  (155) 
-1

>  <i_epik_Tot_abs_Q>  (155) 
1

>  <s_lp_Force_Field>  (155) 
OPLS3e

>  <r_lp_Energy>  (155) 
153.283

>  <b_lp_Chiralities_Consistent>  (155) 
1

>  <s_lp_Variant>  (155) 
45:0-1

>  <s_i_glide_gridfile>  (155) 
pfpi4k_grid

>  <i_i_glide_lignum>  (155) 
21

>  <i_i_glide_rotatable_bonds>  (155) 
1

>  <r_i_docking_score>  (155) 
-3.16808

>  <r_i_glide_ligand_efficiency>  (155) 
-0.113146

>  <r_i_glide_ligand_efficiency_sa>  (155) 
-0.343577

>  <r_i_glide_ligand_efficiency_ln>  (155) 
-0.731285

>  <r_i_glide_gscore>  (155) 
-3.16808

>  <r_i_glide_lipo>  (155) 
-0.786007

>  <r_i_glide_hbond>  (155) 
-0.344377

>  <r_i_glide_metal>  (155) 
-0

>  <r_i_glide_rewards>  (155) 
-0.671318

>  <r_i_glide_evdw>  (155) 
-12.7051

>  <r_i_glide_ecoul>  (155) 
-3.67192

>  <r_i_glide_erotb>  (155) 
0

>  <r_i_glide_esite>  (155) 
-0.180331

>  <r_i_glide_emodel>  (155) 
-19.9689

>  <r_i_glide_energy>  (155) 
-16.377

>  <r_i_glide_einternal>  (155) 
0.638792

>  <r_i_glide_intrahb_reward>  (155) 
-0

>  <i_i_glide_confnum>  (155) 
1

>  <i_i_glide_posenum>  (155) 
25

>  <r_i_glide_eff_state_penalty>  (155) 
0

>  <ligand_id>  (155) 
45

>  <original_smiles>  (155) 
CC1=CC2C=C3C4C(C)(C)C(C)(C5=C(C)C3(CC5)C2(C)C1)C1OC41S(=O)(=O)O

>  <smiles>  (155) 
[H]C1=C(C([H])([H])[H])C([H])([H])C2(C([H])([H])[H])C1([H])C([H])=C1C3([H])C(C([H])([H])[H])(C([H])([H])[H])C(C([H])([H])[H])(C4=C(C([H])([H])[H])C12C([H])([H])C4([H])[H])C1([H])OC13S(=O)(=O)[O-]

$$$$
45:0:1
     RDKit          3D

 57 62  0  0  1  0  0  0  0  0999 V2000
    3.4594   -0.6769   -3.4837 C   0  0  0  0  0  0  0  0  0  0  0  0
    3.5458   -1.7175   -2.3924 C   0  0  0  0  0  0  0  0  0  0  0  0
    2.6211   -2.6539   -2.0966 C   0  0  0  0  0  0  0  0  0  0  0  0
    3.1006   -3.3054   -0.8466 C   0  0  1  0  0  0  0  0  0  0  0  0
    2.8199   -4.6625   -0.3014 C   0  0  0  0  0  0  0  0  0  0  0  0
    3.8369   -5.0025    0.5190 C   0  0  0  0  0  0  0  0  0  0  0  0
    3.5117   -5.9118    1.7496 C   0  0  1  0  0  0  0  0  0  0  0  0
    4.6975   -6.4450    2.6045 C   0  0  0  0  0  0  0  0  0  0  0  0
    4.2069   -7.5191    3.6242 C   0  0  0  0  0  0  0  0  0  0  0  0
    5.6897   -7.2949    1.7748 C   0  0  0  0  0  0  0  0  0  0  0  0
    5.1029   -5.1229    3.3948 C   0  0  1  0  0  0  0  0  0  0  0  0
    6.0135   -5.3902    4.6168 C   0  0  0  0  0  0  0  0  0  0  0  0
    5.8124   -4.0535    2.5113 C   0  0  0  0  0  0  0  0  0  0  0  0
    5.1092   -3.2582    1.6932 C   0  0  0  0  0  0  0  0  0  0  0  0
    4.5593   -1.8795    2.0482 C   0  0  0  0  0  0  0  0  0  0  0  0
    5.0182   -3.9550    0.3588 C   0  0  1  0  0  0  0  0  0  0  0  0
    6.4736   -4.4744    0.2599 C   0  0  0  0  0  0  0  0  0  0  0  0
    6.9721   -4.5854    1.6843 C   0  0  0  0  0  0  0  0  0  0  0  0
    4.6070   -3.2561   -0.9766 C   0  0  1  0  0  0  0  0  0  0  0  0
    5.0561   -4.1813   -2.1593 C   0  0  0  0  0  0  0  0  0  0  0  0
    4.7829   -1.8109   -1.4791 C   0  0  0  0  0  0  0  0  0  0  0  0
    3.6973   -4.6407    3.8437 C   0  0  1  0  0  0  0  0  0  0  0  0
    2.8933   -3.7635    3.0428 O   0  0  0  0  0  0  0  0  0  0  0  0
    2.7051   -5.1401    2.7900 C   0  0  1  0  0  0  0  0  0  0  0  0
    1.0453   -5.7881    3.3344 S   0  0  0  0  0  0  0  0  0  0  0  0
    1.2821   -7.1056    3.9481 O   0  0  0  0  0  0  0  0  0  0  0  0
    0.5698   -4.7709    4.2763 O   0  0  0  0  0  0  0  0  0  0  0  0
    0.2871   -5.8585    2.0763 O   0  0  0  0  0  0  0  0  0  0  0  0
    4.3081   -0.7716   -4.1608 H   0  0  0  0  0  0  0  0  0  0  0  0
    3.4719    0.3229   -3.0508 H   0  0  0  0  0  0  0  0  0  0  0  0
    2.5359   -0.7944   -4.0557 H   0  0  0  0  0  0  0  0  0  0  0  0
    1.6478   -2.8088   -2.5385 H   0  0  0  0  0  0  0  0  0  0  0  0
    2.7490   -2.6266   -0.0651 H   0  0  0  0  0  0  0  0  0  0  0  0
    1.8291   -5.0830   -0.2557 H   0  0  0  0  0  0  0  0  0  0  0  0
    2.9158   -6.7451    1.3877 H   0  0  0  0  0  0  0  0  0  0  0  0
    5.0382   -8.0263    4.1135 H   0  0  0  0  0  0  0  0  0  0  0  0
    3.6167   -8.2952    3.1367 H   0  0  0  0  0  0  0  0  0  0  0  0
    3.6055   -7.1278    4.4374 H   0  0  0  0  0  0  0  0  0  0  0  0
    6.6206   -7.4967    2.3093 H   0  0  0  0  0  0  0  0  0  0  0  0
    5.9092   -6.8889    0.8032 H   0  0  0  0  0  0  0  0  0  0  0  0
    5.2636   -8.2702    1.5343 H   0  0  0  0  0  0  0  0  0  0  0  0
    5.5259   -6.0043    5.3737 H   0  0  0  0  0  0  0  0  0  0  0  0
    6.2858   -4.4493    5.1010 H   0  0  0  0  0  0  0  0  0  0  0  0
    6.9424   -5.8853    4.3272 H   0  0  0  0  0  0  0  0  0  0  0  0
    5.1429   -1.0737    1.6010 H   0  0  0  0  0  0  0  0  0  0  0  0
    4.5928   -1.7405    3.1332 H   0  0  0  0  0  0  0  0  0  0  0  0
    3.5189   -1.7701    1.7472 H   0  0  0  0  0  0  0  0  0  0  0  0
    6.6022   -5.3790   -0.3070 H   0  0  0  0  0  0  0  0  0  0  0  0
    7.0917   -3.7252   -0.2416 H   0  0  0  0  0  0  0  0  0  0  0  0
    7.8224   -3.9085    1.7615 H   0  0  0  0  0  0  0  0  0  0  0  0
    7.4032   -5.5355    1.9768 H   0  0  0  0  0  0  0  0  0  0  0  0
    6.1120   -4.0424   -2.3815 H   0  0  0  0  0  0  0  0  0  0  0  0
    4.5270   -4.0156   -3.1004 H   0  0  0  0  0  0  0  0  0  0  0  0
    4.9373   -5.2366   -1.9120 H   0  0  0  0  0  0  0  0  0  0  0  0
    5.7077   -1.6742   -2.0377 H   0  0  0  0  0  0  0  0  0  0  0  0
    4.7306   -1.0700   -0.6849 H   0  0  0  0  0  0  0  0  0  0  0  0
    3.4262   -4.7075    4.8907 H   0  0  0  0  0  0  0  0  0  0  0  0
  1  2  1  0
  1 29  1  0
  1 30  1  0
  1 31  1  0
  2 21  1  0
  2  3  2  0
  3  4  1  0
  3 32  1  0
  4 19  1  0
  4  5  1  0
  4 33  1  1
  5  6  2  0
  5 34  1  0
  6 16  1  0
  6  7  1  0
  7 24  1  0
  7  8  1  0
  7 35  1  6
  8  9  1  0
  8 10  1  0
  8 11  1  0
  9 36  1  0
  9 37  1  0
  9 38  1  0
 10 39  1  0
 10 40  1  0
 10 41  1  0
 11 12  1  1
 11 13  1  0
 11 22  1  0
 12 42  1  0
 12 43  1  0
 12 44  1  0
 13 18  1  0
 13 14  2  0
 14 15  1  0
 14 16  1  0
 15 45  1  0
 15 46  1  0
 15 47  1  0
 16 17  1  6
 16 19  1  0
 17 18  1  0
 17 48  1  0
 17 49  1  0
 18 50  1  0
 18 51  1  0
 19 20  1  6
 19 21  1  0
 20 52  1  0
 20 53  1  0
 20 54  1  0
 21 55  1  0
 21 56  1  0
 22 24  1  0
 22 23  1  0
 22 57  1  1
 23 24  1  0
 24 25  1  1
 25 26  2  0
 25 27  2  0
 25 28  1  0
M  CHG  1  28  -1
M  END
>  <i_m_ct_stereo_status>  (156) 
1

>  <s_m_source_file>  (156) 
/var/tmp/pbs.5076255.sched01/tmpr0mrskr5/46emy42_dx.sdf

>  <i_m_source_file_index>  (156) 
21

>  <i_lp_mmshare_version>  (156) 
48012

>  <i_f3d_flags>  (156) 
1

>  <s_epik_input>  (156) 
W0NIM11DKD1bQ0hdMSlbQ0gyXVtDQF0yKFtDSDNdKVtDQEBIXTFbQ0hdPUMoW0NAQF0yMzQpW0NAQEhdNVtDQEBdNihTKD1PKSg9TylbT0hdKVtDQEhdKE82KVtDQEBdKFtDSDNdKShDNShbQ0gzXSlbQ0gzXSlDKD1DM1tDSDNdKVtDSDJdW0NIMl00

>  <s_epik_cmdline>  (156) 
J2VwaWtfcHl0aG9uJywgJy1waHQnLCAnMi4wJywgJy1waCcsICc3LjAnLCAnLXRuJywgJzgnLCAnLW1hJywgJzIwMCcsICctaW1hZScsICc8aW5maWxlLm1hZT4nLCAnLW9tYWUnLCAnPG91dGZpbGUubWFlPic=

>  <r_lp_tautomer_probability>  (156) 
1

>  <r_epik_Ionization_Penalty>  (156) 
9.96284e-09

>  <r_epik_Ionization_Penalty_Charging>  (156) 
9.96046e-09

>  <r_epik_Ionization_Penalty_Neutral>  (156) 
2.38594e-12

>  <r_epik_State_Penalty>  (156) 
-0

>  <r_epik_Charging_Adjusted_Penalty>  (156) 
9.96046e-09

>  <i_epik_Tot_Q>  (156) 
-1

>  <i_epik_Tot_abs_Q>  (156) 
1

>  <s_lp_Force_Field>  (156) 
OPLS3e

>  <r_lp_Energy>  (156) 
153.283

>  <b_lp_Chiralities_Consistent>  (156) 
1

>  <s_lp_Variant>  (156) 
45:0-1

>  <s_i_glide_gridfile>  (156) 
pfpi4k_grid

>  <i_i_glide_lignum>  (156) 
21

>  <i_i_glide_rotatable_bonds>  (156) 
1

>  <r_i_docking_score>  (156) 
-2.85773

>  <r_i_glide_ligand_efficiency>  (156) 
-0.102062

>  <r_i_glide_ligand_efficiency_sa>  (156) 
-0.30992

>  <r_i_glide_ligand_efficiency_ln>  (156) 
-0.659648

>  <r_i_glide_gscore>  (156) 
-2.85773

>  <r_i_glide_lipo>  (156) 
-0.722063

>  <r_i_glide_hbond>  (156) 
-0.264387

>  <r_i_glide_metal>  (156) 
-0

>  <r_i_glide_rewards>  (156) 
-0.671318

>  <r_i_glide_evdw>  (156) 
-19.9755

>  <r_i_glide_ecoul>  (156) 
-1.01893

>  <r_i_glide_erotb>  (156) 
0

>  <r_i_glide_esite>  (156) 
-0.048349

>  <r_i_glide_emodel>  (156) 
-25.1587

>  <r_i_glide_energy>  (156) 
-20.9944

>  <r_i_glide_einternal>  (156) 
0.60055

>  <r_i_glide_intrahb_reward>  (156) 
-0

>  <i_i_glide_confnum>  (156) 
2

>  <i_i_glide_posenum>  (156) 
4

>  <r_i_glide_eff_state_penalty>  (156) 
0

>  <ligand_id>  (156) 
45

>  <original_smiles>  (156) 
CC1=CC2C=C3C4C(C)(C)C(C)(C5=C(C)C3(CC5)C2(C)C1)C1OC41S(=O)(=O)O

>  <smiles>  (156) 
[H]C1=C(C([H])([H])[H])C([H])([H])C2(C([H])([H])[H])C1([H])C([H])=C1C3([H])C(C([H])([H])[H])(C([H])([H])[H])C(C([H])([H])[H])(C4=C(C([H])([H])[H])C12C([H])([H])C4([H])[H])C1([H])OC13S(=O)(=O)[O-]

$$$$
45:0:2
     RDKit          3D

 57 62  0  0  1  0  0  0  0  0999 V2000
    2.8487   -0.6972   -3.9615 C   0  0  0  0  0  0  0  0  0  0  0  0
    3.0125   -1.6674   -2.8098 C   0  0  0  0  0  0  0  0  0  0  0  0
    2.3652   -2.8260   -2.6265 C   0  0  0  0  0  0  0  0  0  0  0  0
    2.7299   -3.2655   -1.2470 C   0  0  1  0  0  0  0  0  0  0  0  0
    2.7261   -4.6011   -0.5927 C   0  0  0  0  0  0  0  0  0  0  0  0
    3.6411   -4.6396    0.3657 C   0  0  0  0  0  0  0  0  0  0  0  0
    3.3887   -5.6398    1.5312 C   0  0  1  0  0  0  0  0  0  0  0  0
    4.4596   -5.7626    2.6406 C   0  0  0  0  0  0  0  0  0  0  0  0
    4.1170   -6.9511    3.5934 C   0  0  0  0  0  0  0  0  0  0  0  0
    5.8211   -6.2334    2.0847 C   0  0  0  0  0  0  0  0  0  0  0  0
    4.2145   -4.3965    3.4159 C   0  0  1  0  0  0  0  0  0  0  0  0
    4.8820   -4.3525    4.8087 C   0  0  0  0  0  0  0  0  0  0  0  0
    4.7105   -3.1185    2.6389 C   0  0  0  0  0  0  0  0  0  0  0  0
    3.9941   -2.6063    1.6392 C   0  0  0  0  0  0  0  0  0  0  0  0
    2.9546   -1.4953    1.7736 C   0  0  0  0  0  0  0  0  0  0  0  0
    4.4446   -3.2879    0.3568 C   0  0  1  0  0  0  0  0  0  0  0  0
    5.9643   -3.3093    0.5623 C   0  0  0  0  0  0  0  0  0  0  0  0
    6.1041   -3.2515    2.0945 C   0  0  0  0  0  0  0  0  0  0  0  0
    4.1429   -2.7606   -1.0805 C   0  0  1  0  0  0  0  0  0  0  0  0
    5.1098   -3.4902   -2.0861 C   0  0  0  0  0  0  0  0  0  0  0  0
    3.9545   -1.3428   -1.6391 C   0  0  0  0  0  0  0  0  0  0  0  0
    2.6743   -4.4064    3.5238 C   0  0  1  0  0  0  0  0  0  0  0  0
    1.8153   -3.8498    2.5176 O   0  0  0  0  0  0  0  0  0  0  0  0
    2.1654   -5.2062    2.3210 C   0  0  1  0  0  0  0  0  0  0  0  0
    0.7615   -6.4047    2.5503 S   0  0  0  0  0  0  0  0  0  0  0  0
    1.3742   -7.7318    2.7266 O   0  0  0  0  0  0  0  0  0  0  0  0
    0.0480   -5.8974    3.7193 O   0  0  0  0  0  0  0  0  0  0  0  0
    0.0185   -6.2613    1.2838 O   0  0  0  0  0  0  0  0  0  0  0  0
    3.7983   -0.4623   -4.4379 H   0  0  0  0  0  0  0  0  0  0  0  0
    2.4107    0.2146   -3.5631 H   0  0  0  0  0  0  0  0  0  0  0  0
    2.1486   -1.0840   -4.7015 H   0  0  0  0  0  0  0  0  0  0  0  0
    1.5888   -3.2797   -3.2460 H   0  0  0  0  0  0  0  0  0  0  0  0
    2.0349   -2.7322   -0.6224 H   0  0  0  0  0  0  0  0  0  0  0  0
    1.8862   -5.2995   -0.6548 H   0  0  0  0  0  0  0  0  0  0  0  0
    3.1912   -6.6162    1.0915 H   0  0  0  0  0  0  0  0  0  0  0  0
    4.9333   -7.1559    4.2831 H   0  0  0  0  0  0  0  0  0  0  0  0
    3.9547   -7.8703    3.0346 H   0  0  0  0  0  0  0  0  0  0  0  0
    3.2323   -6.8069    4.2042 H   0  0  0  0  0  0  0  0  0  0  0  0
    6.6318   -6.1290    2.8136 H   0  0  0  0  0  0  0  0  0  0  0  0
    6.1115   -5.7675    1.1526 H   0  0  0  0  0  0  0  0  0  0  0  0
    5.7959   -7.2956    1.8232 H   0  0  0  0  0  0  0  0  0  0  0  0
    4.4611   -5.1058    5.4767 H   0  0  0  0  0  0  0  0  0  0  0  0
    4.7231   -3.3794    5.2814 H   0  0  0  0  0  0  0  0  0  0  0  0
    5.9591   -4.5164    4.7527 H   0  0  0  0  0  0  0  0  0  0  0  0
    3.3412   -0.5521    1.3990 H   0  0  0  0  0  0  0  0  0  0  0  0
    2.7098   -1.3642    2.8290 H   0  0  0  0  0  0  0  0  0  0  0  0
    2.0332   -1.7401    1.2610 H   0  0  0  0  0  0  0  0  0  0  0  0
    6.5157   -4.0826    0.0665 H   0  0  0  0  0  0  0  0  0  0  0  0
    6.3816   -2.3868    0.1859 H   0  0  0  0  0  0  0  0  0  0  0  0
    6.5556   -2.3033    2.3149 H   0  0  0  0  0  0  0  0  0  0  0  0
    6.7084   -4.0276    2.4812 H   0  0  0  0  0  0  0  0  0  0  0  0
    6.1057   -3.0355   -2.0805 H   0  0  0  0  0  0  0  0  0  0  0  0
    4.7779   -3.4663   -3.1195 H   0  0  0  0  0  0  0  0  0  0  0  0
    5.2213   -4.5487   -1.8403 H   0  0  0  0  0  0  0  0  0  0  0  0
    4.8742   -0.8692   -1.9848 H   0  0  0  0  0  0  0  0  0  0  0  0
    3.4579   -0.6745   -0.9299 H   0  0  0  0  0  0  0  0  0  0  0  0
    2.2259   -4.5768    4.4917 H   0  0  0  0  0  0  0  0  0  0  0  0
  1  2  1  0
  1 29  1  0
  1 30  1  0
  1 31  1  0
  2 21  1  0
  2  3  2  0
  3  4  1  0
  3 32  1  0
  4 19  1  0
  4  5  1  0
  4 33  1  1
  5  6  2  0
  5 34  1  0
  6 16  1  0
  6  7  1  0
  7 24  1  0
  7  8  1  0
  7 35  1  6
  8  9  1  0
  8 10  1  0
  8 11  1  0
  9 36  1  0
  9 37  1  0
  9 38  1  0
 10 39  1  0
 10 40  1  0
 10 41  1  0
 11 12  1  1
 11 13  1  0
 11 22  1  0
 12 42  1  0
 12 43  1  0
 12 44  1  0
 13 18  1  0
 13 14  2  0
 14 15  1  0
 14 16  1  0
 15 45  1  0
 15 46  1  0
 15 47  1  0
 16 17  1  1
 16 19  1  0
 17 18  1  0
 17 48  1  0
 17 49  1  0
 18 50  1  0
 18 51  1  0
 19 20  1  6
 19 21  1  0
 20 52  1  0
 20 53  1  0
 20 54  1  0
 21 55  1  0
 21 56  1  0
 22 24  1  0
 22 23  1  0
 22 57  1  1
 23 24  1  0
 24 25  1  1
 25 26  2  0
 25 27  2  0
 25 28  1  0
M  CHG  1  28  -1
M  END
>  <i_m_ct_stereo_status>  (157) 
1

>  <s_m_source_file>  (157) 
/var/tmp/pbs.5076255.sched01/tmpr0mrskr5/46emy42_dx.sdf

>  <i_m_source_file_index>  (157) 
21

>  <i_lp_mmshare_version>  (157) 
48012

>  <i_f3d_flags>  (157) 
1

>  <s_epik_input>  (157) 
W0NIM11DKD1bQ0hdMSlbQ0gyXVtDQF0yKFtDSDNdKVtDQEBIXTFbQ0hdPUMoW0NAQF0yMzQpW0NAQEhdNVtDQEBdNihTKD1PKSg9TylbT0hdKVtDQEhdKE82KVtDQEBdKFtDSDNdKShDNShbQ0gzXSlbQ0gzXSlDKD1DM1tDSDNdKVtDSDJdW0NIMl00

>  <s_epik_cmdline>  (157) 
J2VwaWtfcHl0aG9uJywgJy1waHQnLCAnMi4wJywgJy1waCcsICc3LjAnLCAnLXRuJywgJzgnLCAnLW1hJywgJzIwMCcsICctaW1hZScsICc8aW5maWxlLm1hZT4nLCAnLW9tYWUnLCAnPG91dGZpbGUubWFlPic=

>  <r_lp_tautomer_probability>  (157) 
1

>  <r_epik_Ionization_Penalty>  (157) 
9.96284e-09

>  <r_epik_Ionization_Penalty_Charging>  (157) 
9.96046e-09

>  <r_epik_Ionization_Penalty_Neutral>  (157) 
2.38594e-12

>  <r_epik_State_Penalty>  (157) 
-0

>  <r_epik_Charging_Adjusted_Penalty>  (157) 
9.96046e-09

>  <i_epik_Tot_Q>  (157) 
-1

>  <i_epik_Tot_abs_Q>  (157) 
1

>  <s_lp_Force_Field>  (157) 
OPLS3e

>  <r_lp_Energy>  (157) 
153.283

>  <b_lp_Chiralities_Consistent>  (157) 
1

>  <s_lp_Variant>  (157) 
45:0-1

>  <s_i_glide_gridfile>  (157) 
pfpi4k_grid

>  <i_i_glide_lignum>  (157) 
21

>  <i_i_glide_rotatable_bonds>  (157) 
1

>  <r_i_docking_score>  (157) 
-2.54033

>  <r_i_glide_ligand_efficiency>  (157) 
-0.0907262

>  <r_i_glide_ligand_efficiency_sa>  (157) 
-0.275498

>  <r_i_glide_ligand_efficiency_ln>  (157) 
-0.586383

>  <r_i_glide_gscore>  (157) 
-2.54033

>  <r_i_glide_lipo>  (157) 
-0.527445

>  <r_i_glide_hbond>  (157) 
-0.322613

>  <r_i_glide_metal>  (157) 
-0

>  <r_i_glide_rewards>  (157) 
-0.671318

>  <r_i_glide_evdw>  (157) 
-14.2636

>  <r_i_glide_ecoul>  (157) 
-1.12025

>  <r_i_glide_erotb>  (157) 
0

>  <r_i_glide_esite>  (157) 
-0.13774

>  <r_i_glide_emodel>  (157) 
-18.7313

>  <r_i_glide_energy>  (157) 
-15.3838

>  <r_i_glide_einternal>  (157) 
0.539477

>  <r_i_glide_intrahb_reward>  (157) 
-0

>  <i_i_glide_confnum>  (157) 
2

>  <i_i_glide_posenum>  (157) 
29

>  <r_i_glide_eff_state_penalty>  (157) 
0

>  <ligand_id>  (157) 
45

>  <original_smiles>  (157) 
CC1=CC2C=C3C4C(C)(C)C(C)(C5=C(C)C3(CC5)C2(C)C1)C1OC41S(=O)(=O)O

>  <smiles>  (157) 
[H]C1=C(C([H])([H])[H])C([H])([H])C2(C([H])([H])[H])C1([H])C([H])=C1C3([H])C(C([H])([H])[H])(C([H])([H])[H])C(C([H])([H])[H])(C4=C(C([H])([H])[H])C12C([H])([H])C4([H])[H])C1([H])OC13S(=O)(=O)[O-]

$$$$
46:0:0
     RDKit          3D

 42 46  0  0  1  0  0  0  0  0999 V2000
    3.7853   -2.2589   -3.5026 C   0  0  0  0  0  0  0  0  0  0  0  0
    4.4024   -3.0581   -2.3430 C   0  0  2  0  0  0  0  0  0  0  0  0
    3.3366   -3.3023   -1.2280 C   0  0  0  0  0  0  0  0  0  0  0  0
    3.8244   -3.9953    0.0788 C   0  0  1  0  0  0  0  0  0  0  0  0
    4.9687   -4.9468   -0.1933 C   0  0  0  0  0  0  0  0  0  0  0  0
    6.1990   -4.0738    0.1146 C   0  0  1  0  0  0  0  0  0  0  0  0
    5.7840   -3.3240    1.1646 O   0  0  0  0  0  0  0  0  0  0  0  0
    4.4474   -3.0433    1.1358 C   0  0  2  0  0  0  0  0  0  0  0  0
    4.3949   -3.5206    2.6427 C   0  0  0  0  0  0  0  0  0  0  0  0
    5.3324   -4.7006    3.0383 C   0  0  0  0  0  0  0  0  0  0  0  0
    5.0425   -5.3369    4.2046 O   0  0  0  0  0  0  0  0  0  0  0  0
    5.9911   -6.3022    4.3570 C   0  0  0  0  0  0  0  0  0  0  0  0
    6.8971   -6.2753    3.3332 C   0  0  0  0  0  0  0  0  0  0  0  0
    6.4820   -5.2358    2.4525 C   0  0  0  0  0  0  0  0  0  0  0  0
    7.1856   -4.7663    1.1301 C   0  0  1  0  0  0  0  0  0  0  0  0
    7.8273   -5.8471    0.4860 O   0  0  0  0  0  0  0  0  0  0  0  0
    5.1407   -1.8236    0.4910 C   0  0  1  0  0  0  0  0  0  0  0  0
    5.7389   -0.7657    1.4517 C   0  0  0  0  0  0  0  0  0  0  0  0
    6.1868   -2.5911   -0.4272 C   0  0  2  0  0  0  0  0  0  0  0  0
    5.7645   -2.4406   -1.9081 C   0  0  0  0  0  0  0  0  0  0  0  0
    3.4892   -1.2579   -3.1857 H   0  0  0  0  0  0  0  0  0  0  0  0
    2.8969   -2.7550   -3.8965 H   0  0  0  0  0  0  0  0  0  0  0  0
    4.4955   -2.1499   -4.3202 H   0  0  0  0  0  0  0  0  0  0  0  0
    4.6383   -4.0299   -2.7756 H   0  0  0  0  0  0  0  0  0  0  0  0
    2.7925   -2.3861   -0.9930 H   0  0  0  0  0  0  0  0  0  0  0  0
    2.5738   -3.9428   -1.6674 H   0  0  0  0  0  0  0  0  0  0  0  0
    2.9852   -4.5297    0.5197 H   0  0  0  0  0  0  0  0  0  0  0  0
    4.8947   -5.7943    0.4867 H   0  0  0  0  0  0  0  0  0  0  0  0
    4.9851   -5.3896   -1.1866 H   0  0  0  0  0  0  0  0  0  0  0  0
    4.6147   -2.6792    3.2970 H   0  0  0  0  0  0  0  0  0  0  0  0
    3.3723   -3.8080    2.8762 H   0  0  0  0  0  0  0  0  0  0  0  0
    5.8849   -6.9176    5.2374 H   0  0  0  0  0  0  0  0  0  0  0  0
    7.7524   -6.9251    3.2405 H   0  0  0  0  0  0  0  0  0  0  0  0
    7.9755   -4.0697    1.4128 H   0  0  0  0  0  0  0  0  0  0  0  0
    8.3931   -6.2812    1.1026 H   0  0  0  0  0  0  0  0  0  0  0  0
    4.4296   -1.2594   -0.1140 H   0  0  0  0  0  0  0  0  0  0  0  0
    6.4975   -1.1755    2.1201 H   0  0  0  0  0  0  0  0  0  0  0  0
    4.9580   -0.3206    2.0683 H   0  0  0  0  0  0  0  0  0  0  0  0
    6.2029    0.0377    0.8795 H   0  0  0  0  0  0  0  0  0  0  0  0
    7.1782   -2.1519   -0.3044 H   0  0  0  0  0  0  0  0  0  0  0  0
    6.5487   -2.8512   -2.5458 H   0  0  0  0  0  0  0  0  0  0  0  0
    5.7453   -1.3733   -2.1294 H   0  0  0  0  0  0  0  0  0  0  0  0
  1  2  1  0
  1 21  1  0
  1 22  1  0
  1 23  1  0
  2 20  1  0
  2  3  1  0
  2 24  1  6
  3  4  1  0
  3 25  1  0
  3 26  1  0
  4  8  1  0
  4  5  1  0
  4 27  1  1
  6  5  1  1
  5 28  1  0
  5 29  1  0
  6 15  1  0
  6 19  1  0
  6  7  1  0
  7  8  1  0
  8  9  1  1
  8 17  1  0
  9 10  1  0
  9 30  1  0
  9 31  1  0
 10 14  2  0
 10 11  1  0
 11 12  1  0
 12 13  2  0
 12 32  1  0
 13 14  1  0
 13 33  1  0
 14 15  1  0
 15 16  1  0
 15 34  1  1
 16 35  1  0
 17 18  1  0
 17 19  1  0
 17 36  1  6
 18 37  1  0
 18 38  1  0
 18 39  1  0
 19 20  1  0
 19 40  1  6
 20 41  1  0
 20 42  1  0
M  END
>  <i_m_ct_stereo_status>  (158) 
1

>  <s_m_source_file>  (158) 
/var/tmp/pbs.5076255.sched01/tmpr0mrskr5/46emy42_dx.sdf

>  <i_m_source_file_index>  (158) 
22

>  <i_lp_mmshare_version>  (158) 
48012

>  <i_f3d_flags>  (158) 
0

>  <s_epik_input>  (158) 
W0NIM11bQ0BASF0oW0NIMl0xKVtDSDJdW0NAQEhdKFtDSDJdMilbQ0BAXShPMykoW0NAQEhdKFtDSDNdKVtDQEhdMVtDQF0yMzQpW0NIMl1jNWMoW2NIXVtjSF1vNSlbQ0BIXTRbT0hd

>  <s_epik_cmdline>  (158) 
J2VwaWtfcHl0aG9uJywgJy1waHQnLCAnMi4wJywgJy1waCcsICc3LjAnLCAnLXRuJywgJzgnLCAnLW1hJywgJzIwMCcsICctaW1hZScsICc8aW5maWxlLm1hZT4nLCAnLW9tYWUnLCAnPG91dGZpbGUubWFlPic=

>  <r_lp_tautomer_probability>  (158) 
1

>  <r_epik_Ionization_Penalty>  (158) 
6.10899e-08

>  <r_epik_Ionization_Penalty_Charging>  (158) 
0

>  <r_epik_Ionization_Penalty_Neutral>  (158) 
6.10899e-08

>  <r_epik_State_Penalty>  (158) 
-0

>  <r_epik_Charging_Adjusted_Penalty>  (158) 
0

>  <i_epik_Tot_Q>  (158) 
0

>  <i_epik_Tot_abs_Q>  (158) 
0

>  <s_lp_Force_Field>  (158) 
OPLS3e

>  <r_lp_Energy>  (158) 
122.329

>  <b_lp_Chiralities_Consistent>  (158) 
1

>  <s_lp_Variant>  (158) 
46:0-1

>  <s_i_glide_gridfile>  (158) 
pfpi4k_grid

>  <i_i_glide_lignum>  (158) 
22

>  <i_i_glide_rotatable_bonds>  (158) 
1

>  <r_i_docking_score>  (158) 
-3.62226

>  <r_i_glide_ligand_efficiency>  (158) 
-0.181113

>  <r_i_glide_ligand_efficiency_sa>  (158) 
-0.491616

>  <r_i_glide_ligand_efficiency_ln>  (158) 
-0.906532

>  <r_i_glide_gscore>  (158) 
-3.62226

>  <r_i_glide_lipo>  (158) 
-0.687734

>  <r_i_glide_hbond>  (158) 
0

>  <r_i_glide_metal>  (158) 
-0

>  <r_i_glide_rewards>  (158) 
-1.53849

>  <r_i_glide_evdw>  (158) 
-23.1281

>  <r_i_glide_ecoul>  (158) 
-1.59753

>  <r_i_glide_erotb>  (158) 
0

>  <r_i_glide_esite>  (158) 
0

>  <r_i_glide_emodel>  (158) 
-29.9217

>  <r_i_glide_energy>  (158) 
-24.7257

>  <r_i_glide_einternal>  (158) 
0.667495

>  <r_i_glide_intrahb_reward>  (158) 
-0

>  <i_i_glide_confnum>  (158) 
1

>  <i_i_glide_posenum>  (158) 
5

>  <r_i_glide_eff_state_penalty>  (158) 
0

>  <ligand_id>  (158) 
46

>  <original_smiles>  (158) 
CC1CC2CC34OC2(Cc2occc2C3O)C(C)C4C1

>  <smiles>  (158) 
[H]OC1([H])c2c(oc([H])c2[H])C([H])([H])C23OC14C([H])([H])C2([H])C([H])([H])C([H])(C([H])([H])[H])C([H])([H])C4([H])C3([H])C([H])([H])[H]

$$$$
46:0:1
     RDKit          3D

 42 46  0  0  1  0  0  0  0  0999 V2000
    3.7958   -1.2958   -4.2352 C   0  0  0  0  0  0  0  0  0  0  0  0
    3.7910   -2.0946   -2.9240 C   0  0  2  0  0  0  0  0  0  0  0  0
    3.6512   -1.1203   -1.7196 C   0  0  0  0  0  0  0  0  0  0  0  0
    3.7262   -1.7279   -0.2858 C   0  0  1  0  0  0  0  0  0  0  0  0
    3.1983   -3.1455   -0.2636 C   0  0  0  0  0  0  0  0  0  0  0  0
    4.4878   -3.9654   -0.4203 C   0  0  1  0  0  0  0  0  0  0  0  0
    5.3949   -3.2517    0.2891 O   0  0  0  0  0  0  0  0  0  0  0  0
    5.1630   -1.9072    0.2767 C   0  0  2  0  0  0  0  0  0  0  0  0
    5.3207   -1.9382    1.8509 C   0  0  0  0  0  0  0  0  0  0  0  0
    4.8033   -3.2072    2.5859 C   0  0  0  0  0  0  0  0  0  0  0  0
    4.5988   -3.0893    3.9280 O   0  0  0  0  0  0  0  0  0  0  0  0
    4.1645   -4.3100    4.3565 C   0  0  0  0  0  0  0  0  0  0  0  0
    4.1126   -5.2037    3.3257 C   0  0  0  0  0  0  0  0  0  0  0  0
    4.5240   -4.5043    2.1564 C   0  0  0  0  0  0  0  0  0  0  0  0
    4.6356   -5.0703    0.6939 C   0  0  1  0  0  0  0  0  0  0  0  0
    3.6512   -6.0538    0.4523 O   0  0  0  0  0  0  0  0  0  0  0  0
    6.1996   -2.1704   -0.8372 C   0  0  1  0  0  0  0  0  0  0  0  0
    7.6861   -2.3062   -0.4009 C   0  0  0  0  0  0  0  0  0  0  0  0
    5.5388   -3.4637   -1.4824 C   0  0  2  0  0  0  0  0  0  0  0  0
    4.9608   -3.1166   -2.8724 C   0  0  0  0  0  0  0  0  0  0  0  0
    4.6708   -0.6550   -4.3092 H   0  0  0  0  0  0  0  0  0  0  0  0
    2.9110   -0.6632   -4.3210 H   0  0  0  0  0  0  0  0  0  0  0  0
    3.7920   -1.9611   -5.0918 H   0  0  0  0  0  0  0  0  0  0  0  0
    2.8758   -2.6848   -2.9668 H   0  0  0  0  0  0  0  0  0  0  0  0
    4.3296   -0.2694   -1.8064 H   0  0  0  0  0  0  0  0  0  0  0  0
    2.6610   -0.6795   -1.8323 H   0  0  0  0  0  0  0  0  0  0  0  0
    3.1429   -1.1023    0.3880 H   0  0  0  0  0  0  0  0  0  0  0  0
    2.7141   -3.3352    0.6955 H   0  0  0  0  0  0  0  0  0  0  0  0
    2.4444   -3.3754   -1.0132 H   0  0  0  0  0  0  0  0  0  0  0  0
    6.3689   -1.7993    2.1082 H   0  0  0  0  0  0  0  0  0  0  0  0
    4.8059   -1.0713    2.2608 H   0  0  0  0  0  0  0  0  0  0  0  0
    3.9375   -4.3698    5.4115 H   0  0  0  0  0  0  0  0  0  0  0  0
    3.8129   -6.2398    3.4057 H   0  0  0  0  0  0  0  0  0  0  0  0
    5.6065   -5.5628    0.6048 H   0  0  0  0  0  0  0  0  0  0  0  0
    3.6581   -6.2516   -0.4750 H   0  0  0  0  0  0  0  0  0  0  0  0
    6.1961   -1.3499   -1.5520 H   0  0  0  0  0  0  0  0  0  0  0  0
    7.8481   -3.1207    0.3054 H   0  0  0  0  0  0  0  0  0  0  0  0
    8.0344   -1.3907    0.0798 H   0  0  0  0  0  0  0  0  0  0  0  0
    8.3268   -2.4932   -1.2660 H   0  0  0  0  0  0  0  0  0  0  0  0
    6.2821   -4.2414   -1.6163 H   0  0  0  0  0  0  0  0  0  0  0  0
    4.6376   -4.0374   -3.3589 H   0  0  0  0  0  0  0  0  0  0  0  0
    5.7853   -2.7486   -3.4822 H   0  0  0  0  0  0  0  0  0  0  0  0
  1  2  1  0
  1 21  1  0
  1 22  1  0
  1 23  1  0
  2 20  1  0
  2  3  1  0
  2 24  1  6
  3  4  1  0
  3 25  1  0
  3 26  1  0
  4  8  1  0
  4  5  1  0
  4 27  1  1
  6  5  1  1
  5 28  1  0
  5 29  1  0
  6 15  1  0
  6 19  1  0
  6  7  1  0
  7  8  1  0
  8  9  1  1
  8 17  1  0
  9 10  1  0
  9 30  1  0
  9 31  1  0
 10 14  2  0
 10 11  1  0
 11 12  1  0
 12 13  2  0
 12 32  1  0
 13 14  1  0
 13 33  1  0
 14 15  1  0
 15 16  1  0
 15 34  1  1
 16 35  1  0
 17 18  1  0
 17 19  1  0
 17 36  1  6
 18 37  1  0
 18 38  1  0
 18 39  1  0
 19 20  1  0
 19 40  1  6
 20 41  1  0
 20 42  1  0
M  END
>  <i_m_ct_stereo_status>  (159) 
1

>  <s_m_source_file>  (159) 
/var/tmp/pbs.5076255.sched01/tmpr0mrskr5/46emy42_dx.sdf

>  <i_m_source_file_index>  (159) 
22

>  <i_lp_mmshare_version>  (159) 
48012

>  <i_f3d_flags>  (159) 
0

>  <s_epik_input>  (159) 
W0NIM11bQ0BASF0oW0NIMl0xKVtDSDJdW0NAQEhdKFtDSDJdMilbQ0BAXShPMykoW0NAQEhdKFtDSDNdKVtDQEhdMVtDQF0yMzQpW0NIMl1jNWMoW2NIXVtjSF1vNSlbQ0BIXTRbT0hd

>  <s_epik_cmdline>  (159) 
J2VwaWtfcHl0aG9uJywgJy1waHQnLCAnMi4wJywgJy1waCcsICc3LjAnLCAnLXRuJywgJzgnLCAnLW1hJywgJzIwMCcsICctaW1hZScsICc8aW5maWxlLm1hZT4nLCAnLW9tYWUnLCAnPG91dGZpbGUubWFlPic=

>  <r_lp_tautomer_probability>  (159) 
1

>  <r_epik_Ionization_Penalty>  (159) 
6.10899e-08

>  <r_epik_Ionization_Penalty_Charging>  (159) 
0

>  <r_epik_Ionization_Penalty_Neutral>  (159) 
6.10899e-08

>  <r_epik_State_Penalty>  (159) 
-0

>  <r_epik_Charging_Adjusted_Penalty>  (159) 
0

>  <i_epik_Tot_Q>  (159) 
0

>  <i_epik_Tot_abs_Q>  (159) 
0

>  <s_lp_Force_Field>  (159) 
OPLS3e

>  <r_lp_Energy>  (159) 
122.329

>  <b_lp_Chiralities_Consistent>  (159) 
1

>  <s_lp_Variant>  (159) 
46:0-1

>  <s_i_glide_gridfile>  (159) 
pfpi4k_grid

>  <i_i_glide_lignum>  (159) 
22

>  <i_i_glide_rotatable_bonds>  (159) 
1

>  <r_i_docking_score>  (159) 
-3.53628

>  <r_i_glide_ligand_efficiency>  (159) 
-0.176814

>  <r_i_glide_ligand_efficiency_sa>  (159) 
-0.479947

>  <r_i_glide_ligand_efficiency_ln>  (159) 
-0.885015

>  <r_i_glide_gscore>  (159) 
-3.53628

>  <r_i_glide_lipo>  (159) 
-0.550341

>  <r_i_glide_hbond>  (159) 
0

>  <r_i_glide_metal>  (159) 
-0

>  <r_i_glide_rewards>  (159) 
-1.53849

>  <r_i_glide_evdw>  (159) 
-23.9326

>  <r_i_glide_ecoul>  (159) 
-1.67214

>  <r_i_glide_erotb>  (159) 
0

>  <r_i_glide_esite>  (159) 
0

>  <r_i_glide_emodel>  (159) 
-30.8203

>  <r_i_glide_energy>  (159) 
-25.6047

>  <r_i_glide_einternal>  (159) 
0.183729

>  <r_i_glide_intrahb_reward>  (159) 
-0

>  <i_i_glide_confnum>  (159) 
1

>  <i_i_glide_posenum>  (159) 
18

>  <r_i_glide_eff_state_penalty>  (159) 
0

>  <ligand_id>  (159) 
46

>  <original_smiles>  (159) 
CC1CC2CC34OC2(Cc2occc2C3O)C(C)C4C1

>  <smiles>  (159) 
[H]OC1([H])c2c(oc([H])c2[H])C([H])([H])C23OC14C([H])([H])C2([H])C([H])([H])C([H])(C([H])([H])[H])C([H])([H])C4([H])C3([H])C([H])([H])[H]

$$$$
46:0:2
     RDKit          3D

 42 46  0  0  1  0  0  0  0  0999 V2000
    3.9153   -2.3078   -3.9179 C   0  0  0  0  0  0  0  0  0  0  0  0
    3.8974   -2.6231   -2.4169 C   0  0  2  0  0  0  0  0  0  0  0  0
    3.8390   -1.3004   -1.5937 C   0  0  0  0  0  0  0  0  0  0  0  0
    3.9296   -1.4213   -0.0437 C   0  0  1  0  0  0  0  0  0  0  0  0
    3.3263   -2.7206    0.4389 C   0  0  0  0  0  0  0  0  0  0  0  0
    4.5643   -3.6301    0.5477 C   0  0  1  0  0  0  0  0  0  0  0  0
    5.5260   -2.7820    0.9833 O   0  0  0  0  0  0  0  0  0  0  0  0
    5.3720   -1.5054    0.5305 C   0  0  2  0  0  0  0  0  0  0  0  0
    5.5702   -1.0357    2.0296 C   0  0  0  0  0  0  0  0  0  0  0  0
    4.9976   -1.9592    3.1412 C   0  0  0  0  0  0  0  0  0  0  0  0
    4.8439   -1.4000    4.3732 O   0  0  0  0  0  0  0  0  0  0  0  0
    4.3508   -2.3821    5.1785 C   0  0  0  0  0  0  0  0  0  0  0  0
    4.2146   -3.5568    4.4963 C   0  0  0  0  0  0  0  0  0  0  0  0
    4.6301   -3.3049    3.1585 C   0  0  0  0  0  0  0  0  0  0  0  0
    4.6743   -4.3216    1.9586 C   0  0  1  0  0  0  0  0  0  0  0  0
    3.6320   -5.2690    2.0519 O   0  0  0  0  0  0  0  0  0  0  0  0
    6.3583   -2.1831   -0.4485 C   0  0  1  0  0  0  0  0  0  0  0  0
    7.8478   -2.2648   -0.0168 C   0  0  0  0  0  0  0  0  0  0  0  0
    5.6161   -3.5743   -0.6268 C   0  0  2  0  0  0  0  0  0  0  0  0
    5.0138   -3.6448   -2.0489 C   0  0  0  0  0  0  0  0  0  0  0  0
    4.8231   -1.7704   -4.1913 H   0  0  0  0  0  0  0  0  0  0  0  0
    3.0660   -1.6859   -4.2051 H   0  0  0  0  0  0  0  0  0  0  0  0
    3.8682   -3.2260   -4.5048 H   0  0  0  0  0  0  0  0  0  0  0  0
    2.9499   -3.1398   -2.2610 H   0  0  0  0  0  0  0  0  0  0  0  0
    4.5658   -0.5721   -1.9550 H   0  0  0  0  0  0  0  0  0  0  0  0
    2.8773   -0.8462   -1.8295 H   0  0  0  0  0  0  0  0  0  0  0  0
    3.4053   -0.5754    0.3991 H   0  0  0  0  0  0  0  0  0  0  0  0
    2.8590   -2.5508    1.4089 H   0  0  0  0  0  0  0  0  0  0  0  0
    2.5342   -3.1251   -0.1875 H   0  0  0  0  0  0  0  0  0  0  0  0
    6.6315   -0.8877    2.2207 H   0  0  0  0  0  0  0  0  0  0  0  0
    5.1214   -0.0499    2.1393 H   0  0  0  0  0  0  0  0  0  0  0  0
    4.1520   -2.0835    6.1964 H   0  0  0  0  0  0  0  0  0  0  0  0
    3.8575   -4.4884    4.9142 H   0  0  0  0  0  0  0  0  0  0  0  0
    5.6097   -4.8794    2.0320 H   0  0  0  0  0  0  0  0  0  0  0  0
    2.8150   -4.7978    2.0103 H   0  0  0  0  0  0  0  0  0  0  0  0
    6.3774   -1.6440   -1.3931 H   0  0  0  0  0  0  0  0  0  0  0  0
    7.9847   -2.8229    0.9082 H   0  0  0  0  0  0  0  0  0  0  0  0
    8.2692   -1.2705    0.1332 H   0  0  0  0  0  0  0  0  0  0  0  0
    8.4480   -2.7607   -0.7816 H   0  0  0  0  0  0  0  0  0  0  0  0
    6.3271   -4.3943   -0.5158 H   0  0  0  0  0  0  0  0  0  0  0  0
    4.6220   -4.6488   -2.2104 H   0  0  0  0  0  0  0  0  0  0  0  0
    5.8361   -3.5495   -2.7590 H   0  0  0  0  0  0  0  0  0  0  0  0
  1  2  1  0
  1 21  1  0
  1 22  1  0
  1 23  1  0
  2 20  1  0
  2  3  1  0
  2 24  1  6
  3  4  1  0
  3 25  1  0
  3 26  1  0
  4  8  1  0
  4  5  1  0
  4 27  1  1
  6  5  1  1
  5 28  1  0
  5 29  1  0
  6 15  1  0
  6 19  1  0
  6  7  1  0
  7  8  1  0
  8  9  1  1
  8 17  1  0
  9 10  1  0
  9 30  1  0
  9 31  1  0
 10 14  2  0
 10 11  1  0
 11 12  1  0
 12 13  2  0
 12 32  1  0
 13 14  1  0
 13 33  1  0
 14 15  1  0
 15 16  1  0
 15 34  1  6
 16 35  1  0
 17 18  1  0
 17 19  1  0
 17 36  1  6
 18 37  1  0
 18 38  1  0
 18 39  1  0
 19 20  1  0
 19 40  1  1
 20 41  1  0
 20 42  1  0
M  END
>  <i_m_ct_stereo_status>  (160) 
1

>  <s_m_source_file>  (160) 
/var/tmp/pbs.5076255.sched01/tmpr0mrskr5/46emy42_dx.sdf

>  <i_m_source_file_index>  (160) 
22

>  <i_lp_mmshare_version>  (160) 
48012

>  <i_f3d_flags>  (160) 
0

>  <s_epik_input>  (160) 
W0NIM11bQ0BASF0oW0NIMl0xKVtDSDJdW0NAQEhdKFtDSDJdMilbQ0BAXShPMykoW0NAQEhdKFtDSDNdKVtDQEhdMVtDQF0yMzQpW0NIMl1jNWMoW2NIXVtjSF1vNSlbQ0BIXTRbT0hd

>  <s_epik_cmdline>  (160) 
J2VwaWtfcHl0aG9uJywgJy1waHQnLCAnMi4wJywgJy1waCcsICc3LjAnLCAnLXRuJywgJzgnLCAnLW1hJywgJzIwMCcsICctaW1hZScsICc8aW5maWxlLm1hZT4nLCAnLW9tYWUnLCAnPG91dGZpbGUubWFlPic=

>  <r_lp_tautomer_probability>  (160) 
1

>  <r_epik_Ionization_Penalty>  (160) 
6.10899e-08

>  <r_epik_Ionization_Penalty_Charging>  (160) 
0

>  <r_epik_Ionization_Penalty_Neutral>  (160) 
6.10899e-08

>  <r_epik_State_Penalty>  (160) 
-0

>  <r_epik_Charging_Adjusted_Penalty>  (160) 
0

>  <i_epik_Tot_Q>  (160) 
0

>  <i_epik_Tot_abs_Q>  (160) 
0

>  <s_lp_Force_Field>  (160) 
OPLS3e

>  <r_lp_Energy>  (160) 
122.329

>  <b_lp_Chiralities_Consistent>  (160) 
1

>  <s_lp_Variant>  (160) 
46:0-1

>  <s_i_glide_gridfile>  (160) 
pfpi4k_grid

>  <i_i_glide_lignum>  (160) 
22

>  <i_i_glide_rotatable_bonds>  (160) 
1

>  <r_i_docking_score>  (160) 
-3.37875

>  <r_i_glide_ligand_efficiency>  (160) 
-0.168937

>  <r_i_glide_ligand_efficiency_sa>  (160) 
-0.458566

>  <r_i_glide_ligand_efficiency_ln>  (160) 
-0.845589

>  <r_i_glide_gscore>  (160) 
-3.37875

>  <r_i_glide_lipo>  (160) 
-0.515711

>  <r_i_glide_hbond>  (160) 
0

>  <r_i_glide_metal>  (160) 
-0

>  <r_i_glide_rewards>  (160) 
-1.53849

>  <r_i_glide_evdw>  (160) 
-24.3894

>  <r_i_glide_ecoul>  (160) 
-0.700495

>  <r_i_glide_erotb>  (160) 
0

>  <r_i_glide_esite>  (160) 
0

>  <r_i_glide_emodel>  (160) 
-30.1097

>  <r_i_glide_energy>  (160) 
-25.0899

>  <r_i_glide_einternal>  (160) 
0.263759

>  <r_i_glide_intrahb_reward>  (160) 
-0

>  <i_i_glide_confnum>  (160) 
1

>  <i_i_glide_posenum>  (160) 
13

>  <r_i_glide_eff_state_penalty>  (160) 
0

>  <ligand_id>  (160) 
46

>  <original_smiles>  (160) 
CC1CC2CC34OC2(Cc2occc2C3O)C(C)C4C1

>  <smiles>  (160) 
[H]OC1([H])c2c(oc([H])c2[H])C([H])([H])C23OC14C([H])([H])C2([H])C([H])([H])C([H])(C([H])([H])[H])C([H])([H])C4([H])C3([H])C([H])([H])[H]

$$$$
47:0:0
     RDKit          3D

 77 81  0  0  1  0  0  0  0  0999 V2000
   -0.0353  -10.2851    2.4799 C   0  0  0  0  0  0  0  0  0  0  0  0
   -0.9705   -9.2373    3.0988 C   0  0  0  0  0  0  0  0  0  0  0  0
   -1.6645   -8.4012    2.0197 C   0  0  0  0  0  0  0  0  0  0  0  0
   -0.3099   -8.3943    4.2174 C   0  0  0  0  0  0  0  0  0  0  0  0
    0.9273   -7.6044    3.7248 C   0  0  0  0  0  0  0  0  0  0  0  0
    1.5555   -6.6034    4.7469 C   0  0  2  0  0  0  0  0  0  0  0  0
    0.5479   -5.4685    5.0799 C   0  0  0  0  0  0  0  0  0  0  0  0
    3.0560   -6.1832    4.4323 C   0  0  2  0  0  0  0  0  0  0  0  0
    3.9119   -5.8469    5.6861 C   0  0  0  0  0  0  0  0  0  0  0  0
    4.8934   -4.7172    5.3100 C   0  0  0  0  0  0  0  0  0  0  0  0
    4.2727   -3.9368    4.1204 C   0  0  2  0  0  0  0  0  0  0  0  0
    3.5835   -2.5532    4.5866 C   0  0  2  0  0  0  0  0  0  0  0  0
    4.6462   -1.5420    5.1400 C   0  0  0  0  0  0  0  0  0  0  0  0
    2.7318   -2.8648    5.8657 C   0  0  0  0  0  0  0  0  0  0  0  0
    1.5754   -1.9021    6.1671 C   0  0  0  0  0  0  0  0  0  0  0  0
    0.6994   -1.8314    4.9424 C   0  0  0  0  0  0  0  0  0  0  0  0
   -0.5218   -1.8917    5.0551 O   0  0  0  0  0  0  0  0  0  0  0  0
    1.3762   -1.6203    3.6686 C   0  0  0  0  0  0  0  0  0  0  0  0
    2.7130   -1.8402    3.4680 C   0  0  0  0  0  0  0  0  0  0  0  0
    3.3336   -1.3060    2.1131 C   0  0  1  0  0  0  0  0  0  0  0  0
    2.5098   -0.0456    1.6858 C   0  0  0  0  0  0  0  0  0  0  0  0
    4.8097   -0.8190    2.1970 C   0  0  0  0  0  0  0  0  0  0  0  0
    5.4056   -0.2815    0.8708 C   0  0  0  0  0  0  0  0  0  0  0  0
    5.0110   -1.0957   -0.3641 C   0  0  0  0  0  0  0  0  0  0  0  0
    5.7777   -1.2041   -1.3247 O   0  0  0  0  0  0  0  0  0  0  0  0
    3.6309   -1.7400   -0.3773 C   0  0  0  0  0  0  0  0  0  0  0  0
    3.3395   -2.3546    0.9774 C   0  0  1  0  0  0  0  0  0  0  0  0
    4.2791   -3.3845    1.1938 O   0  0  0  0  0  0  0  0  0  0  0  0
    2.9566   -3.8276    1.0683 C   0  0  1  0  0  0  0  0  0  0  0  0
    2.4389   -4.6254    2.2715 C   0  0  1  0  0  0  0  0  0  0  0  0
    1.7684   -5.7127    1.6636 O   0  0  0  0  0  0  0  0  0  0  0  0
    3.5219   -5.1140    3.3283 C   0  0  2  0  0  0  0  0  0  0  0  0
    4.6328   -5.9073    2.5374 C   0  0  0  0  0  0  0  0  0  0  0  0
    0.8047   -9.8244    1.9631 H   0  0  0  0  0  0  0  0  0  0  0  0
   -0.5554  -10.8901    1.7367 H   0  0  0  0  0  0  0  0  0  0  0  0
    0.3572  -10.9555    3.2464 H   0  0  0  0  0  0  0  0  0  0  0  0
   -1.7860   -9.7774    3.5578 H   0  0  0  0  0  0  0  0  0  0  0  0
   -0.9613   -7.8160    1.4322 H   0  0  0  0  0  0  0  0  0  0  0  0
   -2.4142   -7.7383    2.4524 H   0  0  0  0  0  0  0  0  0  0  0  0
   -2.1745   -9.0600    1.3191 H   0  0  0  0  0  0  0  0  0  0  0  0
   -1.0766   -7.6994    4.5624 H   0  0  0  0  0  0  0  0  0  0  0  0
   -0.0671   -9.0246    5.0765 H   0  0  0  0  0  0  0  0  0  0  0  0
    1.6932   -8.2994    3.3714 H   0  0  0  0  0  0  0  0  0  0  0  0
    0.5612   -7.0503    2.8726 H   0  0  0  0  0  0  0  0  0  0  0  0
    1.6430   -7.1843    5.6574 H   0  0  0  0  0  0  0  0  0  0  0  0
    0.3850   -4.8260    4.2070 H   0  0  0  0  0  0  0  0  0  0  0  0
    0.8428   -4.9026    5.9511 H   0  0  0  0  0  0  0  0  0  0  0  0
   -0.4513   -5.8776    5.3056 H   0  0  0  0  0  0  0  0  0  0  0  0
    3.4801   -7.1510    4.1381 H   0  0  0  0  0  0  0  0  0  0  0  0
    3.2854   -5.5483    6.5216 H   0  0  0  0  0  0  0  0  0  0  0  0
    4.4597   -6.7190    6.0549 H   0  0  0  0  0  0  0  0  0  0  0  0
    5.1751   -4.1037    6.1706 H   0  0  0  0  0  0  0  0  0  0  0  0
    5.8307   -5.1710    4.9854 H   0  0  0  0  0  0  0  0  0  0  0  0
    5.1148   -3.6103    3.5142 H   0  0  0  0  0  0  0  0  0  0  0  0
    4.9644   -1.7724    6.1554 H   0  0  0  0  0  0  0  0  0  0  0  0
    4.2260   -0.5361    5.1842 H   0  0  0  0  0  0  0  0  0  0  0  0
    5.5699   -1.5220    4.5732 H   0  0  0  0  0  0  0  0  0  0  0  0
    2.3431   -3.8274    5.6925 H   0  0  0  0  0  0  0  0  0  0  0  0
    3.3417   -2.9004    6.7878 H   0  0  0  0  0  0  0  0  0  0  0  0
    0.9846   -2.2738    6.9976 H   0  0  0  0  0  0  0  0  0  0  0  0
    1.8865   -0.8834    6.4354 H   0  0  0  0  0  0  0  0  0  0  0  0
    0.7260   -1.2114    2.9019 H   0  0  0  0  0  0  0  0  0  0  0  0
    2.9836    0.5693    0.9238 H   0  0  0  0  0  0  0  0  0  0  0  0
    2.3621    0.6147    2.5397 H   0  0  0  0  0  0  0  0  0  0  0  0
    1.5342   -0.2976    1.2742 H   0  0  0  0  0  0  0  0  0  0  0  0
    4.9017   -0.0312    2.9448 H   0  0  0  0  0  0  0  0  0  0  0  0
    5.4627   -1.6385    2.4886 H   0  0  0  0  0  0  0  0  0  0  0  0
    5.0710    0.7366    0.6978 H   0  0  0  0  0  0  0  0  0  0  0  0
    6.4907   -0.2579    0.9311 H   0  0  0  0  0  0  0  0  0  0  0  0
    2.8844   -1.0009   -0.6600 H   0  0  0  0  0  0  0  0  0  0  0  0
    3.6093   -2.5243   -1.1406 H   0  0  0  0  0  0  0  0  0  0  0  0
    2.7212   -4.2691    0.1005 H   0  0  0  0  0  0  0  0  0  0  0  0
    1.6863   -4.0189    2.7545 H   0  0  0  0  0  0  0  0  0  0  0  0
    2.4378   -6.3311    1.4086 H   0  0  0  0  0  0  0  0  0  0  0  0
    5.3032   -5.2848    1.9506 H   0  0  0  0  0  0  0  0  0  0  0  0
    4.1975   -6.6361    1.8559 H   0  0  0  0  0  0  0  0  0  0  0  0
    5.3014   -6.4720    3.1892 H   0  0  0  0  0  0  0  0  0  0  0  0
  1  2  1  0
  1 34  1  0
  1 35  1  0
  1 36  1  0
  2  3  1  0
  2  4  1  0
  2 37  1  0
  3 38  1  0
  3 39  1  0
  3 40  1  0
  4  5  1  0
  4 41  1  0
  4 42  1  0
  5  6  1  0
  5 43  1  0
  5 44  1  0
  6  7  1  0
  6  8  1  0
  6 45  1  1
  7 46  1  0
  7 47  1  0
  7 48  1  0
  8 32  1  0
  8  9  1  0
  8 49  1  6
  9 10  1  0
  9 50  1  0
  9 51  1  0
 10 11  1  0
 10 52  1  0
 10 53  1  0
 11 32  1  0
 11 12  1  0
 11 54  1  6
 12 19  1  0
 12 13  1  1
 12 14  1  0
 13 55  1  0
 13 56  1  0
 13 57  1  0
 14 15  1  0
 14 58  1  0
 14 59  1  0
 15 16  1  0
 15 60  1  0
 15 61  1  0
 16 17  2  0
 16 18  1  0
 18 19  2  0
 18 62  1  0
 19 20  1  0
 20 27  1  0
 20 21  1  6
 20 22  1  0
 21 63  1  0
 21 64  1  0
 21 65  1  0
 22 23  1  0
 22 66  1  0
 22 67  1  0
 23 24  1  0
 23 68  1  0
 23 69  1  0
 24 25  2  0
 24 26  1  0
 26 27  1  0
 26 70  1  0
 26 71  1  0
 27 29  1  0
 27 28  1  1
 28 29  1  0
 29 30  1  0
 29 72  1  6
 30 31  1  0
 30 32  1  0
 30 73  1  1
 31 74  1  0
 32 33  1  6
 33 75  1  0
 33 76  1  0
 33 77  1  0
M  END
>  <i_m_ct_stereo_status>  (161) 
1

>  <s_m_source_file>  (161) 
/var/tmp/pbs.5076255.sched01/tmpr0mrskr5/46emy42_dx.sdf

>  <i_m_source_file_index>  (161) 
23

>  <i_lp_mmshare_version>  (161) 
48012

>  <i_f3d_flags>  (161) 
0

>  <s_epik_input>  (161) 
W0NIM11bQ0hdKFtDSDNdKVtDSDJdW0NIMl1bQ0BIXShbQ0gzXSlbQ0BIXShbQ0gyXVtDSDJdMSlbQ0BAXShbQ0gzXSkoW0NAQEhdKFtDQEBIXTJPMylbT0hdKVtDQEhdMVtDQF0oW0NIM10pKFtDSDJdW0NIMl1DKD1PKVtDSF09NClDNFtDQEBdKFtDQF0yMzUpKFtDSDNdKVtDSDJdW0NIMl1DKD1PKVtDSDJdNQ==

>  <s_epik_cmdline>  (161) 
J2VwaWtfcHl0aG9uJywgJy1waHQnLCAnMi4wJywgJy1waCcsICc3LjAnLCAnLXRuJywgJzgnLCAnLW1hJywgJzIwMCcsICctaW1hZScsICc8aW5maWxlLm1hZT4nLCAnLW9tYWUnLCAnPG91dGZpbGUubWFlPic=

>  <r_lp_tautomer_probability>  (161) 
1

>  <r_epik_Ionization_Penalty>  (161) 
7.84472e-08

>  <r_epik_Ionization_Penalty_Charging>  (161) 
0

>  <r_epik_Ionization_Penalty_Neutral>  (161) 
7.84472e-08

>  <r_epik_State_Penalty>  (161) 
-0

>  <r_epik_Charging_Adjusted_Penalty>  (161) 
0

>  <i_epik_Tot_Q>  (161) 
0

>  <i_epik_Tot_abs_Q>  (161) 
0

>  <s_lp_Force_Field>  (161) 
OPLS3e

>  <r_lp_Energy>  (161) 
94.145

>  <b_lp_Chiralities_Consistent>  (161) 
1

>  <s_lp_Variant>  (161) 
47:0-1

>  <s_i_glide_gridfile>  (161) 
pfpi4k_grid

>  <i_i_glide_lignum>  (161) 
23

>  <i_i_glide_rotatable_bonds>  (161) 
5

>  <r_i_docking_score>  (161) 
-2.57917

>  <r_i_glide_ligand_efficiency>  (161) 
-0.0781567

>  <r_i_glide_ligand_efficiency_sa>  (161) 
-0.25069

>  <r_i_glide_ligand_efficiency_ln>  (161) 
-0.573594

>  <r_i_glide_gscore>  (161) 
-2.57917

>  <r_i_glide_lipo>  (161) 
-0.50352

>  <r_i_glide_hbond>  (161) 
-0.0685071

>  <r_i_glide_metal>  (161) 
-0

>  <r_i_glide_rewards>  (161) 
-0.295519

>  <r_i_glide_evdw>  (161) 
-23.5373

>  <r_i_glide_ecoul>  (161) 
-5.34654

>  <r_i_glide_erotb>  (161) 
0.289141

>  <r_i_glide_esite>  (161) 
-0.0219167

>  <r_i_glide_emodel>  (161) 
-32.2461

>  <r_i_glide_energy>  (161) 
-28.8839

>  <r_i_glide_einternal>  (161) 
2.65083

>  <r_i_glide_intrahb_reward>  (161) 
-0

>  <i_i_glide_confnum>  (161) 
3

>  <i_i_glide_posenum>  (161) 
1

>  <r_i_glide_eff_state_penalty>  (161) 
0

>  <ligand_id>  (161) 
47

>  <original_smiles>  (161) 
CC(C)CCC(C)C1CCC2C3(C)CCC(=O)C=C3C3(C)CCC(=O)CC34OC4C(O)C12C

>  <smiles>  (161) 
[H]OC1([H])C2([H])OC23C([H])([H])C(=O)C([H])([H])C([H])([H])C3(C([H])([H])[H])C2=C([H])C(=O)C([H])([H])C([H])([H])C2(C([H])([H])[H])C2([H])C([H])([H])C([H])([H])C([H])(C([H])(C([H])([H])[H])C([H])([H])C([H])([H])C([H])(C([H])([H])[H])C([H])([H])[H])C12C([H])([H])[H]

$$$$
47:0:1
     RDKit          3D

 77 81  0  0  1  0  0  0  0  0999 V2000
    3.4331   -1.5154   -2.0256 C   0  0  0  0  0  0  0  0  0  0  0  0
    4.9181   -1.7204   -1.6545 C   0  0  0  0  0  0  0  0  0  0  0  0
    5.5275   -2.7824   -2.5747 C   0  0  0  0  0  0  0  0  0  0  0  0
    5.1557   -2.1101   -0.1763 C   0  0  0  0  0  0  0  0  0  0  0  0
    4.6833   -1.0457    0.8527 C   0  0  0  0  0  0  0  0  0  0  0  0
    4.6186   -1.5307    2.3536 C   0  0  2  0  0  0  0  0  0  0  0  0
    3.6984   -2.7738    2.4849 C   0  0  0  0  0  0  0  0  0  0  0  0
    4.4576   -0.3545    3.4276 C   0  0  2  0  0  0  0  0  0  0  0  0
    5.2027   -0.5872    4.7729 C   0  0  0  0  0  0  0  0  0  0  0  0
    4.3546    0.0265    5.9062 C   0  0  0  0  0  0  0  0  0  0  0  0
    2.8817    0.0650    5.4207 C   0  0  2  0  0  0  0  0  0  0  0  0
    2.0065   -1.1406    6.0371 C   0  0  2  0  0  0  0  0  0  0  0  0
    1.8422   -0.9843    7.5859 C   0  0  0  0  0  0  0  0  0  0  0  0
    2.8422   -2.4437    5.9471 C   0  0  0  0  0  0  0  0  0  0  0  0
    2.0702   -3.7555    5.9113 C   0  0  0  0  0  0  0  0  0  0  0  0
    1.0330   -3.6754    4.8054 C   0  0  0  0  0  0  0  0  0  0  0  0
    0.8521   -4.6243    4.0461 O   0  0  0  0  0  0  0  0  0  0  0  0
    0.2210   -2.4690    4.7644 C   0  0  0  0  0  0  0  0  0  0  0  0
    0.5656   -1.3011    5.3863 C   0  0  0  0  0  0  0  0  0  0  0  0
   -0.5471   -0.1742    5.4582 C   0  0  1  0  0  0  0  0  0  0  0  0
   -1.9397   -0.8843    5.4733 C   0  0  0  0  0  0  0  0  0  0  0  0
   -0.5213    0.7153    6.7320 C   0  0  0  0  0  0  0  0  0  0  0  0
   -1.6233    1.8091    6.8086 C   0  0  0  0  0  0  0  0  0  0  0  0
   -1.8755    2.5262    5.4763 C   0  0  0  0  0  0  0  0  0  0  0  0
   -2.2498    3.6966    5.4368 O   0  0  0  0  0  0  0  0  0  0  0  0
   -1.7266    1.7057    4.1990 C   0  0  0  0  0  0  0  0  0  0  0  0
   -0.4737    0.8445    4.2856 C   0  0  1  0  0  0  0  0  0  0  0  0
    0.6377    1.7031    4.3737 O   0  0  0  0  0  0  0  0  0  0  0  0
    0.5744    0.9338    3.1917 C   0  0  1  0  0  0  0  0  0  0  0  0
    1.8100    0.0511    2.9486 C   0  0  1  0  0  0  0  0  0  0  0  0
    2.0722    0.3023    1.6085 O   0  0  0  0  0  0  0  0  0  0  0  0
    3.0760    0.3401    3.8484 C   0  0  2  0  0  0  0  0  0  0  0  0
    3.4076    1.8713    3.7126 C   0  0  0  0  0  0  0  0  0  0  0  0
    2.8275   -2.4028   -1.8248 H   0  0  0  0  0  0  0  0  0  0  0  0
    3.3117   -1.2661   -3.0803 H   0  0  0  0  0  0  0  0  0  0  0  0
    2.9949   -0.6803   -1.4838 H   0  0  0  0  0  0  0  0  0  0  0  0
    5.4208   -0.7712   -1.8244 H   0  0  0  0  0  0  0  0  0  0  0  0
    5.0475   -3.7522   -2.4328 H   0  0  0  0  0  0  0  0  0  0  0  0
    6.5943   -2.9027   -2.3908 H   0  0  0  0  0  0  0  0  0  0  0  0
    5.3921   -2.5044   -3.6151 H   0  0  0  0  0  0  0  0  0  0  0  0
    4.6091   -3.0414   -0.0435 H   0  0  0  0  0  0  0  0  0  0  0  0
    6.2124   -2.3493    0.0059 H   0  0  0  0  0  0  0  0  0  0  0  0
    5.2826   -0.1256    0.7413 H   0  0  0  0  0  0  0  0  0  0  0  0
    3.6877   -0.8194    0.5334 H   0  0  0  0  0  0  0  0  0  0  0  0
    5.6371   -1.8890    2.5418 H   0  0  0  0  0  0  0  0  0  0  0  0
    2.6676   -2.5146    2.2762 H   0  0  0  0  0  0  0  0  0  0  0  0
    3.8204   -3.2886    3.4255 H   0  0  0  0  0  0  0  0  0  0  0  0
    3.9415   -3.5365    1.7528 H   0  0  0  0  0  0  0  0  0  0  0  0
    5.0795    0.4267    2.9766 H   0  0  0  0  0  0  0  0  0  0  0  0
    5.3744   -1.6467    4.9453 H   0  0  0  0  0  0  0  0  0  0  0  0
    6.2033   -0.1501    4.7671 H   0  0  0  0  0  0  0  0  0  0  0  0
    4.5128   -0.4728    6.8627 H   0  0  0  0  0  0  0  0  0  0  0  0
    4.6984    1.0447    6.0708 H   0  0  0  0  0  0  0  0  0  0  0  0
    2.4480    0.9633    5.8672 H   0  0  0  0  0  0  0  0  0  0  0  0
    2.7299   -1.3022    8.1376 H   0  0  0  0  0  0  0  0  0  0  0  0
    1.0265   -1.6233    7.9531 H   0  0  0  0  0  0  0  0  0  0  0  0
    1.6819    0.0436    7.9251 H   0  0  0  0  0  0  0  0  0  0  0  0
    3.3894   -2.3432    5.0498 H   0  0  0  0  0  0  0  0  0  0  0  0
    3.5696   -2.5552    6.7506 H   0  0  0  0  0  0  0  0  0  0  0  0
    2.7196   -4.5946    5.6885 H   0  0  0  0  0  0  0  0  0  0  0  0
    1.5448   -4.0085    6.8413 H   0  0  0  0  0  0  0  0  0  0  0  0
   -0.7064   -2.5968    4.2172 H   0  0  0  0  0  0  0  0  0  0  0  0
   -2.7597   -0.2483    5.7956 H   0  0  0  0  0  0  0  0  0  0  0  0
   -1.9101   -1.7312    6.1579 H   0  0  0  0  0  0  0  0  0  0  0  0
   -2.2281   -1.2469    4.4874 H   0  0  0  0  0  0  0  0  0  0  0  0
   -0.5929    0.0971    7.6230 H   0  0  0  0  0  0  0  0  0  0  0  0
    0.4187    1.2627    6.7834 H   0  0  0  0  0  0  0  0  0  0  0  0
   -2.5713    1.3832    7.1330 H   0  0  0  0  0  0  0  0  0  0  0  0
   -1.3557    2.5553    7.5577 H   0  0  0  0  0  0  0  0  0  0  0  0
   -2.5918    1.0782    4.0532 H   0  0  0  0  0  0  0  0  0  0  0  0
   -1.6285    2.3772    3.3356 H   0  0  0  0  0  0  0  0  0  0  0  0
    0.2205    1.4966    2.3145 H   0  0  0  0  0  0  0  0  0  0  0  0
    1.4754   -0.9656    3.0551 H   0  0  0  0  0  0  0  0  0  0  0  0
    1.4330   -0.1545    1.0785 H   0  0  0  0  0  0  0  0  0  0  0  0
    2.7276    2.5491    4.2293 H   0  0  0  0  0  0  0  0  0  0  0  0
    3.4066    2.1766    2.6663 H   0  0  0  0  0  0  0  0  0  0  0  0
    4.3916    2.1287    4.1089 H   0  0  0  0  0  0  0  0  0  0  0  0
  1  2  1  0
  1 34  1  0
  1 35  1  0
  1 36  1  0
  2  3  1  0
  2  4  1  0
  2 37  1  0
  3 38  1  0
  3 39  1  0
  3 40  1  0
  4  5  1  0
  4 41  1  0
  4 42  1  0
  5  6  1  0
  5 43  1  0
  5 44  1  0
  6  7  1  0
  6  8  1  0
  6 45  1  1
  7 46  1  0
  7 47  1  0
  7 48  1  0
  8 32  1  0
  8  9  1  0
  8 49  1  6
  9 10  1  0
  9 50  1  0
  9 51  1  0
 10 11  1  0
 10 52  1  0
 10 53  1  0
 11 32  1  0
 11 12  1  0
 11 54  1  1
 12 19  1  0
 12 13  1  1
 12 14  1  0
 13 55  1  0
 13 56  1  0
 13 57  1  0
 14 15  1  0
 14 58  1  0
 14 59  1  0
 15 16  1  0
 15 60  1  0
 15 61  1  0
 16 17  2  0
 16 18  1  0
 18 19  2  0
 18 62  1  0
 19 20  1  0
 20 27  1  0
 20 21  1  6
 20 22  1  0
 21 63  1  0
 21 64  1  0
 21 65  1  0
 22 23  1  0
 22 66  1  0
 22 67  1  0
 23 24  1  0
 23 68  1  0
 23 69  1  0
 24 25  2  0
 24 26  1  0
 26 27  1  0
 26 70  1  0
 26 71  1  0
 27 29  1  0
 27 28  1  1
 28 29  1  0
 29 30  1  0
 29 72  1  6
 30 31  1  0
 30 32  1  0
 30 73  1  6
 31 74  1  0
 32 33  1  1
 33 75  1  0
 33 76  1  0
 33 77  1  0
M  END
>  <i_m_ct_stereo_status>  (162) 
1

>  <s_m_source_file>  (162) 
/var/tmp/pbs.5076255.sched01/tmpr0mrskr5/46emy42_dx.sdf

>  <i_m_source_file_index>  (162) 
23

>  <i_lp_mmshare_version>  (162) 
48012

>  <i_f3d_flags>  (162) 
0

>  <s_epik_input>  (162) 
W0NIM11bQ0hdKFtDSDNdKVtDSDJdW0NIMl1bQ0BIXShbQ0gzXSlbQ0BIXShbQ0gyXVtDSDJdMSlbQ0BAXShbQ0gzXSkoW0NAQEhdKFtDQEBIXTJPMylbT0hdKVtDQEhdMVtDQF0oW0NIM10pKFtDSDJdW0NIMl1DKD1PKVtDSF09NClDNFtDQEBdKFtDQF0yMzUpKFtDSDNdKVtDSDJdW0NIMl1DKD1PKVtDSDJdNQ==

>  <s_epik_cmdline>  (162) 
J2VwaWtfcHl0aG9uJywgJy1waHQnLCAnMi4wJywgJy1waCcsICc3LjAnLCAnLXRuJywgJzgnLCAnLW1hJywgJzIwMCcsICctaW1hZScsICc8aW5maWxlLm1hZT4nLCAnLW9tYWUnLCAnPG91dGZpbGUubWFlPic=

>  <r_lp_tautomer_probability>  (162) 
1

>  <r_epik_Ionization_Penalty>  (162) 
7.84472e-08

>  <r_epik_Ionization_Penalty_Charging>  (162) 
0

>  <r_epik_Ionization_Penalty_Neutral>  (162) 
7.84472e-08

>  <r_epik_State_Penalty>  (162) 
-0

>  <r_epik_Charging_Adjusted_Penalty>  (162) 
0

>  <i_epik_Tot_Q>  (162) 
0

>  <i_epik_Tot_abs_Q>  (162) 
0

>  <s_lp_Force_Field>  (162) 
OPLS3e

>  <r_lp_Energy>  (162) 
94.145

>  <b_lp_Chiralities_Consistent>  (162) 
1

>  <s_lp_Variant>  (162) 
47:0-1

>  <s_i_glide_gridfile>  (162) 
pfpi4k_grid

>  <i_i_glide_lignum>  (162) 
23

>  <i_i_glide_rotatable_bonds>  (162) 
5

>  <r_i_docking_score>  (162) 
-2.29193

>  <r_i_glide_ligand_efficiency>  (162) 
-0.0694526

>  <r_i_glide_ligand_efficiency_sa>  (162) 
-0.222771

>  <r_i_glide_ligand_efficiency_ln>  (162) 
-0.509714

>  <r_i_glide_gscore>  (162) 
-2.29193

>  <r_i_glide_lipo>  (162) 
-0.425443

>  <r_i_glide_hbond>  (162) 
0

>  <r_i_glide_metal>  (162) 
-0

>  <r_i_glide_rewards>  (162) 
-0.367801

>  <r_i_glide_evdw>  (162) 
-25.2998

>  <r_i_glide_ecoul>  (162) 
-3.48561

>  <r_i_glide_erotb>  (162) 
0.289141

>  <r_i_glide_esite>  (162) 
0

>  <r_i_glide_emodel>  (162) 
-31.8894

>  <r_i_glide_energy>  (162) 
-28.7854

>  <r_i_glide_einternal>  (162) 
1.98362

>  <r_i_glide_intrahb_reward>  (162) 
-0

>  <i_i_glide_confnum>  (162) 
3

>  <i_i_glide_posenum>  (162) 
31

>  <r_i_glide_eff_state_penalty>  (162) 
0

>  <ligand_id>  (162) 
47

>  <original_smiles>  (162) 
CC(C)CCC(C)C1CCC2C3(C)CCC(=O)C=C3C3(C)CCC(=O)CC34OC4C(O)C12C

>  <smiles>  (162) 
[H]OC1([H])C2([H])OC23C([H])([H])C(=O)C([H])([H])C([H])([H])C3(C([H])([H])[H])C2=C([H])C(=O)C([H])([H])C([H])([H])C2(C([H])([H])[H])C2([H])C([H])([H])C([H])([H])C([H])(C([H])(C([H])([H])[H])C([H])([H])C([H])([H])C([H])(C([H])([H])[H])C([H])([H])[H])C12C([H])([H])[H]

$$$$
47:0:2
     RDKit          3D

 77 81  0  0  1  0  0  0  0  0999 V2000
    1.0912  -11.7157    3.3209 C   0  0  0  0  0  0  0  0  0  0  0  0
    1.4064  -10.2214    3.1996 C   0  0  0  0  0  0  0  0  0  0  0  0
    2.2538   -9.8590    4.4328 C   0  0  0  0  0  0  0  0  0  0  0  0
    0.1057   -9.3803    3.0742 C   0  0  0  0  0  0  0  0  0  0  0  0
    0.3040   -7.8624    2.8277 C   0  0  0  0  0  0  0  0  0  0  0  0
    1.0258   -6.9953    3.9247 C   0  0  2  0  0  0  0  0  0  0  0  0
    0.1903   -5.7903    4.3732 C   0  0  0  0  0  0  0  0  0  0  0  0
    2.5820   -6.6918    3.6506 C   0  0  2  0  0  0  0  0  0  0  0  0
    3.4888   -6.6518    4.9294 C   0  0  0  0  0  0  0  0  0  0  0  0
    4.6004   -5.6281    4.6677 C   0  0  0  0  0  0  0  0  0  0  0  0
    4.0690   -4.6380    3.6023 C   0  0  2  0  0  0  0  0  0  0  0  0
    3.5415   -3.2603    4.2556 C   0  0  2  0  0  0  0  0  0  0  0  0
    4.7170   -2.4679    4.9012 C   0  0  0  0  0  0  0  0  0  0  0  0
    2.6711   -3.6309    5.5094 C   0  0  0  0  0  0  0  0  0  0  0  0
    1.6324   -2.5824    5.9449 C   0  0  0  0  0  0  0  0  0  0  0  0
    0.7606   -2.2567    4.7565 C   0  0  0  0  0  0  0  0  0  0  0  0
   -0.4616   -2.1541    4.8782 O   0  0  0  0  0  0  0  0  0  0  0  0
    1.4637   -1.9738    3.4988 C   0  0  0  0  0  0  0  0  0  0  0  0
    2.7548   -2.3238    3.2507 C   0  0  0  0  0  0  0  0  0  0  0  0
    3.4254   -1.7155    1.9458 C   0  0  1  0  0  0  0  0  0  0  0  0
    2.7611   -0.3098    1.6958 C   0  0  0  0  0  0  0  0  0  0  0  0
    4.9497   -1.4172    2.0515 C   0  0  0  0  0  0  0  0  0  0  0  0
    5.5979   -0.7901    0.7900 C   0  0  0  0  0  0  0  0  0  0  0  0
    5.0989   -1.3900   -0.5354 C   0  0  0  0  0  0  0  0  0  0  0  0
    5.8269   -1.4522   -1.5157 O   0  0  0  0  0  0  0  0  0  0  0  0
    3.6529   -1.8704   -0.5917 C   0  0  0  0  0  0  0  0  0  0  0  0
    3.2901   -2.5887    0.6787 C   0  0  1  0  0  0  0  0  0  0  0  0
    4.1051   -3.7738    0.7399 O   0  0  0  0  0  0  0  0  0  0  0  0
    2.6989   -4.0292    0.6084 C   0  0  1  0  0  0  0  0  0  0  0  0
    2.1407   -4.8830    1.7283 C   0  0  1  0  0  0  0  0  0  0  0  0
    1.3296   -5.8330    1.0544 O   0  0  0  0  0  0  0  0  0  0  0  0
    3.1741   -5.6092    2.6834 C   0  0  2  0  0  0  0  0  0  0  0  0
    4.1797   -6.4129    1.7584 C   0  0  0  0  0  0  0  0  0  0  0  0
    0.4915  -11.8945    4.2216 H   0  0  0  0  0  0  0  0  0  0  0  0
    2.0256  -12.2898    3.4324 H   0  0  0  0  0  0  0  0  0  0  0  0
    0.5486  -12.1302    2.4853 H   0  0  0  0  0  0  0  0  0  0  0  0
    1.9825  -10.0706    2.2783 H   0  0  0  0  0  0  0  0  0  0  0  0
    1.6735   -9.9652    5.3560 H   0  0  0  0  0  0  0  0  0  0  0  0
    2.5740   -8.9031    4.3959 H   0  0  0  0  0  0  0  0  0  0  0  0
    3.1768  -10.4375    4.4580 H   0  0  0  0  0  0  0  0  0  0  0  0
   -0.4527   -9.7341    2.1945 H   0  0  0  0  0  0  0  0  0  0  0  0
   -0.5642   -9.5496    3.9212 H   0  0  0  0  0  0  0  0  0  0  0  0
    0.7844   -7.8032    1.8585 H   0  0  0  0  0  0  0  0  0  0  0  0
   -0.6969   -7.4337    2.6990 H   0  0  0  0  0  0  0  0  0  0  0  0
    1.0032   -7.6107    4.8230 H   0  0  0  0  0  0  0  0  0  0  0  0
    0.1211   -5.0635    3.5611 H   0  0  0  0  0  0  0  0  0  0  0  0
    0.5733   -5.3525    5.2669 H   0  0  0  0  0  0  0  0  0  0  0  0
   -0.8277   -6.1073    4.6260 H   0  0  0  0  0  0  0  0  0  0  0  0
    2.8201   -7.6204    3.1359 H   0  0  0  0  0  0  0  0  0  0  0  0
    2.9132   -6.4045    5.8145 H   0  0  0  0  0  0  0  0  0  0  0  0
    3.9501   -7.6060    5.1706 H   0  0  0  0  0  0  0  0  0  0  0  0
    4.9517   -5.1762    5.5985 H   0  0  0  0  0  0  0  0  0  0  0  0
    5.4643   -6.1632    4.2753 H   0  0  0  0  0  0  0  0  0  0  0  0
    4.9382   -4.3423    3.0119 H   0  0  0  0  0  0  0  0  0  0  0  0
    5.0128   -2.8587    5.8771 H   0  0  0  0  0  0  0  0  0  0  0  0
    4.4258   -1.4238    5.0715 H   0  0  0  0  0  0  0  0  0  0  0  0
    5.6354   -2.4946    4.3183 H   0  0  0  0  0  0  0  0  0  0  0  0
    2.1817   -4.5005    5.2411 H   0  0  0  0  0  0  0  0  0  0  0  0
    3.2598   -3.8725    6.3985 H   0  0  0  0  0  0  0  0  0  0  0  0
    1.0001   -2.9736    6.7462 H   0  0  0  0  0  0  0  0  0  0  0  0
    2.0777   -1.6587    6.3092 H   0  0  0  0  0  0  0  0  0  0  0  0
    0.8696   -1.4030    2.8056 H   0  0  0  0  0  0  0  0  0  0  0  0
    3.3041    0.3305    1.0110 H   0  0  0  0  0  0  0  0  0  0  0  0
    2.6961    0.2527    2.6269 H   0  0  0  0  0  0  0  0  0  0  0  0
    1.7661   -0.3885    1.2577 H   0  0  0  0  0  0  0  0  0  0  0  0
    5.1465   -0.7497    2.8890 H   0  0  0  0  0  0  0  0  0  0  0  0
    5.5003   -2.3411    2.2306 H   0  0  0  0  0  0  0  0  0  0  0  0
    5.4070    0.2813    0.7483 H   0  0  0  0  0  0  0  0  0  0  0  0
    6.6801   -0.9016    0.8342 H   0  0  0  0  0  0  0  0  0  0  0  0
    2.9920   -1.0226   -0.7670 H   0  0  0  0  0  0  0  0  0  0  0  0
    3.5358   -2.5411   -1.4467 H   0  0  0  0  0  0  0  0  0  0  0  0
    2.4181   -4.3368   -0.3983 H   0  0  0  0  0  0  0  0  0  0  0  0
    1.4749   -4.2550    2.3020 H   0  0  0  0  0  0  0  0  0  0  0  0
    1.8894   -6.5056    0.6914 H   0  0  0  0  0  0  0  0  0  0  0  0
    4.9313   -5.8271    1.2252 H   0  0  0  0  0  0  0  0  0  0  0  0
    3.6488   -7.0037    1.0126 H   0  0  0  0  0  0  0  0  0  0  0  0
    4.7763   -7.1367    2.3171 H   0  0  0  0  0  0  0  0  0  0  0  0
  1  2  1  0
  1 34  1  0
  1 35  1  0
  1 36  1  0
  2  3  1  0
  2  4  1  0
  2 37  1  0
  3 38  1  0
  3 39  1  0
  3 40  1  0
  4  5  1  0
  4 41  1  0
  4 42  1  0
  5  6  1  0
  5 43  1  0
  5 44  1  0
  6  7  1  0
  6  8  1  0
  6 45  1  1
  7 46  1  0
  7 47  1  0
  7 48  1  0
  8 32  1  0
  8  9  1  0
  8 49  1  6
  9 10  1  0
  9 50  1  0
  9 51  1  0
 10 11  1  0
 10 52  1  0
 10 53  1  0
 11 32  1  0
 11 12  1  0
 11 54  1  6
 12 19  1  0
 12 13  1  1
 12 14  1  0
 13 55  1  0
 13 56  1  0
 13 57  1  0
 14 15  1  0
 14 58  1  0
 14 59  1  0
 15 16  1  0
 15 60  1  0
 15 61  1  0
 16 17  2  0
 16 18  1  0
 18 19  2  0
 18 62  1  0
 19 20  1  0
 20 27  1  0
 20 21  1  6
 20 22  1  0
 21 63  1  0
 21 64  1  0
 21 65  1  0
 22 23  1  0
 22 66  1  0
 22 67  1  0
 23 24  1  0
 23 68  1  0
 23 69  1  0
 24 25  2  0
 24 26  1  0
 26 27  1  0
 26 70  1  0
 26 71  1  0
 27 29  1  0
 27 28  1  1
 28 29  1  0
 29 30  1  0
 29 72  1  6
 30 31  1  0
 30 32  1  0
 30 73  1  1
 31 74  1  0
 32 33  1  6
 33 75  1  0
 33 76  1  0
 33 77  1  0
M  END
>  <i_m_ct_stereo_status>  (163) 
1

>  <s_m_source_file>  (163) 
/var/tmp/pbs.5076255.sched01/tmpr0mrskr5/46emy42_dx.sdf

>  <i_m_source_file_index>  (163) 
23

>  <i_lp_mmshare_version>  (163) 
48012

>  <i_f3d_flags>  (163) 
0

>  <s_epik_input>  (163) 
W0NIM11bQ0hdKFtDSDNdKVtDSDJdW0NIMl1bQ0BIXShbQ0gzXSlbQ0BIXShbQ0gyXVtDSDJdMSlbQ0BAXShbQ0gzXSkoW0NAQEhdKFtDQEBIXTJPMylbT0hdKVtDQEhdMVtDQF0oW0NIM10pKFtDSDJdW0NIMl1DKD1PKVtDSF09NClDNFtDQEBdKFtDQF0yMzUpKFtDSDNdKVtDSDJdW0NIMl1DKD1PKVtDSDJdNQ==

>  <s_epik_cmdline>  (163) 
J2VwaWtfcHl0aG9uJywgJy1waHQnLCAnMi4wJywgJy1waCcsICc3LjAnLCAnLXRuJywgJzgnLCAnLW1hJywgJzIwMCcsICctaW1hZScsICc8aW5maWxlLm1hZT4nLCAnLW9tYWUnLCAnPG91dGZpbGUubWFlPic=

>  <r_lp_tautomer_probability>  (163) 
1

>  <r_epik_Ionization_Penalty>  (163) 
7.84472e-08

>  <r_epik_Ionization_Penalty_Charging>  (163) 
0

>  <r_epik_Ionization_Penalty_Neutral>  (163) 
7.84472e-08

>  <r_epik_State_Penalty>  (163) 
-0

>  <r_epik_Charging_Adjusted_Penalty>  (163) 
0

>  <i_epik_Tot_Q>  (163) 
0

>  <i_epik_Tot_abs_Q>  (163) 
0

>  <s_lp_Force_Field>  (163) 
OPLS3e

>  <r_lp_Energy>  (163) 
94.145

>  <b_lp_Chiralities_Consistent>  (163) 
1

>  <s_lp_Variant>  (163) 
47:0-1

>  <s_i_glide_gridfile>  (163) 
pfpi4k_grid

>  <i_i_glide_lignum>  (163) 
23

>  <i_i_glide_rotatable_bonds>  (163) 
5

>  <r_i_docking_score>  (163) 
-2.12528

>  <r_i_glide_ligand_efficiency>  (163) 
-0.0644023

>  <r_i_glide_ligand_efficiency_sa>  (163) 
-0.206573

>  <r_i_glide_ligand_efficiency_ln>  (163) 
-0.472651

>  <r_i_glide_gscore>  (163) 
-2.12528

>  <r_i_glide_lipo>  (163) 
-0.480866

>  <r_i_glide_hbond>  (163) 
-0.0799809

>  <r_i_glide_metal>  (163) 
-0

>  <r_i_glide_rewards>  (163) 
-0.312406

>  <r_i_glide_evdw>  (163) 
-25.2886

>  <r_i_glide_ecoul>  (163) 
-7.11411

>  <r_i_glide_erotb>  (163) 
0.289141

>  <r_i_glide_esite>  (163) 
-0.0272844

>  <r_i_glide_emodel>  (163) 
-29.7491

>  <r_i_glide_energy>  (163) 
-32.4028

>  <r_i_glide_einternal>  (163) 
4.55459

>  <r_i_glide_intrahb_reward>  (163) 
-0

>  <i_i_glide_confnum>  (163) 
3

>  <i_i_glide_posenum>  (163) 
11

>  <r_i_glide_eff_state_penalty>  (163) 
0

>  <ligand_id>  (163) 
47

>  <original_smiles>  (163) 
CC(C)CCC(C)C1CCC2C3(C)CCC(=O)C=C3C3(C)CCC(=O)CC34OC4C(O)C12C

>  <smiles>  (163) 
[H]OC1([H])C2([H])OC23C([H])([H])C(=O)C([H])([H])C([H])([H])C3(C([H])([H])[H])C2=C([H])C(=O)C([H])([H])C([H])([H])C2(C([H])([H])[H])C2([H])C([H])([H])C([H])([H])C([H])(C([H])(C([H])([H])[H])C([H])([H])C([H])([H])C([H])(C([H])([H])[H])C([H])([H])[H])C12C([H])([H])[H]

$$$$
49:0:0
     RDKit          3D

 25 27  0  0  1  0  0  0  0  0999 V2000
    5.6859   -3.1698    1.7505 C   0  0  0  0  0  0  0  0  0  0  0  0
    5.4282   -3.1675    0.3144 N   0  0  0  0  0  0  0  0  0  0  0  0
    4.4595   -3.8844   -0.2769 C   0  0  0  0  0  0  0  0  0  0  0  0
    3.6821   -4.6638    0.2769 O   0  0  0  0  0  0  0  0  0  0  0  0
    4.3948   -3.5818   -1.7694 C   0  0  2  0  0  0  0  0  0  0  0  0
    5.4940   -2.5109   -1.9617 C   0  0  2  0  0  0  0  0  0  0  0  0
    6.0476   -2.3574   -0.5510 C   0  0  0  0  0  0  0  0  0  0  0  0
    6.9335   -1.5401   -0.2914 O   0  0  0  0  0  0  0  0  0  0  0  0
    4.7022   -1.2889   -2.5311 C   0  0  1  0  0  0  0  0  0  0  0  0
    4.2114   -1.7063   -3.8983 C   0  0  0  0  0  0  0  0  0  0  0  0
    3.2730   -2.6346   -3.7268 C   0  0  0  0  0  0  0  0  0  0  0  0
    3.1083   -2.8339   -2.2357 C   0  0  2  0  0  0  0  0  0  0  0  0
    3.3636   -1.3631   -1.8092 C   0  0  1  0  0  0  0  0  0  0  0  0
    3.4094   -1.0550   -0.4348 O   0  0  0  0  0  0  0  0  0  0  0  0
    4.7991   -3.4409    2.3310 H   0  0  0  0  0  0  0  0  0  0  0  0
    6.0004   -2.1839    2.1110 H   0  0  0  0  0  0  0  0  0  0  0  0
    6.4792   -3.8836    2.0003 H   0  0  0  0  0  0  0  0  0  0  0  0
    4.6156   -4.4845   -2.3430 H   0  0  0  0  0  0  0  0  0  0  0  0
    6.2829   -2.8403   -2.6429 H   0  0  0  0  0  0  0  0  0  0  0  0
    5.1698   -0.3081   -2.4807 H   0  0  0  0  0  0  0  0  0  0  0  0
    4.5941   -1.3083   -4.8208 H   0  0  0  0  0  0  0  0  0  0  0  0
    2.7238   -3.1730   -4.4825 H   0  0  0  0  0  0  0  0  0  0  0  0
    2.1452   -3.2665   -1.9519 H   0  0  0  0  0  0  0  0  0  0  0  0
    2.6311   -0.6879   -2.2651 H   0  0  0  0  0  0  0  0  0  0  0  0
    2.4909   -1.0409   -0.1725 H   0  0  0  0  0  0  0  0  0  0  0  0
  1 15  1  0
  1 16  1  0
  1 17  1  0
  1  2  1  0
  2  7  1  0
  2  3  1  0
  3  4  2  0
  3  5  1  0
  5 12  1  0
  5 18  1  6
  5  6  1  0
  6  9  1  0
  6 19  1  6
  6  7  1  0
  7  8  2  0
  9 13  1  0
  9 10  1  0
  9 20  1  6
 10 11  2  0
 10 21  1  0
 11 12  1  0
 11 22  1  0
 12 13  1  0
 12 23  1  6
 13 14  1  0
 13 24  1  6
 14 25  1  0
M  END
>  <i_m_ct_stereo_status>  (164) 
1

>  <s_m_source_file>  (164) 
/var/tmp/pbs.5076255.sched01/tmpr0mrskr5/46emy42_dx.sdf

>  <i_m_source_file_index>  (164) 
26

>  <i_lp_mmshare_version>  (164) 
48012

>  <i_f3d_flags>  (164) 
0

>  <s_epik_input>  (164) 
W09IXWMxbihbQ0gzXSljKFtPSF0pYyhjMTIpW0NASF0zW0NIXT1bQ0hdW0NAQEhdMltDQEhdM1tPSF0=

>  <s_epik_cmdline>  (164) 
J2VwaWtfcHl0aG9uJywgJy1waHQnLCAnMi4wJywgJy1waCcsICc3LjAnLCAnLXRuJywgJzgnLCAnLW1hJywgJzIwMCcsICctaW1hZScsICc8aW5maWxlLm1hZT4nLCAnLW9tYWUnLCAnPG91dGZpbGUubWFlPic=

>  <r_lp_tautomer_probability>  (164) 
1

>  <r_epik_Ionization_Penalty>  (164) 
4.34292e-08

>  <r_epik_Ionization_Penalty_Charging>  (164) 
0

>  <r_epik_Ionization_Penalty_Neutral>  (164) 
4.34292e-08

>  <r_epik_State_Penalty>  (164) 
-0

>  <r_epik_Charging_Adjusted_Penalty>  (164) 
0

>  <i_epik_Tot_Q>  (164) 
0

>  <i_epik_Tot_abs_Q>  (164) 
0

>  <s_lp_Force_Field>  (164) 
OPLS3e

>  <r_lp_Energy>  (164) 
15.9215

>  <b_lp_Chiralities_Consistent>  (164) 
1

>  <s_lp_Variant>  (164) 
49:0-1

>  <s_i_glide_gridfile>  (164) 
pfpi4k_grid

>  <i_i_glide_lignum>  (164) 
26

>  <i_i_glide_rotatable_bonds>  (164) 
1

>  <r_i_docking_score>  (164) 
-4.40128

>  <r_i_glide_ligand_efficiency>  (164) 
-0.314377

>  <r_i_glide_ligand_efficiency_sa>  (164) 
-0.757694

>  <r_i_glide_ligand_efficiency_ln>  (164) 
-1.20946

>  <r_i_glide_gscore>  (164) 
-4.40128

>  <r_i_glide_lipo>  (164) 
-0.308001

>  <r_i_glide_hbond>  (164) 
-0.26704

>  <r_i_glide_metal>  (164) 
-0

>  <r_i_glide_rewards>  (164) 
-2.1665

>  <r_i_glide_evdw>  (164) 
-18.2049

>  <r_i_glide_ecoul>  (164) 
-4.85537

>  <r_i_glide_erotb>  (164) 
0

>  <r_i_glide_esite>  (164) 
-0.021192

>  <r_i_glide_emodel>  (164) 
-29.6597

>  <r_i_glide_energy>  (164) 
-23.0602

>  <r_i_glide_einternal>  (164) 
0.602664

>  <r_i_glide_intrahb_reward>  (164) 
-0

>  <i_i_glide_confnum>  (164) 
2

>  <i_i_glide_posenum>  (164) 
2

>  <r_i_glide_eff_state_penalty>  (164) 
0

>  <ligand_id>  (164) 
49

>  <original_smiles>  (164) 
Cn1c(O)c2c(c1O)C1C=CC2C1O

>  <smiles>  (164) 
[H]OC1([H])C2([H])C([H])=C([H])C1([H])C1([H])C(=O)N(C([H])([H])[H])C(=O)C21[H]

$$$$
49:0:1
     RDKit          3D

 25 27  0  0  1  0  0  0  0  0999 V2000
    4.1680   -2.2095   -3.6290 C   0  0  0  0  0  0  0  0  0  0  0  0
    3.9622   -2.3272   -2.1835 N   0  0  0  0  0  0  0  0  0  0  0  0
    2.9020   -2.9344   -1.6249 C   0  0  0  0  0  0  0  0  0  0  0  0
    1.9499   -3.4459   -2.2063 O   0  0  0  0  0  0  0  0  0  0  0  0
    3.0320   -2.9629   -0.1036 C   0  0  2  0  0  0  0  0  0  0  0  0
    4.3938   -2.2827    0.1446 C   0  0  2  0  0  0  0  0  0  0  0  0
    4.8728   -1.9527   -1.2661 C   0  0  0  0  0  0  0  0  0  0  0  0
    5.9742   -1.4583   -1.4861 O   0  0  0  0  0  0  0  0  0  0  0  0
    5.1976   -3.3919    0.8950 C   0  0  1  0  0  0  0  0  0  0  0  0
    4.5177   -3.5409    2.2445 C   0  0  0  0  0  0  0  0  0  0  0  0
    3.3406   -4.1319    2.0300 C   0  0  0  0  0  0  0  0  0  0  0  0
    3.2205   -4.3747    0.5391 C   0  0  2  0  0  0  0  0  0  0  0  0
    4.6941   -4.7146    0.2658 C   0  0  1  0  0  0  0  0  0  0  0  0
    5.0233   -4.9597   -1.0865 O   0  0  0  0  0  0  0  0  0  0  0  0
    3.6567   -3.0031   -4.1789 H   0  0  0  0  0  0  0  0  0  0  0  0
    5.2232   -2.2878   -3.8784 H   0  0  0  0  0  0  0  0  0  0  0  0
    3.7977   -1.2491   -3.9964 H   0  0  0  0  0  0  0  0  0  0  0  0
    2.2139   -2.4062    0.3547 H   0  0  0  0  0  0  0  0  0  0  0  0
    4.2972   -1.3611    0.7253 H   0  0  0  0  0  0  0  0  0  0  0  0
    6.2772   -3.2570    0.9465 H   0  0  0  0  0  0  0  0  0  0  0  0
    4.9251   -3.1989    3.1820 H   0  0  0  0  0  0  0  0  0  0  0  0
    2.5838   -4.3774    2.7546 H   0  0  0  0  0  0  0  0  0  0  0  0
    2.5096   -5.1496    0.2501 H   0  0  0  0  0  0  0  0  0  0  0  0
    5.0291   -5.5799    0.8487 H   0  0  0  0  0  0  0  0  0  0  0  0
    4.3342   -5.4431   -1.5269 H   0  0  0  0  0  0  0  0  0  0  0  0
  1 15  1  0
  1 16  1  0
  1 17  1  0
  1  2  1  0
  2  7  1  0
  2  3  1  0
  3  4  2  0
  3  5  1  0
  5 12  1  0
  5 18  1  1
  5  6  1  0
  6  9  1  0
  6 19  1  1
  6  7  1  0
  7  8  2  0
  9 13  1  0
  9 10  1  0
  9 20  1  1
 10 11  2  0
 10 21  1  0
 11 12  1  0
 11 22  1  0
 12 13  1  0
 12 23  1  1
 13 14  1  0
 13 24  1  1
 14 25  1  0
M  END
>  <i_m_ct_stereo_status>  (165) 
1

>  <s_m_source_file>  (165) 
/var/tmp/pbs.5076255.sched01/tmpr0mrskr5/46emy42_dx.sdf

>  <i_m_source_file_index>  (165) 
26

>  <i_lp_mmshare_version>  (165) 
48012

>  <i_f3d_flags>  (165) 
0

>  <s_epik_input>  (165) 
W09IXWMxbihbQ0gzXSljKFtPSF0pYyhjMTIpW0NASF0zW0NIXT1bQ0hdW0NAQEhdMltDQEhdM1tPSF0=

>  <s_epik_cmdline>  (165) 
J2VwaWtfcHl0aG9uJywgJy1waHQnLCAnMi4wJywgJy1waCcsICc3LjAnLCAnLXRuJywgJzgnLCAnLW1hJywgJzIwMCcsICctaW1hZScsICc8aW5maWxlLm1hZT4nLCAnLW9tYWUnLCAnPG91dGZpbGUubWFlPic=

>  <r_lp_tautomer_probability>  (165) 
1

>  <r_epik_Ionization_Penalty>  (165) 
4.34292e-08

>  <r_epik_Ionization_Penalty_Charging>  (165) 
0

>  <r_epik_Ionization_Penalty_Neutral>  (165) 
4.34292e-08

>  <r_epik_State_Penalty>  (165) 
-0

>  <r_epik_Charging_Adjusted_Penalty>  (165) 
0

>  <i_epik_Tot_Q>  (165) 
0

>  <i_epik_Tot_abs_Q>  (165) 
0

>  <s_lp_Force_Field>  (165) 
OPLS3e

>  <r_lp_Energy>  (165) 
15.9215

>  <b_lp_Chiralities_Consistent>  (165) 
1

>  <s_lp_Variant>  (165) 
49:0-1

>  <s_i_glide_gridfile>  (165) 
pfpi4k_grid

>  <i_i_glide_lignum>  (165) 
26

>  <i_i_glide_rotatable_bonds>  (165) 
1

>  <r_i_docking_score>  (165) 
-4.21269

>  <r_i_glide_ligand_efficiency>  (165) 
-0.300906

>  <r_i_glide_ligand_efficiency_sa>  (165) 
-0.725227

>  <r_i_glide_ligand_efficiency_ln>  (165) 
-1.15763

>  <r_i_glide_gscore>  (165) 
-4.21269

>  <r_i_glide_lipo>  (165) 
-0.297822

>  <r_i_glide_hbond>  (165) 
-0.423614

>  <r_i_glide_metal>  (165) 
-0

>  <r_i_glide_rewards>  (165) 
-2.09182

>  <r_i_glide_evdw>  (165) 
-14.0592

>  <r_i_glide_ecoul>  (165) 
-4.38356

>  <r_i_glide_erotb>  (165) 
0

>  <r_i_glide_esite>  (165) 
-0.0389329

>  <r_i_glide_emodel>  (165) 
-24.7918

>  <r_i_glide_energy>  (165) 
-18.4428

>  <r_i_glide_einternal>  (165) 
0.555084

>  <r_i_glide_intrahb_reward>  (165) 
-0

>  <i_i_glide_confnum>  (165) 
1

>  <i_i_glide_posenum>  (165) 
9

>  <r_i_glide_eff_state_penalty>  (165) 
0

>  <ligand_id>  (165) 
49

>  <original_smiles>  (165) 
Cn1c(O)c2c(c1O)C1C=CC2C1O

>  <smiles>  (165) 
[H]OC1([H])C2([H])C([H])=C([H])C1([H])C1([H])C(=O)N(C([H])([H])[H])C(=O)C21[H]

$$$$
49:0:2
     RDKit          3D

 25 27  0  0  1  0  0  0  0  0999 V2000
    2.2127   -3.2246   -3.8798 C   0  0  0  0  0  0  0  0  0  0  0  0
    2.8534   -2.6502   -2.7068 N   0  0  0  0  0  0  0  0  0  0  0  0
    2.6199   -3.0538   -1.4470 C   0  0  0  0  0  0  0  0  0  0  0  0
    1.8149   -3.9135   -1.0884 O   0  0  0  0  0  0  0  0  0  0  0  0
    3.4800   -2.2638   -0.4649 C   0  0  2  0  0  0  0  0  0  0  0  0
    4.3164   -1.3392   -1.3865 C   0  0  2  0  0  0  0  0  0  0  0  0
    3.7950   -1.6987   -2.7739 C   0  0  0  0  0  0  0  0  0  0  0  0
    4.2154   -1.1806   -3.8106 O   0  0  0  0  0  0  0  0  0  0  0  0
    5.7799   -1.7733   -1.0616 C   0  0  1  0  0  0  0  0  0  0  0  0
    6.0279   -1.3161    0.3636 C   0  0  0  0  0  0  0  0  0  0  0  0
    5.3080   -2.1066    1.1627 C   0  0  0  0  0  0  0  0  0  0  0  0
    4.5703   -3.0923    0.2769 C   0  0  2  0  0  0  0  0  0  0  0  0
    5.6769   -3.2857   -0.7793 C   0  0  1  0  0  0  0  0  0  0  0  0
    5.3872   -4.1113   -1.8908 O   0  0  0  0  0  0  0  0  0  0  0  0
    1.9199   -4.2534   -3.6859 H   0  0  0  0  0  0  0  0  0  0  0  0
    2.9003   -3.2501   -4.7245 H   0  0  0  0  0  0  0  0  0  0  0  0
    1.3241   -2.6596   -4.1660 H   0  0  0  0  0  0  0  0  0  0  0  0
    2.8422   -1.6993    0.2200 H   0  0  0  0  0  0  0  0  0  0  0  0
    4.1570   -0.2754   -1.1950 H   0  0  0  0  0  0  0  0  0  0  0  0
    6.5359   -1.4853   -1.7861 H   0  0  0  0  0  0  0  0  0  0  0  0
    6.6507   -0.4860    0.6527 H   0  0  0  0  0  0  0  0  0  0  0  0
    5.2240   -2.0574    2.2372 H   0  0  0  0  0  0  0  0  0  0  0  0
    4.2347   -3.9964    0.7854 H   0  0  0  0  0  0  0  0  0  0  0  0
    6.5947   -3.6768   -0.3306 H   0  0  0  0  0  0  0  0  0  0  0  0
    4.8089   -4.8115   -1.6368 H   0  0  0  0  0  0  0  0  0  0  0  0
  1 15  1  0
  1 16  1  0
  1 17  1  0
  1  2  1  0
  2  7  1  0
  2  3  1  0
  3  4  2  0
  3  5  1  0
  5 12  1  0
  5 18  1  1
  5  6  1  0
  6  9  1  0
  6 19  1  1
  6  7  1  0
  7  8  2  0
  9 13  1  0
  9 10  1  0
  9 20  1  6
 10 11  2  0
 10 21  1  0
 11 12  1  0
 11 22  1  0
 12 13  1  0
 12 23  1  1
 13 14  1  0
 13 24  1  1
 14 25  1  0
M  END
>  <i_m_ct_stereo_status>  (166) 
1

>  <s_m_source_file>  (166) 
/var/tmp/pbs.5076255.sched01/tmpr0mrskr5/46emy42_dx.sdf

>  <i_m_source_file_index>  (166) 
26

>  <i_lp_mmshare_version>  (166) 
48012

>  <i_f3d_flags>  (166) 
0

>  <s_epik_input>  (166) 
W09IXWMxbihbQ0gzXSljKFtPSF0pYyhjMTIpW0NASF0zW0NIXT1bQ0hdW0NAQEhdMltDQEhdM1tPSF0=

>  <s_epik_cmdline>  (166) 
J2VwaWtfcHl0aG9uJywgJy1waHQnLCAnMi4wJywgJy1waCcsICc3LjAnLCAnLXRuJywgJzgnLCAnLW1hJywgJzIwMCcsICctaW1hZScsICc8aW5maWxlLm1hZT4nLCAnLW9tYWUnLCAnPG91dGZpbGUubWFlPic=

>  <r_lp_tautomer_probability>  (166) 
1

>  <r_epik_Ionization_Penalty>  (166) 
4.34292e-08

>  <r_epik_Ionization_Penalty_Charging>  (166) 
0

>  <r_epik_Ionization_Penalty_Neutral>  (166) 
4.34292e-08

>  <r_epik_State_Penalty>  (166) 
-0

>  <r_epik_Charging_Adjusted_Penalty>  (166) 
0

>  <i_epik_Tot_Q>  (166) 
0

>  <i_epik_Tot_abs_Q>  (166) 
0

>  <s_lp_Force_Field>  (166) 
OPLS3e

>  <r_lp_Energy>  (166) 
15.9215

>  <b_lp_Chiralities_Consistent>  (166) 
1

>  <s_lp_Variant>  (166) 
49:0-1

>  <s_i_glide_gridfile>  (166) 
pfpi4k_grid

>  <i_i_glide_lignum>  (166) 
26

>  <i_i_glide_rotatable_bonds>  (166) 
1

>  <r_i_docking_score>  (166) 
-4.05671

>  <r_i_glide_ligand_efficiency>  (166) 
-0.289765

>  <r_i_glide_ligand_efficiency_sa>  (166) 
-0.698376

>  <r_i_glide_ligand_efficiency_ln>  (166) 
-1.11477

>  <r_i_glide_gscore>  (166) 
-4.05671

>  <r_i_glide_lipo>  (166) 
-0.401648

>  <r_i_glide_hbond>  (166) 
-0.0067703

>  <r_i_glide_metal>  (166) 
-0

>  <r_i_glide_rewards>  (166) 
-2.09182

>  <r_i_glide_evdw>  (166) 
-18.919

>  <r_i_glide_ecoul>  (166) 
-3.77486

>  <r_i_glide_erotb>  (166) 
0

>  <r_i_glide_esite>  (166) 
-0.0442915

>  <r_i_glide_emodel>  (166) 
-28.7808

>  <r_i_glide_energy>  (166) 
-22.6939

>  <r_i_glide_einternal>  (166) 
0.549858

>  <r_i_glide_intrahb_reward>  (166) 
-0

>  <i_i_glide_confnum>  (166) 
1

>  <i_i_glide_posenum>  (166) 
20

>  <r_i_glide_eff_state_penalty>  (166) 
0

>  <ligand_id>  (166) 
49

>  <original_smiles>  (166) 
Cn1c(O)c2c(c1O)C1C=CC2C1O

>  <smiles>  (166) 
[H]OC1([H])C2([H])C([H])=C([H])C1([H])C1([H])C(=O)N(C([H])([H])[H])C(=O)C21[H]

$$$$
49:1:0
     RDKit          3D

 25 27  0  0  1  0  0  0  0  0999 V2000
    6.2253   -0.8278    1.0624 C   0  0  0  0  0  0  0  0  0  0  0  0
    5.4344   -1.5829    0.0939 N   0  0  0  0  0  0  0  0  0  0  0  0
    4.1121   -1.4295   -0.0598 C   0  0  0  0  0  0  0  0  0  0  0  0
    3.4076   -0.6474    0.5691 O   0  0  0  0  0  0  0  0  0  0  0  0
    3.5654   -2.3735   -1.1339 C   0  0  2  0  0  0  0  0  0  0  0  0
    4.8339   -3.1241   -1.5986 C   0  0  2  0  0  0  0  0  0  0  0  0
    5.9370   -2.4996   -0.7451 C   0  0  0  0  0  0  0  0  0  0  0  0
    7.1235   -2.8059   -0.8602 O   0  0  0  0  0  0  0  0  0  0  0  0
    4.9078   -2.7700   -3.1068 C   0  0  1  0  0  0  0  0  0  0  0  0
    3.7252   -3.4568   -3.7518 C   0  0  0  0  0  0  0  0  0  0  0  0
    2.6220   -2.8168   -3.3578 C   0  0  0  0  0  0  0  0  0  0  0  0
    3.0696   -1.6901   -2.4412 C   0  0  2  0  0  0  0  0  0  0  0  0
    4.3974   -1.3081   -3.1198 C   0  0  2  0  0  0  0  0  0  0  0  0
    4.2136   -0.7766   -4.4281 O   0  0  0  0  0  0  0  0  0  0  0  0
    5.7877    0.1466    1.2713 H   0  0  0  0  0  0  0  0  0  0  0  0
    7.2400   -0.6582    0.7030 H   0  0  0  0  0  0  0  0  0  0  0  0
    6.2957   -1.3641    2.0089 H   0  0  0  0  0  0  0  0  0  0  0  0
    2.8168   -3.0352   -0.7008 H   0  0  0  0  0  0  0  0  0  0  0  0
    4.7827   -4.1992   -1.4239 H   0  0  0  0  0  0  0  0  0  0  0  0
    5.8749   -2.9607   -3.5617 H   0  0  0  0  0  0  0  0  0  0  0  0
    3.7998   -4.3332   -4.3725 H   0  0  0  0  0  0  0  0  0  0  0  0
    1.5926   -3.0573   -3.5888 H   0  0  0  0  0  0  0  0  0  0  0  0
    2.3638   -0.8706   -2.3258 H   0  0  0  0  0  0  0  0  0  0  0  0
    5.0052   -0.6091   -2.5445 H   0  0  0  0  0  0  0  0  0  0  0  0
    3.5906   -0.0652   -4.3848 H   0  0  0  0  0  0  0  0  0  0  0  0
  1 15  1  0
  1 16  1  0
  1 17  1  0
  1  2  1  0
  2  7  1  0
  2  3  1  0
  3  4  2  0
  3  5  1  0
  5 12  1  0
  5 18  1  1
  5  6  1  0
  6  9  1  0
  6 19  1  6
  6  7  1  0
  7  8  2  0
  9 13  1  0
  9 10  1  0
  9 20  1  6
 10 11  2  0
 10 21  1  0
 11 12  1  0
 11 22  1  0
 12 13  1  0
 12 23  1  1
 13 14  1  0
 13 24  1  1
 14 25  1  0
M  END
>  <i_m_ct_stereo_status>  (167) 
1

>  <s_m_source_file>  (167) 
/var/tmp/pbs.5076255.sched01/tmpr0mrskr5/46emy42_dx.sdf

>  <i_m_source_file_index>  (167) 
27

>  <i_lp_mmshare_version>  (167) 
48012

>  <i_f3d_flags>  (167) 
0

>  <s_epik_input>  (167) 
W09IXWMxbihbQ0gzXSljKFtPSF0pYyhjMTIpW0NASF0zW0NIXT1bQ0hdW0NAQEhdMltDQEhdM1tPSF0=

>  <s_epik_cmdline>  (167) 
J2VwaWtfcHl0aG9uJywgJy1waHQnLCAnMi4wJywgJy1waCcsICc3LjAnLCAnLXRuJywgJzgnLCAnLW1hJywgJzIwMCcsICctaW1hZScsICc8aW5maWxlLm1hZT4nLCAnLW9tYWUnLCAnPG91dGZpbGUubWFlPic=

>  <r_lp_tautomer_probability>  (167) 
1

>  <r_epik_Ionization_Penalty>  (167) 
4.34292e-08

>  <r_epik_Ionization_Penalty_Charging>  (167) 
0

>  <r_epik_Ionization_Penalty_Neutral>  (167) 
4.34292e-08

>  <r_epik_State_Penalty>  (167) 
-0

>  <r_epik_Charging_Adjusted_Penalty>  (167) 
0

>  <i_epik_Tot_Q>  (167) 
0

>  <i_epik_Tot_abs_Q>  (167) 
0

>  <s_lp_Force_Field>  (167) 
OPLS3e

>  <r_lp_Energy>  (167) 
15.2255

>  <b_lp_Chiralities_Consistent>  (167) 
1

>  <s_lp_Variant>  (167) 
49:0-2

>  <s_i_glide_gridfile>  (167) 
pfpi4k_grid

>  <i_i_glide_lignum>  (167) 
27

>  <i_i_glide_rotatable_bonds>  (167) 
1

>  <r_i_docking_score>  (167) 
-4.46129

>  <r_i_glide_ligand_efficiency>  (167) 
-0.318663

>  <r_i_glide_ligand_efficiency_sa>  (167) 
-0.768024

>  <r_i_glide_ligand_efficiency_ln>  (167) 
-1.22595

>  <r_i_glide_gscore>  (167) 
-4.46129

>  <r_i_glide_lipo>  (167) 
-0.55032

>  <r_i_glide_hbond>  (167) 
-0.0570538

>  <r_i_glide_metal>  (167) 
-0

>  <r_i_glide_rewards>  (167) 
-2.10958

>  <r_i_glide_evdw>  (167) 
-23.2149

>  <r_i_glide_ecoul>  (167) 
-3.55307

>  <r_i_glide_erotb>  (167) 
0

>  <r_i_glide_esite>  (167) 
-0.0506254

>  <r_i_glide_emodel>  (167) 
-33.7068

>  <r_i_glide_energy>  (167) 
-26.7679

>  <r_i_glide_einternal>  (167) 
0.398059

>  <r_i_glide_intrahb_reward>  (167) 
-0

>  <i_i_glide_confnum>  (167) 
2

>  <i_i_glide_posenum>  (167) 
27

>  <r_i_glide_eff_state_penalty>  (167) 
0

>  <ligand_id>  (167) 
49

>  <original_smiles>  (167) 
Cn1c(O)c2c(c1O)C1C=CC2C1O

>  <smiles>  (167) 
[H]OC1([H])C2([H])C([H])=C([H])C1([H])C1([H])C(=O)N(C([H])([H])[H])C(=O)C21[H]

$$$$
49:1:1
     RDKit          3D

 25 27  0  0  1  0  0  0  0  0999 V2000
   -1.7744   -1.0155    5.0829 C   0  0  0  0  0  0  0  0  0  0  0  0
   -1.0677    0.2640    5.1198 N   0  0  0  0  0  0  0  0  0  0  0  0
   -0.0867    0.6084    4.2708 C   0  0  0  0  0  0  0  0  0  0  0  0
    0.3547   -0.0782    3.3521 O   0  0  0  0  0  0  0  0  0  0  0  0
    0.4640    1.9932    4.6018 C   0  0  2  0  0  0  0  0  0  0  0  0
   -0.4024    2.4323    5.8076 C   0  0  2  0  0  0  0  0  0  0  0  0
   -1.3313    1.2329    6.0096 C   0  0  0  0  0  0  0  0  0  0  0  0
   -2.1818    1.1758    6.8984 O   0  0  0  0  0  0  0  0  0  0  0  0
   -1.0720    3.7377    5.2865 C   0  0  1  0  0  0  0  0  0  0  0  0
    0.0486    4.7532    5.1419 C   0  0  0  0  0  0  0  0  0  0  0  0
    0.7938    4.3743    4.1001 C   0  0  0  0  0  0  0  0  0  0  0  0
    0.1806    3.1018    3.5493 C   0  0  2  0  0  0  0  0  0  0  0  0
   -1.3123    3.3929    3.7987 C   0  0  2  0  0  0  0  0  0  0  0  0
   -1.7879    4.4929    3.0302 O   0  0  0  0  0  0  0  0  0  0  0  0
   -1.7819   -1.4366    4.0774 H   0  0  0  0  0  0  0  0  0  0  0  0
   -2.8139   -0.9058    5.3897 H   0  0  0  0  0  0  0  0  0  0  0  0
   -1.2959   -1.7394    5.7439 H   0  0  0  0  0  0  0  0  0  0  0  0
    1.5255    1.9235    4.8450 H   0  0  0  0  0  0  0  0  0  0  0  0
    0.1924    2.6031    6.7069 H   0  0  0  0  0  0  0  0  0  0  0  0
   -1.9440    4.0826    5.8395 H   0  0  0  0  0  0  0  0  0  0  0  0
    0.1949    5.6096    5.7821 H   0  0  0  0  0  0  0  0  0  0  0  0
    1.6741    4.8500    3.6971 H   0  0  0  0  0  0  0  0  0  0  0  0
    0.4444    2.8667    2.5187 H   0  0  0  0  0  0  0  0  0  0  0  0
   -1.9737    2.5386    3.6297 H   0  0  0  0  0  0  0  0  0  0  0  0
   -1.2546    4.5390    2.2370 H   0  0  0  0  0  0  0  0  0  0  0  0
  1 15  1  0
  1 16  1  0
  1 17  1  0
  1  2  1  0
  2  7  1  0
  2  3  1  0
  3  4  2  0
  3  5  1  0
  5 12  1  0
  5 18  1  1
  5  6  1  0
  6  9  1  0
  6 19  1  1
  6  7  1  0
  7  8  2  0
  9 13  1  0
  9 10  1  0
  9 20  1  1
 10 11  2  0
 10 21  1  0
 11 12  1  0
 11 22  1  0
 12 13  1  0
 12 23  1  6
 13 14  1  0
 13 24  1  1
 14 25  1  0
M  END
>  <i_m_ct_stereo_status>  (168) 
1

>  <s_m_source_file>  (168) 
/var/tmp/pbs.5076255.sched01/tmpr0mrskr5/46emy42_dx.sdf

>  <i_m_source_file_index>  (168) 
27

>  <i_lp_mmshare_version>  (168) 
48012

>  <i_f3d_flags>  (168) 
0

>  <s_epik_input>  (168) 
W09IXWMxbihbQ0gzXSljKFtPSF0pYyhjMTIpW0NASF0zW0NIXT1bQ0hdW0NAQEhdMltDQEhdM1tPSF0=

>  <s_epik_cmdline>  (168) 
J2VwaWtfcHl0aG9uJywgJy1waHQnLCAnMi4wJywgJy1waCcsICc3LjAnLCAnLXRuJywgJzgnLCAnLW1hJywgJzIwMCcsICctaW1hZScsICc8aW5maWxlLm1hZT4nLCAnLW9tYWUnLCAnPG91dGZpbGUubWFlPic=

>  <r_lp_tautomer_probability>  (168) 
1

>  <r_epik_Ionization_Penalty>  (168) 
4.34292e-08

>  <r_epik_Ionization_Penalty_Charging>  (168) 
0

>  <r_epik_Ionization_Penalty_Neutral>  (168) 
4.34292e-08

>  <r_epik_State_Penalty>  (168) 
-0

>  <r_epik_Charging_Adjusted_Penalty>  (168) 
0

>  <i_epik_Tot_Q>  (168) 
0

>  <i_epik_Tot_abs_Q>  (168) 
0

>  <s_lp_Force_Field>  (168) 
OPLS3e

>  <r_lp_Energy>  (168) 
15.2255

>  <b_lp_Chiralities_Consistent>  (168) 
1

>  <s_lp_Variant>  (168) 
49:0-2

>  <s_i_glide_gridfile>  (168) 
pfpi4k_grid

>  <i_i_glide_lignum>  (168) 
27

>  <i_i_glide_rotatable_bonds>  (168) 
1

>  <r_i_docking_score>  (168) 
-4.24479

>  <r_i_glide_ligand_efficiency>  (168) 
-0.303199

>  <r_i_glide_ligand_efficiency_sa>  (168) 
-0.730753

>  <r_i_glide_ligand_efficiency_ln>  (168) 
-1.16645

>  <r_i_glide_gscore>  (168) 
-4.24479

>  <r_i_glide_lipo>  (168) 
0

>  <r_i_glide_hbond>  (168) 
-0.434451

>  <r_i_glide_metal>  (168) 
-0

>  <r_i_glide_rewards>  (168) 
-2.09182

>  <r_i_glide_evdw>  (168) 
-14.4303

>  <r_i_glide_ecoul>  (168) 
-6.14108

>  <r_i_glide_erotb>  (168) 
0

>  <r_i_glide_esite>  (168) 
-0.0758405

>  <r_i_glide_emodel>  (168) 
-26.7685

>  <r_i_glide_energy>  (168) 
-20.5713

>  <r_i_glide_einternal>  (168) 
1.0438

>  <r_i_glide_intrahb_reward>  (168) 
-0

>  <i_i_glide_confnum>  (168) 
1

>  <i_i_glide_posenum>  (168) 
25

>  <r_i_glide_eff_state_penalty>  (168) 
0

>  <ligand_id>  (168) 
49

>  <original_smiles>  (168) 
Cn1c(O)c2c(c1O)C1C=CC2C1O

>  <smiles>  (168) 
[H]OC1([H])C2([H])C([H])=C([H])C1([H])C1([H])C(=O)N(C([H])([H])[H])C(=O)C21[H]

$$$$
49:1:2
     RDKit          3D

 25 27  0  0  1  0  0  0  0  0999 V2000
    5.5593   -2.4511    1.9066 C   0  0  0  0  0  0  0  0  0  0  0  0
    5.1079   -2.9480    0.6047 N   0  0  0  0  0  0  0  0  0  0  0  0
    3.8198   -3.0588    0.2482 C   0  0  0  0  0  0  0  0  0  0  0  0
    2.8443   -2.7723    0.9413 O   0  0  0  0  0  0  0  0  0  0  0  0
    3.6862   -3.6240   -1.1606 C   0  0  2  0  0  0  0  0  0  0  0  0
    5.1565   -3.8269   -1.5910 C   0  0  2  0  0  0  0  0  0  0  0  0
    5.9367   -3.3377   -0.3755 C   0  0  0  0  0  0  0  0  0  0  0  0
    7.1665   -3.3163   -0.3425 O   0  0  0  0  0  0  0  0  0  0  0  0
    5.2696   -2.9342   -2.8587 C   0  0  1  0  0  0  0  0  0  0  0  0
    4.4038   -3.5918   -3.9167 C   0  0  0  0  0  0  0  0  0  0  0  0
    3.1305   -3.4105   -3.5512 C   0  0  0  0  0  0  0  0  0  0  0  0
    3.1455   -2.6434   -2.2434 C   0  0  2  0  0  0  0  0  0  0  0  0
    4.3708   -1.7373   -2.4765 C   0  0  2  0  0  0  0  0  0  0  0  0
    4.1997   -0.7955   -3.5258 O   0  0  0  0  0  0  0  0  0  0  0  0
    4.8419   -1.7556    2.3449 H   0  0  0  0  0  0  0  0  0  0  0  0
    6.5099   -1.9236    1.8274 H   0  0  0  0  0  0  0  0  0  0  0  0
    5.6916   -3.2765    2.6053 H   0  0  0  0  0  0  0  0  0  0  0  0
    3.1259   -4.5564   -1.1194 H   0  0  0  0  0  0  0  0  0  0  0  0
    5.3847   -4.8732   -1.7887 H   0  0  0  0  0  0  0  0  0  0  0  0
    6.2822   -2.6850   -3.1708 H   0  0  0  0  0  0  0  0  0  0  0  0
    4.7799   -4.1368   -4.7675 H   0  0  0  0  0  0  0  0  0  0  0  0
    2.2378   -3.7730   -4.0383 H   0  0  0  0  0  0  0  0  0  0  0  0
    2.2134   -2.1376   -2.0060 H   0  0  0  0  0  0  0  0  0  0  0  0
    4.6964   -1.1903   -1.5907 H   0  0  0  0  0  0  0  0  0  0  0  0
    3.4533   -0.2442   -3.3248 H   0  0  0  0  0  0  0  0  0  0  0  0
  1 15  1  0
  1 16  1  0
  1 17  1  0
  1  2  1  0
  2  7  1  0
  2  3  1  0
  3  4  2  0
  3  5  1  0
  5 12  1  0
  5 18  1  1
  5  6  1  0
  6  9  1  0
  6 19  1  6
  6  7  1  0
  7  8  2  0
  9 13  1  0
  9 10  1  0
  9 20  1  6
 10 11  2  0
 10 21  1  0
 11 12  1  0
 11 22  1  0
 12 13  1  0
 12 23  1  1
 13 14  1  0
 13 24  1  1
 14 25  1  0
M  END
>  <i_m_ct_stereo_status>  (169) 
1

>  <s_m_source_file>  (169) 
/var/tmp/pbs.5076255.sched01/tmpr0mrskr5/46emy42_dx.sdf

>  <i_m_source_file_index>  (169) 
27

>  <i_lp_mmshare_version>  (169) 
48012

>  <i_f3d_flags>  (169) 
0

>  <s_epik_input>  (169) 
W09IXWMxbihbQ0gzXSljKFtPSF0pYyhjMTIpW0NASF0zW0NIXT1bQ0hdW0NAQEhdMltDQEhdM1tPSF0=

>  <s_epik_cmdline>  (169) 
J2VwaWtfcHl0aG9uJywgJy1waHQnLCAnMi4wJywgJy1waCcsICc3LjAnLCAnLXRuJywgJzgnLCAnLW1hJywgJzIwMCcsICctaW1hZScsICc8aW5maWxlLm1hZT4nLCAnLW9tYWUnLCAnPG91dGZpbGUubWFlPic=

>  <r_lp_tautomer_probability>  (169) 
1

>  <r_epik_Ionization_Penalty>  (169) 
4.34292e-08

>  <r_epik_Ionization_Penalty_Charging>  (169) 
0

>  <r_epik_Ionization_Penalty_Neutral>  (169) 
4.34292e-08

>  <r_epik_State_Penalty>  (169) 
-0

>  <r_epik_Charging_Adjusted_Penalty>  (169) 
0

>  <i_epik_Tot_Q>  (169) 
0

>  <i_epik_Tot_abs_Q>  (169) 
0

>  <s_lp_Force_Field>  (169) 
OPLS3e

>  <r_lp_Energy>  (169) 
15.2255

>  <b_lp_Chiralities_Consistent>  (169) 
1

>  <s_lp_Variant>  (169) 
49:0-2

>  <s_i_glide_gridfile>  (169) 
pfpi4k_grid

>  <i_i_glide_lignum>  (169) 
27

>  <i_i_glide_rotatable_bonds>  (169) 
1

>  <r_i_docking_score>  (169) 
-4.01108

>  <r_i_glide_ligand_efficiency>  (169) 
-0.286506

>  <r_i_glide_ligand_efficiency_sa>  (169) 
-0.690519

>  <r_i_glide_ligand_efficiency_ln>  (169) 
-1.10223

>  <r_i_glide_gscore>  (169) 
-4.01108

>  <r_i_glide_lipo>  (169) 
-0.452548

>  <r_i_glide_hbond>  (169) 
0

>  <r_i_glide_metal>  (169) 
-0

>  <r_i_glide_rewards>  (169) 
-2.23947

>  <r_i_glide_evdw>  (169) 
-18.847

>  <r_i_glide_ecoul>  (169) 
-2.48066

>  <r_i_glide_erotb>  (169) 
0

>  <r_i_glide_esite>  (169) 
-0.00460906

>  <r_i_glide_emodel>  (169) 
-27.6475

>  <r_i_glide_energy>  (169) 
-21.3277

>  <r_i_glide_einternal>  (169) 
0.299057

>  <r_i_glide_intrahb_reward>  (169) 
-0

>  <i_i_glide_confnum>  (169) 
2

>  <i_i_glide_posenum>  (169) 
23

>  <r_i_glide_eff_state_penalty>  (169) 
0

>  <ligand_id>  (169) 
49

>  <original_smiles>  (169) 
Cn1c(O)c2c(c1O)C1C=CC2C1O

>  <smiles>  (169) 
[H]OC1([H])C2([H])C([H])=C([H])C1([H])C1([H])C(=O)N(C([H])([H])[H])C(=O)C21[H]

$$$$
50:0:0
     RDKit          3D

 81 87  0  0  1  0  0  0  0  0999 V2000
   -0.8043   -8.6261    5.0969 C   0  0  0  0  0  0  0  0  0  0  0  0
    0.5169   -8.8055    5.8401 C   0  0  2  0  0  0  0  0  0  0  0  0
    0.6205   -8.0518    7.1933 C   0  0  0  0  0  0  0  0  0  0  0  0
    1.9434   -7.4995    7.2645 O   0  0  0  0  0  0  0  0  0  0  0  0
    2.6702   -8.1426    6.2355 C   0  0  1  0  0  0  0  0  0  0  0  0
    1.6878   -8.1845    5.1202 C   0  0  1  0  0  0  0  0  0  0  0  0
    2.4825   -8.8900    4.0338 C   0  0  0  0  0  0  0  0  0  0  0  0
    3.9005   -8.2196    4.1150 C   0  0  2  0  0  0  0  0  0  0  0  0
    4.9225   -9.3809    4.1685 C   0  0  0  0  0  0  0  0  0  0  0  0
    3.9101   -7.5602    5.5586 C   0  0  1  0  0  0  0  0  0  0  0  0
    4.0382   -6.0281    5.6865 C   0  0  0  0  0  0  0  0  0  0  0  0
    3.8001   -5.2535    4.3927 C   0  0  0  0  0  0  0  0  0  0  0  0
    4.5824   -5.7791    3.1516 C   0  0  2  0  0  0  0  0  0  0  0  0
    6.0693   -5.9015    3.5891 C   0  0  0  0  0  0  0  0  0  0  0  0
    7.0049   -6.5089    2.5431 C   0  0  2  0  0  0  0  0  0  0  0  0
    7.6485   -5.4605    1.6342 C   0  0  0  0  0  0  0  0  0  0  0  0
    6.7883   -4.2224    1.3741 C   0  0  0  0  0  0  0  0  0  0  0  0
    5.3969   -4.5053    0.8041 C   0  0  1  0  0  0  0  0  0  0  0  0
    4.3104   -4.7355    1.9413 C   0  0  1  0  0  0  0  0  0  0  0  0
    2.9398   -4.9253    1.2180 C   0  0  1  0  0  0  0  0  0  0  0  0
    1.8254   -5.0433    2.0612 O   0  0  0  0  0  0  0  0  0  0  0  0
    2.6151   -3.7615    0.2856 C   0  0  0  0  0  0  0  0  0  0  0  0
    3.6267   -3.6253   -0.8041 C   0  0  1  0  0  0  0  0  0  0  0  0
    3.1622   -2.6608   -1.9220 C   0  0  0  0  0  0  0  0  0  0  0  0
    4.1263   -2.6794   -3.1057 C   0  0  1  0  0  0  0  0  0  0  0  0
    3.8456   -1.6406   -4.0117 O   0  0  0  0  0  0  0  0  0  0  0  0
    5.5594   -2.4964   -2.6176 C   0  0  0  0  0  0  0  0  0  0  0  0
    5.9347   -3.4415   -1.4801 C   0  0  0  0  0  0  0  0  0  0  0  0
    5.0262   -3.3675   -0.2329 C   0  0  2  0  0  0  0  0  0  0  0  0
    5.1264   -1.9523    0.4047 C   0  0  0  0  0  0  0  0  0  0  0  0
    6.4449   -7.7762    1.8565 C   0  0  0  0  0  0  0  0  0  0  0  0
    4.9103   -7.8301    1.6788 C   0  0  0  0  0  0  0  0  0  0  0  0
    4.1040   -7.2393    2.8688 C   0  0  1  0  0  0  0  0  0  0  0  0
   -1.0401   -7.5734    4.9216 H   0  0  0  0  0  0  0  0  0  0  0  0
   -1.6094   -9.0486    5.6808 H   0  0  0  0  0  0  0  0  0  0  0  0
   -0.8039   -9.1463    4.1399 H   0  0  0  0  0  0  0  0  0  0  0  0
    0.7051   -9.8683    6.0064 H   0  0  0  0  0  0  0  0  0  0  0  0
   -0.0868   -7.2236    7.2661 H   0  0  0  0  0  0  0  0  0  0  0  0
    0.4237   -8.7114    8.0412 H   0  0  0  0  0  0  0  0  0  0  0  0
    2.8957   -9.1590    6.5636 H   0  0  0  0  0  0  0  0  0  0  0  0
    1.4362   -7.1699    4.8090 H   0  0  0  0  0  0  0  0  0  0  0  0
    2.5363   -9.9545    4.2686 H   0  0  0  0  0  0  0  0  0  0  0  0
    1.9892   -8.8252    3.0640 H   0  0  0  0  0  0  0  0  0  0  0  0
    5.9411   -9.0286    4.3158 H   0  0  0  0  0  0  0  0  0  0  0  0
    4.8846  -10.0118    3.2818 H   0  0  0  0  0  0  0  0  0  0  0  0
    4.7152  -10.0452    5.0090 H   0  0  0  0  0  0  0  0  0  0  0  0
    4.7570   -7.9366    6.1327 H   0  0  0  0  0  0  0  0  0  0  0  0
    3.3327   -5.6472    6.4240 H   0  0  0  0  0  0  0  0  0  0  0  0
    5.0201   -5.7710    6.0900 H   0  0  0  0  0  0  0  0  0  0  0  0
    2.7278   -5.3179    4.2370 H   0  0  0  0  0  0  0  0  0  0  0  0
    4.0115   -4.1956    4.5749 H   0  0  0  0  0  0  0  0  0  0  0  0
    6.4455   -4.9561    3.9737 H   0  0  0  0  0  0  0  0  0  0  0  0
    6.1612   -6.5861    4.4298 H   0  0  0  0  0  0  0  0  0  0  0  0
    7.8578   -6.8918    3.1067 H   0  0  0  0  0  0  0  0  0  0  0  0
    8.5545   -5.1171    2.1312 H   0  0  0  0  0  0  0  0  0  0  0  0
    7.9964   -5.9112    0.7052 H   0  0  0  0  0  0  0  0  0  0  0  0
    6.6133   -3.6163    2.2580 H   0  0  0  0  0  0  0  0  0  0  0  0
    7.4015   -3.5942    0.7347 H   0  0  0  0  0  0  0  0  0  0  0  0
    5.4876   -5.4162    0.2174 H   0  0  0  0  0  0  0  0  0  0  0  0
    4.2439   -3.7708    2.4419 H   0  0  0  0  0  0  0  0  0  0  0  0
    2.9667   -5.8351    0.6160 H   0  0  0  0  0  0  0  0  0  0  0  0
    1.8586   -4.3347    2.7139 H   0  0  0  0  0  0  0  0  0  0  0  0
    1.6895   -3.9775   -0.2362 H   0  0  0  0  0  0  0  0  0  0  0  0
    2.4826   -2.8272    0.8333 H   0  0  0  0  0  0  0  0  0  0  0  0
    3.6760   -4.6195   -1.2521 H   0  0  0  0  0  0  0  0  0  0  0  0
    2.1804   -2.9566   -2.2915 H   0  0  0  0  0  0  0  0  0  0  0  0
    3.0391   -1.6458   -1.5411 H   0  0  0  0  0  0  0  0  0  0  0  0
    4.0459   -3.6350   -3.6276 H   0  0  0  0  0  0  0  0  0  0  0  0
    2.8974   -1.6219   -4.1592 H   0  0  0  0  0  0  0  0  0  0  0  0
    6.2295   -2.6963   -3.4481 H   0  0  0  0  0  0  0  0  0  0  0  0
    5.7394   -1.4622   -2.3139 H   0  0  0  0  0  0  0  0  0  0  0  0
    5.8097   -4.4429   -1.8822 H   0  0  0  0  0  0  0  0  0  0  0  0
    6.9905   -3.3037   -1.2651 H   0  0  0  0  0  0  0  0  0  0  0  0
    4.7978   -1.1672   -0.2755 H   0  0  0  0  0  0  0  0  0  0  0  0
    6.1469   -1.6912    0.6881 H   0  0  0  0  0  0  0  0  0  0  0  0
    4.5085   -1.8571    1.2965 H   0  0  0  0  0  0  0  0  0  0  0  0
    6.9081   -7.8773    0.8798 H   0  0  0  0  0  0  0  0  0  0  0  0
    6.7826   -8.6583    2.3944 H   0  0  0  0  0  0  0  0  0  0  0  0
    4.6451   -7.2925    0.7737 H   0  0  0  0  0  0  0  0  0  0  0  0
    4.5889   -8.8484    1.4584 H   0  0  0  0  0  0  0  0  0  0  0  0
    3.0927   -7.1301    2.4899 H   0  0  0  0  0  0  0  0  0  0  0  0
  1  2  1  0
  1 34  1  0
  1 35  1  0
  1 36  1  0
  2  6  1  0
  2  3  1  0
  2 37  1  1
  3  4  1  0
  3 38  1  0
  3 39  1  0
  4  5  1  0
  5 10  1  0
  5  6  1  0
  5 40  1  1
  6  7  1  0
  6 41  1  6
  7  8  1  0
  7 42  1  0
  7 43  1  0
  8 33  1  0
  8  9  1  1
  8 10  1  0
  9 44  1  0
  9 45  1  0
  9 46  1  0
 10 11  1  0
 10 47  1  1
 11 12  1  0
 11 48  1  0
 11 49  1  0
 13 12  1  1
 12 50  1  0
 12 51  1  0
 13 19  1  0
 13 33  1  0
 13 14  1  0
 14 15  1  0
 14 52  1  0
 14 53  1  0
 15 16  1  0
 15 31  1  0
 15 54  1  1
 16 17  1  0
 16 55  1  0
 16 56  1  0
 17 18  1  0
 17 57  1  0
 17 58  1  0
 18 29  1  0
 18 19  1  0
 18 59  1  6
 19 20  1  0
 19 60  1  1
 20 21  1  0
 20 22  1  0
 20 61  1  6
 21 62  1  0
 22 23  1  0
 22 63  1  0
 22 64  1  0
 23 29  1  0
 23 24  1  0
 23 65  1  6
 24 25  1  0
 24 66  1  0
 24 67  1  0
 25 26  1  0
 25 27  1  0
 25 68  1  6
 26 69  1  0
 27 28  1  0
 27 70  1  0
 27 71  1  0
 28 29  1  0
 28 72  1  0
 28 73  1  0
 29 30  1  1
 30 74  1  0
 30 75  1  0
 30 76  1  0
 31 32  1  0
 31 77  1  0
 31 78  1  0
 32 33  1  0
 32 79  1  0
 32 80  1  0
 33 81  1  6
M  END
>  <i_m_ct_stereo_status>  (170) 
1

>  <s_m_source_file>  (170) 
/var/tmp/pbs.5076255.sched01/tmpr0mrskr5/46emy42_dx.sdf

>  <i_m_source_file_index>  (170) 
28

>  <i_lp_mmshare_version>  (170) 
48012

>  <i_f3d_flags>  (170) 
0

>  <s_epik_input>  (170) 
TzFbQ0gyXVtDQEBIXShbQ0gzXSlbQ0BIXShbQ0gyXTIpW0NASF0xW0NASF0oW0NIMl1bQ0gyXTMpW0NAXTIoW0NIM10pW0NAQEhdNFtDSDJdW0NIMl1bQ0BIXShbQ0gyXTUpW0NIMl1bQ0gyXVtDQEBIXShbQ0BASF02W0NAQF0zNDUpW0NAXTcoW0NIM10pW0NAQEhdKFtDSDJdW0NAQEhdNltPSF0pW0NIMl1bQ0BASF0oW09IXSlbQ0gyXVtDSDJdNw==

>  <s_epik_cmdline>  (170) 
J2VwaWtfcHl0aG9uJywgJy1waHQnLCAnMi4wJywgJy1waCcsICc3LjAnLCAnLXRuJywgJzgnLCAnLW1hJywgJzIwMCcsICctaW1hZScsICc8aW5maWxlLm1hZT4nLCAnLW9tYWUnLCAnPG91dGZpbGUubWFlPic=

>  <r_lp_tautomer_probability>  (170) 
1

>  <r_epik_Ionization_Penalty>  (170) 
5.05519e-06

>  <r_epik_Ionization_Penalty_Charging>  (170) 
0

>  <r_epik_Ionization_Penalty_Neutral>  (170) 
5.05519e-06

>  <r_epik_State_Penalty>  (170) 
-0

>  <r_epik_Charging_Adjusted_Penalty>  (170) 
0

>  <i_epik_Tot_Q>  (170) 
0

>  <i_epik_Tot_abs_Q>  (170) 
0

>  <s_lp_Force_Field>  (170) 
OPLS3e

>  <r_lp_Energy>  (170) 
105.8

>  <b_lp_Chiralities_Consistent>  (170) 
1

>  <s_lp_Variant>  (170) 
50:0-1

>  <s_i_glide_gridfile>  (170) 
pfpi4k_grid

>  <i_i_glide_lignum>  (170) 
28

>  <i_i_glide_rotatable_bonds>  (170) 
2

>  <r_i_docking_score>  (170) 
-3.34318

>  <r_i_glide_ligand_efficiency>  (170) 
-0.101308

>  <r_i_glide_ligand_efficiency_sa>  (170) 
-0.32495

>  <r_i_glide_ligand_efficiency_ln>  (170) 
-0.743506

>  <r_i_glide_gscore>  (170) 
-3.34318

>  <r_i_glide_lipo>  (170) 
-0.838011

>  <r_i_glide_hbond>  (170) 
-0.123222

>  <r_i_glide_metal>  (170) 
-0

>  <r_i_glide_rewards>  (170) 
-0.295225

>  <r_i_glide_evdw>  (170) 
-27.6996

>  <r_i_glide_ecoul>  (170) 
-4.67829

>  <r_i_glide_erotb>  (170) 
0

>  <r_i_glide_esite>  (170) 
0

>  <r_i_glide_emodel>  (170) 
-37.7267

>  <r_i_glide_energy>  (170) 
-32.3779

>  <r_i_glide_einternal>  (170) 
0.635653

>  <r_i_glide_intrahb_reward>  (170) 
-0

>  <i_i_glide_confnum>  (170) 
1

>  <i_i_glide_posenum>  (170) 
22

>  <r_i_glide_eff_state_penalty>  (170) 
0

>  <ligand_id>  (170) 
50

>  <original_smiles>  (170) 
CC1COC2C1CC1(C)C2CCC23CC(CCC4C2C(O)CC2CC(O)CCC24C)CCC13

>  <smiles>  (170) 
[H]OC1([H])C([H])([H])C([H])([H])C2(C([H])([H])[H])C([H])(C1([H])[H])C([H])([H])C([H])(O[H])C1([H])C2([H])C([H])([H])C([H])([H])C2([H])C([H])([H])C([H])([H])C3([H])C4(C([H])([H])[H])C([H])([H])C5([H])C([H])(OC([H])([H])C5([H])C([H])([H])[H])C4([H])C([H])([H])C([H])([H])C13C2([H])[H]

$$$$
50:0:1
     RDKit          3D

 81 87  0  0  1  0  0  0  0  0999 V2000
   -1.4290   -9.1024    3.1418 C   0  0  0  0  0  0  0  0  0  0  0  0
   -0.2776   -9.4180    4.1275 C   0  0  2  0  0  0  0  0  0  0  0  0
   -0.5131   -8.8184    5.5448 C   0  0  0  0  0  0  0  0  0  0  0  0
    0.7084   -8.2443    5.9780 O   0  0  0  0  0  0  0  0  0  0  0  0
    1.6663   -8.7819    5.1157 C   0  0  1  0  0  0  0  0  0  0  0  0
    0.9768   -8.7193    3.7984 C   0  0  1  0  0  0  0  0  0  0  0  0
    2.0021   -9.3127    2.8823 C   0  0  0  0  0  0  0  0  0  0  0  0
    3.3186   -8.6180    3.3611 C   0  0  2  0  0  0  0  0  0  0  0  0
    4.3506   -9.7429    3.5461 C   0  0  0  0  0  0  0  0  0  0  0  0
    2.9933   -8.0995    4.8232 C   0  0  1  0  0  0  0  0  0  0  0  0
    2.9719   -6.5824    5.1096 C   0  0  0  0  0  0  0  0  0  0  0  0
    2.9712   -5.6891    3.8792 C   0  0  0  0  0  0  0  0  0  0  0  0
    4.0235   -6.0797    2.8019 C   0  0  2  0  0  0  0  0  0  0  0  0
    5.3852   -6.1745    3.5287 C   0  0  0  0  0  0  0  0  0  0  0  0
    6.5547   -6.6567    2.6656 C   0  0  2  0  0  0  0  0  0  0  0  0
    7.3188   -5.5123    2.0024 C   0  0  0  0  0  0  0  0  0  0  0  0
    6.4704   -4.2826    1.7157 C   0  0  0  0  0  0  0  0  0  0  0  0
    5.2311   -4.5521    0.8445 C   0  0  1  0  0  0  0  0  0  0  0  0
    3.9337   -4.9572    1.6521 C   0  0  1  0  0  0  0  0  0  0  0  0
    2.7937   -5.1774    0.6012 C   0  0  1  0  0  0  0  0  0  0  0  0
    1.5512   -5.5559    1.1618 O   0  0  0  0  0  0  0  0  0  0  0  0
    2.5446   -3.9225   -0.2331 C   0  0  0  0  0  0  0  0  0  0  0  0
    3.7821   -3.6139   -1.0390 C   0  0  1  0  0  0  0  0  0  0  0  0
    3.5157   -2.5702   -2.1417 C   0  0  0  0  0  0  0  0  0  0  0  0
    4.7344   -2.4738   -3.0537 C   0  0  1  0  0  0  0  0  0  0  0  0
    4.5518   -1.3621   -3.9062 O   0  0  0  0  0  0  0  0  0  0  0  0
    6.0109   -2.2863   -2.2271 C   0  0  0  0  0  0  0  0  0  0  0  0
    6.1707   -3.3116   -1.1270 C   0  0  0  0  0  0  0  0  0  0  0  0
    5.0021   -3.3465   -0.1359 C   0  0  2  0  0  0  0  0  0  0  0  0
    4.9238   -1.9913    0.6104 C   0  0  0  0  0  0  0  0  0  0  0  0
    6.2305   -7.8632    1.7576 C   0  0  0  0  0  0  0  0  0  0  0  0
    4.7809   -7.9729    1.2654 C   0  0  0  0  0  0  0  0  0  0  0  0
    3.7201   -7.5269    2.2945 C   0  0  1  0  0  0  0  0  0  0  0  0
   -1.6294   -8.0475    3.0059 H   0  0  0  0  0  0  0  0  0  0  0  0
   -2.3631   -9.5240    3.5052 H   0  0  0  0  0  0  0  0  0  0  0  0
   -1.2391   -9.5508    2.1687 H   0  0  0  0  0  0  0  0  0  0  0  0
   -0.0870  -10.5007    4.2025 H   0  0  0  0  0  0  0  0  0  0  0  0
   -1.2325   -8.0157    5.4172 H   0  0  0  0  0  0  0  0  0  0  0  0
   -0.8363   -9.5408    6.3033 H   0  0  0  0  0  0  0  0  0  0  0  0
    1.8547   -9.8102    5.4149 H   0  0  0  0  0  0  0  0  0  0  0  0
    0.7742   -7.6702    3.5576 H   0  0  0  0  0  0  0  0  0  0  0  0
    2.0470  -10.3865    3.0518 H   0  0  0  0  0  0  0  0  0  0  0  0
    1.7138   -9.1873    1.8384 H   0  0  0  0  0  0  0  0  0  0  0  0
    5.2857   -9.3722    3.9526 H   0  0  0  0  0  0  0  0  0  0  0  0
    4.5345  -10.2927    2.6193 H   0  0  0  0  0  0  0  0  0  0  0  0
    3.9773  -10.4786    4.2594 H   0  0  0  0  0  0  0  0  0  0  0  0
    3.7044   -8.5133    5.5482 H   0  0  0  0  0  0  0  0  0  0  0  0
    2.0771   -6.3002    5.6706 H   0  0  0  0  0  0  0  0  0  0  0  0
    3.7995   -6.3376    5.7691 H   0  0  0  0  0  0  0  0  0  0  0  0
    1.9576   -5.7557    3.4790 H   0  0  0  0  0  0  0  0  0  0  0  0
    3.0824   -4.6464    4.1944 H   0  0  0  0  0  0  0  0  0  0  0  0
    5.6152   -5.2612    4.0769 H   0  0  0  0  0  0  0  0  0  0  0  0
    5.3359   -6.9376    4.3040 H   0  0  0  0  0  0  0  0  0  0  0  0
    7.2886   -7.0533    3.3786 H   0  0  0  0  0  0  0  0  0  0  0  0
    8.0823   -5.2067    2.7152 H   0  0  0  0  0  0  0  0  0  0  0  0
    7.8725   -5.8503    1.1315 H   0  0  0  0  0  0  0  0  0  0  0  0
    6.1501   -3.7748    2.6245 H   0  0  0  0  0  0  0  0  0  0  0  0
    7.1665   -3.5729    1.2788 H   0  0  0  0  0  0  0  0  0  0  0  0
    5.5082   -5.3955    0.2151 H   0  0  0  0  0  0  0  0  0  0  0  0
    3.6743   -4.0454    2.1857 H   0  0  0  0  0  0  0  0  0  0  0  0
    3.0982   -5.9742   -0.0745 H   0  0  0  0  0  0  0  0  0  0  0  0
    1.7382   -6.2836    1.7247 H   0  0  0  0  0  0  0  0  0  0  0  0
    1.7288   -4.0794   -0.9333 H   0  0  0  0  0  0  0  0  0  0  0  0
    2.2800   -3.0694    0.3910 H   0  0  0  0  0  0  0  0  0  0  0  0
    4.0316   -4.5350   -1.5733 H   0  0  0  0  0  0  0  0  0  0  0  0
    2.6429   -2.8608   -2.7363 H   0  0  0  0  0  0  0  0  0  0  0  0
    3.2629   -1.6013   -1.7111 H   0  0  0  0  0  0  0  0  0  0  0  0
    4.7918   -3.3646   -3.6702 H   0  0  0  0  0  0  0  0  0  0  0  0
    4.2556   -0.6321   -3.3703 H   0  0  0  0  0  0  0  0  0  0  0  0
    6.8920   -2.5147   -2.8195 H   0  0  0  0  0  0  0  0  0  0  0  0
    6.0475   -1.2687   -1.8251 H   0  0  0  0  0  0  0  0  0  0  0  0
    6.2200   -4.2636   -1.5938 H   0  0  0  0  0  0  0  0  0  0  0  0
    7.1380   -3.1035   -0.6838 H   0  0  0  0  0  0  0  0  0  0  0  0
    4.7249   -1.1684   -0.0725 H   0  0  0  0  0  0  0  0  0  0  0  0
    5.8577   -1.7330    1.1135 H   0  0  0  0  0  0  0  0  0  0  0  0
    4.1242   -1.9895    1.3479 H   0  0  0  0  0  0  0  0  0  0  0  0
    6.8671   -7.8443    0.8858 H   0  0  0  0  0  0  0  0  0  0  0  0
    6.5109   -8.7673    2.2735 H   0  0  0  0  0  0  0  0  0  0  0  0
    4.6986   -7.3543    0.3719 H   0  0  0  0  0  0  0  0  0  0  0  0
    4.5659   -8.9723    0.8866 H   0  0  0  0  0  0  0  0  0  0  0  0
    2.8281   -7.4512    1.6951 H   0  0  0  0  0  0  0  0  0  0  0  0
  1  2  1  0
  1 34  1  0
  1 35  1  0
  1 36  1  0
  2  6  1  0
  2  3  1  0
  2 37  1  1
  3  4  1  0
  3 38  1  0
  3 39  1  0
  4  5  1  0
  5 10  1  0
  5  6  1  0
  5 40  1  1
  6  7  1  0
  6 41  1  6
  7  8  1  0
  7 42  1  0
  7 43  1  0
  8 33  1  0
  8  9  1  1
  8 10  1  0
  9 44  1  0
  9 45  1  0
  9 46  1  0
 10 11  1  0
 10 47  1  1
 11 12  1  0
 11 48  1  0
 11 49  1  0
 13 12  1  1
 12 50  1  0
 12 51  1  0
 13 19  1  0
 13 33  1  0
 13 14  1  0
 14 15  1  0
 14 52  1  0
 14 53  1  0
 15 16  1  0
 15 31  1  0
 15 54  1  1
 16 17  1  0
 16 55  1  0
 16 56  1  0
 17 18  1  0
 17 57  1  0
 17 58  1  0
 18 29  1  0
 18 19  1  0
 18 59  1  6
 19 20  1  0
 19 60  1  1
 20 21  1  0
 20 22  1  0
 20 61  1  6
 21 62  1  0
 22 23  1  0
 22 63  1  0
 22 64  1  0
 23 29  1  0
 23 24  1  0
 23 65  1  6
 24 25  1  0
 24 66  1  0
 24 67  1  0
 25 26  1  0
 25 27  1  0
 25 68  1  6
 26 69  1  0
 27 28  1  0
 27 70  1  0
 27 71  1  0
 28 29  1  0
 28 72  1  0
 28 73  1  0
 29 30  1  1
 30 74  1  0
 30 75  1  0
 30 76  1  0
 31 32  1  0
 31 77  1  0
 31 78  1  0
 32 33  1  0
 32 79  1  0
 32 80  1  0
 33 81  1  6
M  END
>  <i_m_ct_stereo_status>  (171) 
1

>  <s_m_source_file>  (171) 
/var/tmp/pbs.5076255.sched01/tmpr0mrskr5/46emy42_dx.sdf

>  <i_m_source_file_index>  (171) 
28

>  <i_lp_mmshare_version>  (171) 
48012

>  <i_f3d_flags>  (171) 
0

>  <s_epik_input>  (171) 
TzFbQ0gyXVtDQEBIXShbQ0gzXSlbQ0BIXShbQ0gyXTIpW0NASF0xW0NASF0oW0NIMl1bQ0gyXTMpW0NAXTIoW0NIM10pW0NAQEhdNFtDSDJdW0NIMl1bQ0BIXShbQ0gyXTUpW0NIMl1bQ0gyXVtDQEBIXShbQ0BASF02W0NAQF0zNDUpW0NAXTcoW0NIM10pW0NAQEhdKFtDSDJdW0NAQEhdNltPSF0pW0NIMl1bQ0BASF0oW09IXSlbQ0gyXVtDSDJdNw==

>  <s_epik_cmdline>  (171) 
J2VwaWtfcHl0aG9uJywgJy1waHQnLCAnMi4wJywgJy1waCcsICc3LjAnLCAnLXRuJywgJzgnLCAnLW1hJywgJzIwMCcsICctaW1hZScsICc8aW5maWxlLm1hZT4nLCAnLW9tYWUnLCAnPG91dGZpbGUubWFlPic=

>  <r_lp_tautomer_probability>  (171) 
1

>  <r_epik_Ionization_Penalty>  (171) 
5.05519e-06

>  <r_epik_Ionization_Penalty_Charging>  (171) 
0

>  <r_epik_Ionization_Penalty_Neutral>  (171) 
5.05519e-06

>  <r_epik_State_Penalty>  (171) 
-0

>  <r_epik_Charging_Adjusted_Penalty>  (171) 
0

>  <i_epik_Tot_Q>  (171) 
0

>  <i_epik_Tot_abs_Q>  (171) 
0

>  <s_lp_Force_Field>  (171) 
OPLS3e

>  <r_lp_Energy>  (171) 
105.8

>  <b_lp_Chiralities_Consistent>  (171) 
1

>  <s_lp_Variant>  (171) 
50:0-1

>  <s_i_glide_gridfile>  (171) 
pfpi4k_grid

>  <i_i_glide_lignum>  (171) 
28

>  <i_i_glide_rotatable_bonds>  (171) 
2

>  <r_i_docking_score>  (171) 
-3.22632

>  <r_i_glide_ligand_efficiency>  (171) 
-0.0977673

>  <r_i_glide_ligand_efficiency_sa>  (171) 
-0.313592

>  <r_i_glide_ligand_efficiency_ln>  (171) 
-0.717517

>  <r_i_glide_gscore>  (171) 
-3.22632

>  <r_i_glide_lipo>  (171) 
-0.650338

>  <r_i_glide_hbond>  (171) 
-0.118546

>  <r_i_glide_metal>  (171) 
-0

>  <r_i_glide_rewards>  (171) 
-0.295225

>  <r_i_glide_evdw>  (171) 
-24.1866

>  <r_i_glide_ecoul>  (171) 
-6.35254

>  <r_i_glide_erotb>  (171) 
0

>  <r_i_glide_esite>  (171) 
0

>  <r_i_glide_emodel>  (171) 
-35.0039

>  <r_i_glide_energy>  (171) 
-30.5392

>  <r_i_glide_einternal>  (171) 
0.542758

>  <r_i_glide_intrahb_reward>  (171) 
-0

>  <i_i_glide_confnum>  (171) 
1

>  <i_i_glide_posenum>  (171) 
26

>  <r_i_glide_eff_state_penalty>  (171) 
0

>  <ligand_id>  (171) 
50

>  <original_smiles>  (171) 
CC1COC2C1CC1(C)C2CCC23CC(CCC4C2C(O)CC2CC(O)CCC24C)CCC13

>  <smiles>  (171) 
[H]OC1([H])C([H])([H])C([H])([H])C2(C([H])([H])[H])C([H])(C1([H])[H])C([H])([H])C([H])(O[H])C1([H])C2([H])C([H])([H])C([H])([H])C2([H])C([H])([H])C([H])([H])C3([H])C4(C([H])([H])[H])C([H])([H])C5([H])C([H])(OC([H])([H])C5([H])C([H])([H])[H])C4([H])C([H])([H])C([H])([H])C13C2([H])[H]

$$$$
50:0:2
     RDKit          3D

 81 87  0  0  1  0  0  0  0  0999 V2000
   -0.6702   -8.6240    5.1884 C   0  0  0  0  0  0  0  0  0  0  0  0
    0.6493   -8.7624    5.9271 C   0  0  2  0  0  0  0  0  0  0  0  0
    0.7309   -7.9833    7.2649 C   0  0  0  0  0  0  0  0  0  0  0  0
    2.0479   -7.4074    7.3258 O   0  0  0  0  0  0  0  0  0  0  0  0
    2.7873   -8.0487    6.3041 C   0  0  1  0  0  0  0  0  0  0  0  0
    1.8013   -8.1293    5.1931 C   0  0  1  0  0  0  0  0  0  0  0  0
    2.6144   -8.8385    4.1178 C   0  0  0  0  0  0  0  0  0  0  0  0
    4.0203   -8.1401    4.1877 C   0  0  2  0  0  0  0  0  0  0  0  0
    5.0657   -9.2795    4.2589 C   0  0  0  0  0  0  0  0  0  0  0  0
    4.0230   -7.4554    5.6237 C   0  0  1  0  0  0  0  0  0  0  0  0
    4.1077   -5.9173    5.7219 C   0  0  0  0  0  0  0  0  0  0  0  0
    3.8550   -5.1736    4.4114 C   0  0  0  0  0  0  0  0  0  0  0  0
    4.6494   -5.7033    3.1770 C   0  0  2  0  0  0  0  0  0  0  0  0
    6.1404   -5.7921    3.6120 C   0  0  0  0  0  0  0  0  0  0  0  0
    7.0944   -6.3982    2.5784 C   0  0  2  0  0  0  0  0  0  0  0  0
    7.7126   -5.3491    1.6523 C   0  0  0  0  0  0  0  0  0  0  0  0
    6.8267   -4.1324    1.3707 C   0  0  0  0  0  0  0  0  0  0  0  0
    5.4376   -4.4525    0.8086 C   0  0  1  0  0  0  0  0  0  0  0  0
    4.3514   -4.6855    1.9494 C   0  0  1  0  0  0  0  0  0  0  0  0
    2.9786   -4.9142    1.2287 C   0  0  1  0  0  0  0  0  0  0  0  0
    1.8603   -5.0208    2.0785 O   0  0  0  0  0  0  0  0  0  0  0  0
    2.6164   -3.7744    0.2796 C   0  0  0  0  0  0  0  0  0  0  0  0
    3.6437   -3.6316   -0.8104 C   0  0  1  0  0  0  0  0  0  0  0  0
    3.1690   -2.6881   -1.9390 C   0  0  0  0  0  0  0  0  0  0  0  0
    4.1393   -2.7108   -3.1197 C   0  0  1  0  0  0  0  0  0  0  0  0
    3.8319   -1.6969   -4.0475 O   0  0  0  0  0  0  0  0  0  0  0  0
    5.5719   -2.4959   -2.6378 C   0  0  0  0  0  0  0  0  0  0  0  0
    5.9571   -3.4264   -1.4884 C   0  0  0  0  0  0  0  0  0  0  0  0
    5.0426   -3.3363   -0.2436 C   0  0  2  0  0  0  0  0  0  0  0  0
    5.1205   -1.9106    0.3743 C   0  0  0  0  0  0  0  0  0  0  0  0
    6.5514   -7.6721    1.8818 C   0  0  0  0  0  0  0  0  0  0  0  0
    5.0156   -7.7740    1.7410 C   0  0  0  0  0  0  0  0  0  0  0  0
    4.2027   -7.1793    2.9224 C   0  0  1  0  0  0  0  0  0  0  0  0
   -0.9348   -7.5870    4.9977 H   0  0  0  0  0  0  0  0  0  0  0  0
   -1.4678   -9.0525    5.7971 H   0  0  0  0  0  0  0  0  0  0  0  0
   -0.6666   -9.1612    4.2429 H   0  0  0  0  0  0  0  0  0  0  0  0
    0.8600   -9.8169    6.1105 H   0  0  0  0  0  0  0  0  0  0  0  0
    0.0076   -7.1678    7.3182 H   0  0  0  0  0  0  0  0  0  0  0  0
    0.5522   -8.6349    8.1232 H   0  0  0  0  0  0  0  0  0  0  0  0
    3.0375   -9.0516    6.6547 H   0  0  0  0  0  0  0  0  0  0  0  0
    1.5308   -7.1222    4.8641 H   0  0  0  0  0  0  0  0  0  0  0  0
    2.6865   -9.8974    4.3711 H   0  0  0  0  0  0  0  0  0  0  0  0
    2.1210   -8.8013    3.1461 H   0  0  0  0  0  0  0  0  0  0  0  0
    6.0783   -8.9022    4.3952 H   0  0  0  0  0  0  0  0  0  0  0  0
    5.0409   -9.9253    3.3837 H   0  0  0  0  0  0  0  0  0  0  0  0
    4.8727   -9.9329    5.1125 H   0  0  0  0  0  0  0  0  0  0  0  0
    4.8768   -7.8059    6.2043 H   0  0  0  0  0  0  0  0  0  0  0  0
    3.4046   -5.5358    6.4609 H   0  0  0  0  0  0  0  0  0  0  0  0
    5.0856   -5.6337    6.1172 H   0  0  0  0  0  0  0  0  0  0  0  0
    2.7829   -5.2406    4.2571 H   0  0  0  0  0  0  0  0  0  0  0  0
    4.0571   -4.1106    4.5787 H   0  0  0  0  0  0  0  0  0  0  0  0
    6.4936   -4.8342    3.9819 H   0  0  0  0  0  0  0  0  0  0  0  0
    6.2475   -6.4587    4.4649 H   0  0  0  0  0  0  0  0  0  0  0  0
    7.9524   -6.7614    3.1473 H   0  0  0  0  0  0  0  0  0  0  0  0
    8.6112   -4.9805    2.1437 H   0  0  0  0  0  0  0  0  0  0  0  0
    8.0704   -5.8049    0.7310 H   0  0  0  0  0  0  0  0  0  0  0  0
    6.6445   -3.5119    2.2423 H   0  0  0  0  0  0  0  0  0  0  0  0
    7.4274   -3.5039    0.7221 H   0  0  0  0  0  0  0  0  0  0  0  0
    5.5395   -5.3688    0.2374 H   0  0  0  0  0  0  0  0  0  0  0  0
    4.2672   -3.7138    2.4304 H   0  0  0  0  0  0  0  0  0  0  0  0
    3.0306   -5.8324    0.6471 H   0  0  0  0  0  0  0  0  0  0  0  0
    2.0152   -5.7461    2.6708 H   0  0  0  0  0  0  0  0  0  0  0  0
    1.6863   -4.0090   -0.2252 H   0  0  0  0  0  0  0  0  0  0  0  0
    2.4704   -2.8411    0.8240 H   0  0  0  0  0  0  0  0  0  0  0  0
    3.7163   -4.6163   -1.2552 H   0  0  0  0  0  0  0  0  0  0  0  0
    2.1930   -3.0093   -2.3011 H   0  0  0  0  0  0  0  0  0  0  0  0
    3.0236   -1.6689   -1.5769 H   0  0  0  0  0  0  0  0  0  0  0  0
    4.0695   -3.6743   -3.6246 H   0  0  0  0  0  0  0  0  0  0  0  0
    2.8868   -1.6825   -4.1745 H   0  0  0  0  0  0  0  0  0  0  0  0
    6.2458   -2.6881   -3.4701 H   0  0  0  0  0  0  0  0  0  0  0  0
    5.7337   -1.4583   -2.3351 H   0  0  0  0  0  0  0  0  0  0  0  0
    5.8396   -4.4338   -1.8705 H   0  0  0  0  0  0  0  0  0  0  0  0
    7.0111   -3.2560   -1.2747 H   0  0  0  0  0  0  0  0  0  0  0  0
    4.7808   -1.1400   -0.3159 H   0  0  0  0  0  0  0  0  0  0  0  0
    6.1366   -1.6236    0.6535 H   0  0  0  0  0  0  0  0  0  0  0  0
    4.5032   -1.8093    1.2663 H   0  0  0  0  0  0  0  0  0  0  0  0
    6.9952   -7.7771    0.8953 H   0  0  0  0  0  0  0  0  0  0  0  0
    6.9167   -8.5444    2.4230 H   0  0  0  0  0  0  0  0  0  0  0  0
    4.7368   -7.2567    0.8263 H   0  0  0  0  0  0  0  0  0  0  0  0
    4.7197   -8.8033    1.5357 H   0  0  0  0  0  0  0  0  0  0  0  0
    3.1951   -7.0995    2.5316 H   0  0  0  0  0  0  0  0  0  0  0  0
  1  2  1  0
  1 34  1  0
  1 35  1  0
  1 36  1  0
  2  6  1  0
  2  3  1  0
  2 37  1  1
  3  4  1  0
  3 38  1  0
  3 39  1  0
  4  5  1  0
  5 10  1  0
  5  6  1  0
  5 40  1  1
  6  7  1  0
  6 41  1  6
  7  8  1  0
  7 42  1  0
  7 43  1  0
  8 33  1  0
  8  9  1  1
  8 10  1  0
  9 44  1  0
  9 45  1  0
  9 46  1  0
 10 11  1  0
 10 47  1  1
 11 12  1  0
 11 48  1  0
 11 49  1  0
 13 12  1  1
 12 50  1  0
 12 51  1  0
 13 19  1  0
 13 33  1  0
 13 14  1  0
 14 15  1  0
 14 52  1  0
 14 53  1  0
 15 16  1  0
 15 31  1  0
 15 54  1  1
 16 17  1  0
 16 55  1  0
 16 56  1  0
 17 18  1  0
 17 57  1  0
 17 58  1  0
 18 29  1  0
 18 19  1  0
 18 59  1  6
 19 20  1  0
 19 60  1  1
 20 21  1  0
 20 22  1  0
 20 61  1  6
 21 62  1  0
 22 23  1  0
 22 63  1  0
 22 64  1  0
 23 29  1  0
 23 24  1  0
 23 65  1  6
 24 25  1  0
 24 66  1  0
 24 67  1  0
 25 26  1  0
 25 27  1  0
 25 68  1  6
 26 69  1  0
 27 28  1  0
 27 70  1  0
 27 71  1  0
 28 29  1  0
 28 72  1  0
 28 73  1  0
 29 30  1  1
 30 74  1  0
 30 75  1  0
 30 76  1  0
 31 32  1  0
 31 77  1  0
 31 78  1  0
 32 33  1  0
 32 79  1  0
 32 80  1  0
 33 81  1  6
M  END
>  <i_m_ct_stereo_status>  (172) 
1

>  <s_m_source_file>  (172) 
/var/tmp/pbs.5076255.sched01/tmpr0mrskr5/46emy42_dx.sdf

>  <i_m_source_file_index>  (172) 
28

>  <i_lp_mmshare_version>  (172) 
48012

>  <i_f3d_flags>  (172) 
0

>  <s_epik_input>  (172) 
TzFbQ0gyXVtDQEBIXShbQ0gzXSlbQ0BIXShbQ0gyXTIpW0NASF0xW0NASF0oW0NIMl1bQ0gyXTMpW0NAXTIoW0NIM10pW0NAQEhdNFtDSDJdW0NIMl1bQ0BIXShbQ0gyXTUpW0NIMl1bQ0gyXVtDQEBIXShbQ0BASF02W0NAQF0zNDUpW0NAXTcoW0NIM10pW0NAQEhdKFtDSDJdW0NAQEhdNltPSF0pW0NIMl1bQ0BASF0oW09IXSlbQ0gyXVtDSDJdNw==

>  <s_epik_cmdline>  (172) 
J2VwaWtfcHl0aG9uJywgJy1waHQnLCAnMi4wJywgJy1waCcsICc3LjAnLCAnLXRuJywgJzgnLCAnLW1hJywgJzIwMCcsICctaW1hZScsICc8aW5maWxlLm1hZT4nLCAnLW9tYWUnLCAnPG91dGZpbGUubWFlPic=

>  <r_lp_tautomer_probability>  (172) 
1

>  <r_epik_Ionization_Penalty>  (172) 
5.05519e-06

>  <r_epik_Ionization_Penalty_Charging>  (172) 
0

>  <r_epik_Ionization_Penalty_Neutral>  (172) 
5.05519e-06

>  <r_epik_State_Penalty>  (172) 
-0

>  <r_epik_Charging_Adjusted_Penalty>  (172) 
0

>  <i_epik_Tot_Q>  (172) 
0

>  <i_epik_Tot_abs_Q>  (172) 
0

>  <s_lp_Force_Field>  (172) 
OPLS3e

>  <r_lp_Energy>  (172) 
105.8

>  <b_lp_Chiralities_Consistent>  (172) 
1

>  <s_lp_Variant>  (172) 
50:0-1

>  <s_i_glide_gridfile>  (172) 
pfpi4k_grid

>  <i_i_glide_lignum>  (172) 
28

>  <i_i_glide_rotatable_bonds>  (172) 
2

>  <r_i_docking_score>  (172) 
-3.16286

>  <r_i_glide_ligand_efficiency>  (172) 
-0.0958442

>  <r_i_glide_ligand_efficiency_sa>  (172) 
-0.307424

>  <r_i_glide_ligand_efficiency_ln>  (172) 
-0.703403

>  <r_i_glide_gscore>  (172) 
-3.16286

>  <r_i_glide_lipo>  (172) 
-0.839046

>  <r_i_glide_hbond>  (172) 
-0.158494

>  <r_i_glide_metal>  (172) 
-0

>  <r_i_glide_rewards>  (172) 
-0.295225

>  <r_i_glide_evdw>  (172) 
-26.8545

>  <r_i_glide_ecoul>  (172) 
-3.51578

>  <r_i_glide_erotb>  (172) 
0

>  <r_i_glide_esite>  (172) 
0

>  <r_i_glide_emodel>  (172) 
-35.2032

>  <r_i_glide_energy>  (172) 
-30.3703

>  <r_i_glide_einternal>  (172) 
0.860596

>  <r_i_glide_intrahb_reward>  (172) 
-0

>  <i_i_glide_confnum>  (172) 
1

>  <i_i_glide_posenum>  (172) 
7

>  <r_i_glide_eff_state_penalty>  (172) 
0

>  <ligand_id>  (172) 
50

>  <original_smiles>  (172) 
CC1COC2C1CC1(C)C2CCC23CC(CCC4C2C(O)CC2CC(O)CCC24C)CCC13

>  <smiles>  (172) 
[H]OC1([H])C([H])([H])C([H])([H])C2(C([H])([H])[H])C([H])(C1([H])[H])C([H])([H])C([H])(O[H])C1([H])C2([H])C([H])([H])C([H])([H])C2([H])C([H])([H])C([H])([H])C3([H])C4(C([H])([H])[H])C([H])([H])C5([H])C([H])(OC([H])([H])C5([H])C([H])([H])[H])C4([H])C([H])([H])C([H])([H])C13C2([H])[H]

$$$$
51:0:0
     RDKit          3D

 61 66  0  0  1  0  0  0  0  0999 V2000
   -0.6428   -7.6649    3.6817 C   0  0  0  0  0  0  0  0  0  0  0  0
    0.7018   -7.6357    4.4373 C   0  0  0  0  0  0  0  0  0  0  0  0
    0.4987   -6.8990    5.7898 C   0  0  0  0  0  0  0  0  0  0  0  0
    1.1045   -9.0991    4.7297 C   0  0  0  0  0  0  0  0  0  0  0  0
    1.0339   -9.5887    5.8539 O   0  0  0  0  0  0  0  0  0  0  0  0
    1.5737   -9.9401    3.5511 C   0  0  0  0  0  0  0  0  0  0  0  0
    2.7277   -9.2317    2.8314 C   0  0  0  0  0  0  0  0  0  0  0  0
    2.3616   -7.7919    2.3889 C   0  0  1  0  0  0  0  0  0  0  0  0
    1.7650   -6.9493    3.5377 C   0  0  0  0  0  0  0  0  0  0  0  0
    2.1150   -5.6505    3.7216 C   0  0  0  0  0  0  0  0  0  0  0  0
    3.0144   -4.9452    2.7995 C   0  0  0  0  0  0  0  0  0  0  0  0
    3.6443   -3.9499    3.1557 O   0  0  0  0  0  0  0  0  0  0  0  0
    3.1946   -5.5659    1.3980 C   0  0  2  0  0  0  0  0  0  0  0  0
    2.0349   -5.5011    0.7377 F   0  0  0  0  0  0  0  0  0  0  0  0
    3.5281   -7.0702    1.6254 C   0  0  1  0  0  0  0  0  0  0  0  0
    4.9134   -7.2466    2.3277 C   0  0  0  0  0  0  0  0  0  0  0  0
    5.9932   -6.2740    1.8879 C   0  0  1  0  0  0  0  0  0  0  0  0
    6.2810   -6.2531    0.4854 O   0  0  0  0  0  0  0  0  0  0  0  0
    5.6760   -5.0686    1.0192 C   0  0  2  0  0  0  0  0  0  0  0  0
    6.5424   -3.8272    0.8660 C   0  0  1  0  0  0  0  0  0  0  0  0
    7.8870   -4.0960    1.2285 O   0  0  0  0  0  0  0  0  0  0  0  0
    6.5210   -3.3451   -0.5835 C   0  0  0  0  0  0  0  0  0  0  0  0
    5.1147   -2.9484   -1.1035 C   0  0  2  0  0  0  0  0  0  0  0  0
    4.9674   -3.4424   -2.5668 C   0  0  0  0  0  0  0  0  0  0  0  0
    4.9497   -1.4026   -0.9689 C   0  0  1  0  0  0  0  0  0  0  0  0
    4.9827   -0.6755   -2.1833 O   0  0  0  0  0  0  0  0  0  0  0  0
    3.6284   -1.1720   -0.2616 C   0  0  0  0  0  0  0  0  0  0  0  0
    3.4821   -2.3770    0.6473 C   0  0  0  0  0  0  0  0  0  0  0  0
    3.9606   -3.5407   -0.2249 C   0  0  2  0  0  0  0  0  0  0  0  0
    4.2696   -4.9120    0.4658 C   0  0  2  0  0  0  0  0  0  0  0  0
   -0.5634   -8.1988    2.7323 H   0  0  0  0  0  0  0  0  0  0  0  0
   -0.9860   -6.6560    3.4587 H   0  0  0  0  0  0  0  0  0  0  0  0
   -1.4227   -8.1605    4.2627 H   0  0  0  0  0  0  0  0  0  0  0  0
    1.4499   -6.7952    6.3177 H   0  0  0  0  0  0  0  0  0  0  0  0
   -0.1747   -7.4391    6.4562 H   0  0  0  0  0  0  0  0  0  0  0  0
    0.0683   -5.9063    5.6662 H   0  0  0  0  0  0  0  0  0  0  0  0
    1.8931  -10.9206    3.9088 H   0  0  0  0  0  0  0  0  0  0  0  0
    0.7364  -10.1088    2.8761 H   0  0  0  0  0  0  0  0  0  0  0  0
    3.5775   -9.2150    3.5152 H   0  0  0  0  0  0  0  0  0  0  0  0
    3.0375   -9.8239    1.9691 H   0  0  0  0  0  0  0  0  0  0  0  0
    1.5442   -7.8926    1.6738 H   0  0  0  0  0  0  0  0  0  0  0  0
    1.7057   -5.0546    4.5179 H   0  0  0  0  0  0  0  0  0  0  0  0
    3.6078   -7.5382    0.6463 H   0  0  0  0  0  0  0  0  0  0  0  0
    4.8012   -7.1390    3.4036 H   0  0  0  0  0  0  0  0  0  0  0  0
    5.2849   -8.2570    2.1550 H   0  0  0  0  0  0  0  0  0  0  0  0
    6.8864   -6.2526    2.5110 H   0  0  0  0  0  0  0  0  0  0  0  0
    6.1840   -3.0474    1.5344 H   0  0  0  0  0  0  0  0  0  0  0  0
    7.9150   -4.4272    2.1046 H   0  0  0  0  0  0  0  0  0  0  0  0
    7.2374   -2.5386   -0.7440 H   0  0  0  0  0  0  0  0  0  0  0  0
    6.9002   -4.1683   -1.1648 H   0  0  0  0  0  0  0  0  0  0  0  0
    4.0139   -3.1423   -3.0077 H   0  0  0  0  0  0  0  0  0  0  0  0
    5.0129   -4.5319   -2.6198 H   0  0  0  0  0  0  0  0  0  0  0  0
    5.7596   -3.0603   -3.2133 H   0  0  0  0  0  0  0  0  0  0  0  0
    5.7234   -0.9855   -0.3243 H   0  0  0  0  0  0  0  0  0  0  0  0
    4.8482    0.2456   -1.9872 H   0  0  0  0  0  0  0  0  0  0  0  0
    3.5893   -0.2351    0.2945 H   0  0  0  0  0  0  0  0  0  0  0  0
    2.8300   -1.1697   -0.9985 H   0  0  0  0  0  0  0  0  0  0  0  0
    4.1303   -2.2227    1.5064 H   0  0  0  0  0  0  0  0  0  0  0  0
    2.4583   -2.5159    0.9957 H   0  0  0  0  0  0  0  0  0  0  0  0
    3.1236   -3.7346   -0.9018 H   0  0  0  0  0  0  0  0  0  0  0  0
    4.2776   -5.5664   -0.4056 H   0  0  0  0  0  0  0  0  0  0  0  0
  1  2  1  0
  1 31  1  0
  1 32  1  0
  1 33  1  0
  2  9  1  0
  2  3  1  0
  2  4  1  0
  3 34  1  0
  3 35  1  0
  3 36  1  0
  4  5  2  0
  4  6  1  0
  6  7  1  0
  6 37  1  0
  6 38  1  0
  7  8  1  0
  7 39  1  0
  7 40  1  0
  8 15  1  0
  8  9  1  0
  8 41  1  6
  9 10  2  0
 10 11  1  0
 10 42  1  0
 11 12  2  0
 11 13  1  0
 13 30  1  0
 13 14  1  6
 13 15  1  0
 15 16  1  0
 15 43  1  6
 16 17  1  0
 16 44  1  0
 16 45  1  0
 17 19  1  0
 17 18  1  0
 17 46  1  1
 19 18  1  6
 19 30  1  0
 19 20  1  0
 20 21  1  0
 20 22  1  0
 20 47  1  1
 21 48  1  0
 22 23  1  0
 22 49  1  0
 22 50  1  0
 23 29  1  0
 23 24  1  6
 23 25  1  0
 24 51  1  0
 24 52  1  0
 24 53  1  0
 25 26  1  0
 25 27  1  0
 25 54  1  1
 26 55  1  0
 27 28  1  0
 27 56  1  0
 27 57  1  0
 28 29  1  0
 28 58  1  0
 28 59  1  0
 29 30  1  0
 29 60  1  6
 30 61  1  6
M  END
>  <i_m_ct_stereo_status>  (173) 
1

>  <s_m_source_file>  (173) 
/var/tmp/pbs.5076255.sched01/tmpr0mrskr5/46emy42_dx.sdf

>  <i_m_source_file_index>  (173) 
29

>  <i_lp_mmshare_version>  (173) 
48012

>  <i_f3d_flags>  (173) 
0

>  <s_epik_input>  (173) 
TzFbQ0BASF0oW0NAXTEyMylbQ0gyXVtDQEhdNFtDQEBIXTVDKEMoW0NIM10pKFtDSDNdKUMoPU8pW0NIMl1bQ0gyXTUpPVtDSF1DKD1PKVtDQEBdNChGKVtDQEhdM1tDQEBIXTZbQ0BdKFtDSDNdKShbQ0gyXVtDQEBIXTJbT0hdKVtDQEBIXShbT0hdKVtDSDJdW0NIMl02

>  <s_epik_cmdline>  (173) 
J2VwaWtfcHl0aG9uJywgJy1waHQnLCAnMi4wJywgJy1waCcsICc3LjAnLCAnLXRuJywgJzgnLCAnLW1hJywgJzIwMCcsICctaW1hZScsICc8aW5maWxlLm1hZT4nLCAnLW9tYWUnLCAnPG91dGZpbGUubWFlPic=

>  <r_lp_tautomer_probability>  (173) 
1

>  <r_epik_Ionization_Penalty>  (173) 
9.34301e-07

>  <r_epik_Ionization_Penalty_Charging>  (173) 
0

>  <r_epik_Ionization_Penalty_Neutral>  (173) 
9.34301e-07

>  <r_epik_State_Penalty>  (173) 
-0

>  <r_epik_Charging_Adjusted_Penalty>  (173) 
0

>  <i_epik_Tot_Q>  (173) 
0

>  <i_epik_Tot_abs_Q>  (173) 
0

>  <s_lp_Force_Field>  (173) 
OPLS3e

>  <r_lp_Energy>  (173) 
56.6251

>  <b_lp_Chiralities_Consistent>  (173) 
1

>  <s_lp_Variant>  (173) 
51:0-1

>  <s_i_glide_gridfile>  (173) 
pfpi4k_grid

>  <i_i_glide_lignum>  (173) 
29

>  <i_i_glide_rotatable_bonds>  (173) 
2

>  <r_i_docking_score>  (173) 
-3.55651

>  <r_i_glide_ligand_efficiency>  (173) 
-0.11855

>  <r_i_glide_ligand_efficiency_sa>  (173) 
-0.368363

>  <r_i_glide_ligand_efficiency_ln>  (173) 
-0.808078

>  <r_i_glide_gscore>  (173) 
-3.55651

>  <r_i_glide_lipo>  (173) 
-0.654928

>  <r_i_glide_hbond>  (173) 
-0.304801

>  <r_i_glide_metal>  (173) 
-0

>  <r_i_glide_rewards>  (173) 
-0.555693

>  <r_i_glide_evdw>  (173) 
-29.3301

>  <r_i_glide_ecoul>  (173) 
-3.23783

>  <r_i_glide_erotb>  (173) 
0

>  <r_i_glide_esite>  (173) 
-0.0889091

>  <r_i_glide_emodel>  (173) 
-39.5474

>  <r_i_glide_energy>  (173) 
-32.5679

>  <r_i_glide_einternal>  (173) 
0.685412

>  <r_i_glide_intrahb_reward>  (173) 
-0

>  <i_i_glide_confnum>  (173) 
1

>  <i_i_glide_posenum>  (173) 
7

>  <r_i_glide_eff_state_penalty>  (173) 
0

>  <ligand_id>  (173) 
51

>  <original_smiles>  (173) 
CC1(C)C(=O)CCC2C1=CC(=O)C1(F)C2CC2OC23C(O)CC2(C)C(O)CCC2C13

>  <smiles>  (173) 
[H]OC1([H])C([H])([H])C2(C([H])([H])[H])C([H])(O[H])C([H])([H])C([H])([H])C2([H])C2([H])C3(F)C(=O)C([H])=C4C([H])(C([H])([H])C([H])([H])C(=O)C4(C([H])([H])[H])C([H])([H])[H])C3([H])C([H])([H])C3([H])OC312

$$$$
51:0:1
     RDKit          3D

 61 66  0  0  1  0  0  0  0  0999 V2000
   -0.8224   -7.8125    3.2659 C   0  0  0  0  0  0  0  0  0  0  0  0
    0.4771   -7.7525    4.0920 C   0  0  0  0  0  0  0  0  0  0  0  0
    0.1790   -7.0155    5.4241 C   0  0  0  0  0  0  0  0  0  0  0  0
    0.9084   -9.1983    4.4108 C   0  0  0  0  0  0  0  0  0  0  0  0
    0.7766   -9.6849    5.5291 O   0  0  0  0  0  0  0  0  0  0  0  0
    1.4500  -10.0377    3.2633 C   0  0  0  0  0  0  0  0  0  0  0  0
    2.6270   -9.3053    2.6147 C   0  0  0  0  0  0  0  0  0  0  0  0
    2.2638   -7.8741    2.1438 C   0  0  1  0  0  0  0  0  0  0  0  0
    1.5660   -7.0493    3.2539 C   0  0  0  0  0  0  0  0  0  0  0  0
    1.8867   -5.7480    3.4710 C   0  0  0  0  0  0  0  0  0  0  0  0
    2.8115   -5.0173    2.5951 C   0  0  0  0  0  0  0  0  0  0  0  0
    3.4057   -4.0050    2.9640 O   0  0  0  0  0  0  0  0  0  0  0  0
    3.1016   -5.6264    1.2021 C   0  0  2  0  0  0  0  0  0  0  0  0
    1.9850   -5.6060    0.4704 F   0  0  0  0  0  0  0  0  0  0  0  0
    3.4544   -7.1200    1.4538 C   0  0  1  0  0  0  0  0  0  0  0  0
    4.7845   -7.2683    2.2505 C   0  0  0  0  0  0  0  0  0  0  0  0
    5.8728   -6.2649    1.8735 C   0  0  1  0  0  0  0  0  0  0  0  0
    6.2380   -6.2527    0.5021 O   0  0  0  0  0  0  0  0  0  0  0  0
    5.5834   -5.0741    0.9821 C   0  0  2  0  0  0  0  0  0  0  0  0
    6.4282   -3.8093    0.8419 C   0  0  1  0  0  0  0  0  0  0  0  0
    7.7555   -4.0748    1.2058 O   0  0  0  0  0  0  0  0  0  0  0  0
    6.4698   -3.3433   -0.6083 C   0  0  0  0  0  0  0  0  0  0  0  0
    5.0951   -2.9747   -1.1984 C   0  0  2  0  0  0  0  0  0  0  0  0
    5.0382   -3.4652   -2.6654 C   0  0  0  0  0  0  0  0  0  0  0  0
    4.8980   -1.4356   -1.0635 C   0  0  1  0  0  0  0  0  0  0  0  0
    4.9792   -0.7275   -2.2803 O   0  0  0  0  0  0  0  0  0  0  0  0
    3.5277   -1.2377   -0.4522 C   0  0  0  0  0  0  0  0  0  0  0  0
    3.3584   -2.4391    0.4565 C   0  0  0  0  0  0  0  0  0  0  0  0
    3.9144   -3.5924   -0.3830 C   0  0  2  0  0  0  0  0  0  0  0  0
    4.2212   -4.9483    0.3360 C   0  0  2  0  0  0  0  0  0  0  0  0
   -0.6773   -8.3450    2.3244 H   0  0  0  0  0  0  0  0  0  0  0  0
   -1.1792   -6.8135    3.0181 H   0  0  0  0  0  0  0  0  0  0  0  0
   -1.6197   -8.3310    3.8013 H   0  0  0  0  0  0  0  0  0  0  0  0
    1.0907   -6.8940    6.0095 H   0  0  0  0  0  0  0  0  0  0  0  0
   -0.5164   -7.5813    6.0399 H   0  0  0  0  0  0  0  0  0  0  0  0
   -0.2706   -6.0339    5.2758 H   0  0  0  0  0  0  0  0  0  0  0  0
    1.7638  -11.0120    3.6441 H   0  0  0  0  0  0  0  0  0  0  0  0
    0.6552  -10.2251    2.5423 H   0  0  0  0  0  0  0  0  0  0  0  0
    3.4303   -9.2696    3.3493 H   0  0  0  0  0  0  0  0  0  0  0  0
    2.9988   -9.8931    1.7741 H   0  0  0  0  0  0  0  0  0  0  0  0
    1.4888   -7.9896    1.3934 H   0  0  0  0  0  0  0  0  0  0  0  0
    1.4151   -5.1440    4.2327 H   0  0  0  0  0  0  0  0  0  0  0  0
    3.6084   -7.6048    0.4784 H   0  0  0  0  0  0  0  0  0  0  0  0
    4.6140   -7.1739    3.3282 H   0  0  0  0  0  0  0  0  0  0  0  0
    5.2052   -8.2593    2.0876 H   0  0  0  0  0  0  0  0  0  0  0  0
    6.7252   -6.2219    2.5317 H   0  0  0  0  0  0  0  0  0  0  0  0
    6.0236   -3.0434    1.5010 H   0  0  0  0  0  0  0  0  0  0  0  0
    8.1962   -3.2526    1.3626 H   0  0  0  0  0  0  0  0  0  0  0  0
    7.1728   -2.5169   -0.7160 H   0  0  0  0  0  0  0  0  0  0  0  0
    6.9143   -4.1580   -1.1547 H   0  0  0  0  0  0  0  0  0  0  0  0
    4.1106   -3.1835   -3.1613 H   0  0  0  0  0  0  0  0  0  0  0  0
    5.0983   -4.5520   -2.7068 H   0  0  0  0  0  0  0  0  0  0  0  0
    5.8674   -3.0796   -3.2580 H   0  0  0  0  0  0  0  0  0  0  0  0
    5.6200   -0.9981   -0.3738 H   0  0  0  0  0  0  0  0  0  0  0  0
    4.7749    0.1818   -2.1088 H   0  0  0  0  0  0  0  0  0  0  0  0
    3.4309   -0.2991    0.0934 H   0  0  0  0  0  0  0  0  0  0  0  0
    2.7792   -1.2632   -1.2444 H   0  0  0  0  0  0  0  0  0  0  0  0
    3.9528   -2.2664    1.3514 H   0  0  0  0  0  0  0  0  0  0  0  0
    2.3193   -2.6023    0.7485 H   0  0  0  0  0  0  0  0  0  0  0  0
    3.1210   -3.8086   -1.1021 H   0  0  0  0  0  0  0  0  0  0  0  0
    4.2854   -5.6138   -0.5312 H   0  0  0  0  0  0  0  0  0  0  0  0
  1  2  1  0
  1 31  1  0
  1 32  1  0
  1 33  1  0
  2  9  1  0
  2  3  1  0
  2  4  1  0
  3 34  1  0
  3 35  1  0
  3 36  1  0
  4  5  2  0
  4  6  1  0
  6  7  1  0
  6 37  1  0
  6 38  1  0
  7  8  1  0
  7 39  1  0
  7 40  1  0
  8 15  1  0
  8  9  1  0
  8 41  1  6
  9 10  2  0
 10 11  1  0
 10 42  1  0
 11 12  2  0
 11 13  1  0
 13 30  1  0
 13 14  1  6
 13 15  1  0
 15 16  1  0
 15 43  1  6
 16 17  1  0
 16 44  1  0
 16 45  1  0
 17 19  1  0
 17 18  1  0
 17 46  1  1
 19 18  1  6
 19 30  1  0
 19 20  1  0
 20 21  1  0
 20 22  1  0
 20 47  1  1
 21 48  1  0
 22 23  1  0
 22 49  1  0
 22 50  1  0
 23 29  1  0
 23 24  1  6
 23 25  1  0
 24 51  1  0
 24 52  1  0
 24 53  1  0
 25 26  1  0
 25 27  1  0
 25 54  1  1
 26 55  1  0
 27 28  1  0
 27 56  1  0
 27 57  1  0
 28 29  1  0
 28 58  1  0
 28 59  1  0
 29 30  1  0
 29 60  1  6
 30 61  1  6
M  END
>  <i_m_ct_stereo_status>  (174) 
1

>  <s_m_source_file>  (174) 
/var/tmp/pbs.5076255.sched01/tmpr0mrskr5/46emy42_dx.sdf

>  <i_m_source_file_index>  (174) 
29

>  <i_lp_mmshare_version>  (174) 
48012

>  <i_f3d_flags>  (174) 
0

>  <s_epik_input>  (174) 
TzFbQ0BASF0oW0NAXTEyMylbQ0gyXVtDQEhdNFtDQEBIXTVDKEMoW0NIM10pKFtDSDNdKUMoPU8pW0NIMl1bQ0gyXTUpPVtDSF1DKD1PKVtDQEBdNChGKVtDQEhdM1tDQEBIXTZbQ0BdKFtDSDNdKShbQ0gyXVtDQEBIXTJbT0hdKVtDQEBIXShbT0hdKVtDSDJdW0NIMl02

>  <s_epik_cmdline>  (174) 
J2VwaWtfcHl0aG9uJywgJy1waHQnLCAnMi4wJywgJy1waCcsICc3LjAnLCAnLXRuJywgJzgnLCAnLW1hJywgJzIwMCcsICctaW1hZScsICc8aW5maWxlLm1hZT4nLCAnLW9tYWUnLCAnPG91dGZpbGUubWFlPic=

>  <r_lp_tautomer_probability>  (174) 
1

>  <r_epik_Ionization_Penalty>  (174) 
9.34301e-07

>  <r_epik_Ionization_Penalty_Charging>  (174) 
0

>  <r_epik_Ionization_Penalty_Neutral>  (174) 
9.34301e-07

>  <r_epik_State_Penalty>  (174) 
-0

>  <r_epik_Charging_Adjusted_Penalty>  (174) 
0

>  <i_epik_Tot_Q>  (174) 
0

>  <i_epik_Tot_abs_Q>  (174) 
0

>  <s_lp_Force_Field>  (174) 
OPLS3e

>  <r_lp_Energy>  (174) 
56.6251

>  <b_lp_Chiralities_Consistent>  (174) 
1

>  <s_lp_Variant>  (174) 
51:0-1

>  <s_i_glide_gridfile>  (174) 
pfpi4k_grid

>  <i_i_glide_lignum>  (174) 
29

>  <i_i_glide_rotatable_bonds>  (174) 
2

>  <r_i_docking_score>  (174) 
-3.44157

>  <r_i_glide_ligand_efficiency>  (174) 
-0.114719

>  <r_i_glide_ligand_efficiency_sa>  (174) 
-0.356459

>  <r_i_glide_ligand_efficiency_ln>  (174) 
-0.781963

>  <r_i_glide_gscore>  (174) 
-3.44157

>  <r_i_glide_lipo>  (174) 
-0.713989

>  <r_i_glide_hbond>  (174) 
-0.176928

>  <r_i_glide_metal>  (174) 
-0

>  <r_i_glide_rewards>  (174) 
-0.555693

>  <r_i_glide_evdw>  (174) 
-30.8449

>  <r_i_glide_ecoul>  (174) 
-2.32705

>  <r_i_glide_erotb>  (174) 
0

>  <r_i_glide_esite>  (174) 
-0.10366

>  <r_i_glide_emodel>  (174) 
-39.5769

>  <r_i_glide_energy>  (174) 
-33.1719

>  <r_i_glide_einternal>  (174) 
0.70274

>  <r_i_glide_intrahb_reward>  (174) 
-0

>  <i_i_glide_confnum>  (174) 
2

>  <i_i_glide_posenum>  (174) 
27

>  <r_i_glide_eff_state_penalty>  (174) 
0

>  <ligand_id>  (174) 
51

>  <original_smiles>  (174) 
CC1(C)C(=O)CCC2C1=CC(=O)C1(F)C2CC2OC23C(O)CC2(C)C(O)CCC2C13

>  <smiles>  (174) 
[H]OC1([H])C([H])([H])C2(C([H])([H])[H])C([H])(O[H])C([H])([H])C([H])([H])C2([H])C2([H])C3(F)C(=O)C([H])=C4C([H])(C([H])([H])C([H])([H])C(=O)C4(C([H])([H])[H])C([H])([H])[H])C3([H])C([H])([H])C3([H])OC312

$$$$
51:0:2
     RDKit          3D

 61 66  0  0  1  0  0  0  0  0999 V2000
    3.8990   -3.3008   -1.2456 C   0  0  0  0  0  0  0  0  0  0  0  0
    4.0527   -3.7645    0.2180 C   0  0  0  0  0  0  0  0  0  0  0  0
    3.1264   -4.9869    0.4567 C   0  0  0  0  0  0  0  0  0  0  0  0
    5.5197   -4.2115    0.4117 C   0  0  0  0  0  0  0  0  0  0  0  0
    5.8531   -5.3907    0.5025 O   0  0  0  0  0  0  0  0  0  0  0  0
    6.5755   -3.1166    0.4444 C   0  0  0  0  0  0  0  0  0  0  0  0
    6.2115   -2.0755    1.5072 C   0  0  0  0  0  0  0  0  0  0  0  0
    4.8017   -1.4767    1.3077 C   0  0  1  0  0  0  0  0  0  0  0  0
    3.7239   -2.5674    1.1516 C   0  0  0  0  0  0  0  0  0  0  0  0
    2.5237   -2.4651    1.7678 C   0  0  0  0  0  0  0  0  0  0  0  0
    2.1219   -1.2775    2.5339 C   0  0  0  0  0  0  0  0  0  0  0  0
    1.2282   -1.3311    3.3806 O   0  0  0  0  0  0  0  0  0  0  0  0
    2.9399    0.0083    2.2937 C   0  0  2  0  0  0  0  0  0  0  0  0
    2.7345    0.4376    1.0531 F   0  0  0  0  0  0  0  0  0  0  0  0
    4.4354   -0.3988    2.3876 C   0  0  1  0  0  0  0  0  0  0  0  0
    4.8078   -0.8233    3.8390 C   0  0  0  0  0  0  0  0  0  0  0  0
    4.1531   -0.0032    4.9465 C   0  0  1  0  0  0  0  0  0  0  0  0
    4.3895    1.4043    4.8984 O   0  0  0  0  0  0  0  0  0  0  0  0
    3.0376    0.9729    4.6538 C   0  0  2  0  0  0  0  0  0  0  0  0
    2.0322    1.5036    5.6638 C   0  0  1  0  0  0  0  0  0  0  0  0
    2.4695    1.3151    6.9891 O   0  0  0  0  0  0  0  0  0  0  0  0
    1.7501    2.9871    5.3970 C   0  0  0  0  0  0  0  0  0  0  0  0
    1.1166    3.2569    4.0029 C   0  0  2  0  0  0  0  0  0  0  0  0
    1.7600    4.5525    3.4505 C   0  0  0  0  0  0  0  0  0  0  0  0
   -0.4442    3.3624    4.1281 C   0  0  1  0  0  0  0  0  0  0  0  0
   -0.9670    4.6743    4.0123 O   0  0  0  0  0  0  0  0  0  0  0  0
   -1.0443    2.4450    3.0570 C   0  0  0  0  0  0  0  0  0  0  0  0
   -0.0104    1.3381    2.9289 C   0  0  0  0  0  0  0  0  0  0  0  0
    1.3344    2.0747    2.9993 C   0  0  2  0  0  0  0  0  0  0  0  0
    2.6421    1.2374    3.2153 C   0  0  2  0  0  0  0  0  0  0  0  0
    4.5478   -2.4549   -1.4794 H   0  0  0  0  0  0  0  0  0  0  0  0
    2.8760   -2.9824   -1.4542 H   0  0  0  0  0  0  0  0  0  0  0  0
    4.1475   -4.0979   -1.9502 H   0  0  0  0  0  0  0  0  0  0  0  0
    3.1484   -5.2951    1.5024 H   0  0  0  0  0  0  0  0  0  0  0  0
    3.4261   -5.8507   -0.1389 H   0  0  0  0  0  0  0  0  0  0  0  0
    2.0938   -4.7829    0.1783 H   0  0  0  0  0  0  0  0  0  0  0  0
    7.5472   -3.5621    0.6640 H   0  0  0  0  0  0  0  0  0  0  0  0
    6.6473   -2.6632   -0.5420 H   0  0  0  0  0  0  0  0  0  0  0  0
    6.2589   -2.5691    2.4779 H   0  0  0  0  0  0  0  0  0  0  0  0
    6.9606   -1.2807    1.5167 H   0  0  0  0  0  0  0  0  0  0  0  0
    4.8090   -0.9632    0.3470 H   0  0  0  0  0  0  0  0  0  0  0  0
    1.7759   -3.2249    1.6632 H   0  0  0  0  0  0  0  0  0  0  0  0
    5.0253    0.4847    2.1542 H   0  0  0  0  0  0  0  0  0  0  0  0
    4.5376   -1.8677    4.0063 H   0  0  0  0  0  0  0  0  0  0  0  0
    5.8859   -0.7526    3.9712 H   0  0  0  0  0  0  0  0  0  0  0  0
    4.2251   -0.4229    5.9426 H   0  0  0  0  0  0  0  0  0  0  0  0
    1.1181    0.9241    5.5750 H   0  0  0  0  0  0  0  0  0  0  0  0
    3.2748    1.8015    7.0960 H   0  0  0  0  0  0  0  0  0  0  0  0
    1.1130    3.3900    6.1848 H   0  0  0  0  0  0  0  0  0  0  0  0
    2.6900    3.5322    5.4930 H   0  0  0  0  0  0  0  0  0  0  0  0
    1.3389    4.8543    2.4901 H   0  0  0  0  0  0  0  0  0  0  0  0
    2.8279    4.4206    3.2868 H   0  0  0  0  0  0  0  0  0  0  0  0
    1.6311    5.3966    4.1259 H   0  0  0  0  0  0  0  0  0  0  0  0
   -0.7703    2.9597    5.0898 H   0  0  0  0  0  0  0  0  0  0  0  0
   -0.6640    5.0138    3.1763 H   0  0  0  0  0  0  0  0  0  0  0  0
   -2.0293    2.0593    3.3252 H   0  0  0  0  0  0  0  0  0  0  0  0
   -1.1425    2.9506    2.0943 H   0  0  0  0  0  0  0  0  0  0  0  0
   -0.1362    0.6612    3.7702 H   0  0  0  0  0  0  0  0  0  0  0  0
   -0.1168    0.7697    2.0044 H   0  0  0  0  0  0  0  0  0  0  0  0
    1.4344    2.5268    2.0103 H   0  0  0  0  0  0  0  0  0  0  0  0
    3.3861    1.9681    2.8950 H   0  0  0  0  0  0  0  0  0  0  0  0
  1  2  1  0
  1 31  1  0
  1 32  1  0
  1 33  1  0
  2  9  1  0
  2  3  1  0
  2  4  1  0
  3 34  1  0
  3 35  1  0
  3 36  1  0
  4  5  2  0
  4  6  1  0
  6  7  1  0
  6 37  1  0
  6 38  1  0
  7  8  1  0
  7 39  1  0
  7 40  1  0
  8 15  1  0
  8  9  1  0
  8 41  1  6
  9 10  2  0
 10 11  1  0
 10 42  1  0
 11 12  2  0
 11 13  1  0
 13 30  1  0
 13 14  1  6
 13 15  1  0
 15 16  1  0
 15 43  1  6
 16 17  1  0
 16 44  1  0
 16 45  1  0
 17 19  1  0
 17 18  1  0
 17 46  1  1
 19 18  1  1
 19 30  1  0
 19 20  1  0
 20 21  1  0
 20 22  1  0
 20 47  1  1
 21 48  1  0
 22 23  1  0
 22 49  1  0
 22 50  1  0
 23 29  1  0
 23 24  1  6
 23 25  1  0
 24 51  1  0
 24 52  1  0
 24 53  1  0
 25 26  1  0
 25 27  1  0
 25 54  1  1
 26 55  1  0
 27 28  1  0
 27 56  1  0
 27 57  1  0
 28 29  1  0
 28 58  1  0
 28 59  1  0
 29 30  1  0
 29 60  1  6
 30 61  1  6
M  END
>  <i_m_ct_stereo_status>  (175) 
1

>  <s_m_source_file>  (175) 
/var/tmp/pbs.5076255.sched01/tmpr0mrskr5/46emy42_dx.sdf

>  <i_m_source_file_index>  (175) 
29

>  <i_lp_mmshare_version>  (175) 
48012

>  <i_f3d_flags>  (175) 
0

>  <s_epik_input>  (175) 
TzFbQ0BASF0oW0NAXTEyMylbQ0gyXVtDQEhdNFtDQEBIXTVDKEMoW0NIM10pKFtDSDNdKUMoPU8pW0NIMl1bQ0gyXTUpPVtDSF1DKD1PKVtDQEBdNChGKVtDQEhdM1tDQEBIXTZbQ0BdKFtDSDNdKShbQ0gyXVtDQEBIXTJbT0hdKVtDQEBIXShbT0hdKVtDSDJdW0NIMl02

>  <s_epik_cmdline>  (175) 
J2VwaWtfcHl0aG9uJywgJy1waHQnLCAnMi4wJywgJy1waCcsICc3LjAnLCAnLXRuJywgJzgnLCAnLW1hJywgJzIwMCcsICctaW1hZScsICc8aW5maWxlLm1hZT4nLCAnLW9tYWUnLCAnPG91dGZpbGUubWFlPic=

>  <r_lp_tautomer_probability>  (175) 
1

>  <r_epik_Ionization_Penalty>  (175) 
9.34301e-07

>  <r_epik_Ionization_Penalty_Charging>  (175) 
0

>  <r_epik_Ionization_Penalty_Neutral>  (175) 
9.34301e-07

>  <r_epik_State_Penalty>  (175) 
-0

>  <r_epik_Charging_Adjusted_Penalty>  (175) 
0

>  <i_epik_Tot_Q>  (175) 
0

>  <i_epik_Tot_abs_Q>  (175) 
0

>  <s_lp_Force_Field>  (175) 
OPLS3e

>  <r_lp_Energy>  (175) 
56.6251

>  <b_lp_Chiralities_Consistent>  (175) 
1

>  <s_lp_Variant>  (175) 
51:0-1

>  <s_i_glide_gridfile>  (175) 
pfpi4k_grid

>  <i_i_glide_lignum>  (175) 
29

>  <i_i_glide_rotatable_bonds>  (175) 
2

>  <r_i_docking_score>  (175) 
-3.20423

>  <r_i_glide_ligand_efficiency>  (175) 
-0.106808

>  <r_i_glide_ligand_efficiency_sa>  (175) 
-0.331877

>  <r_i_glide_ligand_efficiency_ln>  (175) 
-0.728037

>  <r_i_glide_gscore>  (175) 
-3.20423

>  <r_i_glide_lipo>  (175) 
-0.443237

>  <r_i_glide_hbond>  (175) 
-0.0675295

>  <r_i_glide_metal>  (175) 
-0

>  <r_i_glide_rewards>  (175) 
-0.647995

>  <r_i_glide_evdw>  (175) 
-28.5911

>  <r_i_glide_ecoul>  (175) 
-3.94989

>  <r_i_glide_erotb>  (175) 
0

>  <r_i_glide_esite>  (175) 
-0.02343

>  <r_i_glide_emodel>  (175) 
-39.1443

>  <r_i_glide_energy>  (175) 
-32.541

>  <r_i_glide_einternal>  (175) 
0.0169755

>  <r_i_glide_intrahb_reward>  (175) 
-0

>  <i_i_glide_confnum>  (175) 
2

>  <i_i_glide_posenum>  (175) 
24

>  <r_i_glide_eff_state_penalty>  (175) 
0

>  <ligand_id>  (175) 
51

>  <original_smiles>  (175) 
CC1(C)C(=O)CCC2C1=CC(=O)C1(F)C2CC2OC23C(O)CC2(C)C(O)CCC2C13

>  <smiles>  (175) 
[H]OC1([H])C([H])([H])C2(C([H])([H])[H])C([H])(O[H])C([H])([H])C([H])([H])C2([H])C2([H])C3(F)C(=O)C([H])=C4C([H])(C([H])([H])C([H])([H])C(=O)C4(C([H])([H])[H])C([H])([H])[H])C3([H])C([H])([H])C3([H])OC312

$$$$
52:0:0
     RDKit          3D

 51 55  0  0  1  0  0  0  0  0999 V2000
    2.4111    0.4553    2.2551 O   0  0  0  0  0  0  0  0  0  0  0  0
    3.3114   -0.5561    2.0722 C   0  0  0  0  0  0  0  0  0  0  0  0
    4.4448   -0.6534    2.8839 C   0  0  0  0  0  0  0  0  0  0  0  0
    5.3598   -1.6971    2.6626 C   0  0  0  0  0  0  0  0  0  0  0  0
    5.1474   -2.6468    1.6446 C   0  0  0  0  0  0  0  0  0  0  0  0
    3.9951   -2.5686    0.8305 C   0  0  0  0  0  0  0  0  0  0  0  0
    3.0944   -1.5080    1.0665 C   0  0  0  0  0  0  0  0  0  0  0  0
    3.6762   -3.6539   -0.2223 C   0  0  2  0  0  0  0  0  0  0  0  0
    2.8351   -4.7605    0.4502 C   0  0  0  0  0  0  0  0  0  0  0  0
    3.5678   -5.4322    1.6216 C   0  0  0  0  0  0  0  0  0  0  0  0
    4.9103   -5.9253    1.2170 N   0  0  2  0  0  0  0  0  0  0  0  0
    5.6317   -6.6161    2.3234 C   0  0  0  0  0  0  0  0  0  0  0  0
    5.0553   -7.9835    2.6353 C   0  0  0  0  0  0  0  0  0  0  0  0
    4.0727   -8.1756    3.7663 C   0  0  0  0  0  0  0  0  0  0  0  0
    5.4811   -8.7010    3.8964 C   0  0  0  0  0  0  0  0  0  0  0  0
    5.7346   -4.8890    0.5177 C   0  0  2  0  0  0  0  0  0  0  0  0
    6.1864   -3.7394    1.4422 C   0  0  0  0  0  0  0  0  0  0  0  0
    4.9775   -4.3330   -0.7102 C   0  0  2  0  0  0  0  0  0  0  0  0
    5.8183   -3.3659   -1.5765 C   0  0  0  0  0  0  0  0  0  0  0  0
    5.0117   -2.8637   -2.7718 C   0  0  0  0  0  0  0  0  0  0  0  0
    3.7216   -2.1721   -2.3360 C   0  0  1  0  0  0  0  0  0  0  0  0
    3.0207   -1.8101   -3.5086 O   0  0  0  0  0  0  0  0  0  0  0  0
    2.9024   -3.1276   -1.4651 C   0  0  0  0  0  0  0  0  0  0  0  0
    1.7126    0.4655    1.6168 H   0  0  0  0  0  0  0  0  0  0  0  0
    4.6130    0.0619    3.6748 H   0  0  0  0  0  0  0  0  0  0  0  0
    6.2118   -1.7780    3.2934 H   0  0  0  0  0  0  0  0  0  0  0  0
    2.2174   -1.4162    0.4819 H   0  0  0  0  0  0  0  0  0  0  0  0
    1.8976   -4.3544    0.8178 H   0  0  0  0  0  0  0  0  0  0  0  0
    2.5649   -5.5263   -0.2764 H   0  0  0  0  0  0  0  0  0  0  0  0
    3.6435   -4.7536    2.4711 H   0  0  0  0  0  0  0  0  0  0  0  0
    2.9730   -6.2709    1.9787 H   0  0  0  0  0  0  0  0  0  0  0  0
    6.6829   -6.7550    2.0605 H   0  0  0  0  0  0  0  0  0  0  0  0
    5.6189   -6.0134    3.2312 H   0  0  0  0  0  0  0  0  0  0  0  0
    4.9534   -8.6285    1.7675 H   0  0  0  0  0  0  0  0  0  0  0  0
    3.7982   -7.3000    4.3519 H   0  0  0  0  0  0  0  0  0  0  0  0
    3.2798   -8.9030    3.6093 H   0  0  0  0  0  0  0  0  0  0  0  0
    5.5904   -9.7813    3.8636 H   0  0  0  0  0  0  0  0  0  0  0  0
    6.1394   -8.1938    4.5988 H   0  0  0  0  0  0  0  0  0  0  0  0
    6.6254   -5.4081    0.1606 H   0  0  0  0  0  0  0  0  0  0  0  0
    7.0480   -3.2615    0.9828 H   0  0  0  0  0  0  0  0  0  0  0  0
    6.5394   -4.1126    2.4015 H   0  0  0  0  0  0  0  0  0  0  0  0
    4.7200   -5.1774   -1.3539 H   0  0  0  0  0  0  0  0  0  0  0  0
    6.1538   -2.5031   -0.9992 H   0  0  0  0  0  0  0  0  0  0  0  0
    6.7163   -3.8529   -1.9480 H   0  0  0  0  0  0  0  0  0  0  0  0
    5.6043   -2.1431   -3.3032 H   0  0  0  0  0  0  0  0  0  0  0  0
    4.8265   -3.6702   -3.4840 H   0  0  0  0  0  0  0  0  0  0  0  0
    3.9458   -1.2612   -1.7748 H   0  0  0  0  0  0  0  0  0  0  0  0
    2.4987   -2.5424   -3.8068 H   0  0  0  0  0  0  0  0  0  0  0  0
    2.6222   -3.9656   -2.0928 H   0  0  0  0  0  0  0  0  0  0  0  0
    1.9455   -2.6939   -1.2029 H   0  0  0  0  0  0  0  0  0  0  0  0
    4.7390   -6.6401    0.5275 H   0  0  0  0  0  0  0  0  0  0  0  0
  1  2  1  0
  1 24  1  0
  2  7  2  0
  2  3  1  0
  3  4  2  0
  3 25  1  0
  4  5  1  0
  4 26  1  0
  5 17  1  0
  5  6  2  0
  6  7  1  0
  6  8  1  0
  7 27  1  0
  8 18  1  0
  8 23  1  6
  8  9  1  0
  9 10  1  0
  9 28  1  0
  9 29  1  0
 10 11  1  0
 10 30  1  0
 10 31  1  0
 11 12  1  0
 11 16  1  0
 11 51  1  6
 12 13  1  0
 12 32  1  0
 12 33  1  0
 13 15  1  0
 13 14  1  0
 13 34  1  0
 14 15  1  0
 14 35  1  0
 14 36  1  0
 15 37  1  0
 15 38  1  0
 16 17  1  0
 16 18  1  0
 16 39  1  6
 17 40  1  0
 17 41  1  0
 18 19  1  0
 18 42  1  6
 19 20  1  0
 19 43  1  0
 19 44  1  0
 20 21  1  0
 20 45  1  0
 20 46  1  0
 21 22  1  0
 21 23  1  0
 21 47  1  1
 22 48  1  0
 23 49  1  0
 23 50  1  0
M  CHG  1  11   1
M  END
>  <i_m_ct_stereo_status>  (176) 
1

>  <s_m_source_file>  (176) 
/var/tmp/pbs.5076255.sched01/tmpr0mrskr5/46emy42_dx.sdf

>  <i_m_source_file_index>  (176) 
30

>  <i_lp_mmshare_version>  (176) 
48012

>  <i_f3d_flags>  (176) 
0

>  <s_epik_input>  (176) 
W09IXWMoW2NIXTEpW2NIXVtjSF1jKGMxW0NAXTIzNClbQ0gyXVtDQEBIXShOKFtDSDJdW0NIMl0yKVtDSDJdW0NIXTVbQ0gyXVtDSDJdNSlbQ0BASF0zW0NIMl1bQ0gyXVtDQEBIXShbT0hdKVtDSDJdNA==

>  <s_epik_cmdline>  (176) 
J2VwaWtfcHl0aG9uJywgJy1waHQnLCAnMi4wJywgJy1waCcsICc3LjAnLCAnLXRuJywgJzgnLCAnLW1hJywgJzIwMCcsICctaW1hZScsICc8aW5maWxlLm1hZT4nLCAnLW9tYWUnLCAnPG91dGZpbGUubWFlPic=

>  <r_lp_tautomer_probability>  (176) 
1

>  <r_epik_Ionization_Penalty>  (176) 
0.00546612

>  <r_epik_Ionization_Penalty_Charging>  (176) 
0.00449907

>  <r_epik_Ionization_Penalty_Neutral>  (176) 
0.000967048

>  <r_epik_State_Penalty>  (176) 
-0

>  <r_epik_Charging_Adjusted_Penalty>  (176) 
0.00449907

>  <i_epik_Tot_Q>  (176) 
1

>  <i_epik_Tot_abs_Q>  (176) 
1

>  <s_lp_Force_Field>  (176) 
OPLS3e

>  <r_lp_Energy>  (176) 
57.07

>  <b_lp_Chiralities_Consistent>  (176) 
1

>  <s_lp_Variant>  (176) 
52:0-1

>  <s_i_glide_gridfile>  (176) 
pfpi4k_grid

>  <i_i_glide_lignum>  (176) 
30

>  <i_i_glide_rotatable_bonds>  (176) 
4

>  <r_i_docking_score>  (176) 
-3.35634

>  <r_i_glide_ligand_efficiency>  (176) 
-0.145928

>  <r_i_glide_ligand_efficiency_sa>  (176) 
-0.414999

>  <r_i_glide_ligand_efficiency_ln>  (176) 
-0.811594

>  <r_i_glide_gscore>  (176) 
-3.35634

>  <r_i_glide_lipo>  (176) 
-0.786249

>  <r_i_glide_hbond>  (176) 
0

>  <r_i_glide_metal>  (176) 
-0

>  <r_i_glide_rewards>  (176) 
-1.26517

>  <r_i_glide_evdw>  (176) 
-22.1576

>  <r_i_glide_ecoul>  (176) 
-3.82029

>  <r_i_glide_erotb>  (176) 
0.376004

>  <r_i_glide_esite>  (176) 
0

>  <r_i_glide_emodel>  (176) 
-31.7796

>  <r_i_glide_energy>  (176) 
-25.9779

>  <r_i_glide_einternal>  (176) 
0.462475

>  <r_i_glide_intrahb_reward>  (176) 
-0

>  <i_i_glide_confnum>  (176) 
4

>  <i_i_glide_posenum>  (176) 
14

>  <r_i_glide_eff_state_penalty>  (176) 
0

>  <ligand_id>  (176) 
52

>  <original_smiles>  (176) 
Oc1ccc2c(c1)C13CCN(CC4CC4)C(C2)C1CCC(O)C3

>  <smiles>  (176) 
[H]Oc1c([H])c([H])c2c(c1[H])C13C([H])([H])C([H])(O[H])C([H])([H])C([H])([H])C1([H])C([H])(C2([H])[H])[N+]([H])(C([H])([H])C1([H])C([H])([H])C1([H])[H])C([H])([H])C3([H])[H]

$$$$
52:0:1
     RDKit          3D

 51 55  0  0  1  0  0  0  0  0999 V2000
    2.1649   -0.1768    3.0910 O   0  0  0  0  0  0  0  0  0  0  0  0
    3.0618   -1.1692    2.8555 C   0  0  0  0  0  0  0  0  0  0  0  0
    4.0719   -1.4427    3.7991 C   0  0  0  0  0  0  0  0  0  0  0  0
    5.0067   -2.4572    3.5465 C   0  0  0  0  0  0  0  0  0  0  0  0
    4.9525   -3.1916    2.3456 C   0  0  0  0  0  0  0  0  0  0  0  0
    3.9302   -2.9256    1.3855 C   0  0  0  0  0  0  0  0  0  0  0  0
    2.9872   -1.9141    1.6679 C   0  0  0  0  0  0  0  0  0  0  0  0
    3.7764   -3.8180    0.1406 C   0  0  2  0  0  0  0  0  0  0  0  0
    2.8219   -4.9781    0.5115 C   0  0  0  0  0  0  0  0  0  0  0  0
    3.3529   -5.8244    1.6685 C   0  0  0  0  0  0  0  0  0  0  0  0
    4.7293   -6.3272    1.3735 N   0  0  2  0  0  0  0  0  0  0  0  0
    5.2645   -7.2570    2.4134 C   0  0  0  0  0  0  0  0  0  0  0  0
    4.5067   -8.5828    2.5204 C   0  0  0  0  0  0  0  0  0  0  0  0
    3.3573   -8.9502    1.6133 C   0  0  0  0  0  0  0  0  0  0  0  0
    3.0932   -8.6244    3.0572 C   0  0  0  0  0  0  0  0  0  0  0  0
    5.6901   -5.2490    0.9599 C   0  0  2  0  0  0  0  0  0  0  0  0
    6.0084   -4.2673    2.1063 C   0  0  0  0  0  0  0  0  0  0  0  0
    5.1294   -4.4622   -0.2585 C   0  0  2  0  0  0  0  0  0  0  0  0
    6.1041   -3.3917   -0.8209 C   0  0  0  0  0  0  0  0  0  0  0  0
    5.4972   -2.6359   -2.0155 C   0  0  0  0  0  0  0  0  0  0  0  0
    4.1326   -2.0255   -1.6559 C   0  0  1  0  0  0  0  0  0  0  0  0
    3.5634   -1.4494   -2.8103 O   0  0  0  0  0  0  0  0  0  0  0  0
    3.1849   -3.0980   -1.1083 C   0  0  0  0  0  0  0  0  0  0  0  0
    1.6086    0.0055    2.3545 H   0  0  0  0  0  0  0  0  0  0  0  0
    4.1291   -0.8803    4.7081 H   0  0  0  0  0  0  0  0  0  0  0  0
    5.7760   -2.6703    4.2708 H   0  0  0  0  0  0  0  0  0  0  0  0
    2.1876   -1.7048    0.9805 H   0  0  0  0  0  0  0  0  0  0  0  0
    1.8399   -4.5898    0.7616 H   0  0  0  0  0  0  0  0  0  0  0  0
    2.6836   -5.6397   -0.3410 H   0  0  0  0  0  0  0  0  0  0  0  0
    3.3488   -5.2536    2.6079 H   0  0  0  0  0  0  0  0  0  0  0  0
    2.6319   -6.6170    1.7540 H   0  0  0  0  0  0  0  0  0  0  0  0
    6.2993   -7.4924    2.1823 H   0  0  0  0  0  0  0  0  0  0  0  0
    5.2836   -6.7816    3.3947 H   0  0  0  0  0  0  0  0  0  0  0  0
    5.1465   -9.4015    2.8640 H   0  0  0  0  0  0  0  0  0  0  0  0
    3.1568   -8.2125    0.8385 H   0  0  0  0  0  0  0  0  0  0  0  0
    3.2645   -9.9843    1.3215 H   0  0  0  0  0  0  0  0  0  0  0  0
    2.7922   -9.4603    3.6741 H   0  0  0  0  0  0  0  0  0  0  0  0
    2.7133   -7.6478    3.3616 H   0  0  0  0  0  0  0  0  0  0  0  0
    6.6239   -5.7355    0.6567 H   0  0  0  0  0  0  0  0  0  0  0  0
    6.9399   -3.7455    1.8752 H   0  0  0  0  0  0  0  0  0  0  0  0
    6.2113   -4.7992    3.0420 H   0  0  0  0  0  0  0  0  0  0  0  0
    4.9603   -5.1812   -1.0628 H   0  0  0  0  0  0  0  0  0  0  0  0
    6.3528   -2.6626   -0.0509 H   0  0  0  0  0  0  0  0  0  0  0  0
    7.0491   -3.8546   -1.1151 H   0  0  0  0  0  0  0  0  0  0  0  0
    6.1874   -1.8520   -2.3164 H   0  0  0  0  0  0  0  0  0  0  0  0
    5.4069   -3.3167   -2.8621 H   0  0  0  0  0  0  0  0  0  0  0  0
    4.2653   -1.2368   -0.9142 H   0  0  0  0  0  0  0  0  0  0  0  0
    2.7354   -1.0617   -2.5609 H   0  0  0  0  0  0  0  0  0  0  0  0
    3.0174   -3.8373   -1.8929 H   0  0  0  0  0  0  0  0  0  0  0  0
    2.1957   -2.6876   -0.9058 H   0  0  0  0  0  0  0  0  0  0  0  0
    4.6459   -6.9064    0.5423 H   0  0  0  0  0  0  0  0  0  0  0  0
  1  2  1  0
  1 24  1  0
  2  7  2  0
  2  3  1  0
  3  4  2  0
  3 25  1  0
  4  5  1  0
  4 26  1  0
  5 17  1  0
  5  6  2  0
  6  7  1  0
  6  8  1  0
  7 27  1  0
  8 18  1  0
  8 23  1  6
  8  9  1  0
  9 10  1  0
  9 28  1  0
  9 29  1  0
 10 11  1  0
 10 30  1  0
 10 31  1  0
 11 12  1  0
 11 16  1  0
 11 51  1  6
 12 13  1  0
 12 32  1  0
 12 33  1  0
 13 15  1  0
 13 14  1  0
 13 34  1  0
 14 15  1  0
 14 35  1  0
 14 36  1  0
 15 37  1  0
 15 38  1  0
 16 17  1  0
 16 18  1  0
 16 39  1  6
 17 40  1  0
 17 41  1  0
 18 19  1  0
 18 42  1  6
 19 20  1  0
 19 43  1  0
 19 44  1  0
 20 21  1  0
 20 45  1  0
 20 46  1  0
 21 22  1  0
 21 23  1  0
 21 47  1  1
 22 48  1  0
 23 49  1  0
 23 50  1  0
M  CHG  1  11   1
M  END
>  <i_m_ct_stereo_status>  (177) 
1

>  <s_m_source_file>  (177) 
/var/tmp/pbs.5076255.sched01/tmpr0mrskr5/46emy42_dx.sdf

>  <i_m_source_file_index>  (177) 
30

>  <i_lp_mmshare_version>  (177) 
48012

>  <i_f3d_flags>  (177) 
0

>  <s_epik_input>  (177) 
W09IXWMoW2NIXTEpW2NIXVtjSF1jKGMxW0NAXTIzNClbQ0gyXVtDQEBIXShOKFtDSDJdW0NIMl0yKVtDSDJdW0NIXTVbQ0gyXVtDSDJdNSlbQ0BASF0zW0NIMl1bQ0gyXVtDQEBIXShbT0hdKVtDSDJdNA==

>  <s_epik_cmdline>  (177) 
J2VwaWtfcHl0aG9uJywgJy1waHQnLCAnMi4wJywgJy1waCcsICc3LjAnLCAnLXRuJywgJzgnLCAnLW1hJywgJzIwMCcsICctaW1hZScsICc8aW5maWxlLm1hZT4nLCAnLW9tYWUnLCAnPG91dGZpbGUubWFlPic=

>  <r_lp_tautomer_probability>  (177) 
1

>  <r_epik_Ionization_Penalty>  (177) 
0.00546612

>  <r_epik_Ionization_Penalty_Charging>  (177) 
0.00449907

>  <r_epik_Ionization_Penalty_Neutral>  (177) 
0.000967048

>  <r_epik_State_Penalty>  (177) 
-0

>  <r_epik_Charging_Adjusted_Penalty>  (177) 
0.00449907

>  <i_epik_Tot_Q>  (177) 
1

>  <i_epik_Tot_abs_Q>  (177) 
1

>  <s_lp_Force_Field>  (177) 
OPLS3e

>  <r_lp_Energy>  (177) 
57.07

>  <b_lp_Chiralities_Consistent>  (177) 
1

>  <s_lp_Variant>  (177) 
52:0-1

>  <s_i_glide_gridfile>  (177) 
pfpi4k_grid

>  <i_i_glide_lignum>  (177) 
30

>  <i_i_glide_rotatable_bonds>  (177) 
4

>  <r_i_docking_score>  (177) 
-3.09644

>  <r_i_glide_ligand_efficiency>  (177) 
-0.134628

>  <r_i_glide_ligand_efficiency_sa>  (177) 
-0.382864

>  <r_i_glide_ligand_efficiency_ln>  (177) 
-0.748748

>  <r_i_glide_gscore>  (177) 
-3.09644

>  <r_i_glide_lipo>  (177) 
-0.445678

>  <r_i_glide_hbond>  (177) 
0

>  <r_i_glide_metal>  (177) 
-0

>  <r_i_glide_rewards>  (177) 
-1.26517

>  <r_i_glide_evdw>  (177) 
-23.8427

>  <r_i_glide_ecoul>  (177) 
-3.79642

>  <r_i_glide_erotb>  (177) 
0.376004

>  <r_i_glide_esite>  (177) 
0

>  <r_i_glide_emodel>  (177) 
-26.7227

>  <r_i_glide_energy>  (177) 
-27.6391

>  <r_i_glide_einternal>  (177) 
9.82505

>  <r_i_glide_intrahb_reward>  (177) 
-0

>  <i_i_glide_confnum>  (177) 
4

>  <i_i_glide_posenum>  (177) 
1

>  <r_i_glide_eff_state_penalty>  (177) 
0

>  <ligand_id>  (177) 
52

>  <original_smiles>  (177) 
Oc1ccc2c(c1)C13CCN(CC4CC4)C(C2)C1CCC(O)C3

>  <smiles>  (177) 
[H]Oc1c([H])c([H])c2c(c1[H])C13C([H])([H])C([H])(O[H])C([H])([H])C([H])([H])C1([H])C([H])(C2([H])[H])[N+]([H])(C([H])([H])C1([H])C([H])([H])C1([H])[H])C([H])([H])C3([H])[H]

$$$$
52:0:2
     RDKit          3D

 51 55  0  0  1  0  0  0  0  0999 V2000
    6.8709    0.6446    5.2606 O   0  0  0  0  0  0  0  0  0  0  0  0
    5.5486    0.3465    5.2422 C   0  0  0  0  0  0  0  0  0  0  0  0
    4.8757    0.0820    6.4444 C   0  0  0  0  0  0  0  0  0  0  0  0
    3.5101   -0.2458    6.4364 C   0  0  0  0  0  0  0  0  0  0  0  0
    2.8161   -0.3201    5.2048 C   0  0  0  0  0  0  0  0  0  0  0  0
    3.4885   -0.0509    3.9856 C   0  0  0  0  0  0  0  0  0  0  0  0
    4.8533    0.2892    4.0176 C   0  0  0  0  0  0  0  0  0  0  0  0
    2.7048   -0.0007    2.6504 C   0  0  2  0  0  0  0  0  0  0  0  0
    2.2187    1.4390    2.4300 C   0  0  0  0  0  0  0  0  0  0  0  0
    1.2933    1.9355    3.5432 C   0  0  0  0  0  0  0  0  0  0  0  0
    0.1537    0.9907    3.7763 N   0  0  2  0  0  0  0  0  0  0  0  0
   -0.8135    1.4594    4.7970 C   0  0  0  0  0  0  0  0  0  0  0  0
   -1.7651    2.5526    4.3027 C   0  0  0  0  0  0  0  0  0  0  0  0
   -1.8032    3.0394    2.8777 C   0  0  0  0  0  0  0  0  0  0  0  0
   -1.3465    3.9589    3.9640 C   0  0  0  0  0  0  0  0  0  0  0  0
    0.5800   -0.4414    3.9320 C   0  0  2  0  0  0  0  0  0  0  0  0
    1.3384   -0.6985    5.2483 C   0  0  0  0  0  0  0  0  0  0  0  0
    1.4351   -0.8793    2.7204 C   0  0  2  0  0  0  0  0  0  0  0  0
    1.8198   -2.3783    2.7310 C   0  0  0  0  0  0  0  0  0  0  0  0
    2.6822   -2.7582    1.5116 C   0  0  0  0  0  0  0  0  0  0  0  0
    3.9279   -1.8654    1.4045 C   0  0  1  0  0  0  0  0  0  0  0  0
    4.6166   -2.1641    0.2104 O   0  0  0  0  0  0  0  0  0  0  0  0
    3.5230   -0.3894    1.3916 C   0  0  0  0  0  0  0  0  0  0  0  0
    7.2475    0.7533    4.4013 H   0  0  0  0  0  0  0  0  0  0  0  0
    5.3972    0.1347    7.3800 H   0  0  0  0  0  0  0  0  0  0  0  0
    2.9835   -0.4464    7.3520 H   0  0  0  0  0  0  0  0  0  0  0  0
    5.3767    0.5366    3.1148 H   0  0  0  0  0  0  0  0  0  0  0  0
    3.0587    2.1213    2.3603 H   0  0  0  0  0  0  0  0  0  0  0  0
    1.6696    1.4992    1.4854 H   0  0  0  0  0  0  0  0  0  0  0  0
    1.8683    2.1047    4.4753 H   0  0  0  0  0  0  0  0  0  0  0  0
    0.9377    2.9041    3.1743 H   0  0  0  0  0  0  0  0  0  0  0  0
   -1.4506    0.6324    5.1095 H   0  0  0  0  0  0  0  0  0  0  0  0
   -0.3329    1.8035    5.7160 H   0  0  0  0  0  0  0  0  0  0  0  0
   -2.7092    2.4966    4.8440 H   0  0  0  0  0  0  0  0  0  0  0  0
   -1.0926    2.6139    2.1578 H   0  0  0  0  0  0  0  0  0  0  0  0
   -2.7968    3.2095    2.4503 H   0  0  0  0  0  0  0  0  0  0  0  0
   -2.0647    4.7576    4.1523 H   0  0  0  0  0  0  0  0  0  0  0  0
   -0.2895    4.1725    4.1485 H   0  0  0  0  0  0  0  0  0  0  0  0
   -0.3285   -1.0522    3.9490 H   0  0  0  0  0  0  0  0  0  0  0  0
    1.2967   -1.7660    5.4721 H   0  0  0  0  0  0  0  0  0  0  0  0
    0.8492   -0.2008    6.0900 H   0  0  0  0  0  0  0  0  0  0  0  0
    0.8417   -0.7139    1.8159 H   0  0  0  0  0  0  0  0  0  0  0  0
    2.3927   -2.6072    3.6324 H   0  0  0  0  0  0  0  0  0  0  0  0
    0.9142   -2.9872    2.7707 H   0  0  0  0  0  0  0  0  0  0  0  0
    2.9786   -3.8019    1.6048 H   0  0  0  0  0  0  0  0  0  0  0  0
    2.0758   -2.6739    0.6103 H   0  0  0  0  0  0  0  0  0  0  0  0
    4.5837   -2.0535    2.2572 H   0  0  0  0  0  0  0  0  0  0  0  0
    4.0161   -2.0438   -0.5096 H   0  0  0  0  0  0  0  0  0  0  0  0
    2.9020   -0.2164    0.5049 H   0  0  0  0  0  0  0  0  0  0  0  0
    4.3852    0.2632    1.2479 H   0  0  0  0  0  0  0  0  0  0  0  0
   -0.3677    0.9807    2.9047 H   0  0  0  0  0  0  0  0  0  0  0  0
  1  2  1  0
  1 24  1  0
  2  7  2  0
  2  3  1  0
  3  4  2  0
  3 25  1  0
  4  5  1  0
  4 26  1  0
  5 17  1  0
  5  6  2  0
  6  7  1  0
  6  8  1  0
  7 27  1  0
  8 18  1  0
  8 23  1  6
  8  9  1  0
  9 10  1  0
  9 28  1  0
  9 29  1  0
 10 11  1  0
 10 30  1  0
 10 31  1  0
 11 12  1  0
 11 16  1  0
 11 51  1  6
 12 13  1  0
 12 32  1  0
 12 33  1  0
 13 15  1  0
 13 14  1  0
 13 34  1  0
 14 15  1  0
 14 35  1  0
 14 36  1  0
 15 37  1  0
 15 38  1  0
 16 17  1  0
 16 18  1  0
 16 39  1  1
 17 40  1  0
 17 41  1  0
 18 19  1  0
 18 42  1  6
 19 20  1  0
 19 43  1  0
 19 44  1  0
 20 21  1  0
 20 45  1  0
 20 46  1  0
 21 22  1  0
 21 23  1  0
 21 47  1  1
 22 48  1  0
 23 49  1  0
 23 50  1  0
M  CHG  1  11   1
M  END
>  <i_m_ct_stereo_status>  (178) 
1

>  <s_m_source_file>  (178) 
/var/tmp/pbs.5076255.sched01/tmpr0mrskr5/46emy42_dx.sdf

>  <i_m_source_file_index>  (178) 
30

>  <i_lp_mmshare_version>  (178) 
48012

>  <i_f3d_flags>  (178) 
0

>  <s_epik_input>  (178) 
W09IXWMoW2NIXTEpW2NIXVtjSF1jKGMxW0NAXTIzNClbQ0gyXVtDQEBIXShOKFtDSDJdW0NIMl0yKVtDSDJdW0NIXTVbQ0gyXVtDSDJdNSlbQ0BASF0zW0NIMl1bQ0gyXVtDQEBIXShbT0hdKVtDSDJdNA==

>  <s_epik_cmdline>  (178) 
J2VwaWtfcHl0aG9uJywgJy1waHQnLCAnMi4wJywgJy1waCcsICc3LjAnLCAnLXRuJywgJzgnLCAnLW1hJywgJzIwMCcsICctaW1hZScsICc8aW5maWxlLm1hZT4nLCAnLW9tYWUnLCAnPG91dGZpbGUubWFlPic=

>  <r_lp_tautomer_probability>  (178) 
1

>  <r_epik_Ionization_Penalty>  (178) 
0.00546612

>  <r_epik_Ionization_Penalty_Charging>  (178) 
0.00449907

>  <r_epik_Ionization_Penalty_Neutral>  (178) 
0.000967048

>  <r_epik_State_Penalty>  (178) 
-0

>  <r_epik_Charging_Adjusted_Penalty>  (178) 
0.00449907

>  <i_epik_Tot_Q>  (178) 
1

>  <i_epik_Tot_abs_Q>  (178) 
1

>  <s_lp_Force_Field>  (178) 
OPLS3e

>  <r_lp_Energy>  (178) 
57.07

>  <b_lp_Chiralities_Consistent>  (178) 
1

>  <s_lp_Variant>  (178) 
52:0-1

>  <s_i_glide_gridfile>  (178) 
pfpi4k_grid

>  <i_i_glide_lignum>  (178) 
30

>  <i_i_glide_rotatable_bonds>  (178) 
4

>  <r_i_docking_score>  (178) 
-2.73893

>  <r_i_glide_ligand_efficiency>  (178) 
-0.119084

>  <r_i_glide_ligand_efficiency_sa>  (178) 
-0.338658

>  <r_i_glide_ligand_efficiency_ln>  (178) 
-0.662297

>  <r_i_glide_gscore>  (178) 
-2.73893

>  <r_i_glide_lipo>  (178) 
-0.201327

>  <r_i_glide_hbond>  (178) 
0

>  <r_i_glide_metal>  (178) 
-0

>  <r_i_glide_rewards>  (178) 
-1.26517

>  <r_i_glide_evdw>  (178) 
-22.5334

>  <r_i_glide_ecoul>  (178) 
-3.34147

>  <r_i_glide_erotb>  (178) 
0.376004

>  <r_i_glide_esite>  (178) 
-0.0205456

>  <r_i_glide_emodel>  (178) 
-25.4938

>  <r_i_glide_energy>  (178) 
-25.8748

>  <r_i_glide_einternal>  (178) 
9.50581

>  <r_i_glide_intrahb_reward>  (178) 
-0

>  <i_i_glide_confnum>  (178) 
4

>  <i_i_glide_posenum>  (178) 
4

>  <r_i_glide_eff_state_penalty>  (178) 
0

>  <ligand_id>  (178) 
52

>  <original_smiles>  (178) 
Oc1ccc2c(c1)C13CCN(CC4CC4)C(C2)C1CCC(O)C3

>  <smiles>  (178) 
[H]Oc1c([H])c([H])c2c(c1[H])C13C([H])([H])C([H])(O[H])C([H])([H])C([H])([H])C1([H])C([H])(C2([H])[H])[N+]([H])(C([H])([H])C1([H])C([H])([H])C1([H])[H])C([H])([H])C3([H])[H]

$$$$
53:0:0
     RDKit          3D

 39 41  0  0  1  0  0  0  0  0999 V2000
    2.3709    0.6864    1.9638 C   0  0  0  0  0  0  0  0  0  0  0  0
    3.0644   -0.3632    1.3146 O   0  0  0  0  0  0  0  0  0  0  0  0
    2.7647   -1.6726    1.4790 C   0  0  0  0  0  0  0  0  0  0  0  0
    1.8197   -2.1030    2.1367 O   0  0  0  0  0  0  0  0  0  0  0  0
    3.6811   -2.5555    0.7255 C   0  0  0  0  0  0  0  0  0  0  0  0
    3.4157   -3.8452    0.3287 C   0  0  0  0  0  0  0  0  0  0  0  0
    2.2377   -4.5688    0.4005 O   0  0  0  0  0  0  0  0  0  0  0  0
    2.2172   -5.8246    0.9144 C   0  0  0  0  0  0  0  0  0  0  0  0
    0.9611   -6.2427    1.0856 N   0  0  0  0  0  0  0  0  0  0  0  0
    0.7101   -7.4554    1.6263 C   0  0  0  0  0  0  0  0  0  0  0  0
    1.8066   -8.2755    1.9514 C   0  0  0  0  0  0  0  0  0  0  0  0
    1.8642   -9.5446    2.4879 N   0  0  0  0  0  0  0  0  0  0  0  0
    3.1770   -9.7475    2.5189 C   0  0  0  0  0  0  0  0  0  0  0  0
    3.9772   -8.7549    2.0685 N   0  0  0  0  0  0  0  0  0  0  0  0
    5.4327   -8.7574    2.0444 C   0  0  0  0  0  0  0  0  0  0  0  0
    5.9669  -10.0734    1.4685 C   0  0  0  0  0  0  0  0  0  0  0  0
    6.0007   -8.4663    3.4386 C   0  0  0  0  0  0  0  0  0  0  0  0
    3.0968   -7.7334    1.6895 C   0  0  0  0  0  0  0  0  0  0  0  0
    3.3606   -6.4853    1.1760 N   0  0  0  0  0  0  0  0  0  0  0  0
    4.5904   -4.1688   -0.4271 C   0  0  0  0  0  0  0  0  0  0  0  0
    5.4961   -3.1895   -0.4395 N   0  0  0  0  0  0  0  0  0  0  0  0
    4.9509   -2.1887    0.2852 N   0  0  0  0  0  0  0  0  0  0  0  0
    5.7150   -0.9636    0.4910 C   0  0  0  0  0  0  0  0  0  0  0  0
    2.8608    1.6260    1.7030 H   0  0  0  0  0  0  0  0  0  0  0  0
    2.4121    0.5942    3.0487 H   0  0  0  0  0  0  0  0  0  0  0  0
    1.3423    0.7359    1.6146 H   0  0  0  0  0  0  0  0  0  0  0  0
   -0.3071   -7.7848    1.7661 H   0  0  0  0  0  0  0  0  0  0  0  0
    3.5617  -10.6772    2.9085 H   0  0  0  0  0  0  0  0  0  0  0  0
    5.7270   -7.9548    1.3739 H   0  0  0  0  0  0  0  0  0  0  0  0
    7.0442  -10.0414    1.3581 H   0  0  0  0  0  0  0  0  0  0  0  0
    5.5406  -10.2456    0.4817 H   0  0  0  0  0  0  0  0  0  0  0  0
    5.7295  -10.9362    2.0926 H   0  0  0  0  0  0  0  0  0  0  0  0
    7.0856   -8.3918    3.4019 H   0  0  0  0  0  0  0  0  0  0  0  0
    5.7429   -9.2479    4.1546 H   0  0  0  0  0  0  0  0  0  0  0  0
    5.6200   -7.5209    3.8267 H   0  0  0  0  0  0  0  0  0  0  0  0
    4.7963   -5.0608   -1.0089 H   0  0  0  0  0  0  0  0  0  0  0  0
    5.7858   -0.7743    1.5576 H   0  0  0  0  0  0  0  0  0  0  0  0
    5.2165   -0.1156    0.0311 H   0  0  0  0  0  0  0  0  0  0  0  0
    6.7147   -1.0303    0.0754 H   0  0  0  0  0  0  0  0  0  0  0  0
  1  2  1  0
  1 24  1  0
  1 25  1  0
  1 26  1  0
  2  3  1  0
  3  4  2  0
  3  5  1  0
  5 22  1  0
  5  6  2  0
  6  7  1  0
  6 20  1  0
  7  8  1  0
  8 19  1  0
  8  9  2  0
  9 10  1  0
 10 11  2  0
 10 27  1  0
 11 18  1  0
 11 12  1  0
 12 13  2  0
 13 14  1  0
 13 28  1  0
 14 15  1  0
 14 18  1  0
 15 16  1  0
 15 17  1  0
 15 29  1  0
 16 30  1  0
 16 31  1  0
 16 32  1  0
 17 33  1  0
 17 34  1  0
 17 35  1  0
 18 19  2  0
 20 21  2  0
 20 36  1  0
 21 22  1  0
 22 23  1  0
 23 37  1  0
 23 38  1  0
 23 39  1  0
M  END
>  <i_m_ct_stereo_status>  (179) 
1

>  <s_m_source_file>  (179) 
/var/tmp/pbs.5076255.sched01/tmpr0mrskr5/46emy42_dx.sdf

>  <i_m_source_file_index>  (179) 
31

>  <i_lp_mmshare_version>  (179) 
48012

>  <i_f3d_flags>  (179) 
0

>  <s_epik_input>  (179) 
W0NIM11PQyg9TyljMWMoW2NIXW5uMVtDSDNdKU9jKG5bY0hdMiluYyhjMjMpbihbY0hdbjMpW0NIXShbQ0gzXSlbQ0gzXQ==

>  <s_epik_cmdline>  (179) 
J2VwaWtfcHl0aG9uJywgJy1waHQnLCAnMi4wJywgJy1waCcsICc3LjAnLCAnLXRuJywgJzgnLCAnLW1hJywgJzIwMCcsICctaW1hZScsICc8aW5maWxlLm1hZT4nLCAnLW9tYWUnLCAnPG91dGZpbGUubWFlPic=

>  <r_lp_tautomer_probability>  (179) 
1

>  <r_epik_Ionization_Penalty>  (179) 
3.95811e-06

>  <r_epik_Ionization_Penalty_Charging>  (179) 
0

>  <r_epik_Ionization_Penalty_Neutral>  (179) 
3.95811e-06

>  <r_epik_State_Penalty>  (179) 
-0

>  <r_epik_Charging_Adjusted_Penalty>  (179) 
0

>  <i_epik_Tot_Q>  (179) 
0

>  <i_epik_Tot_abs_Q>  (179) 
0

>  <s_epik_Chemistry_Notes>  (179) 
This compound has an ester and may undergo hydrolysis at high or low pH.

>  <s_lp_Force_Field>  (179) 
OPLS3e

>  <r_lp_Energy>  (179) 
24.1675

>  <b_lp_Chiralities_Consistent>  (179) 
1

>  <s_lp_Variant>  (179) 
53:0-1

>  <s_i_glide_gridfile>  (179) 
pfpi4k_grid

>  <i_i_glide_lignum>  (179) 
31

>  <i_i_glide_rotatable_bonds>  (179) 
5

>  <r_i_docking_score>  (179) 
-3.03131

>  <r_i_glide_ligand_efficiency>  (179) 
-0.131796

>  <r_i_glide_ligand_efficiency_sa>  (179) 
-0.374811

>  <r_i_glide_ligand_efficiency_ln>  (179) 
-0.732998

>  <r_i_glide_gscore>  (179) 
-3.03131

>  <r_i_glide_lipo>  (179) 
-0.119342

>  <r_i_glide_hbond>  (179) 
-0.16909

>  <r_i_glide_metal>  (179) 
-0

>  <r_i_glide_rewards>  (179) 
-1.28243

>  <r_i_glide_evdw>  (179) 
-26.7519

>  <r_i_glide_ecoul>  (179) 
-3.58164

>  <r_i_glide_erotb>  (179) 
0.558142

>  <r_i_glide_esite>  (179) 
-0.143748

>  <r_i_glide_emodel>  (179) 
-34.4189

>  <r_i_glide_energy>  (179) 
-30.3336

>  <r_i_glide_einternal>  (179) 
4.13744

>  <r_i_glide_intrahb_reward>  (179) 
-0

>  <i_i_glide_confnum>  (179) 
1

>  <i_i_glide_posenum>  (179) 
9

>  <r_i_glide_eff_state_penalty>  (179) 
0

>  <ligand_id>  (179) 
53

>  <original_smiles>  (179) 
COC(=O)c1c(Oc2ncc3ncn(C(C)C)c3n2)cnn1C

>  <smiles>  (179) 
[H]c1nn(C([H])([H])[H])c(C(=O)OC([H])([H])[H])c1Oc1nc([H])c2nc([H])n(C([H])(C([H])([H])[H])C([H])([H])[H])c2n1

$$$$
53:0:1
     RDKit          3D

 39 41  0  0  1  0  0  0  0  0999 V2000
    1.6616   -3.4493   -1.8734 C   0  0  0  0  0  0  0  0  0  0  0  0
    2.6111   -3.4938   -0.8246 O   0  0  0  0  0  0  0  0  0  0  0  0
    2.6133   -4.4880    0.0811 C   0  0  0  0  0  0  0  0  0  0  0  0
    1.8608   -5.4589    0.0756 O   0  0  0  0  0  0  0  0  0  0  0  0
    3.6383   -4.2869    1.0989 C   0  0  0  0  0  0  0  0  0  0  0  0
    4.4785   -5.2364    1.6111 C   0  0  0  0  0  0  0  0  0  0  0  0
    4.7123   -6.5496    1.2426 O   0  0  0  0  0  0  0  0  0  0  0  0
    3.9673   -7.5372    1.7912 C   0  0  0  0  0  0  0  0  0  0  0  0
    4.5709   -8.7204    1.7045 N   0  0  0  0  0  0  0  0  0  0  0  0
    3.9370   -9.8454    2.1211 C   0  0  0  0  0  0  0  0  0  0  0  0
    2.6197   -9.7188    2.6102 C   0  0  0  0  0  0  0  0  0  0  0  0
    1.7235  -10.6475    3.0965 N   0  0  0  0  0  0  0  0  0  0  0  0
    0.6776   -9.8821    3.3783 C   0  0  0  0  0  0  0  0  0  0  0  0
    0.7921   -8.5517    3.1506 N   0  0  0  0  0  0  0  0  0  0  0  0
   -0.2262   -7.5476    3.3872 C   0  0  0  0  0  0  0  0  0  0  0  0
   -0.7475   -7.6215    4.8311 C   0  0  0  0  0  0  0  0  0  0  0  0
   -1.3641   -7.6775    2.3645 C   0  0  0  0  0  0  0  0  0  0  0  0
    2.0822   -8.3984    2.6393 C   0  0  0  0  0  0  0  0  0  0  0  0
    2.7380   -7.2560    2.2561 N   0  0  0  0  0  0  0  0  0  0  0  0
    5.3061   -4.4613    2.4831 C   0  0  0  0  0  0  0  0  0  0  0  0
    4.9729   -3.1728    2.5257 N   0  0  0  0  0  0  0  0  0  0  0  0
    3.9249   -3.0558    1.6787 N   0  0  0  0  0  0  0  0  0  0  0  0
    3.2714   -1.7713    1.5090 C   0  0  0  0  0  0  0  0  0  0  0  0
    1.7993   -2.5235   -2.4319 H   0  0  0  0  0  0  0  0  0  0  0  0
    0.6285   -3.4710   -1.5210 H   0  0  0  0  0  0  0  0  0  0  0  0
    1.8148   -4.2578   -2.5822 H   0  0  0  0  0  0  0  0  0  0  0  0
    4.4474  -10.7938    2.0736 H   0  0  0  0  0  0  0  0  0  0  0  0
   -0.2147  -10.3190    3.7924 H   0  0  0  0  0  0  0  0  0  0  0  0
    0.2557   -6.5794    3.2514 H   0  0  0  0  0  0  0  0  0  0  0  0
   -1.4427   -6.8109    5.0364 H   0  0  0  0  0  0  0  0  0  0  0  0
    0.0740   -7.5447    5.5442 H   0  0  0  0  0  0  0  0  0  0  0  0
   -1.2649   -8.5624    5.0315 H   0  0  0  0  0  0  0  0  0  0  0  0
   -2.1002   -6.8894    2.4945 H   0  0  0  0  0  0  0  0  0  0  0  0
   -1.8891   -8.6293    2.4584 H   0  0  0  0  0  0  0  0  0  0  0  0
   -0.9781   -7.6186    1.3460 H   0  0  0  0  0  0  0  0  0  0  0  0
    6.1821   -4.7651    3.0462 H   0  0  0  0  0  0  0  0  0  0  0  0
    2.2136   -1.8864    1.7332 H   0  0  0  0  0  0  0  0  0  0  0  0
    3.3670   -1.4207    0.4836 H   0  0  0  0  0  0  0  0  0  0  0  0
    3.7004   -1.0222    2.1696 H   0  0  0  0  0  0  0  0  0  0  0  0
  1  2  1  0
  1 24  1  0
  1 25  1  0
  1 26  1  0
  2  3  1  0
  3  4  2  0
  3  5  1  0
  5 22  1  0
  5  6  2  0
  6  7  1  0
  6 20  1  0
  7  8  1  0
  8 19  1  0
  8  9  2  0
  9 10  1  0
 10 11  2  0
 10 27  1  0
 11 18  1  0
 11 12  1  0
 12 13  2  0
 13 14  1  0
 13 28  1  0
 14 15  1  0
 14 18  1  0
 15 16  1  0
 15 17  1  0
 15 29  1  0
 16 30  1  0
 16 31  1  0
 16 32  1  0
 17 33  1  0
 17 34  1  0
 17 35  1  0
 18 19  2  0
 20 21  2  0
 20 36  1  0
 21 22  1  0
 22 23  1  0
 23 37  1  0
 23 38  1  0
 23 39  1  0
M  END
>  <i_m_ct_stereo_status>  (180) 
1

>  <s_m_source_file>  (180) 
/var/tmp/pbs.5076255.sched01/tmpr0mrskr5/46emy42_dx.sdf

>  <i_m_source_file_index>  (180) 
31

>  <i_lp_mmshare_version>  (180) 
48012

>  <i_f3d_flags>  (180) 
0

>  <s_epik_input>  (180) 
W0NIM11PQyg9TyljMWMoW2NIXW5uMVtDSDNdKU9jKG5bY0hdMiluYyhjMjMpbihbY0hdbjMpW0NIXShbQ0gzXSlbQ0gzXQ==

>  <s_epik_cmdline>  (180) 
J2VwaWtfcHl0aG9uJywgJy1waHQnLCAnMi4wJywgJy1waCcsICc3LjAnLCAnLXRuJywgJzgnLCAnLW1hJywgJzIwMCcsICctaW1hZScsICc8aW5maWxlLm1hZT4nLCAnLW9tYWUnLCAnPG91dGZpbGUubWFlPic=

>  <r_lp_tautomer_probability>  (180) 
1

>  <r_epik_Ionization_Penalty>  (180) 
3.95811e-06

>  <r_epik_Ionization_Penalty_Charging>  (180) 
0

>  <r_epik_Ionization_Penalty_Neutral>  (180) 
3.95811e-06

>  <r_epik_State_Penalty>  (180) 
-0

>  <r_epik_Charging_Adjusted_Penalty>  (180) 
0

>  <i_epik_Tot_Q>  (180) 
0

>  <i_epik_Tot_abs_Q>  (180) 
0

>  <s_epik_Chemistry_Notes>  (180) 
This compound has an ester and may undergo hydrolysis at high or low pH.

>  <s_lp_Force_Field>  (180) 
OPLS3e

>  <r_lp_Energy>  (180) 
24.1675

>  <b_lp_Chiralities_Consistent>  (180) 
1

>  <s_lp_Variant>  (180) 
53:0-1

>  <s_i_glide_gridfile>  (180) 
pfpi4k_grid

>  <i_i_glide_lignum>  (180) 
31

>  <i_i_glide_rotatable_bonds>  (180) 
5

>  <r_i_docking_score>  (180) 
-2.94632

>  <r_i_glide_ligand_efficiency>  (180) 
-0.128101

>  <r_i_glide_ligand_efficiency_sa>  (180) 
-0.364302

>  <r_i_glide_ligand_efficiency_ln>  (180) 
-0.712447

>  <r_i_glide_gscore>  (180) 
-2.94632

>  <r_i_glide_lipo>  (180) 
-0.0524334

>  <r_i_glide_hbond>  (180) 
-0.0636706

>  <r_i_glide_metal>  (180) 
-0

>  <r_i_glide_rewards>  (180) 
-1.30015

>  <r_i_glide_evdw>  (180) 
-26.6608

>  <r_i_glide_ecoul>  (180) 
-4.47176

>  <r_i_glide_erotb>  (180) 
0.558142

>  <r_i_glide_esite>  (180) 
-0.0844112

>  <r_i_glide_emodel>  (180) 
-34.0775

>  <r_i_glide_energy>  (180) 
-31.1325

>  <r_i_glide_einternal>  (180) 
5.87784

>  <r_i_glide_intrahb_reward>  (180) 
-0

>  <i_i_glide_confnum>  (180) 
1

>  <i_i_glide_posenum>  (180) 
23

>  <r_i_glide_eff_state_penalty>  (180) 
0

>  <ligand_id>  (180) 
53

>  <original_smiles>  (180) 
COC(=O)c1c(Oc2ncc3ncn(C(C)C)c3n2)cnn1C

>  <smiles>  (180) 
[H]c1nn(C([H])([H])[H])c(C(=O)OC([H])([H])[H])c1Oc1nc([H])c2nc([H])n(C([H])(C([H])([H])[H])C([H])([H])[H])c2n1

$$$$
53:0:2
     RDKit          3D

 39 41  0  0  1  0  0  0  0  0999 V2000
    2.1573   -3.2198   -3.3454 C   0  0  0  0  0  0  0  0  0  0  0  0
    2.9512   -2.7086   -2.3036 O   0  0  0  0  0  0  0  0  0  0  0  0
    2.8905   -3.1066   -1.0200 C   0  0  0  0  0  0  0  0  0  0  0  0
    2.2123   -4.0318   -0.5832 O   0  0  0  0  0  0  0  0  0  0  0  0
    3.7304   -2.2699   -0.1430 C   0  0  0  0  0  0  0  0  0  0  0  0
    3.7136   -2.2766    1.2248 C   0  0  0  0  0  0  0  0  0  0  0  0
    3.0413   -3.1066    2.1075 O   0  0  0  0  0  0  0  0  0  0  0  0
    2.1201   -2.5967    2.9667 C   0  0  0  0  0  0  0  0  0  0  0  0
    1.6900   -3.5194    3.8323 N   0  0  0  0  0  0  0  0  0  0  0  0
    0.7139   -3.2273    4.7228 C   0  0  0  0  0  0  0  0  0  0  0  0
    0.1431   -1.9332    4.6953 C   0  0  0  0  0  0  0  0  0  0  0  0
   -0.8667   -1.3523    5.4491 N   0  0  0  0  0  0  0  0  0  0  0  0
   -0.9000   -0.1335    4.9107 C   0  0  0  0  0  0  0  0  0  0  0  0
   -0.0471    0.1351    3.9058 N   0  0  0  0  0  0  0  0  0  0  0  0
    0.0580    1.4013    3.2003 C   0  0  0  0  0  0  0  0  0  0  0  0
   -0.1785    1.1979    1.7050 C   0  0  0  0  0  0  0  0  0  0  0  0
    1.3907    2.0837    3.5119 C   0  0  0  0  0  0  0  0  0  0  0  0
    0.6901   -1.0421    3.7288 C   0  0  0  0  0  0  0  0  0  0  0  0
    1.6988   -1.3296    2.8389 N   0  0  0  0  0  0  0  0  0  0  0  0
    4.7552   -1.3437    1.5400 C   0  0  0  0  0  0  0  0  0  0  0  0
    5.3414   -0.8211    0.4645 N   0  0  0  0  0  0  0  0  0  0  0  0
    4.6889   -1.3638   -0.5876 N   0  0  0  0  0  0  0  0  0  0  0  0
    5.0793   -0.9913   -1.9316 C   0  0  0  0  0  0  0  0  0  0  0  0
    2.4265   -2.6909   -4.2576 H   0  0  0  0  0  0  0  0  0  0  0  0
    1.0972   -3.0681   -3.1563 H   0  0  0  0  0  0  0  0  0  0  0  0
    2.3743   -4.2602   -3.5275 H   0  0  0  0  0  0  0  0  0  0  0  0
    0.3902   -3.9883    5.4185 H   0  0  0  0  0  0  0  0  0  0  0  0
   -1.5920    0.6036    5.2858 H   0  0  0  0  0  0  0  0  0  0  0  0
   -0.7388    2.0480    3.5661 H   0  0  0  0  0  0  0  0  0  0  0  0
   -0.1798    2.1433    1.1811 H   0  0  0  0  0  0  0  0  0  0  0  0
   -1.1458    0.7261    1.5255 H   0  0  0  0  0  0  0  0  0  0  0  0
    0.5948    0.5747    1.2539 H   0  0  0  0  0  0  0  0  0  0  0  0
    1.4404    3.0605    3.0334 H   0  0  0  0  0  0  0  0  0  0  0  0
    2.2300    1.4919    3.1465 H   0  0  0  0  0  0  0  0  0  0  0  0
    1.5161    2.2284    4.5859 H   0  0  0  0  0  0  0  0  0  0  0  0
    5.1609   -1.0713    2.5057 H   0  0  0  0  0  0  0  0  0  0  0  0
    4.2416   -0.5559   -2.4551 H   0  0  0  0  0  0  0  0  0  0  0  0
    5.4511   -1.8550   -2.4802 H   0  0  0  0  0  0  0  0  0  0  0  0
    5.8144   -0.2037   -1.9255 H   0  0  0  0  0  0  0  0  0  0  0  0
  1  2  1  0
  1 24  1  0
  1 25  1  0
  1 26  1  0
  2  3  1  0
  3  4  2  0
  3  5  1  0
  5 22  1  0
  5  6  2  0
  6  7  1  0
  6 20  1  0
  7  8  1  0
  8 19  1  0
  8  9  2  0
  9 10  1  0
 10 11  2  0
 10 27  1  0
 11 18  1  0
 11 12  1  0
 12 13  2  0
 13 14  1  0
 13 28  1  0
 14 15  1  0
 14 18  1  0
 15 16  1  0
 15 17  1  0
 15 29  1  0
 16 30  1  0
 16 31  1  0
 16 32  1  0
 17 33  1  0
 17 34  1  0
 17 35  1  0
 18 19  2  0
 20 21  2  0
 20 36  1  0
 21 22  1  0
 22 23  1  0
 23 37  1  0
 23 38  1  0
 23 39  1  0
M  END
>  <i_m_ct_stereo_status>  (181) 
1

>  <s_m_source_file>  (181) 
/var/tmp/pbs.5076255.sched01/tmpr0mrskr5/46emy42_dx.sdf

>  <i_m_source_file_index>  (181) 
31

>  <i_lp_mmshare_version>  (181) 
48012

>  <i_f3d_flags>  (181) 
0

>  <s_epik_input>  (181) 
W0NIM11PQyg9TyljMWMoW2NIXW5uMVtDSDNdKU9jKG5bY0hdMiluYyhjMjMpbihbY0hdbjMpW0NIXShbQ0gzXSlbQ0gzXQ==

>  <s_epik_cmdline>  (181) 
J2VwaWtfcHl0aG9uJywgJy1waHQnLCAnMi4wJywgJy1waCcsICc3LjAnLCAnLXRuJywgJzgnLCAnLW1hJywgJzIwMCcsICctaW1hZScsICc8aW5maWxlLm1hZT4nLCAnLW9tYWUnLCAnPG91dGZpbGUubWFlPic=

>  <r_lp_tautomer_probability>  (181) 
1

>  <r_epik_Ionization_Penalty>  (181) 
3.95811e-06

>  <r_epik_Ionization_Penalty_Charging>  (181) 
0

>  <r_epik_Ionization_Penalty_Neutral>  (181) 
3.95811e-06

>  <r_epik_State_Penalty>  (181) 
-0

>  <r_epik_Charging_Adjusted_Penalty>  (181) 
0

>  <i_epik_Tot_Q>  (181) 
0

>  <i_epik_Tot_abs_Q>  (181) 
0

>  <s_epik_Chemistry_Notes>  (181) 
This compound has an ester and may undergo hydrolysis at high or low pH.

>  <s_lp_Force_Field>  (181) 
OPLS3e

>  <r_lp_Energy>  (181) 
24.1675

>  <b_lp_Chiralities_Consistent>  (181) 
1

>  <s_lp_Variant>  (181) 
53:0-1

>  <s_i_glide_gridfile>  (181) 
pfpi4k_grid

>  <i_i_glide_lignum>  (181) 
31

>  <i_i_glide_rotatable_bonds>  (181) 
5

>  <r_i_docking_score>  (181) 
-2.87805

>  <r_i_glide_ligand_efficiency>  (181) 
-0.125133

>  <r_i_glide_ligand_efficiency_sa>  (181) 
-0.355861

>  <r_i_glide_ligand_efficiency_ln>  (181) 
-0.695939

>  <r_i_glide_gscore>  (181) 
-2.87805

>  <r_i_glide_lipo>  (181) 
-0.309315

>  <r_i_glide_hbond>  (181) 
0

>  <r_i_glide_metal>  (181) 
-0

>  <r_i_glide_rewards>  (181) 
-1.2524

>  <r_i_glide_evdw>  (181) 
-27.5896

>  <r_i_glide_ecoul>  (181) 
-2.62955

>  <r_i_glide_erotb>  (181) 
0.558142

>  <r_i_glide_esite>  (181) 
-0.100568

>  <r_i_glide_emodel>  (181) 
-33.5462

>  <r_i_glide_energy>  (181) 
-30.2192

>  <r_i_glide_einternal>  (181) 
4.56315

>  <r_i_glide_intrahb_reward>  (181) 
-0

>  <i_i_glide_confnum>  (181) 
4

>  <i_i_glide_posenum>  (181) 
3

>  <r_i_glide_eff_state_penalty>  (181) 
0

>  <ligand_id>  (181) 
53

>  <original_smiles>  (181) 
COC(=O)c1c(Oc2ncc3ncn(C(C)C)c3n2)cnn1C

>  <smiles>  (181) 
[H]c1nn(C([H])([H])[H])c(C(=O)OC([H])([H])[H])c1Oc1nc([H])c2nc([H])n(C([H])(C([H])([H])[H])C([H])([H])[H])c2n1

$$$$
54:0:0
     RDKit          3D

 61 65  0  0  1  0  0  0  0  0999 V2000
    4.3586   -8.4419    7.6310 C   0  0  0  0  0  0  0  0  0  0  0  0
    2.9676   -8.1521    7.0321 C   0  0  2  0  0  0  0  0  0  0  0  0
    2.2542   -9.5004    6.6285 C   0  0  1  0  0  0  0  0  0  0  0  0
    1.2114   -9.8195    7.5284 O   0  0  0  0  0  0  0  0  0  0  0  0
    1.7438   -9.2888    5.2147 C   0  0  1  0  0  0  0  0  0  0  0  0
    0.8426  -10.0931    4.2962 C   0  0  0  0  0  0  0  0  0  0  0  0
    0.9389   -9.4126    2.8814 C   0  0  0  0  0  0  0  0  0  0  0  0
    1.0652   -7.8410    2.8094 C   0  0  1  0  0  0  0  0  0  0  0  0
    1.3553   -7.3615    1.3714 C   0  0  0  0  0  0  0  0  0  0  0  0
   -0.1709   -7.2755    3.2569 O   0  0  0  0  0  0  0  0  0  0  0  0
    0.1074   -5.8439    3.6719 O   0  0  0  0  0  0  0  0  0  0  0  0
    0.9145   -5.8156    4.8612 C   0  0  2  0  0  0  0  0  0  0  0  0
    1.7440   -4.5270    4.6890 C   0  0  1  0  0  0  0  0  0  0  0  0
    0.9073   -3.2824    5.0648 C   0  0  0  0  0  0  0  0  0  0  0  0
    3.1424   -4.5918    5.3799 C   0  0  1  0  0  0  0  0  0  0  0  0
    3.6436   -3.3092    5.7824 O   0  0  0  0  0  0  0  0  0  0  0  0
    4.1766   -2.3734    4.9204 C   0  0  0  0  0  0  0  0  0  0  0  0
    4.5531   -1.2775    5.3249 O   0  0  0  0  0  0  0  0  0  0  0  0
    4.2381   -2.7631    3.4946 C   0  0  0  0  0  0  0  0  0  0  0  0
    4.6671   -1.9832    2.4889 C   0  0  0  0  0  0  0  0  0  0  0  0
    4.7264   -2.5055    1.1102 C   0  0  0  0  0  0  0  0  0  0  0  0
    4.8387   -1.5895    0.0573 C   0  0  0  0  0  0  0  0  0  0  0  0
    4.8804   -2.0349   -1.2844 C   0  0  0  0  0  0  0  0  0  0  0  0
    4.7971   -3.4126   -1.5774 C   0  0  0  0  0  0  0  0  0  0  0  0
    4.6652   -4.3428   -0.5363 C   0  0  0  0  0  0  0  0  0  0  0  0
    4.6280   -3.8975    0.7975 C   0  0  0  0  0  0  0  0  0  0  0  0
    3.2056   -5.6234    6.4997 C   0  0  0  0  0  0  0  0  0  0  0  0
    3.0541   -7.0421    5.8904 C   0  0  2  0  0  0  0  0  0  0  0  0
    1.8124   -7.0719    4.9083 C   0  0  1  0  0  0  0  0  0  0  0  0
    1.0348   -8.0863    5.3621 O   0  0  0  0  0  0  0  0  0  0  0  0
    2.1781   -7.3184    3.5733 O   0  0  0  0  0  0  0  0  0  0  0  0
    5.0293   -8.8728    6.8868 H   0  0  0  0  0  0  0  0  0  0  0  0
    4.2946   -9.1492    8.4583 H   0  0  0  0  0  0  0  0  0  0  0  0
    4.8328   -7.5400    8.0150 H   0  0  0  0  0  0  0  0  0  0  0  0
    2.3689   -7.7151    7.8333 H   0  0  0  0  0  0  0  0  0  0  0  0
    2.9543  -10.3372    6.6415 H   0  0  0  0  0  0  0  0  0  0  0  0
    1.1813  -10.7969    7.6063 H   0  0  0  0  0  0  0  0  0  0  0  0
    2.6810   -9.2557    4.6546 H   0  0  0  0  0  0  0  0  0  0  0  0
    1.1625  -11.1360    4.2397 H   0  0  0  0  0  0  0  0  0  0  0  0
   -0.1839  -10.0902    4.6698 H   0  0  0  0  0  0  0  0  0  0  0  0
    1.8025   -9.8379    2.3722 H   0  0  0  0  0  0  0  0  0  0  0  0
    0.0802   -9.7268    2.2888 H   0  0  0  0  0  0  0  0  0  0  0  0
    1.4488   -6.2769    1.3093 H   0  0  0  0  0  0  0  0  0  0  0  0
    0.5842   -7.6663    0.6638 H   0  0  0  0  0  0  0  0  0  0  0  0
    2.3009   -7.7680    1.0102 H   0  0  0  0  0  0  0  0  0  0  0  0
    0.3299   -5.7769    5.7809 H   0  0  0  0  0  0  0  0  0  0  0  0
    1.9262   -4.4331    3.6173 H   0  0  0  0  0  0  0  0  0  0  0  0
    0.7237   -3.2408    6.1383 H   0  0  0  0  0  0  0  0  0  0  0  0
   -0.0528   -3.2726    4.5476 H   0  0  0  0  0  0  0  0  0  0  0  0
    1.4024   -2.3512    4.7819 H   0  0  0  0  0  0  0  0  0  0  0  0
    3.8754   -5.0547    4.7153 H   0  0  0  0  0  0  0  0  0  0  0  0
    3.9244   -3.7492    3.2048 H   0  0  0  0  0  0  0  0  0  0  0  0
    4.9765   -0.9694    2.6809 H   0  0  0  0  0  0  0  0  0  0  0  0
    4.8835   -0.5269    0.2753 H   0  0  0  0  0  0  0  0  0  0  0  0
    4.9651   -1.3127   -2.0848 H   0  0  0  0  0  0  0  0  0  0  0  0
    4.8269   -3.7612   -2.6015 H   0  0  0  0  0  0  0  0  0  0  0  0
    4.5950   -5.4048   -0.7460 H   0  0  0  0  0  0  0  0  0  0  0  0
    4.5390   -4.6732    1.5398 H   0  0  0  0  0  0  0  0  0  0  0  0
    4.1889   -5.5443    6.9636 H   0  0  0  0  0  0  0  0  0  0  0  0
    2.4626   -5.4089    7.2662 H   0  0  0  0  0  0  0  0  0  0  0  0
    3.9278   -7.2672    5.2710 H   0  0  0  0  0  0  0  0  0  0  0  0
  1  2  1  0
  1 32  1  0
  1 33  1  0
  1 34  1  0
  2 28  1  0
  2  3  1  0
  2 35  1  1
  3  4  1  0
  3  5  1  0
  3 36  1  6
  4 37  1  0
  5 30  1  0
  5  6  1  0
  5 38  1  6
  6  7  1  0
  6 39  1  0
  6 40  1  0
  7  8  1  0
  7 41  1  0
  7 42  1  0
  8 31  1  0
  8  9  1  6
  8 10  1  0
  9 43  1  0
  9 44  1  0
  9 45  1  0
 10 11  1  0
 11 12  1  0
 12 29  1  0
 12 13  1  0
 12 46  1  1
 13 14  1  0
 13 15  1  0
 13 47  1  6
 14 48  1  0
 14 49  1  0
 14 50  1  0
 15 16  1  0
 15 27  1  0
 15 51  1  6
 16 17  1  0
 17 18  2  0
 17 19  1  0
 19 20  2  3
 19 52  1  0
 20 21  1  0
 20 53  1  0
 21 26  1  0
 21 22  2  0
 22 23  1  0
 22 54  1  0
 23 24  2  0
 23 55  1  0
 24 25  1  0
 24 56  1  0
 25 26  2  0
 25 57  1  0
 26 58  1  0
 27 28  1  0
 27 59  1  0
 27 60  1  0
 28 29  1  0
 28 61  1  6
 29 30  1  1
 29 31  1  0
M  END
>  <i_m_ct_stereo_status>  (182) 
1

>  <s_m_source_file>  (182) 
/var/tmp/pbs.5076255.sched01/tmpr0mrskr5/46emy42_dx.sdf

>  <i_m_source_file_index>  (182) 
32

>  <i_lp_mmshare_version>  (182) 
48012

>  <i_f3d_flags>  (182) 
0

>  <s_epik_input>  (182) 
W0NAXTEyM1tDQEBIXTRPT1tDQF0oTzMpKFtDSDNdKVtDSDJdW0NIMl1bQ0BASF0oTzIpW0NASF0oW09IXSlbQ0BASF0oW0NIM10pW0NAQEhdMVtDSDJdW0NAQEhdKFtDQEBIXTRbQ0gzXSlPQyg9TykvW0NIXT1bQ0hdL2M1W2NIXVtjSF1bY0hdW2NIXVtjSF01

>  <s_epik_cmdline>  (182) 
J2VwaWtfcHl0aG9uJywgJy1waHQnLCAnMi4wJywgJy1waCcsICc3LjAnLCAnLXRuJywgJzgnLCAnLW1hJywgJzIwMCcsICctaW1hZScsICc8aW5maWxlLm1hZT4nLCAnLW9tYWUnLCAnPG91dGZpbGUubWFlPic=

>  <r_lp_tautomer_probability>  (182) 
1

>  <r_epik_Ionization_Penalty>  (182) 
4.25863e-08

>  <r_epik_Ionization_Penalty_Charging>  (182) 
0

>  <r_epik_Ionization_Penalty_Neutral>  (182) 
4.25863e-08

>  <r_epik_State_Penalty>  (182) 
-0

>  <r_epik_Charging_Adjusted_Penalty>  (182) 
0

>  <i_epik_Tot_Q>  (182) 
0

>  <i_epik_Tot_abs_Q>  (182) 
0

>  <s_epik_Chemistry_Notes>  (182) 
This compound has an ester and may undergo hydrolysis at high or low pH.

>  <s_lp_Force_Field>  (182) 
OPLS3e

>  <r_lp_Energy>  (182) 
71.4922

>  <b_lp_Chiralities_Consistent>  (182) 
1

>  <s_lp_Variant>  (182) 
54:0-1

>  <s_i_glide_gridfile>  (182) 
pfpi4k_grid

>  <i_i_glide_lignum>  (182) 
32

>  <i_i_glide_rotatable_bonds>  (182) 
5

>  <r_i_docking_score>  (182) 
-2.69918

>  <r_i_glide_ligand_efficiency>  (182) 
-0.0870705

>  <r_i_glide_ligand_efficiency_sa>  (182) 
-0.273521

>  <r_i_glide_ligand_efficiency_ln>  (182) 
-0.608749

>  <r_i_glide_gscore>  (182) 
-2.69918

>  <r_i_glide_lipo>  (182) 
-0.144621

>  <r_i_glide_hbond>  (182) 
-0.0562033

>  <r_i_glide_metal>  (182) 
-0

>  <r_i_glide_rewards>  (182) 
-0.477137

>  <r_i_glide_evdw>  (182) 
-21.7066

>  <r_i_glide_ecoul>  (182) 
-8.20732

>  <r_i_glide_erotb>  (182) 
0.321844

>  <r_i_glide_esite>  (182) 
-0.0266361

>  <r_i_glide_emodel>  (182) 
-32.3458

>  <r_i_glide_energy>  (182) 
-29.914

>  <r_i_glide_einternal>  (182) 
5.04561

>  <r_i_glide_intrahb_reward>  (182) 
-0

>  <i_i_glide_confnum>  (182) 
1

>  <i_i_glide_posenum>  (182) 
33

>  <r_i_glide_eff_state_penalty>  (182) 
0

>  <ligand_id>  (182) 
54

>  <original_smiles>  (182) 
CC1C(O)C2CCC3(C)OOC4C(C)C(OC(=O)C=Cc5ccccc5)CC1C4(O2)O3

>  <smiles>  (182) 
[H]OC1([H])C2([H])OC34OC(C([H])([H])[H])(OOC3([H])C([H])(C([H])([H])[H])C([H])(OC(=O)C([H])=C([H])c3c([H])c([H])c([H])c([H])c3[H])C([H])([H])C4([H])C1([H])C([H])([H])[H])C([H])([H])C2([H])[H]

$$$$
54:0:1
     RDKit          3D

 61 65  0  0  1  0  0  0  0  0999 V2000
    4.8504   -6.7933    1.0147 C   0  0  0  0  0  0  0  0  0  0  0  0
    4.1031   -7.1776    2.3046 C   0  0  2  0  0  0  0  0  0  0  0  0
    3.8285   -8.7307    2.3308 C   0  0  1  0  0  0  0  0  0  0  0  0
    4.6782   -9.3954    3.2568 O   0  0  0  0  0  0  0  0  0  0  0  0
    2.3631   -8.8723    2.7073 C   0  0  1  0  0  0  0  0  0  0  0  0
    1.5069  -10.0585    3.0879 C   0  0  0  0  0  0  0  0  0  0  0  0
    0.0281   -9.5360    3.0918 C   0  0  0  0  0  0  0  0  0  0  0  0
   -0.2562   -8.0777    3.6124 C   0  0  1  0  0  0  0  0  0  0  0  0
   -1.7149   -7.6697    3.3508 C   0  0  0  0  0  0  0  0  0  0  0  0
    0.0005   -8.0147    5.0154 O   0  0  0  0  0  0  0  0  0  0  0  0
    0.2166   -6.5723    5.3757 O   0  0  0  0  0  0  0  0  0  0  0  0
    1.4553   -6.0951    4.8197 C   0  0  2  0  0  0  0  0  0  0  0  0
    1.1860   -4.5902    4.5685 C   0  0  1  0  0  0  0  0  0  0  0  0
    1.3316   -3.7998    5.8851 C   0  0  0  0  0  0  0  0  0  0  0  0
    2.0093   -4.0178    3.3747 C   0  0  1  0  0  0  0  0  0  0  0  0
    2.2117   -2.6213    3.5124 O   0  0  0  0  0  0  0  0  0  0  0  0
    2.2494   -1.7486    2.4958 C   0  0  0  0  0  0  0  0  0  0  0  0
    1.9541   -0.5680    2.6670 O   0  0  0  0  0  0  0  0  0  0  0  0
    2.7985   -2.2708    1.2351 C   0  0  0  0  0  0  0  0  0  0  0  0
    3.0173   -1.5384    0.1301 C   0  0  0  0  0  0  0  0  0  0  0  0
    3.6248   -2.1085   -1.0937 C   0  0  0  0  0  0  0  0  0  0  0  0
    4.3510   -3.3304   -1.1206 C   0  0  0  0  0  0  0  0  0  0  0  0
    4.8433   -3.8513   -2.3287 C   0  0  0  0  0  0  0  0  0  0  0  0
    4.6273   -3.1599   -3.5291 C   0  0  0  0  0  0  0  0  0  0  0  0
    3.9017   -1.9503   -3.5294 C   0  0  0  0  0  0  0  0  0  0  0  0
    3.4064   -1.4463   -2.3222 C   0  0  0  0  0  0  0  0  0  0  0  0
    3.2786   -4.8550    3.1420 C   0  0  0  0  0  0  0  0  0  0  0  0
    2.8507   -6.2188    2.5547 C   0  0  2  0  0  0  0  0  0  0  0  0
    1.7714   -6.8646    3.5187 C   0  0  1  0  0  0  0  0  0  0  0  0
    2.2885   -8.0744    3.8707 O   0  0  0  0  0  0  0  0  0  0  0  0
    0.5108   -7.0739    2.8971 O   0  0  0  0  0  0  0  0  0  0  0  0
    4.2339   -6.9562    0.1324 H   0  0  0  0  0  0  0  0  0  0  0  0
    5.7562   -7.3808    0.8940 H   0  0  0  0  0  0  0  0  0  0  0  0
    5.1560   -5.7543    1.0148 H   0  0  0  0  0  0  0  0  0  0  0  0
    4.7796   -6.9754    3.1334 H   0  0  0  0  0  0  0  0  0  0  0  0
    4.0089   -9.1835    1.3476 H   0  0  0  0  0  0  0  0  0  0  0  0
    4.5025  -10.3184    3.2134 H   0  0  0  0  0  0  0  0  0  0  0  0
    1.8762   -8.4968    1.7943 H   0  0  0  0  0  0  0  0  0  0  0  0
    1.6171  -10.8735    2.3712 H   0  0  0  0  0  0  0  0  0  0  0  0
    1.7905  -10.4483    4.0688 H   0  0  0  0  0  0  0  0  0  0  0  0
   -0.3538   -9.5937    2.0729 H   0  0  0  0  0  0  0  0  0  0  0  0
   -0.5863  -10.2274    3.6620 H   0  0  0  0  0  0  0  0  0  0  0  0
   -1.9187   -6.6644    3.7174 H   0  0  0  0  0  0  0  0  0  0  0  0
   -2.4251   -8.3450    3.8264 H   0  0  0  0  0  0  0  0  0  0  0  0
   -1.9370   -7.6663    2.2833 H   0  0  0  0  0  0  0  0  0  0  0  0
    2.2950   -6.2452    5.5067 H   0  0  0  0  0  0  0  0  0  0  0  0
    0.1312   -4.5134    4.2906 H   0  0  0  0  0  0  0  0  0  0  0  0
    2.3713   -3.7631    6.2096 H   0  0  0  0  0  0  0  0  0  0  0  0
    0.7479   -4.2539    6.6908 H   0  0  0  0  0  0  0  0  0  0  0  0
    0.9745   -2.7762    5.7749 H   0  0  0  0  0  0  0  0  0  0  0  0
    1.3516   -4.1131    2.5127 H   0  0  0  0  0  0  0  0  0  0  0  0
    3.0375   -3.3019    1.1639 H   0  0  0  0  0  0  0  0  0  0  0  0
    2.7588   -0.4913    0.0853 H   0  0  0  0  0  0  0  0  0  0  0  0
    4.5073   -3.9236   -0.2376 H   0  0  0  0  0  0  0  0  0  0  0  0
    5.4000   -4.7771   -2.3347 H   0  0  0  0  0  0  0  0  0  0  0  0
    4.9981   -3.5591   -4.4505 H   0  0  0  0  0  0  0  0  0  0  0  0
    3.6887   -1.4143   -4.4392 H   0  0  0  0  0  0  0  0  0  0  0  0
    2.7859   -0.5624   -2.3182 H   0  0  0  0  0  0  0  0  0  0  0  0
    3.9870   -4.4438    2.4521 H   0  0  0  0  0  0  0  0  0  0  0  0
    3.8073   -5.0135    4.0954 H   0  0  0  0  0  0  0  0  0  0  0  0
    2.3311   -6.1040    1.6027 H   0  0  0  0  0  0  0  0  0  0  0  0
  1  2  1  0
  1 32  1  0
  1 33  1  0
  1 34  1  0
  2 28  1  0
  2  3  1  0
  2 35  1  1
  3  4  1  0
  3  5  1  0
  3 36  1  6
  4 37  1  0
  5 30  1  0
  5  6  1  0
  5 38  1  6
  6  7  1  0
  6 39  1  0
  6 40  1  0
  7  8  1  0
  7 41  1  0
  7 42  1  0
  8 31  1  0
  8  9  1  1
  8 10  1  0
  9 43  1  0
  9 44  1  0
  9 45  1  0
 10 11  1  0
 11 12  1  0
 12 29  1  0
 12 13  1  0
 12 46  1  1
 13 14  1  0
 13 15  1  0
 13 47  1  6
 14 48  1  0
 14 49  1  0
 14 50  1  0
 15 16  1  0
 15 27  1  0
 15 51  1  6
 16 17  1  0
 17 18  2  0
 17 19  1  0
 19 20  2  3
 19 52  1  0
 20 21  1  0
 20 53  1  0
 21 26  1  0
 21 22  2  0
 22 23  1  0
 22 54  1  0
 23 24  2  0
 23 55  1  0
 24 25  1  0
 24 56  1  0
 25 26  2  0
 25 57  1  0
 26 58  1  0
 27 28  1  0
 27 59  1  0
 27 60  1  0
 28 29  1  0
 28 61  1  6
 29 30  1  1
 29 31  1  0
M  END
>  <i_m_ct_stereo_status>  (183) 
1

>  <s_m_source_file>  (183) 
/var/tmp/pbs.5076255.sched01/tmpr0mrskr5/46emy42_dx.sdf

>  <i_m_source_file_index>  (183) 
32

>  <i_lp_mmshare_version>  (183) 
48012

>  <i_f3d_flags>  (183) 
0

>  <s_epik_input>  (183) 
W0NAXTEyM1tDQEBIXTRPT1tDQF0oTzMpKFtDSDNdKVtDSDJdW0NIMl1bQ0BASF0oTzIpW0NASF0oW09IXSlbQ0BASF0oW0NIM10pW0NAQEhdMVtDSDJdW0NAQEhdKFtDQEBIXTRbQ0gzXSlPQyg9TykvW0NIXT1bQ0hdL2M1W2NIXVtjSF1bY0hdW2NIXVtjSF01

>  <s_epik_cmdline>  (183) 
J2VwaWtfcHl0aG9uJywgJy1waHQnLCAnMi4wJywgJy1waCcsICc3LjAnLCAnLXRuJywgJzgnLCAnLW1hJywgJzIwMCcsICctaW1hZScsICc8aW5maWxlLm1hZT4nLCAnLW9tYWUnLCAnPG91dGZpbGUubWFlPic=

>  <r_lp_tautomer_probability>  (183) 
1

>  <r_epik_Ionization_Penalty>  (183) 
4.25863e-08

>  <r_epik_Ionization_Penalty_Charging>  (183) 
0

>  <r_epik_Ionization_Penalty_Neutral>  (183) 
4.25863e-08

>  <r_epik_State_Penalty>  (183) 
-0

>  <r_epik_Charging_Adjusted_Penalty>  (183) 
0

>  <i_epik_Tot_Q>  (183) 
0

>  <i_epik_Tot_abs_Q>  (183) 
0

>  <s_epik_Chemistry_Notes>  (183) 
This compound has an ester and may undergo hydrolysis at high or low pH.

>  <s_lp_Force_Field>  (183) 
OPLS3e

>  <r_lp_Energy>  (183) 
71.4922

>  <b_lp_Chiralities_Consistent>  (183) 
1

>  <s_lp_Variant>  (183) 
54:0-1

>  <s_i_glide_gridfile>  (183) 
pfpi4k_grid

>  <i_i_glide_lignum>  (183) 
32

>  <i_i_glide_rotatable_bonds>  (183) 
5

>  <r_i_docking_score>  (183) 
-2.65395

>  <r_i_glide_ligand_efficiency>  (183) 
-0.0856113

>  <r_i_glide_ligand_efficiency_sa>  (183) 
-0.268938

>  <r_i_glide_ligand_efficiency_ln>  (183) 
-0.598547

>  <r_i_glide_gscore>  (183) 
-2.65395

>  <r_i_glide_lipo>  (183) 
-0.606149

>  <r_i_glide_hbond>  (183) 
0

>  <r_i_glide_metal>  (183) 
-0

>  <r_i_glide_rewards>  (183) 
-0.473926

>  <r_i_glide_evdw>  (183) 
-33.4224

>  <r_i_glide_ecoul>  (183) 
-1.05275

>  <r_i_glide_erotb>  (183) 
0.321844

>  <r_i_glide_esite>  (183) 
-0.0666885

>  <r_i_glide_emodel>  (183) 
-36.7411

>  <r_i_glide_energy>  (183) 
-34.4751

>  <r_i_glide_einternal>  (183) 
5.91615

>  <r_i_glide_intrahb_reward>  (183) 
-0

>  <i_i_glide_confnum>  (183) 
1

>  <i_i_glide_posenum>  (183) 
28

>  <r_i_glide_eff_state_penalty>  (183) 
0

>  <ligand_id>  (183) 
54

>  <original_smiles>  (183) 
CC1C(O)C2CCC3(C)OOC4C(C)C(OC(=O)C=Cc5ccccc5)CC1C4(O2)O3

>  <smiles>  (183) 
[H]OC1([H])C2([H])OC34OC(C([H])([H])[H])(OOC3([H])C([H])(C([H])([H])[H])C([H])(OC(=O)C([H])=C([H])c3c([H])c([H])c([H])c([H])c3[H])C([H])([H])C4([H])C1([H])C([H])([H])[H])C([H])([H])C2([H])[H]

$$$$
54:0:2
     RDKit          3D

 61 65  0  0  1  0  0  0  0  0999 V2000
    4.8256   -7.4274    0.9461 C   0  0  0  0  0  0  0  0  0  0  0  0
    4.0936   -7.9430    2.2015 C   0  0  2  0  0  0  0  0  0  0  0  0
    3.3731   -9.3083    1.8795 C   0  0  1  0  0  0  0  0  0  0  0  0
    4.0568  -10.4122    2.4419 O   0  0  0  0  0  0  0  0  0  0  0  0
    1.9644   -9.1497    2.4226 C   0  0  1  0  0  0  0  0  0  0  0  0
    0.8025  -10.1041    2.6138 C   0  0  0  0  0  0  0  0  0  0  0  0
   -0.4414   -9.2212    2.9598 C   0  0  0  0  0  0  0  0  0  0  0  0
   -0.2123   -7.9488    3.8717 C   0  0  1  0  0  0  0  0  0  0  0  0
   -1.4911   -7.1105    3.9488 C   0  0  0  0  0  0  0  0  0  0  0  0
    0.1353   -8.3626    5.1904 O   0  0  0  0  0  0  0  0  0  0  0  0
    0.8031   -7.2075    5.8773 O   0  0  0  0  0  0  0  0  0  0  0  0
    2.0818   -6.9584    5.2888 C   0  0  2  0  0  0  0  0  0  0  0  0
    2.2634   -5.4317    5.4781 C   0  0  1  0  0  0  0  0  0  0  0  0
    2.7405   -5.1022    6.9035 C   0  0  0  0  0  0  0  0  0  0  0  0
    3.0919   -4.7787    4.3596 C   0  0  1  0  0  0  0  0  0  0  0  0
    3.8331   -3.6330    4.7867 O   0  0  0  0  0  0  0  0  0  0  0  0
    4.2768   -2.6467    3.9519 C   0  0  0  0  0  0  0  0  0  0  0  0
    4.9478   -1.7140    4.3620 O   0  0  0  0  0  0  0  0  0  0  0  0
    3.8914   -2.8001    2.5194 C   0  0  0  0  0  0  0  0  0  0  0  0
    4.2801   -1.9937    1.5448 C   0  0  0  0  0  0  0  0  0  0  0  0
    3.9002   -2.2036    0.1354 C   0  0  0  0  0  0  0  0  0  0  0  0
    3.0784   -3.2839   -0.2965 C   0  0  0  0  0  0  0  0  0  0  0  0
    2.7253   -3.4250   -1.6496 C   0  0  0  0  0  0  0  0  0  0  0  0
    3.2052   -2.5026   -2.6026 C   0  0  0  0  0  0  0  0  0  0  0  0
    4.0304   -1.4322   -2.1798 C   0  0  0  0  0  0  0  0  0  0  0  0
    4.3688   -1.2920   -0.8220 C   0  0  0  0  0  0  0  0  0  0  0  0
    4.0149   -5.7915    3.6454 C   0  0  0  0  0  0  0  0  0  0  0  0
    3.1814   -6.7961    2.8448 C   0  0  2  0  0  0  0  0  0  0  0  0
    2.0557   -7.3642    3.7933 C   0  0  1  0  0  0  0  0  0  0  0  0
    2.2238   -8.7111    3.7376 O   0  0  0  0  0  0  0  0  0  0  0  0
    0.7639   -7.0330    3.3304 O   0  0  0  0  0  0  0  0  0  0  0  0
    4.1271   -7.1664    0.1517 H   0  0  0  0  0  0  0  0  0  0  0  0
    5.4885   -8.1969    0.5531 H   0  0  0  0  0  0  0  0  0  0  0  0
    5.4314   -6.5477    1.1539 H   0  0  0  0  0  0  0  0  0  0  0  0
    4.8615   -8.1679    2.9435 H   0  0  0  0  0  0  0  0  0  0  0  0
    3.3290   -9.4919    0.8031 H   0  0  0  0  0  0  0  0  0  0  0  0
    4.0366  -11.1281    1.8434 H   0  0  0  0  0  0  0  0  0  0  0  0
    1.5516   -8.4149    1.7204 H   0  0  0  0  0  0  0  0  0  0  0  0
    0.6006  -10.6585    1.7030 H   0  0  0  0  0  0  0  0  0  0  0  0
    1.0186  -10.8234    3.4042 H   0  0  0  0  0  0  0  0  0  0  0  0
   -0.8752   -8.8757    2.0243 H   0  0  0  0  0  0  0  0  0  0  0  0
   -1.1977   -9.8424    3.4211 H   0  0  0  0  0  0  0  0  0  0  0  0
   -1.3463   -6.2308    4.5888 H   0  0  0  0  0  0  0  0  0  0  0  0
   -2.3225   -7.6720    4.3417 H   0  0  0  0  0  0  0  0  0  0  0  0
   -1.7784   -6.7474    2.9618 H   0  0  0  0  0  0  0  0  0  0  0  0
    2.8852   -7.5151    5.7722 H   0  0  0  0  0  0  0  0  0  0  0  0
    1.2673   -4.9963    5.3955 H   0  0  0  0  0  0  0  0  0  0  0  0
    3.7662   -5.4363    7.0597 H   0  0  0  0  0  0  0  0  0  0  0  0
    2.1064   -5.5788    7.6543 H   0  0  0  0  0  0  0  0  0  0  0  0
    2.7017   -4.0263    7.0864 H   0  0  0  0  0  0  0  0  0  0  0  0
    2.3273   -4.4332    3.6646 H   0  0  0  0  0  0  0  0  0  0  0  0
    3.2764   -3.6216    2.2533 H   0  0  0  0  0  0  0  0  0  0  0  0
    4.9090   -1.1234    1.7572 H   0  0  0  0  0  0  0  0  0  0  0  0
    2.6748   -4.0285    0.3621 H   0  0  0  0  0  0  0  0  0  0  0  0
    2.0808   -4.2378   -1.9589 H   0  0  0  0  0  0  0  0  0  0  0  0
    2.9260   -2.6075   -3.6395 H   0  0  0  0  0  0  0  0  0  0  0  0
    4.3828   -0.7081   -2.8987 H   0  0  0  0  0  0  0  0  0  0  0  0
    4.9786   -0.4649   -0.5060 H   0  0  0  0  0  0  0  0  0  0  0  0
    4.6777   -5.2920    2.9419 H   0  0  0  0  0  0  0  0  0  0  0  0
    4.6779   -6.2791    4.3663 H   0  0  0  0  0  0  0  0  0  0  0  0
    2.6694   -6.2810    2.0339 H   0  0  0  0  0  0  0  0  0  0  0  0
  1  2  1  0
  1 32  1  0
  1 33  1  0
  1 34  1  0
  2 28  1  0
  2  3  1  0
  2 35  1  1
  3  4  1  0
  3  5  1  0
  3 36  1  6
  4 37  1  0
  5 30  1  0
  5  6  1  0
  5 38  1  6
  6  7  1  0
  6 39  1  0
  6 40  1  0
  7  8  1  0
  7 41  1  0
  7 42  1  0
  8 31  1  0
  8  9  1  1
  8 10  1  0
  9 43  1  0
  9 44  1  0
  9 45  1  0
 10 11  1  0
 11 12  1  0
 12 29  1  0
 12 13  1  0
 12 46  1  1
 13 14  1  0
 13 15  1  0
 13 47  1  1
 14 48  1  0
 14 49  1  0
 14 50  1  0
 15 16  1  0
 15 27  1  0
 15 51  1  6
 16 17  1  0
 17 18  2  0
 17 19  1  0
 19 20  2  3
 19 52  1  0
 20 21  1  0
 20 53  1  0
 21 26  1  0
 21 22  2  0
 22 23  1  0
 22 54  1  0
 23 24  2  0
 23 55  1  0
 24 25  1  0
 24 56  1  0
 25 26  2  0
 25 57  1  0
 26 58  1  0
 27 28  1  0
 27 59  1  0
 27 60  1  0
 28 29  1  0
 28 61  1  6
 29 30  1  1
 29 31  1  0
M  END
>  <i_m_ct_stereo_status>  (184) 
1

>  <s_m_source_file>  (184) 
/var/tmp/pbs.5076255.sched01/tmpr0mrskr5/46emy42_dx.sdf

>  <i_m_source_file_index>  (184) 
32

>  <i_lp_mmshare_version>  (184) 
48012

>  <i_f3d_flags>  (184) 
0

>  <s_epik_input>  (184) 
W0NAXTEyM1tDQEBIXTRPT1tDQF0oTzMpKFtDSDNdKVtDSDJdW0NIMl1bQ0BASF0oTzIpW0NASF0oW09IXSlbQ0BASF0oW0NIM10pW0NAQEhdMVtDSDJdW0NAQEhdKFtDQEBIXTRbQ0gzXSlPQyg9TykvW0NIXT1bQ0hdL2M1W2NIXVtjSF1bY0hdW2NIXVtjSF01

>  <s_epik_cmdline>  (184) 
J2VwaWtfcHl0aG9uJywgJy1waHQnLCAnMi4wJywgJy1waCcsICc3LjAnLCAnLXRuJywgJzgnLCAnLW1hJywgJzIwMCcsICctaW1hZScsICc8aW5maWxlLm1hZT4nLCAnLW9tYWUnLCAnPG91dGZpbGUubWFlPic=

>  <r_lp_tautomer_probability>  (184) 
1

>  <r_epik_Ionization_Penalty>  (184) 
4.25863e-08

>  <r_epik_Ionization_Penalty_Charging>  (184) 
0

>  <r_epik_Ionization_Penalty_Neutral>  (184) 
4.25863e-08

>  <r_epik_State_Penalty>  (184) 
-0

>  <r_epik_Charging_Adjusted_Penalty>  (184) 
0

>  <i_epik_Tot_Q>  (184) 
0

>  <i_epik_Tot_abs_Q>  (184) 
0

>  <s_epik_Chemistry_Notes>  (184) 
This compound has an ester and may undergo hydrolysis at high or low pH.

>  <s_lp_Force_Field>  (184) 
OPLS3e

>  <r_lp_Energy>  (184) 
71.4922

>  <b_lp_Chiralities_Consistent>  (184) 
1

>  <s_lp_Variant>  (184) 
54:0-1

>  <s_i_glide_gridfile>  (184) 
pfpi4k_grid

>  <i_i_glide_lignum>  (184) 
32

>  <i_i_glide_rotatable_bonds>  (184) 
5

>  <r_i_docking_score>  (184) 
-2.56371

>  <r_i_glide_ligand_efficiency>  (184) 
-0.0827004

>  <r_i_glide_ligand_efficiency_sa>  (184) 
-0.259794

>  <r_i_glide_ligand_efficiency_ln>  (184) 
-0.578196

>  <r_i_glide_gscore>  (184) 
-2.56371

>  <r_i_glide_lipo>  (184) 
-0.403869

>  <r_i_glide_hbond>  (184) 
0

>  <r_i_glide_metal>  (184) 
-0

>  <r_i_glide_rewards>  (184) 
-0.48512

>  <r_i_glide_evdw>  (184) 
-28.4947

>  <r_i_glide_ecoul>  (184) 
-3.50433

>  <r_i_glide_erotb>  (184) 
0.321844

>  <r_i_glide_esite>  (184) 
-0.0461803

>  <r_i_glide_emodel>  (184) 
-34.4103

>  <r_i_glide_energy>  (184) 
-31.9991

>  <r_i_glide_einternal>  (184) 
4.64494

>  <r_i_glide_intrahb_reward>  (184) 
-0

>  <i_i_glide_confnum>  (184) 
1

>  <i_i_glide_posenum>  (184) 
14

>  <r_i_glide_eff_state_penalty>  (184) 
0

>  <ligand_id>  (184) 
54

>  <original_smiles>  (184) 
CC1C(O)C2CCC3(C)OOC4C(C)C(OC(=O)C=Cc5ccccc5)CC1C4(O2)O3

>  <smiles>  (184) 
[H]OC1([H])C2([H])OC34OC(C([H])([H])[H])(OOC3([H])C([H])(C([H])([H])[H])C([H])(OC(=O)C([H])=C([H])c3c([H])c([H])c([H])c([H])c3[H])C([H])([H])C4([H])C1([H])C([H])([H])[H])C([H])([H])C2([H])[H]

$$$$
54:1:0
     RDKit          3D

 61 65  0  0  1  0  0  0  0  0999 V2000
    4.3900   -0.9129   -2.1003 C   0  0  0  0  0  0  0  0  0  0  0  0
    5.0353   -1.7155   -0.9566 C   0  0  2  0  0  0  0  0  0  0  0  0
    5.4025   -3.1542   -1.4789 C   0  0  1  0  0  0  0  0  0  0  0  0
    6.8015   -3.2419   -1.6812 O   0  0  0  0  0  0  0  0  0  0  0  0
    4.8712   -4.1146   -0.4272 C   0  0  1  0  0  0  0  0  0  0  0  0
    5.0150   -5.6103   -0.2029 C   0  0  0  0  0  0  0  0  0  0  0  0
    3.9696   -5.9931    0.9071 C   0  0  0  0  0  0  0  0  0  0  0  0
    3.7139   -4.9567    2.0830 C   0  0  1  0  0  0  0  0  0  0  0  0
    2.5291   -5.4050    2.9647 C   0  0  0  0  0  0  0  0  0  0  0  0
    4.8846   -4.9093    2.8922 O   0  0  0  0  0  0  0  0  0  0  0  0
    4.8627   -3.6038    3.6644 O   0  0  0  0  0  0  0  0  0  0  0  0
    5.0147   -2.4940    2.7769 C   0  0  2  0  0  0  0  0  0  0  0  0
    4.1826   -1.3852    3.4658 C   0  0  1  0  0  0  0  0  0  0  0  0
    4.9685   -0.7431    4.6303 C   0  0  0  0  0  0  0  0  0  0  0  0
    3.5571   -0.4019    2.4610 C   0  0  1  0  0  0  0  0  0  0  0  0
    3.4246    0.8988    3.0368 O   0  0  0  0  0  0  0  0  0  0  0  0
    2.2975    1.6414    2.9868 C   0  0  0  0  0  0  0  0  0  0  0  0
    2.1915    2.6769    3.6269 O   0  0  0  0  0  0  0  0  0  0  0  0
    1.2692    1.1460    2.0429 C   0  0  0  0  0  0  0  0  0  0  0  0
   -0.0780    1.2668    2.1664 C   0  0  0  0  0  0  0  0  0  0  0  0
   -0.9060    1.8334    3.2425 C   0  0  0  0  0  0  0  0  0  0  0  0
   -2.1661    2.3792    2.9003 C   0  0  0  0  0  0  0  0  0  0  0  0
   -2.9902    2.9752    3.8743 C   0  0  0  0  0  0  0  0  0  0  0  0
   -2.5418    3.0658    5.2106 C   0  0  0  0  0  0  0  0  0  0  0  0
   -1.2917    2.5255    5.5618 C   0  0  0  0  0  0  0  0  0  0  0  0
   -0.4949    1.8843    4.5928 C   0  0  0  0  0  0  0  0  0  0  0  0
    4.3212   -0.3251    1.1279 C   0  0  0  0  0  0  0  0  0  0  0  0
    4.1507   -1.6482    0.3708 C   0  0  2  0  0  0  0  0  0  0  0  0
    4.4601   -2.8516    1.3739 C   0  0  1  0  0  0  0  0  0  0  0  0
    5.4231   -3.5705    0.7458 O   0  0  0  0  0  0  0  0  0  0  0  0
    3.3303   -3.6551    1.5988 O   0  0  0  0  0  0  0  0  0  0  0  0
    3.4234   -1.3353   -2.3772 H   0  0  0  0  0  0  0  0  0  0  0  0
    5.0144   -0.9100   -2.9936 H   0  0  0  0  0  0  0  0  0  0  0  0
    4.2284    0.1247   -1.8183 H   0  0  0  0  0  0  0  0  0  0  0  0
    5.9761   -1.2299   -0.7055 H   0  0  0  0  0  0  0  0  0  0  0  0
    4.9265   -3.3712   -2.4320 H   0  0  0  0  0  0  0  0  0  0  0  0
    6.9759   -3.8435   -2.3807 H   0  0  0  0  0  0  0  0  0  0  0  0
    3.7903   -4.0087   -0.5790 H   0  0  0  0  0  0  0  0  0  0  0  0
    4.8006   -6.1683   -1.1138 H   0  0  0  0  0  0  0  0  0  0  0  0
    6.0255   -5.8538    0.1171 H   0  0  0  0  0  0  0  0  0  0  0  0
    3.0131   -6.1591    0.4163 H   0  0  0  0  0  0  0  0  0  0  0  0
    4.2444   -6.9517    1.3404 H   0  0  0  0  0  0  0  0  0  0  0  0
    2.3492   -4.6915    3.7703 H   0  0  0  0  0  0  0  0  0  0  0  0
    2.6877   -6.3835    3.4083 H   0  0  0  0  0  0  0  0  0  0  0  0
    1.6159   -5.4513    2.3785 H   0  0  0  0  0  0  0  0  0  0  0  0
    6.0565   -2.1943    2.6714 H   0  0  0  0  0  0  0  0  0  0  0  0
    3.3308   -1.8786    3.9279 H   0  0  0  0  0  0  0  0  0  0  0  0
    5.8135   -0.1573    4.2666 H   0  0  0  0  0  0  0  0  0  0  0  0
    5.3489   -1.5070    5.3178 H   0  0  0  0  0  0  0  0  0  0  0  0
    4.3254   -0.0850    5.2172 H   0  0  0  0  0  0  0  0  0  0  0  0
    2.5749   -0.8219    2.2509 H   0  0  0  0  0  0  0  0  0  0  0  0
    1.6146    0.6476    1.1457 H   0  0  0  0  0  0  0  0  0  0  0  0
   -0.6349    0.8652    1.3420 H   0  0  0  0  0  0  0  0  0  0  0  0
   -2.5364    2.3061    1.8974 H   0  0  0  0  0  0  0  0  0  0  0  0
   -3.9570    3.3387    3.5925 H   0  0  0  0  0  0  0  0  0  0  0  0
   -3.1680    3.5265    5.9602 H   0  0  0  0  0  0  0  0  0  0  0  0
   -0.9327    2.5956    6.5751 H   0  0  0  0  0  0  0  0  0  0  0  0
    0.4409    1.4352    4.8978 H   0  0  0  0  0  0  0  0  0  0  0  0
    3.9046    0.4789    0.5241 H   0  0  0  0  0  0  0  0  0  0  0  0
    5.3741   -0.0781    1.2815 H   0  0  0  0  0  0  0  0  0  0  0  0
    3.1063   -1.7663    0.0869 H   0  0  0  0  0  0  0  0  0  0  0  0
  1  2  1  0
  1 32  1  0
  1 33  1  0
  1 34  1  0
  2 28  1  0
  2  3  1  0
  2 35  1  1
  3  4  1  0
  3  5  1  0
  3 36  1  6
  4 37  1  0
  5 30  1  0
  5  6  1  0
  5 38  1  1
  6  7  1  0
  6 39  1  0
  6 40  1  0
  7  8  1  0
  7 41  1  0
  7 42  1  0
  8 31  1  0
  8  9  1  1
  8 10  1  0
  9 43  1  0
  9 44  1  0
  9 45  1  0
 10 11  1  0
 11 12  1  0
 12 29  1  0
 12 13  1  0
 12 46  1  6
 13 14  1  0
 13 15  1  0
 13 47  1  1
 14 48  1  0
 14 49  1  0
 14 50  1  0
 15 16  1  0
 15 27  1  0
 15 51  1  6
 16 17  1  0
 17 18  2  0
 17 19  1  0
 19 20  2  3
 19 52  1  0
 20 21  1  0
 20 53  1  0
 21 26  1  0
 21 22  2  0
 22 23  1  0
 22 54  1  0
 23 24  2  0
 23 55  1  0
 24 25  1  0
 24 56  1  0
 25 26  2  0
 25 57  1  0
 26 58  1  0
 27 28  1  0
 27 59  1  0
 27 60  1  0
 28 29  1  0
 28 61  1  6
 29 30  1  6
 29 31  1  0
M  END
>  <i_m_ct_stereo_status>  (185) 
1

>  <s_m_source_file>  (185) 
/var/tmp/pbs.5076255.sched01/tmpr0mrskr5/46emy42_dx.sdf

>  <i_m_source_file_index>  (185) 
33

>  <i_lp_mmshare_version>  (185) 
48012

>  <i_f3d_flags>  (185) 
0

>  <s_epik_input>  (185) 
W0NAXTEyM1tDQEBIXTRPT1tDQF0oTzMpKFtDSDNdKVtDSDJdW0NIMl1bQ0BASF0oTzIpW0NASF0oW09IXSlbQ0BASF0oW0NIM10pW0NAQEhdMVtDSDJdW0NAQEhdKFtDQEBIXTRbQ0gzXSlPQyg9TykvW0NIXT1bQ0hdL2M1W2NIXVtjSF1bY0hdW2NIXVtjSF01

>  <s_epik_cmdline>  (185) 
J2VwaWtfcHl0aG9uJywgJy1waHQnLCAnMi4wJywgJy1waCcsICc3LjAnLCAnLXRuJywgJzgnLCAnLW1hJywgJzIwMCcsICctaW1hZScsICc8aW5maWxlLm1hZT4nLCAnLW9tYWUnLCAnPG91dGZpbGUubWFlPic=

>  <r_lp_tautomer_probability>  (185) 
1

>  <r_epik_Ionization_Penalty>  (185) 
4.25863e-08

>  <r_epik_Ionization_Penalty_Charging>  (185) 
0

>  <r_epik_Ionization_Penalty_Neutral>  (185) 
4.25863e-08

>  <r_epik_State_Penalty>  (185) 
-0

>  <r_epik_Charging_Adjusted_Penalty>  (185) 
0

>  <i_epik_Tot_Q>  (185) 
0

>  <i_epik_Tot_abs_Q>  (185) 
0

>  <s_epik_Chemistry_Notes>  (185) 
This compound has an ester and may undergo hydrolysis at high or low pH.

>  <s_lp_Force_Field>  (185) 
OPLS3e

>  <r_lp_Energy>  (185) 
76.6884

>  <b_lp_Chiralities_Consistent>  (185) 
1

>  <s_lp_Variant>  (185) 
54:0-2

>  <s_i_glide_gridfile>  (185) 
pfpi4k_grid

>  <i_i_glide_lignum>  (185) 
33

>  <i_i_glide_rotatable_bonds>  (185) 
5

>  <r_i_docking_score>  (185) 
-2.42475

>  <r_i_glide_ligand_efficiency>  (185) 
-0.0782177

>  <r_i_glide_ligand_efficiency_sa>  (185) 
-0.245712

>  <r_i_glide_ligand_efficiency_ln>  (185) 
-0.546855

>  <r_i_glide_gscore>  (185) 
-2.42475

>  <r_i_glide_lipo>  (185) 
-0.439677

>  <r_i_glide_hbond>  (185) 
0

>  <r_i_glide_metal>  (185) 
-0

>  <r_i_glide_rewards>  (185) 
-0.506343

>  <r_i_glide_evdw>  (185) 
-32.2394

>  <r_i_glide_ecoul>  (185) 
-1.25737

>  <r_i_glide_erotb>  (185) 
0.321844

>  <r_i_glide_esite>  (185) 
0

>  <r_i_glide_emodel>  (185) 
-34.2889

>  <r_i_glide_energy>  (185) 
-33.4967

>  <r_i_glide_einternal>  (185) 
7.17651

>  <r_i_glide_intrahb_reward>  (185) 
-0

>  <i_i_glide_confnum>  (185) 
1

>  <i_i_glide_posenum>  (185) 
16

>  <r_i_glide_eff_state_penalty>  (185) 
0

>  <ligand_id>  (185) 
54

>  <original_smiles>  (185) 
CC1C(O)C2CCC3(C)OOC4C(C)C(OC(=O)C=Cc5ccccc5)CC1C4(O2)O3

>  <smiles>  (185) 
[H]OC1([H])C2([H])OC34OC(C([H])([H])[H])(OOC3([H])C([H])(C([H])([H])[H])C([H])(OC(=O)C([H])=C([H])c3c([H])c([H])c([H])c([H])c3[H])C([H])([H])C4([H])C1([H])C([H])([H])[H])C([H])([H])C2([H])[H]

$$$$
55:0:0
     RDKit          3D

 38 40  0  0  1  0  0  0  0  0999 V2000
   -0.5997   -8.3853    2.4214 C   0  0  0  0  0  0  0  0  0  0  0  0
    0.4242   -7.4017    1.9803 C   0  0  0  0  0  0  0  0  0  0  0  0
    0.2511   -6.6590    0.8908 N   0  0  0  0  0  0  0  0  0  0  0  0
    1.4166   -5.8814    0.8413 O   0  0  0  0  0  0  0  0  0  0  0  0
    2.1304   -6.2060    1.9510 C   0  0  0  0  0  0  0  0  0  0  0  0
    3.4045   -5.4631    2.2790 C   0  0  2  0  0  0  0  0  0  0  0  0
    3.1620   -3.9732    2.5610 C   0  0  0  0  0  0  0  0  0  0  0  0
    3.1834   -3.3309    1.1626 C   0  0  2  0  0  0  0  0  0  0  0  0
    4.0687   -4.2838    0.3243 C   0  0  1  0  0  0  0  0  0  0  0  0
    5.3538   -3.5942   -0.1731 C   0  0  0  0  0  0  0  0  0  0  0  0
    5.0078   -2.3095   -0.9436 C   0  0  0  0  0  0  0  0  0  0  0  0
    3.9262   -1.4562   -0.2474 C   0  0  0  0  0  0  0  0  0  0  0  0
    3.6296   -1.9060    1.1392 N   0  0  1  0  0  0  0  0  0  0  0  0
    2.6727   -0.9852    1.8007 C   0  0  0  0  0  0  0  0  0  0  0  0
    4.4158   -5.3800    1.2260 N   0  0  0  0  0  0  0  0  0  0  0  0
    4.6728   -6.6421    0.5405 C   0  0  0  0  0  0  0  0  0  0  0  0
    1.5452   -7.1353    2.7017 N   0  0  0  0  0  0  0  0  0  0  0  0
   -1.5232   -8.2600    1.8573 H   0  0  0  0  0  0  0  0  0  0  0  0
   -0.8157   -8.2512    3.4846 H   0  0  0  0  0  0  0  0  0  0  0  0
   -0.2511   -9.4054    2.2518 H   0  0  0  0  0  0  0  0  0  0  0  0
    3.8542   -5.9422    3.1519 H   0  0  0  0  0  0  0  0  0  0  0  0
    2.2283   -3.8045    3.0995 H   0  0  0  0  0  0  0  0  0  0  0  0
    3.9763   -3.5868    3.1782 H   0  0  0  0  0  0  0  0  0  0  0  0
    2.1822   -3.3694    0.7421 H   0  0  0  0  0  0  0  0  0  0  0  0
    3.4888   -4.6597   -0.5196 H   0  0  0  0  0  0  0  0  0  0  0  0
    6.0015   -3.3394    0.6686 H   0  0  0  0  0  0  0  0  0  0  0  0
    5.9339   -4.2605   -0.8152 H   0  0  0  0  0  0  0  0  0  0  0  0
    5.9101   -1.7152   -1.0910 H   0  0  0  0  0  0  0  0  0  0  0  0
    4.6500   -2.5698   -1.9433 H   0  0  0  0  0  0  0  0  0  0  0  0
    4.2295   -0.4098   -0.2522 H   0  0  0  0  0  0  0  0  0  0  0  0
    3.0167   -1.5040   -0.8466 H   0  0  0  0  0  0  0  0  0  0  0  0
    1.7066   -0.9909    1.2955 H   0  0  0  0  0  0  0  0  0  0  0  0
    3.0467    0.0393    1.7765 H   0  0  0  0  0  0  0  0  0  0  0  0
    2.5195   -1.2505    2.8475 H   0  0  0  0  0  0  0  0  0  0  0  0
    5.5011   -6.5220   -0.1526 H   0  0  0  0  0  0  0  0  0  0  0  0
    3.8117   -6.9613   -0.0408 H   0  0  0  0  0  0  0  0  0  0  0  0
    4.9295   -7.4420    1.2382 H   0  0  0  0  0  0  0  0  0  0  0  0
    4.5015   -1.8503    1.6498 H   0  0  0  0  0  0  0  0  0  0  0  0
  1  2  1  0
  1 18  1  0
  1 19  1  0
  1 20  1  0
  2 17  1  0
  2  3  2  0
  3  4  1  0
  4  5  1  0
  5  6  1  0
  5 17  2  0
  6 15  1  0
  6  7  1  0
  6 21  1  1
  7  8  1  0
  7 22  1  0
  7 23  1  0
  8 13  1  0
  8  9  1  0
  8 24  1  6
  9 10  1  0
  9 15  1  0
  9 25  1  6
 10 11  1  0
 10 26  1  0
 10 27  1  0
 11 12  1  0
 11 28  1  0
 11 29  1  0
 12 13  1  0
 12 30  1  0
 12 31  1  0
 13 14  1  0
 13 38  1  1
 14 32  1  0
 14 33  1  0
 14 34  1  0
 15 16  1  0
 16 35  1  0
 16 36  1  0
 16 37  1  0
M  CHG  1  13   1
M  END
>  <i_m_ct_stereo_status>  (186) 
1

>  <s_m_source_file>  (186) 
/var/tmp/pbs.5076255.sched01/tmpr0mrskr5/46emy42_dx.sdf

>  <i_m_source_file_index>  (186) 
34

>  <i_lp_mmshare_version>  (186) 
48012

>  <i_f3d_flags>  (186) 
0

>  <s_epik_input>  (186) 
W0NIM11jMW5vYyhuMSlbQ0BIXShbQ0gyXTIpTihbQ0gzXSlbQ0BASF0oW0NAQEhdMjMpW0NIMl1bQ0gyXVtDSDJdTjNbQ0gzXQ==

>  <s_epik_cmdline>  (186) 
J2VwaWtfcHl0aG9uJywgJy1waHQnLCAnMi4wJywgJy1waCcsICc3LjAnLCAnLXRuJywgJzgnLCAnLW1hJywgJzIwMCcsICctaW1hZScsICc8aW5maWxlLm1hZT4nLCAnLW9tYWUnLCAnPG91dGZpbGUubWFlPic=

>  <r_lp_tautomer_probability>  (186) 
1

>  <r_epik_Ionization_Penalty>  (186) 
0.00733646

>  <r_epik_Ionization_Penalty_Charging>  (186) 
0.0072569

>  <r_epik_Ionization_Penalty_Neutral>  (186) 
7.9564e-05

>  <r_epik_State_Penalty>  (186) 
0.0250474

>  <r_epik_Charging_Adjusted_Penalty>  (186) 
0.0323043

>  <i_epik_Tot_Q>  (186) 
1

>  <i_epik_Tot_abs_Q>  (186) 
1

>  <s_lp_Force_Field>  (186) 
OPLS3e

>  <r_lp_Energy>  (186) 
38.0309

>  <b_lp_Chiralities_Consistent>  (186) 
1

>  <s_lp_Variant>  (186) 
55:0-1

>  <s_i_glide_gridfile>  (186) 
pfpi4k_grid

>  <i_i_glide_lignum>  (186) 
34

>  <i_i_glide_rotatable_bonds>  (186) 
1

>  <r_i_docking_score>  (186) 
-3.86419

>  <r_i_glide_ligand_efficiency>  (186) 
-0.227305

>  <r_i_glide_ligand_efficiency_sa>  (186) 
-0.584466

>  <r_i_glide_ligand_efficiency_ln>  (186) 
-1.00808

>  <r_i_glide_gscore>  (186) 
-3.86419

>  <r_i_glide_lipo>  (186) 
-0.203573

>  <r_i_glide_hbond>  (186) 
0

>  <r_i_glide_metal>  (186) 
-0

>  <r_i_glide_rewards>  (186) 
-1.79099

>  <r_i_glide_evdw>  (186) 
-16.9807

>  <r_i_glide_ecoul>  (186) 
-6.95447

>  <r_i_glide_erotb>  (186) 
0.306045

>  <r_i_glide_esite>  (186) 
-0.283469

>  <r_i_glide_emodel>  (186) 
-29.8519

>  <r_i_glide_energy>  (186) 
-23.9352

>  <r_i_glide_einternal>  (186) 
0.507676

>  <r_i_glide_intrahb_reward>  (186) 
-0

>  <i_i_glide_confnum>  (186) 
3

>  <i_i_glide_posenum>  (186) 
8

>  <r_i_glide_eff_state_penalty>  (186) 
0

>  <ligand_id>  (186) 
55

>  <original_smiles>  (186) 
Cc1noc(C2CC3C(CCCN3C)N2C)n1

>  <smiles>  (186) 
[H]C([H])([H])c1noc(C2([H])N(C([H])([H])[H])C3([H])C([H])([H])C([H])([H])C([H])([H])[N+]([H])(C([H])([H])[H])C3([H])C2([H])[H])n1

$$$$
55:0:1
     RDKit          3D

 38 40  0  0  1  0  0  0  0  0999 V2000
    2.2881   -3.0004   -3.4529 C   0  0  0  0  0  0  0  0  0  0  0  0
    3.4380   -2.4749   -2.6834 C   0  0  0  0  0  0  0  0  0  0  0  0
    4.1534   -1.4420   -3.1147 N   0  0  0  0  0  0  0  0  0  0  0  0
    5.0325   -1.1927   -2.0512 O   0  0  0  0  0  0  0  0  0  0  0  0
    4.7434   -2.1237   -1.1022 C   0  0  0  0  0  0  0  0  0  0  0  0
    5.4328   -2.0283    0.2442 C   0  0  2  0  0  0  0  0  0  0  0  0
    6.6444   -2.9678    0.3707 C   0  0  0  0  0  0  0  0  0  0  0  0
    6.0376   -4.3068    0.8095 C   0  0  2  0  0  0  0  0  0  0  0  0
    4.7250   -3.9009    1.5266 C   0  0  1  0  0  0  0  0  0  0  0  0
    4.7269   -4.2885    3.0191 C   0  0  0  0  0  0  0  0  0  0  0  0
    5.0366   -5.7860    3.1904 C   0  0  0  0  0  0  0  0  0  0  0  0
    6.1958   -6.2723    2.2923 C   0  0  0  0  0  0  0  0  0  0  0  0
    6.9452   -5.1558    1.6507 N   0  0  1  0  0  0  0  0  0  0  0  0
    8.1276   -5.6713    0.9167 C   0  0  0  0  0  0  0  0  0  0  0  0
    4.6418   -2.4458    1.4097 N   0  0  0  0  0  0  0  0  0  0  0  0
    3.2684   -1.9340    1.4416 C   0  0  0  0  0  0  0  0  0  0  0  0
    3.8225   -3.0041   -1.4922 N   0  0  0  0  0  0  0  0  0  0  0  0
    2.0304   -2.3618   -4.3000 H   0  0  0  0  0  0  0  0  0  0  0  0
    1.4121   -3.0895   -2.8038 H   0  0  0  0  0  0  0  0  0  0  0  0
    2.5432   -3.9831   -3.8421 H   0  0  0  0  0  0  0  0  0  0  0  0
    5.7476   -0.9920    0.4055 H   0  0  0  0  0  0  0  0  0  0  0  0
    7.2284   -3.0382   -0.5461 H   0  0  0  0  0  0  0  0  0  0  0  0
    7.3017   -2.5847    1.1488 H   0  0  0  0  0  0  0  0  0  0  0  0
    5.7688   -4.8717   -0.0834 H   0  0  0  0  0  0  0  0  0  0  0  0
    3.8913   -4.3731    1.0107 H   0  0  0  0  0  0  0  0  0  0  0  0
    5.4729   -3.7047    3.5645 H   0  0  0  0  0  0  0  0  0  0  0  0
    3.7645   -4.0578    3.4835 H   0  0  0  0  0  0  0  0  0  0  0  0
    5.2603   -5.9931    4.2392 H   0  0  0  0  0  0  0  0  0  0  0  0
    4.1458   -6.3710    2.9513 H   0  0  0  0  0  0  0  0  0  0  0  0
    6.8681   -6.8884    2.8918 H   0  0  0  0  0  0  0  0  0  0  0  0
    5.7940   -6.9233    1.5151 H   0  0  0  0  0  0  0  0  0  0  0  0
    7.8226   -6.3101    0.0875 H   0  0  0  0  0  0  0  0  0  0  0  0
    8.7620   -6.2667    1.5800 H   0  0  0  0  0  0  0  0  0  0  0  0
    8.7346   -4.8534    0.5259 H   0  0  0  0  0  0  0  0  0  0  0  0
    2.7805   -2.1737    2.3882 H   0  0  0  0  0  0  0  0  0  0  0  0
    2.6552   -2.3753    0.6557 H   0  0  0  0  0  0  0  0  0  0  0  0
    3.2489   -0.8503    1.3042 H   0  0  0  0  0  0  0  0  0  0  0  0
    7.2904   -4.5813    2.4116 H   0  0  0  0  0  0  0  0  0  0  0  0
  1  2  1  0
  1 18  1  0
  1 19  1  0
  1 20  1  0
  2 17  1  0
  2  3  2  0
  3  4  1  0
  4  5  1  0
  5  6  1  0
  5 17  2  0
  6 15  1  0
  6  7  1  0
  6 21  1  1
  7  8  1  0
  7 22  1  0
  7 23  1  0
  8 13  1  0
  8  9  1  0
  8 24  1  6
  9 10  1  0
  9 15  1  0
  9 25  1  6
 10 11  1  0
 10 26  1  0
 10 27  1  0
 11 12  1  0
 11 28  1  0
 11 29  1  0
 12 13  1  0
 12 30  1  0
 12 31  1  0
 13 14  1  0
 13 38  1  1
 14 32  1  0
 14 33  1  0
 14 34  1  0
 15 16  1  0
 16 35  1  0
 16 36  1  0
 16 37  1  0
M  CHG  1  13   1
M  END
>  <i_m_ct_stereo_status>  (187) 
1

>  <s_m_source_file>  (187) 
/var/tmp/pbs.5076255.sched01/tmpr0mrskr5/46emy42_dx.sdf

>  <i_m_source_file_index>  (187) 
34

>  <i_lp_mmshare_version>  (187) 
48012

>  <i_f3d_flags>  (187) 
0

>  <s_epik_input>  (187) 
W0NIM11jMW5vYyhuMSlbQ0BIXShbQ0gyXTIpTihbQ0gzXSlbQ0BASF0oW0NAQEhdMjMpW0NIMl1bQ0gyXVtDSDJdTjNbQ0gzXQ==

>  <s_epik_cmdline>  (187) 
J2VwaWtfcHl0aG9uJywgJy1waHQnLCAnMi4wJywgJy1waCcsICc3LjAnLCAnLXRuJywgJzgnLCAnLW1hJywgJzIwMCcsICctaW1hZScsICc8aW5maWxlLm1hZT4nLCAnLW9tYWUnLCAnPG91dGZpbGUubWFlPic=

>  <r_lp_tautomer_probability>  (187) 
1

>  <r_epik_Ionization_Penalty>  (187) 
0.00733646

>  <r_epik_Ionization_Penalty_Charging>  (187) 
0.0072569

>  <r_epik_Ionization_Penalty_Neutral>  (187) 
7.9564e-05

>  <r_epik_State_Penalty>  (187) 
0.0250474

>  <r_epik_Charging_Adjusted_Penalty>  (187) 
0.0323043

>  <i_epik_Tot_Q>  (187) 
1

>  <i_epik_Tot_abs_Q>  (187) 
1

>  <s_lp_Force_Field>  (187) 
OPLS3e

>  <r_lp_Energy>  (187) 
38.0309

>  <b_lp_Chiralities_Consistent>  (187) 
1

>  <s_lp_Variant>  (187) 
55:0-1

>  <s_i_glide_gridfile>  (187) 
pfpi4k_grid

>  <i_i_glide_lignum>  (187) 
34

>  <i_i_glide_rotatable_bonds>  (187) 
1

>  <r_i_docking_score>  (187) 
-3.43603

>  <r_i_glide_ligand_efficiency>  (187) 
-0.202119

>  <r_i_glide_ligand_efficiency_sa>  (187) 
-0.519706

>  <r_i_glide_ligand_efficiency_ln>  (187) 
-0.896384

>  <r_i_glide_gscore>  (187) 
-3.43603

>  <r_i_glide_lipo>  (187) 
-0.55531

>  <r_i_glide_hbond>  (187) 
0

>  <r_i_glide_metal>  (187) 
-0

>  <r_i_glide_rewards>  (187) 
-1.79099

>  <r_i_glide_evdw>  (187) 
-20.1561

>  <r_i_glide_ecoul>  (187) 
-2.19116

>  <r_i_glide_erotb>  (187) 
0.306045

>  <r_i_glide_esite>  (187) 
-0.0592964

>  <r_i_glide_emodel>  (187) 
-27.0018

>  <r_i_glide_energy>  (187) 
-22.3472

>  <r_i_glide_einternal>  (187) 
1.19592

>  <r_i_glide_intrahb_reward>  (187) 
-0

>  <i_i_glide_confnum>  (187) 
4

>  <i_i_glide_posenum>  (187) 
3

>  <r_i_glide_eff_state_penalty>  (187) 
0

>  <ligand_id>  (187) 
55

>  <original_smiles>  (187) 
Cc1noc(C2CC3C(CCCN3C)N2C)n1

>  <smiles>  (187) 
[H]C([H])([H])c1noc(C2([H])N(C([H])([H])[H])C3([H])C([H])([H])C([H])([H])C([H])([H])[N+]([H])(C([H])([H])[H])C3([H])C2([H])[H])n1

$$$$
55:0:2
     RDKit          3D

 38 40  0  0  1  0  0  0  0  0999 V2000
    2.1645   -2.9151   -3.5199 C   0  0  0  0  0  0  0  0  0  0  0  0
    3.3490   -2.3684   -2.8140 C   0  0  0  0  0  0  0  0  0  0  0  0
    4.0394   -1.3463   -3.2996 N   0  0  0  0  0  0  0  0  0  0  0  0
    5.0082   -1.1171   -2.3167 O   0  0  0  0  0  0  0  0  0  0  0  0
    4.8072   -2.0673   -1.3672 C   0  0  0  0  0  0  0  0  0  0  0  0
    5.6282   -2.0000   -0.0983 C   0  0  2  0  0  0  0  0  0  0  0  0
    6.3303   -3.3215    0.2334 C   0  0  0  0  0  0  0  0  0  0  0  0
    5.2615   -4.1298    0.9802 C   0  0  2  0  0  0  0  0  0  0  0  0
    4.3336   -3.0445    1.5864 C   0  0  1  0  0  0  0  0  0  0  0  0
    4.3343   -3.0689    3.1273 C   0  0  0  0  0  0  0  0  0  0  0  0
    3.9912   -4.4734    3.6454 C   0  0  0  0  0  0  0  0  0  0  0  0
    4.7229   -5.5961    2.8813 C   0  0  0  0  0  0  0  0  0  0  0  0
    5.8017   -5.0919    1.9895 N   0  0  1  0  0  0  0  0  0  0  0  0
    6.5570   -6.2139    1.3856 C   0  0  0  0  0  0  0  0  0  0  0  0
    4.8727   -1.7645    1.1313 N   0  0  0  0  0  0  0  0  0  0  0  0
    3.8551   -0.7203    1.0138 C   0  0  0  0  0  0  0  0  0  0  0  0
    3.7927   -2.8851   -1.6368 N   0  0  0  0  0  0  0  0  0  0  0  0
    1.8325   -2.2423   -4.3126 H   0  0  0  0  0  0  0  0  0  0  0  0
    1.3468   -3.0598   -2.8106 H   0  0  0  0  0  0  0  0  0  0  0  0
    2.4235   -3.8701   -3.9728 H   0  0  0  0  0  0  0  0  0  0  0  0
    6.3613   -1.1990   -0.2060 H   0  0  0  0  0  0  0  0  0  0  0  0
    6.7178   -3.8331   -0.6468 H   0  0  0  0  0  0  0  0  0  0  0  0
    7.1746   -3.1143    0.8936 H   0  0  0  0  0  0  0  0  0  0  0  0
    4.6796   -4.6952    0.2486 H   0  0  0  0  0  0  0  0  0  0  0  0
    3.3246   -3.1935    1.2012 H   0  0  0  0  0  0  0  0  0  0  0  0
    5.3190   -2.7751    3.5106 H   0  0  0  0  0  0  0  0  0  0  0  0
    3.6263   -2.3434    3.5292 H   0  0  0  0  0  0  0  0  0  0  0  0
    4.2193   -4.5341    4.7114 H   0  0  0  0  0  0  0  0  0  0  0  0
    2.9162   -4.6410    3.5578 H   0  0  0  0  0  0  0  0  0  0  0  0
    5.1266   -6.3083    3.6037 H   0  0  0  0  0  0  0  0  0  0  0  0
    3.9964   -6.1510    2.2820 H   0  0  0  0  0  0  0  0  0  0  0  0
    5.9106   -6.8101    0.7377 H   0  0  0  0  0  0  0  0  0  0  0  0
    6.9458   -6.8766    2.1629 H   0  0  0  0  0  0  0  0  0  0  0  0
    7.4079   -5.8594    0.8013 H   0  0  0  0  0  0  0  0  0  0  0  0
    3.3972   -0.5170    1.9811 H   0  0  0  0  0  0  0  0  0  0  0  0
    3.0557   -1.0217    0.3330 H   0  0  0  0  0  0  0  0  0  0  0  0
    4.2830    0.2089    0.6341 H   0  0  0  0  0  0  0  0  0  0  0  0
    6.4430   -4.5803    2.5859 H   0  0  0  0  0  0  0  0  0  0  0  0
  1  2  1  0
  1 18  1  0
  1 19  1  0
  1 20  1  0
  2 17  1  0
  2  3  2  0
  3  4  1  0
  4  5  1  0
  5  6  1  0
  5 17  2  0
  6 15  1  0
  6  7  1  0
  6 21  1  6
  7  8  1  0
  7 22  1  0
  7 23  1  0
  8 13  1  0
  8  9  1  0
  8 24  1  6
  9 10  1  0
  9 15  1  0
  9 25  1  6
 10 11  1  0
 10 26  1  0
 10 27  1  0
 11 12  1  0
 11 28  1  0
 11 29  1  0
 12 13  1  0
 12 30  1  0
 12 31  1  0
 13 14  1  0
 13 38  1  1
 14 32  1  0
 14 33  1  0
 14 34  1  0
 15 16  1  0
 16 35  1  0
 16 36  1  0
 16 37  1  0
M  CHG  1  13   1
M  END
>  <i_m_ct_stereo_status>  (188) 
1

>  <s_m_source_file>  (188) 
/var/tmp/pbs.5076255.sched01/tmpr0mrskr5/46emy42_dx.sdf

>  <i_m_source_file_index>  (188) 
34

>  <i_lp_mmshare_version>  (188) 
48012

>  <i_f3d_flags>  (188) 
0

>  <s_epik_input>  (188) 
W0NIM11jMW5vYyhuMSlbQ0BIXShbQ0gyXTIpTihbQ0gzXSlbQ0BASF0oW0NAQEhdMjMpW0NIMl1bQ0gyXVtDSDJdTjNbQ0gzXQ==

>  <s_epik_cmdline>  (188) 
J2VwaWtfcHl0aG9uJywgJy1waHQnLCAnMi4wJywgJy1waCcsICc3LjAnLCAnLXRuJywgJzgnLCAnLW1hJywgJzIwMCcsICctaW1hZScsICc8aW5maWxlLm1hZT4nLCAnLW9tYWUnLCAnPG91dGZpbGUubWFlPic=

>  <r_lp_tautomer_probability>  (188) 
1

>  <r_epik_Ionization_Penalty>  (188) 
0.00733646

>  <r_epik_Ionization_Penalty_Charging>  (188) 
0.0072569

>  <r_epik_Ionization_Penalty_Neutral>  (188) 
7.9564e-05

>  <r_epik_State_Penalty>  (188) 
0.0250474

>  <r_epik_Charging_Adjusted_Penalty>  (188) 
0.0323043

>  <i_epik_Tot_Q>  (188) 
1

>  <i_epik_Tot_abs_Q>  (188) 
1

>  <s_lp_Force_Field>  (188) 
OPLS3e

>  <r_lp_Energy>  (188) 
38.0309

>  <b_lp_Chiralities_Consistent>  (188) 
1

>  <s_lp_Variant>  (188) 
55:0-1

>  <s_i_glide_gridfile>  (188) 
pfpi4k_grid

>  <i_i_glide_lignum>  (188) 
34

>  <i_i_glide_rotatable_bonds>  (188) 
1

>  <r_i_docking_score>  (188) 
-3.34075

>  <r_i_glide_ligand_efficiency>  (188) 
-0.196515

>  <r_i_glide_ligand_efficiency_sa>  (188) 
-0.505294

>  <r_i_glide_ligand_efficiency_ln>  (188) 
-0.871526

>  <r_i_glide_gscore>  (188) 
-3.34075

>  <r_i_glide_lipo>  (188) 
-0.498841

>  <r_i_glide_hbond>  (188) 
0

>  <r_i_glide_metal>  (188) 
-0

>  <r_i_glide_rewards>  (188) 
-1.79099

>  <r_i_glide_evdw>  (188) 
-20.2038

>  <r_i_glide_ecoul>  (188) 
-1.99465

>  <r_i_glide_erotb>  (188) 
0.306045

>  <r_i_glide_esite>  (188) 
-0.0475717

>  <r_i_glide_emodel>  (188) 
-27.034

>  <r_i_glide_energy>  (188) 
-22.1985

>  <r_i_glide_einternal>  (188) 
0.855806

>  <r_i_glide_intrahb_reward>  (188) 
-0

>  <i_i_glide_confnum>  (188) 
2

>  <i_i_glide_posenum>  (188) 
9

>  <r_i_glide_eff_state_penalty>  (188) 
0

>  <ligand_id>  (188) 
55

>  <original_smiles>  (188) 
Cc1noc(C2CC3C(CCCN3C)N2C)n1

>  <smiles>  (188) 
[H]C([H])([H])c1noc(C2([H])N(C([H])([H])[H])C3([H])C([H])([H])C([H])([H])C([H])([H])[N+]([H])(C([H])([H])[H])C3([H])C2([H])[H])n1

$$$$
55:1:0
     RDKit          3D

 38 40  0  0  1  0  0  0  0  0999 V2000
    2.8123    0.8513   -5.2972 C   0  0  0  0  0  0  0  0  0  0  0  0
    3.3476   -0.1887   -4.3610 C   0  0  0  0  0  0  0  0  0  0  0  0
    4.2077   -1.1023   -4.7584 N   0  0  0  0  0  0  0  0  0  0  0  0
    4.3919   -1.9253   -3.6391 O   0  0  0  0  0  0  0  0  0  0  0  0
    3.6697   -1.3465   -2.6509 C   0  0  0  0  0  0  0  0  0  0  0  0
    3.7628   -1.8627   -1.2389 C   0  0  2  0  0  0  0  0  0  0  0  0
    5.1668   -2.2549   -0.7696 C   0  0  0  0  0  0  0  0  0  0  0  0
    4.9078   -3.3467    0.2749 C   0  0  2  0  0  0  0  0  0  0  0  0
    3.7433   -4.1060   -0.3966 C   0  0  1  0  0  0  0  0  0  0  0  0
    3.0035   -5.0709    0.5478 C   0  0  0  0  0  0  0  0  0  0  0  0
    2.7004   -4.4116    1.8973 C   0  0  0  0  0  0  0  0  0  0  0  0
    3.9572   -3.7614    2.4850 C   0  0  0  0  0  0  0  0  0  0  0  0
    4.4949   -2.7593    1.5605 N   0  0  0  0  0  0  0  0  0  0  0  0
    5.6226   -2.1133    2.2241 C   0  0  0  0  0  0  0  0  0  0  0  0
    2.8924   -3.0625   -1.0377 N   0  0  2  0  0  0  0  0  0  0  0  0
    2.0413   -3.5344   -2.1655 C   0  0  0  0  0  0  0  0  0  0  0  0
    3.0068   -0.2769   -3.0716 N   0  0  0  0  0  0  0  0  0  0  0  0
    3.3209    0.8253   -6.2605 H   0  0  0  0  0  0  0  0  0  0  0  0
    2.9265    1.8490   -4.8668 H   0  0  0  0  0  0  0  0  0  0  0  0
    1.7584    0.6621   -5.5004 H   0  0  0  0  0  0  0  0  0  0  0  0
    3.3775   -1.0897   -0.5823 H   0  0  0  0  0  0  0  0  0  0  0  0
    5.6963   -2.7263   -1.5946 H   0  0  0  0  0  0  0  0  0  0  0  0
    5.7666   -1.4092   -0.4376 H   0  0  0  0  0  0  0  0  0  0  0  0
    5.7726   -4.0031    0.4160 H   0  0  0  0  0  0  0  0  0  0  0  0
    4.1810   -4.6967   -1.2010 H   0  0  0  0  0  0  0  0  0  0  0  0
    2.1045   -5.5032    0.0992 H   0  0  0  0  0  0  0  0  0  0  0  0
    3.6615   -5.9156    0.7300 H   0  0  0  0  0  0  0  0  0  0  0  0
    1.9209   -3.6598    1.7757 H   0  0  0  0  0  0  0  0  0  0  0  0
    2.3178   -5.1590    2.6000 H   0  0  0  0  0  0  0  0  0  0  0  0
    3.6862   -3.2634    3.4177 H   0  0  0  0  0  0  0  0  0  0  0  0
    4.7075   -4.5150    2.7349 H   0  0  0  0  0  0  0  0  0  0  0  0
    5.2995   -1.6916    3.1734 H   0  0  0  0  0  0  0  0  0  0  0  0
    6.0436   -1.2923    1.6471 H   0  0  0  0  0  0  0  0  0  0  0  0
    6.4172   -2.8287    2.4289 H   0  0  0  0  0  0  0  0  0  0  0  0
    2.6414   -3.8516   -3.0175 H   0  0  0  0  0  0  0  0  0  0  0  0
    1.3631   -2.7544   -2.4920 H   0  0  0  0  0  0  0  0  0  0  0  0
    1.4323   -4.3739   -1.8505 H   0  0  0  0  0  0  0  0  0  0  0  0
    2.2489   -2.7391   -0.3285 H   0  0  0  0  0  0  0  0  0  0  0  0
  1  2  1  0
  1 18  1  0
  1 19  1  0
  1 20  1  0
  2 17  1  0
  2  3  2  0
  3  4  1  0
  4  5  1  0
  5  6  1  0
  5 17  2  0
  6 15  1  0
  6  7  1  0
  6 21  1  1
  7  8  1  0
  7 22  1  0
  7 23  1  0
  8 13  1  0
  8  9  1  0
  8 24  1  1
  9 10  1  0
  9 15  1  0
  9 25  1  6
 10 11  1  0
 10 26  1  0
 10 27  1  0
 11 12  1  0
 11 28  1  0
 11 29  1  0
 12 13  1  0
 12 30  1  0
 12 31  1  0
 13 14  1  0
 14 32  1  0
 14 33  1  0
 14 34  1  0
 15 16  1  0
 15 38  1  1
 16 35  1  0
 16 36  1  0
 16 37  1  0
M  CHG  1  15   1
M  END
>  <i_m_ct_stereo_status>  (189) 
1

>  <s_m_source_file>  (189) 
/var/tmp/pbs.5076255.sched01/tmpr0mrskr5/46emy42_dx.sdf

>  <i_m_source_file_index>  (189) 
35

>  <i_lp_mmshare_version>  (189) 
48012

>  <i_f3d_flags>  (189) 
0

>  <s_epik_input>  (189) 
W0NIM11jMW5vYyhuMSlbQ0BIXShbQ0gyXTIpTihbQ0gzXSlbQ0BASF0oW0NAQEhdMjMpW0NIMl1bQ0gyXVtDSDJdTjNbQ0gzXQ==

>  <s_epik_cmdline>  (189) 
J2VwaWtfcHl0aG9uJywgJy1waHQnLCAnMi4wJywgJy1waCcsICc3LjAnLCAnLXRuJywgJzgnLCAnLW1hJywgJzIwMCcsICctaW1hZScsICc8aW5maWxlLm1hZT4nLCAnLW9tYWUnLCAnPG91dGZpbGUubWFlPic=

>  <r_epik_Ionization_Penalty>  (189) 
0.156959

>  <r_epik_Ionization_Penalty_Charging>  (189) 
0.152251

>  <r_epik_Ionization_Penalty_Neutral>  (189) 
0.00470838

>  <r_epik_State_Penalty>  (189) 
2.02838

>  <r_epik_Charging_Adjusted_Penalty>  (189) 
2.18063

>  <i_epik_Tot_Q>  (189) 
1

>  <i_epik_Tot_abs_Q>  (189) 
1

>  <s_lp_Force_Field>  (189) 
OPLS3e

>  <r_lp_Energy>  (189) 
13.3935

>  <b_lp_Chiralities_Consistent>  (189) 
1

>  <s_lp_Variant>  (189) 
55:0-2

>  <s_i_glide_gridfile>  (189) 
pfpi4k_grid

>  <i_i_glide_lignum>  (189) 
35

>  <i_i_glide_rotatable_bonds>  (189) 
1

>  <r_i_docking_score>  (189) 
-4.11115

>  <r_i_glide_ligand_efficiency>  (189) 
-0.241833

>  <r_i_glide_ligand_efficiency_sa>  (189) 
-0.62182

>  <r_i_glide_ligand_efficiency_ln>  (189) 
-1.07251

>  <r_i_glide_gscore>  (189) 
-4.11115

>  <r_i_glide_lipo>  (189) 
-0.336927

>  <r_i_glide_hbond>  (189) 
-0.0159949

>  <r_i_glide_metal>  (189) 
-0

>  <r_i_glide_rewards>  (189) 
-2.14699

>  <r_i_glide_evdw>  (189) 
-16.6101

>  <r_i_glide_ecoul>  (189) 
-6.97739

>  <r_i_glide_erotb>  (189) 
0.306045

>  <r_i_glide_esite>  (189) 
-0.0401719

>  <r_i_glide_emodel>  (189) 
-28.7791

>  <r_i_glide_energy>  (189) 
-23.5875

>  <r_i_glide_einternal>  (189) 
1.41158

>  <r_i_glide_intrahb_reward>  (189) 
-0

>  <i_i_glide_confnum>  (189) 
3

>  <i_i_glide_posenum>  (189) 
9

>  <r_i_glide_eff_state_penalty>  (189) 
0

>  <ligand_id>  (189) 
55

>  <original_smiles>  (189) 
Cc1noc(C2CC3C(CCCN3C)N2C)n1

>  <smiles>  (189) 
[H]C([H])([H])c1noc(C2([H])C([H])([H])C3([H])N(C([H])([H])[H])C([H])([H])C([H])([H])C([H])([H])C3([H])[N+]2([H])C([H])([H])[H])n1

$$$$
55:1:1
     RDKit          3D

 38 40  0  0  1  0  0  0  0  0999 V2000
    2.5454    0.5387   -5.1430 C   0  0  0  0  0  0  0  0  0  0  0  0
    3.2508   -0.4158   -4.2502 C   0  0  0  0  0  0  0  0  0  0  0  0
    4.2127   -1.1734   -4.7203 N   0  0  0  0  0  0  0  0  0  0  0  0
    4.6664   -1.8502   -3.5776 O   0  0  0  0  0  0  0  0  0  0  0  0
    3.8497   -1.5231   -2.5594 C   0  0  0  0  0  0  0  0  0  0  0  0
    4.0224   -2.0567   -1.1461 C   0  0  2  0  0  0  0  0  0  0  0  0
    4.9865   -1.2364   -0.2847 C   0  0  0  0  0  0  0  0  0  0  0  0
    5.5137   -2.2480    0.7441 C   0  0  2  0  0  0  0  0  0  0  0  0
    5.6729   -3.4940   -0.1606 C   0  0  1  0  0  0  0  0  0  0  0  0
    5.8674   -4.8082    0.6189 C   0  0  0  0  0  0  0  0  0  0  0  0
    4.8568   -4.9339    1.7628 C   0  0  0  0  0  0  0  0  0  0  0  0
    4.8564   -3.6715    2.6300 C   0  0  0  0  0  0  0  0  0  0  0  0
    4.5350   -2.4863    1.8268 N   0  0  0  0  0  0  0  0  0  0  0  0
    4.4456   -1.3485    2.7391 C   0  0  0  0  0  0  0  0  0  0  0  0
    4.5087   -3.4798   -1.0857 N   0  0  2  0  0  0  0  0  0  0  0  0
    4.7397   -4.2621   -2.3301 C   0  0  0  0  0  0  0  0  0  0  0  0
    2.9802   -0.6061   -2.9377 N   0  0  0  0  0  0  0  0  0  0  0  0
    3.0216    0.5696   -6.1202 H   0  0  0  0  0  0  0  0  0  0  0  0
    2.5755    1.5378   -4.7258 H   0  0  0  0  0  0  0  0  0  0  0  0
    1.5179    0.2285   -5.2940 H   0  0  0  0  0  0  0  0  0  0  0  0
    3.0466   -2.0340   -0.6739 H   0  0  0  0  0  0  0  0  0  0  0  0
    5.8276   -0.9060   -0.8960 H   0  0  0  0  0  0  0  0  0  0  0  0
    4.5399   -0.3348    0.1387 H   0  0  0  0  0  0  0  0  0  0  0  0
    6.4822   -1.9578    1.1686 H   0  0  0  0  0  0  0  0  0  0  0  0
    6.5649   -3.3453   -0.7798 H   0  0  0  0  0  0  0  0  0  0  0  0
    5.8258   -5.6890   -0.0310 H   0  0  0  0  0  0  0  0  0  0  0  0
    6.8709   -4.8040    1.0482 H   0  0  0  0  0  0  0  0  0  0  0  0
    3.8610   -5.1178    1.3614 H   0  0  0  0  0  0  0  0  0  0  0  0
    5.1133   -5.7993    2.3797 H   0  0  0  0  0  0  0  0  0  0  0  0
    4.0948   -3.7878    3.4033 H   0  0  0  0  0  0  0  0  0  0  0  0
    5.8121   -3.5481    3.1443 H   0  0  0  0  0  0  0  0  0  0  0  0
    3.7030   -1.5532    3.5084 H   0  0  0  0  0  0  0  0  0  0  0  0
    4.1261   -0.4403    2.2338 H   0  0  0  0  0  0  0  0  0  0  0  0
    5.3940   -1.1501    3.2390 H   0  0  0  0  0  0  0  0  0  0  0  0
    5.5979   -3.9060   -2.9087 H   0  0  0  0  0  0  0  0  0  0  0  0
    3.8409   -4.2474   -2.9574 H   0  0  0  0  0  0  0  0  0  0  0  0
    5.0076   -5.3039   -2.0896 H   0  0  0  0  0  0  0  0  0  0  0  0
    3.7683   -3.9570   -0.5868 H   0  0  0  0  0  0  0  0  0  0  0  0
  1  2  1  0
  1 18  1  0
  1 19  1  0
  1 20  1  0
  2 17  1  0
  2  3  2  0
  3  4  1  0
  4  5  1  0
  5  6  1  0
  5 17  2  0
  6 15  1  0
  6  7  1  0
  6 21  1  1
  7  8  1  0
  7 22  1  0
  7 23  1  0
  8 13  1  0
  8  9  1  0
  8 24  1  1
  9 10  1  0
  9 15  1  0
  9 25  1  6
 10 11  1  0
 10 26  1  0
 10 27  1  0
 11 12  1  0
 11 28  1  0
 11 29  1  0
 12 13  1  0
 12 30  1  0
 12 31  1  0
 13 14  1  0
 14 32  1  0
 14 33  1  0
 14 34  1  0
 15 16  1  0
 15 38  1  1
 16 35  1  0
 16 36  1  0
 16 37  1  0
M  CHG  1  15   1
M  END
>  <i_m_ct_stereo_status>  (190) 
1

>  <s_m_source_file>  (190) 
/var/tmp/pbs.5076255.sched01/tmpr0mrskr5/46emy42_dx.sdf

>  <i_m_source_file_index>  (190) 
35

>  <i_lp_mmshare_version>  (190) 
48012

>  <i_f3d_flags>  (190) 
0

>  <s_epik_input>  (190) 
W0NIM11jMW5vYyhuMSlbQ0BIXShbQ0gyXTIpTihbQ0gzXSlbQ0BASF0oW0NAQEhdMjMpW0NIMl1bQ0gyXVtDSDJdTjNbQ0gzXQ==

>  <s_epik_cmdline>  (190) 
J2VwaWtfcHl0aG9uJywgJy1waHQnLCAnMi4wJywgJy1waCcsICc3LjAnLCAnLXRuJywgJzgnLCAnLW1hJywgJzIwMCcsICctaW1hZScsICc8aW5maWxlLm1hZT4nLCAnLW9tYWUnLCAnPG91dGZpbGUubWFlPic=

>  <r_epik_Ionization_Penalty>  (190) 
0.156959

>  <r_epik_Ionization_Penalty_Charging>  (190) 
0.152251

>  <r_epik_Ionization_Penalty_Neutral>  (190) 
0.00470838

>  <r_epik_State_Penalty>  (190) 
2.02838

>  <r_epik_Charging_Adjusted_Penalty>  (190) 
2.18063

>  <i_epik_Tot_Q>  (190) 
1

>  <i_epik_Tot_abs_Q>  (190) 
1

>  <s_lp_Force_Field>  (190) 
OPLS3e

>  <r_lp_Energy>  (190) 
13.3935

>  <b_lp_Chiralities_Consistent>  (190) 
1

>  <s_lp_Variant>  (190) 
55:0-2

>  <s_i_glide_gridfile>  (190) 
pfpi4k_grid

>  <i_i_glide_lignum>  (190) 
35

>  <i_i_glide_rotatable_bonds>  (190) 
1

>  <r_i_docking_score>  (190) 
-3.95919

>  <r_i_glide_ligand_efficiency>  (190) 
-0.232894

>  <r_i_glide_ligand_efficiency_sa>  (190) 
-0.598835

>  <r_i_glide_ligand_efficiency_ln>  (190) 
-1.03286

>  <r_i_glide_gscore>  (190) 
-3.95919

>  <r_i_glide_lipo>  (190) 
-0.309064

>  <r_i_glide_hbond>  (190) 
0

>  <r_i_glide_metal>  (190) 
-0

>  <r_i_glide_rewards>  (190) 
-2.21422

>  <r_i_glide_evdw>  (190) 
-15.6229

>  <r_i_glide_ecoul>  (190) 
-6.12547

>  <r_i_glide_erotb>  (190) 
0.306045

>  <r_i_glide_esite>  (190) 
-0.0419829

>  <r_i_glide_emodel>  (190) 
-25.8595

>  <r_i_glide_energy>  (190) 
-21.7484

>  <r_i_glide_einternal>  (190) 
1.87406

>  <r_i_glide_intrahb_reward>  (190) 
-0

>  <i_i_glide_confnum>  (190) 
3

>  <i_i_glide_posenum>  (190) 
27

>  <r_i_glide_eff_state_penalty>  (190) 
0

>  <ligand_id>  (190) 
55

>  <original_smiles>  (190) 
Cc1noc(C2CC3C(CCCN3C)N2C)n1

>  <smiles>  (190) 
[H]C([H])([H])c1noc(C2([H])C([H])([H])C3([H])N(C([H])([H])[H])C([H])([H])C([H])([H])C([H])([H])C3([H])[N+]2([H])C([H])([H])[H])n1

$$$$
55:1:2
     RDKit          3D

 38 40  0  0  1  0  0  0  0  0999 V2000
    2.6169   -6.0000    4.5522 C   0  0  0  0  0  0  0  0  0  0  0  0
    2.4440   -5.7276    3.0974 C   0  0  0  0  0  0  0  0  0  0  0  0
    1.5247   -6.3531    2.3755 N   0  0  0  0  0  0  0  0  0  0  0  0
    1.6869   -5.8021    1.0949 O   0  0  0  0  0  0  0  0  0  0  0  0
    2.6637   -4.8637    1.2009 C   0  0  0  0  0  0  0  0  0  0  0  0
    3.0436   -4.0922   -0.0449 C   0  0  2  0  0  0  0  0  0  0  0  0
    4.4377   -4.4523   -0.5746 C   0  0  0  0  0  0  0  0  0  0  0  0
    4.8715   -3.1812   -1.3144 C   0  0  2  0  0  0  0  0  0  0  0  0
    4.3496   -2.1150   -0.3242 C   0  0  1  0  0  0  0  0  0  0  0  0
    4.3380   -0.6945   -0.9085 C   0  0  0  0  0  0  0  0  0  0  0  0
    3.7130   -0.6645   -2.3110 C   0  0  0  0  0  0  0  0  0  0  0  0
    4.3535   -1.7264   -3.2079 C   0  0  0  0  0  0  0  0  0  0  0  0
    4.2122   -3.0606   -2.6303 N   0  0  0  0  0  0  0  0  0  0  0  0
    4.7695   -4.0009   -3.5981 C   0  0  0  0  0  0  0  0  0  0  0  0
    3.0311   -2.6013    0.1660 N   0  0  2  0  0  0  0  0  0  0  0  0
    2.6193   -2.0287    1.4756 C   0  0  0  0  0  0  0  0  0  0  0  0
    3.1910   -4.8048    2.4238 N   0  0  0  0  0  0  0  0  0  0  0  0
    1.8361   -6.6530    4.9431 H   0  0  0  0  0  0  0  0  0  0  0  0
    2.5929   -5.0645    5.1112 H   0  0  0  0  0  0  0  0  0  0  0  0
    3.5700   -6.4940    4.7329 H   0  0  0  0  0  0  0  0  0  0  0  0
    2.3100   -4.3047   -0.8255 H   0  0  0  0  0  0  0  0  0  0  0  0
    5.1061   -4.5948    0.2758 H   0  0  0  0  0  0  0  0  0  0  0  0
    4.4764   -5.3848   -1.1284 H   0  0  0  0  0  0  0  0  0  0  0  0
    5.9570   -3.1195   -1.4301 H   0  0  0  0  0  0  0  0  0  0  0  0
    5.0254   -2.0960    0.5311 H   0  0  0  0  0  0  0  0  0  0  0  0
    3.8643   -0.0030   -0.2125 H   0  0  0  0  0  0  0  0  0  0  0  0
    5.3703   -0.3526   -0.9902 H   0  0  0  0  0  0  0  0  0  0  0  0
    2.6363   -0.8374   -2.2565 H   0  0  0  0  0  0  0  0  0  0  0  0
    3.8534    0.3199   -2.7667 H   0  0  0  0  0  0  0  0  0  0  0  0
    3.8699   -1.6975   -4.1873 H   0  0  0  0  0  0  0  0  0  0  0  0
    5.4092   -1.5105   -3.3510 H   0  0  0  0  0  0  0  0  0  0  0  0
    4.2518   -3.8970   -4.5517 H   0  0  0  0  0  0  0  0  0  0  0  0
    4.6420   -5.0346   -3.2872 H   0  0  0  0  0  0  0  0  0  0  0  0
    5.8332   -3.8305   -3.7705 H   0  0  0  0  0  0  0  0  0  0  0  0
    3.3127   -2.2787    2.2796 H   0  0  0  0  0  0  0  0  0  0  0  0
    1.6143   -2.3595    1.7436 H   0  0  0  0  0  0  0  0  0  0  0  0
    2.5901   -0.9404    1.4202 H   0  0  0  0  0  0  0  0  0  0  0  0
    2.3564   -2.2328   -0.4990 H   0  0  0  0  0  0  0  0  0  0  0  0
  1  2  1  0
  1 18  1  0
  1 19  1  0
  1 20  1  0
  2 17  1  0
  2  3  2  0
  3  4  1  0
  4  5  1  0
  5  6  1  0
  5 17  2  0
  6 15  1  0
  6  7  1  0
  6 21  1  6
  7  8  1  0
  7 22  1  0
  7 23  1  0
  8 13  1  0
  8  9  1  0
  8 24  1  6
  9 10  1  0
  9 15  1  0
  9 25  1  1
 10 11  1  0
 10 26  1  0
 10 27  1  0
 11 12  1  0
 11 28  1  0
 11 29  1  0
 12 13  1  0
 12 30  1  0
 12 31  1  0
 13 14  1  0
 14 32  1  0
 14 33  1  0
 14 34  1  0
 15 16  1  0
 15 38  1  6
 16 35  1  0
 16 36  1  0
 16 37  1  0
M  CHG  1  15   1
M  END
>  <i_m_ct_stereo_status>  (191) 
1

>  <s_m_source_file>  (191) 
/var/tmp/pbs.5076255.sched01/tmpr0mrskr5/46emy42_dx.sdf

>  <i_m_source_file_index>  (191) 
35

>  <i_lp_mmshare_version>  (191) 
48012

>  <i_f3d_flags>  (191) 
0

>  <s_epik_input>  (191) 
W0NIM11jMW5vYyhuMSlbQ0BIXShbQ0gyXTIpTihbQ0gzXSlbQ0BASF0oW0NAQEhdMjMpW0NIMl1bQ0gyXVtDSDJdTjNbQ0gzXQ==

>  <s_epik_cmdline>  (191) 
J2VwaWtfcHl0aG9uJywgJy1waHQnLCAnMi4wJywgJy1waCcsICc3LjAnLCAnLXRuJywgJzgnLCAnLW1hJywgJzIwMCcsICctaW1hZScsICc8aW5maWxlLm1hZT4nLCAnLW9tYWUnLCAnPG91dGZpbGUubWFlPic=

>  <r_epik_Ionization_Penalty>  (191) 
0.156959

>  <r_epik_Ionization_Penalty_Charging>  (191) 
0.152251

>  <r_epik_Ionization_Penalty_Neutral>  (191) 
0.00470838

>  <r_epik_State_Penalty>  (191) 
2.02838

>  <r_epik_Charging_Adjusted_Penalty>  (191) 
2.18063

>  <i_epik_Tot_Q>  (191) 
1

>  <i_epik_Tot_abs_Q>  (191) 
1

>  <s_lp_Force_Field>  (191) 
OPLS3e

>  <r_lp_Energy>  (191) 
13.3935

>  <b_lp_Chiralities_Consistent>  (191) 
1

>  <s_lp_Variant>  (191) 
55:0-2

>  <s_i_glide_gridfile>  (191) 
pfpi4k_grid

>  <i_i_glide_lignum>  (191) 
35

>  <i_i_glide_rotatable_bonds>  (191) 
1

>  <r_i_docking_score>  (191) 
-3.45852

>  <r_i_glide_ligand_efficiency>  (191) 
-0.203442

>  <r_i_glide_ligand_efficiency_sa>  (191) 
-0.523107

>  <r_i_glide_ligand_efficiency_ln>  (191) 
-0.90225

>  <r_i_glide_gscore>  (191) 
-3.45852

>  <r_i_glide_lipo>  (191) 
-0.113115

>  <r_i_glide_hbond>  (191) 
-0.173035

>  <r_i_glide_metal>  (191) 
-0

>  <r_i_glide_rewards>  (191) 
-1.79099

>  <r_i_glide_evdw>  (191) 
-15.8439

>  <r_i_glide_ecoul>  (191) 
-4.89725

>  <r_i_glide_erotb>  (191) 
0.306045

>  <r_i_glide_esite>  (191) 
-0.160641

>  <r_i_glide_emodel>  (191) 
-25.6939

>  <r_i_glide_energy>  (191) 
-20.7411

>  <r_i_glide_einternal>  (191) 
0.297879

>  <r_i_glide_intrahb_reward>  (191) 
-0

>  <i_i_glide_confnum>  (191) 
2

>  <i_i_glide_posenum>  (191) 
25

>  <r_i_glide_eff_state_penalty>  (191) 
0

>  <ligand_id>  (191) 
55

>  <original_smiles>  (191) 
Cc1noc(C2CC3C(CCCN3C)N2C)n1

>  <smiles>  (191) 
[H]C([H])([H])c1noc(C2([H])C([H])([H])C3([H])N(C([H])([H])[H])C([H])([H])C([H])([H])C([H])([H])C3([H])[N+]2([H])C([H])([H])[H])n1

$$$$
57:0:0
     RDKit          3D

 61 65  0  0  1  0  0  0  0  0999 V2000
    4.3545   -2.6046    1.6573 C   0  0  0  0  0  0  0  0  0  0  0  0
    3.4899   -2.7664    2.9066 C   0  0  0  0  0  0  0  0  0  0  0  0
    2.4921   -2.1418    3.5220 C   0  0  0  0  0  0  0  0  0  0  0  0
    1.7655   -0.8540    3.2422 C   0  0  0  0  0  0  0  0  0  0  0  0
    2.1858    0.0724    2.2641 C   0  0  0  0  0  0  0  0  0  0  0  0
    1.4092    1.2358    1.9991 C   0  0  0  0  0  0  0  0  0  0  0  0
    0.1864    1.4574    2.6877 C   0  0  0  0  0  0  0  0  0  0  0  0
   -0.5597    2.5512    2.4812 O   0  0  0  0  0  0  0  0  0  0  0  0
   -0.2101    0.5546    3.6645 C   0  0  0  0  0  0  0  0  0  0  0  0
    0.5717   -0.5801    3.9553 C   0  0  0  0  0  0  0  0  0  0  0  0
    2.6320   -3.0552    4.7751 C   0  0  1  0  0  0  0  0  0  0  0  0
    3.3819   -2.3522    5.9066 C   0  0  0  0  0  0  0  0  0  0  0  0
    1.3211   -3.6813    5.3596 C   0  0  0  0  0  0  0  0  0  0  0  0
    0.7857   -4.9128    4.6117 C   0  0  0  0  0  0  0  0  0  0  0  0
    1.9459   -5.8622    4.2668 C   0  0  2  0  0  0  0  0  0  0  0  0
    2.8512   -5.1971    3.2457 C   0  0  2  0  0  0  0  0  0  0  0  0
    3.7505   -6.3338    2.7896 C   0  0  0  0  0  0  0  0  0  0  0  0
    2.7939   -7.5559    2.6822 C   0  0  1  0  0  0  0  0  0  0  0  0
    3.4853   -8.9721    2.7016 C   0  0  1  0  0  0  0  0  0  0  0  0
    2.4941  -10.0087    2.1223 C   0  0  0  0  0  0  0  0  0  0  0  0
    4.7598   -8.9726    1.7914 C   0  0  0  0  0  0  0  0  0  0  0  0
    5.4031  -10.2315    1.5764 O   0  0  0  0  0  0  0  0  0  0  0  0
    3.8078   -9.3518    4.1697 C   0  0  0  0  0  0  0  0  0  0  0  0
    4.8995   -9.8228    4.4656 O   0  0  0  0  0  0  0  0  0  0  0  0
    2.7588   -9.1596    5.1718 C   0  0  0  0  0  0  0  0  0  0  0  0
    1.7935   -8.2452    4.9831 C   0  0  0  0  0  0  0  0  0  0  0  0
    1.6768   -7.3100    3.7733 C   0  0  1  0  0  0  0  0  0  0  0  0
    0.2615   -7.4466    3.1730 C   0  0  0  0  0  0  0  0  0  0  0  0
    3.5241   -3.9563    3.8552 C   0  0  1  0  0  0  0  0  0  0  0  0
    4.2751   -3.4900    1.0170 H   0  0  0  0  0  0  0  0  0  0  0  0
    5.4098   -2.5041    1.9414 H   0  0  0  0  0  0  0  0  0  0  0  0
    4.0960   -1.7417    1.0453 H   0  0  0  0  0  0  0  0  0  0  0  0
    3.0794   -0.0509    1.6805 H   0  0  0  0  0  0  0  0  0  0  0  0
    1.7297    1.9723    1.2794 H   0  0  0  0  0  0  0  0  0  0  0  0
   -0.2238    3.1868    1.8249 H   0  0  0  0  0  0  0  0  0  0  0  0
   -1.1321    0.7171    4.2052 H   0  0  0  0  0  0  0  0  0  0  0  0
    0.1366   -1.1961    4.7284 H   0  0  0  0  0  0  0  0  0  0  0  0
    3.6993   -3.0690    6.6623 H   0  0  0  0  0  0  0  0  0  0  0  0
    2.7683   -1.6024    6.4047 H   0  0  0  0  0  0  0  0  0  0  0  0
    4.2948   -1.8706    5.5620 H   0  0  0  0  0  0  0  0  0  0  0  0
    1.5198   -4.0154    6.3806 H   0  0  0  0  0  0  0  0  0  0  0  0
    0.4741   -3.0007    5.4790 H   0  0  0  0  0  0  0  0  0  0  0  0
    0.0325   -5.4033    5.2364 H   0  0  0  0  0  0  0  0  0  0  0  0
    0.2932   -4.5862    3.6922 H   0  0  0  0  0  0  0  0  0  0  0  0
    2.5373   -5.9568    5.1796 H   0  0  0  0  0  0  0  0  0  0  0  0
    2.2312   -4.9120    2.3966 H   0  0  0  0  0  0  0  0  0  0  0  0
    4.2460   -6.0981    1.8434 H   0  0  0  0  0  0  0  0  0  0  0  0
    4.5093   -6.5058    3.5512 H   0  0  0  0  0  0  0  0  0  0  0  0
    2.3003   -7.4339    1.7073 H   0  0  0  0  0  0  0  0  0  0  0  0
    2.1823   -9.7577    1.0991 H   0  0  0  0  0  0  0  0  0  0  0  0
    1.6012  -10.1129    2.7394 H   0  0  0  0  0  0  0  0  0  0  0  0
    2.9421  -11.0015    2.0995 H   0  0  0  0  0  0  0  0  0  0  0  0
    4.5085   -8.5411    0.8166 H   0  0  0  0  0  0  0  0  0  0  0  0
    5.5163   -8.3181    2.2248 H   0  0  0  0  0  0  0  0  0  0  0  0
    4.7936  -10.8695    1.1844 H   0  0  0  0  0  0  0  0  0  0  0  0
    2.7825   -9.7976    6.0442 H   0  0  0  0  0  0  0  0  0  0  0  0
    1.0194   -8.1225    5.7255 H   0  0  0  0  0  0  0  0  0  0  0  0
    0.0839   -6.7279    2.3722 H   0  0  0  0  0  0  0  0  0  0  0  0
   -0.5042   -7.2931    3.9315 H   0  0  0  0  0  0  0  0  0  0  0  0
    0.0995   -8.4417    2.7702 H   0  0  0  0  0  0  0  0  0  0  0  0
    4.4821   -4.1712    4.3523 H   0  0  0  0  0  0  0  0  0  0  0  0
  1  2  1  0
  1 30  1  0
  1 31  1  0
  1 32  1  0
  2 29  1  0
  2  3  2  0
  3  4  1  0
  3 11  1  0
  4 10  1  0
  4  5  2  0
  5  6  1  0
  5 33  1  0
  6  7  2  0
  6 34  1  0
  7  8  1  0
  7  9  1  0
  8 35  1  0
  9 10  2  0
  9 36  1  0
 10 37  1  0
 11 29  1  0
 11 12  1  1
 11 13  1  0
 12 38  1  0
 12 39  1  0
 12 40  1  0
 13 14  1  0
 13 41  1  0
 13 42  1  0
 14 15  1  0
 14 43  1  0
 14 44  1  0
 15 27  1  0
 15 16  1  0
 15 45  1  1
 16 17  1  0
 16 29  1  0
 16 46  1  6
 17 18  1  0
 17 47  1  0
 17 48  1  0
 18 27  1  0
 18 19  1  0
 18 49  1  6
 19 20  1  6
 19 21  1  0
 19 23  1  0
 20 50  1  0
 20 51  1  0
 20 52  1  0
 21 22  1  0
 21 53  1  0
 21 54  1  0
 22 55  1  0
 23 24  2  0
 23 25  1  0
 25 26  2  0
 25 56  1  0
 26 27  1  0
 26 57  1  0
 27 28  1  6
 28 58  1  0
 28 59  1  0
 28 60  1  0
 29 61  1  1
M  END
>  <i_m_ct_stereo_status>  (192) 
1

>  <s_m_source_file>  (192) 
/var/tmp/pbs.5076255.sched01/tmpr0mrskr5/46emy42_dx.sdf

>  <i_m_source_file_index>  (192) 
37

>  <i_lp_mmshare_version>  (192) 
48012

>  <i_f3d_flags>  (192) 
0

>  <s_epik_input>  (192) 
W2NIXTFbY0hdYyhbT0hdKVtjSF1bY0hdYzFDMj1DKFtDSDNdKVtDQEBIXShbQ0BAXTIzW0NIM10pW0NAQEhdNFtDQEBIXShbQ0gyXVtDSDJdMylbQ0BAXTUoW0NIM10pW0NAQEhdKFtDSDJdNClbQ0BAXShbQ0gzXSkoW0NIMl1bT0hdKUMoPU8pW0NIXT1bQ0hdNQ==

>  <s_epik_cmdline>  (192) 
J2VwaWtfcHl0aG9uJywgJy1waHQnLCAnMi4wJywgJy1waCcsICc3LjAnLCAnLXRuJywgJzgnLCAnLW1hJywgJzIwMCcsICctaW1hZScsICc8aW5maWxlLm1hZT4nLCAnLW9tYWUnLCAnPG91dGZpbGUubWFlPic=

>  <r_epik_Ionization_Penalty>  (192) 
0.000340739

>  <r_epik_Ionization_Penalty_Charging>  (192) 
0

>  <r_epik_Ionization_Penalty_Neutral>  (192) 
0.000340739

>  <r_epik_State_Penalty>  (192) 
0.000206558

>  <r_epik_Charging_Adjusted_Penalty>  (192) 
0.000206558

>  <i_epik_Tot_Q>  (192) 
0

>  <i_epik_Tot_abs_Q>  (192) 
0

>  <s_lp_Force_Field>  (192) 
OPLS3e

>  <r_lp_Energy>  (192) 
41.2808

>  <b_lp_Chiralities_Consistent>  (192) 
1

>  <s_lp_Variant>  (192) 
57:0-1

>  <s_i_glide_gridfile>  (192) 
pfpi4k_grid

>  <i_i_glide_lignum>  (192) 
37

>  <i_i_glide_rotatable_bonds>  (192) 
4

>  <r_i_docking_score>  (192) 
-2.9197

>  <r_i_glide_ligand_efficiency>  (192) 
-0.100679

>  <r_i_glide_ligand_efficiency_sa>  (192) 
-0.309319

>  <r_i_glide_ligand_efficiency_ln>  (192) 
-0.668537

>  <r_i_glide_gscore>  (192) 
-2.9197

>  <r_i_glide_lipo>  (192) 
-0.0127423

>  <r_i_glide_hbond>  (192) 
-0.152

>  <r_i_glide_metal>  (192) 
-0

>  <r_i_glide_rewards>  (192) 
-0.732747

>  <r_i_glide_evdw>  (192) 
-18.33

>  <r_i_glide_ecoul>  (192) 
-9.04219

>  <r_i_glide_erotb>  (192) 
0.253448

>  <r_i_glide_esite>  (192) 
-0.00283099

>  <r_i_glide_emodel>  (192) 
-32.0241

>  <r_i_glide_energy>  (192) 
-27.3722

>  <r_i_glide_einternal>  (192) 
0.686512

>  <r_i_glide_intrahb_reward>  (192) 
-0

>  <i_i_glide_confnum>  (192) 
2

>  <i_i_glide_posenum>  (192) 
36

>  <r_i_glide_eff_state_penalty>  (192) 
0

>  <ligand_id>  (192) 
57

>  <original_smiles>  (192) 
CC1=C(c2ccc(O)cc2)C2(C)CCC3C(CC4C(C)(CO)C(=O)C=CC34C)C12

>  <smiles>  (192) 
[H]Oc1c([H])c([H])c(C2=C(C([H])([H])[H])C3([H])C4([H])C([H])([H])C5([H])C(C([H])([H])[H])(C([H])([H])O[H])C(=O)C([H])=C([H])C5(C([H])([H])[H])C4([H])C([H])([H])C([H])([H])C23C([H])([H])[H])c([H])c1[H]

$$$$
57:0:1
     RDKit          3D

 61 65  0  0  1  0  0  0  0  0999 V2000
    4.3285   -3.1345    2.5462 C   0  0  0  0  0  0  0  0  0  0  0  0
    3.2660   -3.2883    3.6185 C   0  0  0  0  0  0  0  0  0  0  0  0
    2.1855   -2.6214    4.0698 C   0  0  0  0  0  0  0  0  0  0  0  0
    1.4752   -1.3752    3.6462 C   0  0  0  0  0  0  0  0  0  0  0  0
    0.3725   -0.9104    4.4008 C   0  0  0  0  0  0  0  0  0  0  0  0
   -0.3641    0.2107    3.9817 C   0  0  0  0  0  0  0  0  0  0  0  0
    0.0289    0.9361    2.8397 C   0  0  0  0  0  0  0  0  0  0  0  0
   -0.6651    2.0564    2.4734 O   0  0  0  0  0  0  0  0  0  0  0  0
    1.1416    0.5111    2.1050 C   0  0  0  0  0  0  0  0  0  0  0  0
    1.8575   -0.6377    2.5008 C   0  0  0  0  0  0  0  0  0  0  0  0
    2.0323   -3.5793    5.2739 C   0  0  1  0  0  0  0  0  0  0  0  0
    2.5660   -2.9483    6.5651 C   0  0  0  0  0  0  0  0  0  0  0  0
    0.6054   -4.1594    5.5429 C   0  0  0  0  0  0  0  0  0  0  0  0
    0.2207   -5.4074    4.7276 C   0  0  0  0  0  0  0  0  0  0  0  0
    1.4065   -6.3751    4.6082 C   0  0  2  0  0  0  0  0  0  0  0  0
    2.4934   -5.7065    3.7807 C   0  0  2  0  0  0  0  0  0  0  0  0
    3.4422   -6.8538    3.4673 C   0  0  0  0  0  0  0  0  0  0  0  0
    2.5029   -8.0462    3.1565 C   0  0  1  0  0  0  0  0  0  0  0  0
    3.1584   -9.4731    3.2549 C   0  0  1  0  0  0  0  0  0  0  0  0
    2.2781  -10.4918    2.4852 C   0  0  0  0  0  0  0  0  0  0  0  0
    4.5824   -9.4636    2.6125 C   0  0  0  0  0  0  0  0  0  0  0  0
    5.1690  -10.7469    2.4626 O   0  0  0  0  0  0  0  0  0  0  0  0
    3.2108   -9.9072    4.7415 C   0  0  0  0  0  0  0  0  0  0  0  0
    4.2261  -10.4121    5.2212 O   0  0  0  0  0  0  0  0  0  0  0  0
    1.9995   -9.7199    5.5397 C   0  0  0  0  0  0  0  0  0  0  0  0
    1.0939   -8.7854    5.2043 C   0  0  0  0  0  0  0  0  0  0  0  0
    1.2118   -7.8070    4.0289 C   0  0  1  0  0  0  0  0  0  0  0  0
   -0.0687   -7.9134    3.1705 C   0  0  0  0  0  0  0  0  0  0  0  0
    3.0668   -4.4857    4.5226 C   0  0  1  0  0  0  0  0  0  0  0  0
    4.3365   -4.0034    1.8869 H   0  0  0  0  0  0  0  0  0  0  0  0
    5.3026   -3.0667    3.0323 H   0  0  0  0  0  0  0  0  0  0  0  0
    4.2264   -2.2416    1.9309 H   0  0  0  0  0  0  0  0  0  0  0  0
    0.0604   -1.3923    5.3087 H   0  0  0  0  0  0  0  0  0  0  0  0
   -1.2298    0.5285    4.5437 H   0  0  0  0  0  0  0  0  0  0  0  0
   -0.2913    2.5494    1.7464 H   0  0  0  0  0  0  0  0  0  0  0  0
    1.4527    1.0556    1.2318 H   0  0  0  0  0  0  0  0  0  0  0  0
    2.6898   -0.9224    1.8831 H   0  0  0  0  0  0  0  0  0  0  0  0
    2.7233   -3.6987    7.3432 H   0  0  0  0  0  0  0  0  0  0  0  0
    1.8908   -2.1936    6.9606 H   0  0  0  0  0  0  0  0  0  0  0  0
    3.5338   -2.4720    6.4046 H   0  0  0  0  0  0  0  0  0  0  0  0
    0.5416   -4.4581    6.5908 H   0  0  0  0  0  0  0  0  0  0  0  0
   -0.1846   -3.4251    5.4148 H   0  0  0  0  0  0  0  0  0  0  0  0
   -0.6419   -5.8829    5.2013 H   0  0  0  0  0  0  0  0  0  0  0  0
   -0.0887   -5.0908    3.7328 H   0  0  0  0  0  0  0  0  0  0  0  0
    1.8146   -6.4945    5.6095 H   0  0  0  0  0  0  0  0  0  0  0  0
    2.0453   -5.3936    2.8328 H   0  0  0  0  0  0  0  0  0  0  0  0
    4.1052   -6.6076    2.6325 H   0  0  0  0  0  0  0  0  0  0  0  0
    4.0559   -7.0601    4.3416 H   0  0  0  0  0  0  0  0  0  0  0  0
    2.2086   -7.9024    2.1114 H   0  0  0  0  0  0  0  0  0  0  0  0
    2.1599  -10.1991    1.4389 H   0  0  0  0  0  0  0  0  0  0  0  0
    1.2853  -10.5973    2.9229 H   0  0  0  0  0  0  0  0  0  0  0  0
    2.7151  -11.4912    2.4857 H   0  0  0  0  0  0  0  0  0  0  0  0
    4.5520   -8.9874    1.6311 H   0  0  0  0  0  0  0  0  0  0  0  0
    5.2736   -8.8791    3.2219 H   0  0  0  0  0  0  0  0  0  0  0  0
    4.6721  -11.2512    1.8167 H   0  0  0  0  0  0  0  0  0  0  0  0
    1.8537  -10.3756    6.3874 H   0  0  0  0  0  0  0  0  0  0  0  0
    0.2007   -8.6767    5.8039 H   0  0  0  0  0  0  0  0  0  0  0  0
   -0.0877   -7.1770    2.3665 H   0  0  0  0  0  0  0  0  0  0  0  0
   -0.9633   -7.7662    3.7761 H   0  0  0  0  0  0  0  0  0  0  0  0
   -0.1642   -8.8969    2.7146 H   0  0  0  0  0  0  0  0  0  0  0  0
    3.8991   -4.7520    5.1811 H   0  0  0  0  0  0  0  0  0  0  0  0
  1  2  1  0
  1 30  1  0
  1 31  1  0
  1 32  1  0
  2 29  1  0
  2  3  2  0
  3  4  1  0
  3 11  1  0
  4 10  1  0
  4  5  2  0
  5  6  1  0
  5 33  1  0
  6  7  2  0
  6 34  1  0
  7  8  1  0
  7  9  1  0
  8 35  1  0
  9 10  2  0
  9 36  1  0
 10 37  1  0
 11 29  1  0
 11 12  1  1
 11 13  1  0
 12 38  1  0
 12 39  1  0
 12 40  1  0
 13 14  1  0
 13 41  1  0
 13 42  1  0
 14 15  1  0
 14 43  1  0
 14 44  1  0
 15 27  1  0
 15 16  1  0
 15 45  1  1
 16 17  1  0
 16 29  1  0
 16 46  1  6
 17 18  1  0
 17 47  1  0
 17 48  1  0
 18 27  1  0
 18 19  1  0
 18 49  1  6
 19 20  1  6
 19 21  1  0
 19 23  1  0
 20 50  1  0
 20 51  1  0
 20 52  1  0
 21 22  1  0
 21 53  1  0
 21 54  1  0
 22 55  1  0
 23 24  2  0
 23 25  1  0
 25 26  2  0
 25 56  1  0
 26 27  1  0
 26 57  1  0
 27 28  1  6
 28 58  1  0
 28 59  1  0
 28 60  1  0
 29 61  1  1
M  END
>  <i_m_ct_stereo_status>  (193) 
1

>  <s_m_source_file>  (193) 
/var/tmp/pbs.5076255.sched01/tmpr0mrskr5/46emy42_dx.sdf

>  <i_m_source_file_index>  (193) 
37

>  <i_lp_mmshare_version>  (193) 
48012

>  <i_f3d_flags>  (193) 
0

>  <s_epik_input>  (193) 
W2NIXTFbY0hdYyhbT0hdKVtjSF1bY0hdYzFDMj1DKFtDSDNdKVtDQEBIXShbQ0BAXTIzW0NIM10pW0NAQEhdNFtDQEBIXShbQ0gyXVtDSDJdMylbQ0BAXTUoW0NIM10pW0NAQEhdKFtDSDJdNClbQ0BAXShbQ0gzXSkoW0NIMl1bT0hdKUMoPU8pW0NIXT1bQ0hdNQ==

>  <s_epik_cmdline>  (193) 
J2VwaWtfcHl0aG9uJywgJy1waHQnLCAnMi4wJywgJy1waCcsICc3LjAnLCAnLXRuJywgJzgnLCAnLW1hJywgJzIwMCcsICctaW1hZScsICc8aW5maWxlLm1hZT4nLCAnLW9tYWUnLCAnPG91dGZpbGUubWFlPic=

>  <r_epik_Ionization_Penalty>  (193) 
0.000340739

>  <r_epik_Ionization_Penalty_Charging>  (193) 
0

>  <r_epik_Ionization_Penalty_Neutral>  (193) 
0.000340739

>  <r_epik_State_Penalty>  (193) 
0.000206558

>  <r_epik_Charging_Adjusted_Penalty>  (193) 
0.000206558

>  <i_epik_Tot_Q>  (193) 
0

>  <i_epik_Tot_abs_Q>  (193) 
0

>  <s_lp_Force_Field>  (193) 
OPLS3e

>  <r_lp_Energy>  (193) 
41.2808

>  <b_lp_Chiralities_Consistent>  (193) 
1

>  <s_lp_Variant>  (193) 
57:0-1

>  <s_i_glide_gridfile>  (193) 
pfpi4k_grid

>  <i_i_glide_lignum>  (193) 
37

>  <i_i_glide_rotatable_bonds>  (193) 
4

>  <r_i_docking_score>  (193) 
-2.36214

>  <r_i_glide_ligand_efficiency>  (193) 
-0.0814531

>  <r_i_glide_ligand_efficiency_sa>  (193) 
-0.25025

>  <r_i_glide_ligand_efficiency_ln>  (193) 
-0.54087

>  <r_i_glide_gscore>  (193) 
-2.36214

>  <r_i_glide_lipo>  (193) 
-0.0380054

>  <r_i_glide_hbond>  (193) 
-0.141021

>  <r_i_glide_metal>  (193) 
-0

>  <r_i_glide_rewards>  (193) 
-0.732747

>  <r_i_glide_evdw>  (193) 
-20.6962

>  <r_i_glide_ecoul>  (193) 
-4.36528

>  <r_i_glide_erotb>  (193) 
0.253448

>  <r_i_glide_esite>  (193) 
-0.0142134

>  <r_i_glide_emodel>  (193) 
-29.3097

>  <r_i_glide_energy>  (193) 
-25.0615

>  <r_i_glide_einternal>  (193) 
0.13518

>  <r_i_glide_intrahb_reward>  (193) 
-0

>  <i_i_glide_confnum>  (193) 
4

>  <i_i_glide_posenum>  (193) 
13

>  <r_i_glide_eff_state_penalty>  (193) 
0

>  <ligand_id>  (193) 
57

>  <original_smiles>  (193) 
CC1=C(c2ccc(O)cc2)C2(C)CCC3C(CC4C(C)(CO)C(=O)C=CC34C)C12

>  <smiles>  (193) 
[H]Oc1c([H])c([H])c(C2=C(C([H])([H])[H])C3([H])C4([H])C([H])([H])C5([H])C(C([H])([H])[H])(C([H])([H])O[H])C(=O)C([H])=C([H])C5(C([H])([H])[H])C4([H])C([H])([H])C([H])([H])C23C([H])([H])[H])c([H])c1[H]

$$$$
60:0:0
     RDKit          3D

 41 43  0  0  1  0  0  0  0  0999 V2000
    6.5893   -5.5140    0.6492 C   0  0  0  0  0  0  0  0  0  0  0  0
    7.0493   -4.2526    0.1115 N   0  0  0  0  0  0  0  0  0  0  0  0
    8.3417   -3.8890    0.2732 N   0  0  0  0  0  0  0  0  0  0  0  0
    8.3746   -2.6924   -0.2866 C   0  0  0  0  0  0  0  0  0  0  0  0
    7.2029   -2.2469   -0.8090 N   0  0  0  0  0  0  0  0  0  0  0  0
    6.3942   -3.2733   -0.5486 C   0  0  0  0  0  0  0  0  0  0  0  0
    4.9142   -3.3037   -0.8703 C   0  0  2  0  0  0  0  0  0  0  0  0
    4.5265   -2.5636   -2.1882 C   0  0  0  0  0  0  0  0  0  0  0  0
    4.6848   -1.0176   -2.0937 C   0  0  0  0  0  0  0  0  0  0  0  0
    4.3127   -0.3242   -3.4119 C   0  0  0  0  0  0  0  0  0  0  0  0
    2.8629   -0.6004   -3.7527 C   0  0  0  0  0  0  0  0  0  0  0  0
    2.6463   -2.1130   -3.8900 C   0  0  0  0  0  0  0  0  0  0  0  0
    3.0654   -2.8604   -2.6149 C   0  0  0  0  0  0  0  0  0  0  0  0
    4.1094   -2.8560    0.2723 N   0  0  0  0  0  0  0  0  0  0  0  0
    4.1497   -1.5806    0.8543 C   0  0  0  0  0  0  0  0  0  0  0  0
    3.1839   -1.5364    1.8007 C   0  0  0  0  0  0  0  0  0  0  0  0
    2.5557   -2.7539    1.8949 N   0  0  0  0  0  0  0  0  0  0  0  0
    3.1588   -3.5152    0.9683 C   0  0  0  0  0  0  0  0  0  0  0  0
    2.7732   -4.9522    0.7366 C   0  0  0  0  0  0  0  0  0  0  0  0
    1.8282   -5.1233   -0.2889 O   0  0  0  0  0  0  0  0  0  0  0  0
    6.0981   -5.3579    1.6092 H   0  0  0  0  0  0  0  0  0  0  0  0
    7.4287   -6.1907    0.7903 H   0  0  0  0  0  0  0  0  0  0  0  0
    5.8838   -5.9946   -0.0318 H   0  0  0  0  0  0  0  0  0  0  0  0
    9.2790   -2.1135   -0.3033 H   0  0  0  0  0  0  0  0  0  0  0  0
    4.6814   -4.3579   -1.0467 H   0  0  0  0  0  0  0  0  0  0  0  0
    5.1592   -2.9767   -2.9889 H   0  0  0  0  0  0  0  0  0  0  0  0
    4.0760   -0.6316   -1.2908 H   0  0  0  0  0  0  0  0  0  0  0  0
    5.7126   -0.7111   -1.9191 H   0  0  0  0  0  0  0  0  0  0  0  0
    4.4504    0.7379   -3.2539 H   0  0  0  0  0  0  0  0  0  0  0  0
    4.9515   -0.6519   -4.2468 H   0  0  0  0  0  0  0  0  0  0  0  0
    2.2406   -0.2220   -2.9307 H   0  0  0  0  0  0  0  0  0  0  0  0
    2.5689   -0.0733   -4.6618 H   0  0  0  0  0  0  0  0  0  0  0  0
    1.5973   -2.3279   -4.1109 H   0  0  0  0  0  0  0  0  0  0  0  0
    3.2346   -2.4945   -4.7199 H   0  0  0  0  0  0  0  0  0  0  0  0
    2.9147   -3.9154   -2.8124 H   0  0  0  0  0  0  0  0  0  0  0  0
    2.3760   -2.5973   -1.8079 H   0  0  0  0  0  0  0  0  0  0  0  0
    4.8180   -0.8354    0.4484 H   0  0  0  0  0  0  0  0  0  0  0  0
    2.8423   -0.7060    2.4077 H   0  0  0  0  0  0  0  0  0  0  0  0
    3.6516   -5.5660    0.5313 H   0  0  0  0  0  0  0  0  0  0  0  0
    2.3116   -5.3297    1.6479 H   0  0  0  0  0  0  0  0  0  0  0  0
    2.2678   -5.1000   -1.1461 H   0  0  0  0  0  0  0  0  0  0  0  0
  1  2  1  0
  1 21  1  0
  1 22  1  0
  1 23  1  0
  2  6  1  0
  2  3  1  0
  3  4  2  0
  4  5  1  0
  4 24  1  0
  5  6  2  0
  6  7  1  0
  7  8  1  0
  7 14  1  0
  7 25  1  6
  8 13  1  0
  8  9  1  0
  8 26  1  0
  9 10  1  0
  9 27  1  0
  9 28  1  0
 10 11  1  0
 10 29  1  0
 10 30  1  0
 11 12  1  0
 11 31  1  0
 11 32  1  0
 12 13  1  0
 12 33  1  0
 12 34  1  0
 13 35  1  0
 13 36  1  0
 14 18  1  0
 14 15  1  0
 15 16  2  0
 15 37  1  0
 16 17  1  0
 16 38  1  0
 17 18  2  0
 18 19  1  0
 19 20  1  0
 19 39  1  0
 19 40  1  0
 20 41  1  0
M  END
>  <i_m_ct_stereo_status>  (194) 
1

>  <s_m_source_file>  (194) 
/var/tmp/pbs.5076255.sched01/tmpr0mrskr5/46emy42_dx.sdf

>  <i_m_source_file_index>  (194) 
40

>  <i_lp_mmshare_version>  (194) 
48012

>  <i_f3d_flags>  (194) 
0

>  <s_epik_input>  (194) 
W0NIM11uMW5bY0hdbmMxW0NASF0oW0NIXTJbQ0gyXVtDSDJdW0NIMl1bQ0gyXVtDSDJdMiluM1tjSF1bY0hdbmMzW0NIMl1bT0hd

>  <s_epik_cmdline>  (194) 
J2VwaWtfcHl0aG9uJywgJy1waHQnLCAnMi4wJywgJy1waCcsICc3LjAnLCAnLXRuJywgJzgnLCAnLW1hJywgJzIwMCcsICctaW1hZScsICc8aW5maWxlLm1hZT4nLCAnLW9tYWUnLCAnPG91dGZpbGUubWFlPic=

>  <r_lp_tautomer_probability>  (194) 
1

>  <r_epik_Ionization_Penalty>  (194) 
0.286834

>  <r_epik_Ionization_Penalty_Charging>  (194) 
0.286759

>  <r_epik_Ionization_Penalty_Neutral>  (194) 
7.56036e-05

>  <r_epik_State_Penalty>  (194) 
0.279602

>  <r_epik_Charging_Adjusted_Penalty>  (194) 
0.566361

>  <i_epik_Tot_Q>  (194) 
0

>  <i_epik_Tot_abs_Q>  (194) 
0

>  <s_lp_Force_Field>  (194) 
OPLS3e

>  <r_lp_Energy>  (194) 
14.6091

>  <b_lp_Chiralities_Consistent>  (194) 
1

>  <s_lp_Variant>  (194) 
60:0-1

>  <s_i_glide_gridfile>  (194) 
pfpi4k_grid

>  <i_i_glide_lignum>  (194) 
40

>  <i_i_glide_rotatable_bonds>  (194) 
5

>  <r_i_docking_score>  (194) 
-4.35306

>  <r_i_glide_ligand_efficiency>  (194) 
-0.217653

>  <r_i_glide_ligand_efficiency_sa>  (194) 
-0.590801

>  <r_i_glide_ligand_efficiency_ln>  (194) 
-1.08943

>  <r_i_glide_gscore>  (194) 
-4.35306

>  <r_i_glide_lipo>  (194) 
-0.70189

>  <r_i_glide_hbond>  (194) 
-0.495037

>  <r_i_glide_metal>  (194) 
-0

>  <r_i_glide_rewards>  (194) 
-1.80914

>  <r_i_glide_evdw>  (194) 
-23.8407

>  <r_i_glide_ecoul>  (194) 
-7.21621

>  <r_i_glide_erotb>  (194) 
0.948213

>  <r_i_glide_esite>  (194) 
-0.0207417

>  <r_i_glide_emodel>  (194) 
-34.3326

>  <r_i_glide_energy>  (194) 
-31.0569

>  <r_i_glide_einternal>  (194) 
9.70689

>  <r_i_glide_intrahb_reward>  (194) 
-0

>  <i_i_glide_confnum>  (194) 
3

>  <i_i_glide_posenum>  (194) 
18

>  <r_i_glide_eff_state_penalty>  (194) 
0

>  <ligand_id>  (194) 
60

>  <original_smiles>  (194) 
Cn1ncnc1C(C1CCCCC1)n1ccnc1CO

>  <smiles>  (194) 
[H]OC([H])([H])c1nc([H])c([H])n1C([H])(c1nc([H])nn1C([H])([H])[H])C1([H])C([H])([H])C([H])([H])C([H])([H])C([H])([H])C1([H])[H]

$$$$
60:0:1
     RDKit          3D

 41 43  0  0  1  0  0  0  0  0999 V2000
    7.4520   -5.7351    0.8827 C   0  0  0  0  0  0  0  0  0  0  0  0
    7.6358   -4.3562    0.4627 N   0  0  0  0  0  0  0  0  0  0  0  0
    8.8786   -3.8223    0.4669 N   0  0  0  0  0  0  0  0  0  0  0  0
    8.6525   -2.5715    0.0751 C   0  0  0  0  0  0  0  0  0  0  0  0
    7.3582   -2.2516   -0.2063 N   0  0  0  0  0  0  0  0  0  0  0  0
    6.7675   -3.4193    0.0457 C   0  0  0  0  0  0  0  0  0  0  0  0
    5.2832   -3.6603   -0.0600 C   0  0  2  0  0  0  0  0  0  0  0  0
    4.6399   -3.0210   -1.3165 C   0  0  0  0  0  0  0  0  0  0  0  0
    3.0993   -3.1617   -1.3163 C   0  0  0  0  0  0  0  0  0  0  0  0
    2.4678   -2.5727   -2.5748 C   0  0  0  0  0  0  0  0  0  0  0  0
    3.0565   -3.1927   -3.8425 C   0  0  0  0  0  0  0  0  0  0  0  0
    4.5815   -3.0357   -3.8594 C   0  0  0  0  0  0  0  0  0  0  0  0
    5.2282   -3.6228   -2.6074 C   0  0  0  0  0  0  0  0  0  0  0  0
    4.5971   -3.2508    1.1657 N   0  0  0  0  0  0  0  0  0  0  0  0
    4.6039   -1.9613    1.6909 C   0  0  0  0  0  0  0  0  0  0  0  0
    3.8078   -1.9711    2.8072 C   0  0  0  0  0  0  0  0  0  0  0  0
    3.2851   -3.2471    2.9793 N   0  0  0  0  0  0  0  0  0  0  0  0
    3.7693   -3.9635    1.9665 C   0  0  0  0  0  0  0  0  0  0  0  0
    3.3819   -5.3996    1.7466 C   0  0  0  0  0  0  0  0  0  0  0  0
    2.0601   -5.5545    1.2587 O   0  0  0  0  0  0  0  0  0  0  0  0
    7.1238   -5.7607    1.9228 H   0  0  0  0  0  0  0  0  0  0  0  0
    8.3919   -6.2833    0.8011 H   0  0  0  0  0  0  0  0  0  0  0  0
    6.7145   -6.2382    0.2605 H   0  0  0  0  0  0  0  0  0  0  0  0
    9.4521   -1.8563   -0.0002 H   0  0  0  0  0  0  0  0  0  0  0  0
    5.1554   -4.7292   -0.2036 H   0  0  0  0  0  0  0  0  0  0  0  0
    4.8599   -1.9523   -1.3175 H   0  0  0  0  0  0  0  0  0  0  0  0
    2.8299   -4.2143   -1.2265 H   0  0  0  0  0  0  0  0  0  0  0  0
    2.6531   -2.6530   -0.4624 H   0  0  0  0  0  0  0  0  0  0  0  0
    1.3954   -2.7448   -2.5501 H   0  0  0  0  0  0  0  0  0  0  0  0
    2.6121   -1.4912   -2.5880 H   0  0  0  0  0  0  0  0  0  0  0  0
    2.7884   -4.2482   -3.9017 H   0  0  0  0  0  0  0  0  0  0  0  0
    2.6153   -2.7242   -4.7131 H   0  0  0  0  0  0  0  0  0  0  0  0
    4.9865   -3.5624   -4.7217 H   0  0  0  0  0  0  0  0  0  0  0  0
    4.8375   -1.9775   -3.9469 H   0  0  0  0  0  0  0  0  0  0  0  0
    6.3054   -3.4619   -2.6652 H   0  0  0  0  0  0  0  0  0  0  0  0
    5.0692   -4.7007   -2.6105 H   0  0  0  0  0  0  0  0  0  0  0  0
    5.1367   -1.1542    1.2133 H   0  0  0  0  0  0  0  0  0  0  0  0
    3.5533   -1.1624    3.4742 H   0  0  0  0  0  0  0  0  0  0  0  0
    4.0570   -5.9211    1.0729 H   0  0  0  0  0  0  0  0  0  0  0  0
    3.4649   -5.9173    2.7027 H   0  0  0  0  0  0  0  0  0  0  0  0
    1.8979   -6.4795    1.1374 H   0  0  0  0  0  0  0  0  0  0  0  0
  1  2  1  0
  1 21  1  0
  1 22  1  0
  1 23  1  0
  2  6  1  0
  2  3  1  0
  3  4  2  0
  4  5  1  0
  4 24  1  0
  5  6  2  0
  6  7  1  0
  7  8  1  0
  7 14  1  0
  7 25  1  6
  8 13  1  0
  8  9  1  0
  8 26  1  0
  9 10  1  0
  9 27  1  0
  9 28  1  0
 10 11  1  0
 10 29  1  0
 10 30  1  0
 11 12  1  0
 11 31  1  0
 11 32  1  0
 12 13  1  0
 12 33  1  0
 12 34  1  0
 13 35  1  0
 13 36  1  0
 14 18  1  0
 14 15  1  0
 15 16  2  0
 15 37  1  0
 16 17  1  0
 16 38  1  0
 17 18  2  0
 18 19  1  0
 19 20  1  0
 19 39  1  0
 19 40  1  0
 20 41  1  0
M  END
>  <i_m_ct_stereo_status>  (195) 
1

>  <s_m_source_file>  (195) 
/var/tmp/pbs.5076255.sched01/tmpr0mrskr5/46emy42_dx.sdf

>  <i_m_source_file_index>  (195) 
40

>  <i_lp_mmshare_version>  (195) 
48012

>  <i_f3d_flags>  (195) 
0

>  <s_epik_input>  (195) 
W0NIM11uMW5bY0hdbmMxW0NASF0oW0NIXTJbQ0gyXVtDSDJdW0NIMl1bQ0gyXVtDSDJdMiluM1tjSF1bY0hdbmMzW0NIMl1bT0hd

>  <s_epik_cmdline>  (195) 
J2VwaWtfcHl0aG9uJywgJy1waHQnLCAnMi4wJywgJy1waCcsICc3LjAnLCAnLXRuJywgJzgnLCAnLW1hJywgJzIwMCcsICctaW1hZScsICc8aW5maWxlLm1hZT4nLCAnLW9tYWUnLCAnPG91dGZpbGUubWFlPic=

>  <r_lp_tautomer_probability>  (195) 
1

>  <r_epik_Ionization_Penalty>  (195) 
0.286834

>  <r_epik_Ionization_Penalty_Charging>  (195) 
0.286759

>  <r_epik_Ionization_Penalty_Neutral>  (195) 
7.56036e-05

>  <r_epik_State_Penalty>  (195) 
0.279602

>  <r_epik_Charging_Adjusted_Penalty>  (195) 
0.566361

>  <i_epik_Tot_Q>  (195) 
0

>  <i_epik_Tot_abs_Q>  (195) 
0

>  <s_lp_Force_Field>  (195) 
OPLS3e

>  <r_lp_Energy>  (195) 
14.6091

>  <b_lp_Chiralities_Consistent>  (195) 
1

>  <s_lp_Variant>  (195) 
60:0-1

>  <s_i_glide_gridfile>  (195) 
pfpi4k_grid

>  <i_i_glide_lignum>  (195) 
40

>  <i_i_glide_rotatable_bonds>  (195) 
5

>  <r_i_docking_score>  (195) 
-3.37655

>  <r_i_glide_ligand_efficiency>  (195) 
-0.168828

>  <r_i_glide_ligand_efficiency_sa>  (195) 
-0.458269

>  <r_i_glide_ligand_efficiency_ln>  (195) 
-0.84504

>  <r_i_glide_gscore>  (195) 
-3.37655

>  <r_i_glide_lipo>  (195) 
-0.571556

>  <r_i_glide_hbond>  (195) 
-0.114024

>  <r_i_glide_metal>  (195) 
-0

>  <r_i_glide_rewards>  (195) 
-1.95655

>  <r_i_glide_evdw>  (195) 
-24.8669

>  <r_i_glide_ecoul>  (195) 
-2.8094

>  <r_i_glide_erotb>  (195) 
0.948213

>  <r_i_glide_esite>  (195) 
-0.017879

>  <r_i_glide_emodel>  (195) 
-34.1592

>  <r_i_glide_energy>  (195) 
-27.6763

>  <r_i_glide_einternal>  (195) 
0.999566

>  <r_i_glide_intrahb_reward>  (195) 
-0

>  <i_i_glide_confnum>  (195) 
3

>  <i_i_glide_posenum>  (195) 
1

>  <r_i_glide_eff_state_penalty>  (195) 
0

>  <ligand_id>  (195) 
60

>  <original_smiles>  (195) 
Cn1ncnc1C(C1CCCCC1)n1ccnc1CO

>  <smiles>  (195) 
[H]OC([H])([H])c1nc([H])c([H])n1C([H])(c1nc([H])nn1C([H])([H])[H])C1([H])C([H])([H])C([H])([H])C([H])([H])C([H])([H])C1([H])[H]

$$$$
60:0:2
     RDKit          3D

 41 43  0  0  1  0  0  0  0  0999 V2000
    5.6553   -5.9947    1.1725 C   0  0  0  0  0  0  0  0  0  0  0  0
    4.2297   -5.8037    0.9733 N   0  0  0  0  0  0  0  0  0  0  0  0
    3.3797   -6.8166    1.2593 N   0  0  0  0  0  0  0  0  0  0  0  0
    2.2032   -6.3070    0.9288 C   0  0  0  0  0  0  0  0  0  0  0  0
    2.2146   -5.0259    0.4668 N   0  0  0  0  0  0  0  0  0  0  0  0
    3.5146   -4.7581    0.5271 C   0  0  0  0  0  0  0  0  0  0  0  0
    4.1282   -3.4401    0.1277 C   0  0  2  0  0  0  0  0  0  0  0  0
    3.5447   -2.2272    0.9061 C   0  0  0  0  0  0  0  0  0  0  0  0
    4.1810   -0.8943    0.4456 C   0  0  0  0  0  0  0  0  0  0  0  0
    3.6322    0.3041    1.2197 C   0  0  0  0  0  0  0  0  0  0  0  0
    3.8123    0.1264    2.7308 C   0  0  0  0  0  0  0  0  0  0  0  0
    3.1499   -1.1743    3.2036 C   0  0  0  0  0  0  0  0  0  0  0  0
    3.6935   -2.3894    2.4364 C   0  0  0  0  0  0  0  0  0  0  0  0
    4.0513   -3.2423   -1.3197 N   0  0  0  0  0  0  0  0  0  0  0  0
    2.8903   -2.9723   -2.0389 C   0  0  0  0  0  0  0  0  0  0  0  0
    3.2463   -2.8369   -3.3533 C   0  0  0  0  0  0  0  0  0  0  0  0
    4.6191   -3.0119   -3.4770 N   0  0  0  0  0  0  0  0  0  0  0  0
    5.0442   -3.2431   -2.2321 C   0  0  0  0  0  0  0  0  0  0  0  0
    6.4819   -3.4447   -1.8765 C   0  0  0  0  0  0  0  0  0  0  0  0
    7.1442   -2.2652   -1.4450 O   0  0  0  0  0  0  0  0  0  0  0  0
    6.1258   -6.2231    0.2173 H   0  0  0  0  0  0  0  0  0  0  0  0
    5.8279   -6.8298    1.8513 H   0  0  0  0  0  0  0  0  0  0  0  0
    6.1110   -5.1066    1.6055 H   0  0  0  0  0  0  0  0  0  0  0  0
    1.2975   -6.8969    0.9979 H   0  0  0  0  0  0  0  0  0  0  0  0
    5.1814   -3.4649    0.4092 H   0  0  0  0  0  0  0  0  0  0  0  0
    2.4752   -2.1627    0.6971 H   0  0  0  0  0  0  0  0  0  0  0  0
    5.2629   -0.9463    0.5693 H   0  0  0  0  0  0  0  0  0  0  0  0
    4.0022   -0.7143   -0.6154 H   0  0  0  0  0  0  0  0  0  0  0  0
    4.1561    1.1930    0.8776 H   0  0  0  0  0  0  0  0  0  0  0  0
    2.5780    0.4511    0.9795 H   0  0  0  0  0  0  0  0  0  0  0  0
    4.8756    0.1072    2.9727 H   0  0  0  0  0  0  0  0  0  0  0  0
    3.3881    0.9812    3.2572 H   0  0  0  0  0  0  0  0  0  0  0  0
    3.3221   -1.3100    4.2703 H   0  0  0  0  0  0  0  0  0  0  0  0
    2.0696   -1.1060    3.0684 H   0  0  0  0  0  0  0  0  0  0  0  0
    3.1670   -3.2798    2.7823 H   0  0  0  0  0  0  0  0  0  0  0  0
    4.7450   -2.5346    2.6849 H   0  0  0  0  0  0  0  0  0  0  0  0
    1.9362   -2.8631   -1.5501 H   0  0  0  0  0  0  0  0  0  0  0  0
    2.6201   -2.6021   -4.2033 H   0  0  0  0  0  0  0  0  0  0  0  0
    6.5724   -4.2015   -1.0936 H   0  0  0  0  0  0  0  0  0  0  0  0
    6.9981   -3.8290   -2.7582 H   0  0  0  0  0  0  0  0  0  0  0  0
    8.0357   -2.5177   -1.2339 H   0  0  0  0  0  0  0  0  0  0  0  0
  1  2  1  0
  1 21  1  0
  1 22  1  0
  1 23  1  0
  2  6  1  0
  2  3  1  0
  3  4  2  0
  4  5  1  0
  4 24  1  0
  5  6  2  0
  6  7  1  0
  7  8  1  0
  7 14  1  0
  7 25  1  1
  8 13  1  0
  8  9  1  0
  8 26  1  0
  9 10  1  0
  9 27  1  0
  9 28  1  0
 10 11  1  0
 10 29  1  0
 10 30  1  0
 11 12  1  0
 11 31  1  0
 11 32  1  0
 12 13  1  0
 12 33  1  0
 12 34  1  0
 13 35  1  0
 13 36  1  0
 14 18  1  0
 14 15  1  0
 15 16  2  0
 15 37  1  0
 16 17  1  0
 16 38  1  0
 17 18  2  0
 18 19  1  0
 19 20  1  0
 19 39  1  0
 19 40  1  0
 20 41  1  0
M  END
>  <i_m_ct_stereo_status>  (196) 
1

>  <s_m_source_file>  (196) 
/var/tmp/pbs.5076255.sched01/tmpr0mrskr5/46emy42_dx.sdf

>  <i_m_source_file_index>  (196) 
40

>  <i_lp_mmshare_version>  (196) 
48012

>  <i_f3d_flags>  (196) 
0

>  <s_epik_input>  (196) 
W0NIM11uMW5bY0hdbmMxW0NASF0oW0NIXTJbQ0gyXVtDSDJdW0NIMl1bQ0gyXVtDSDJdMiluM1tjSF1bY0hdbmMzW0NIMl1bT0hd

>  <s_epik_cmdline>  (196) 
J2VwaWtfcHl0aG9uJywgJy1waHQnLCAnMi4wJywgJy1waCcsICc3LjAnLCAnLXRuJywgJzgnLCAnLW1hJywgJzIwMCcsICctaW1hZScsICc8aW5maWxlLm1hZT4nLCAnLW9tYWUnLCAnPG91dGZpbGUubWFlPic=

>  <r_lp_tautomer_probability>  (196) 
1

>  <r_epik_Ionization_Penalty>  (196) 
0.286834

>  <r_epik_Ionization_Penalty_Charging>  (196) 
0.286759

>  <r_epik_Ionization_Penalty_Neutral>  (196) 
7.56036e-05

>  <r_epik_State_Penalty>  (196) 
0.279602

>  <r_epik_Charging_Adjusted_Penalty>  (196) 
0.566361

>  <i_epik_Tot_Q>  (196) 
0

>  <i_epik_Tot_abs_Q>  (196) 
0

>  <s_lp_Force_Field>  (196) 
OPLS3e

>  <r_lp_Energy>  (196) 
14.6091

>  <b_lp_Chiralities_Consistent>  (196) 
1

>  <s_lp_Variant>  (196) 
60:0-1

>  <s_i_glide_gridfile>  (196) 
pfpi4k_grid

>  <i_i_glide_lignum>  (196) 
40

>  <i_i_glide_rotatable_bonds>  (196) 
5

>  <r_i_docking_score>  (196) 
-3.30825

>  <r_i_glide_ligand_efficiency>  (196) 
-0.165413

>  <r_i_glide_ligand_efficiency_sa>  (196) 
-0.448999

>  <r_i_glide_ligand_efficiency_ln>  (196) 
-0.827947

>  <r_i_glide_gscore>  (196) 
-3.30825

>  <r_i_glide_lipo>  (196) 
-0.473194

>  <r_i_glide_hbond>  (196) 
-0.179058

>  <r_i_glide_metal>  (196) 
-0

>  <r_i_glide_rewards>  (196) 
-1.81114

>  <r_i_glide_evdw>  (196) 
-23.518

>  <r_i_glide_ecoul>  (196) 
-3.83882

>  <r_i_glide_erotb>  (196) 
0.948213

>  <r_i_glide_esite>  (196) 
-0.0413557

>  <r_i_glide_emodel>  (196) 
-34.2022

>  <r_i_glide_energy>  (196) 
-27.3568

>  <r_i_glide_einternal>  (196) 
0.277913

>  <r_i_glide_intrahb_reward>  (196) 
-0

>  <i_i_glide_confnum>  (196) 
3

>  <i_i_glide_posenum>  (196) 
2

>  <r_i_glide_eff_state_penalty>  (196) 
0

>  <ligand_id>  (196) 
60

>  <original_smiles>  (196) 
Cn1ncnc1C(C1CCCCC1)n1ccnc1CO

>  <smiles>  (196) 
[H]OC([H])([H])c1nc([H])c([H])n1C([H])(c1nc([H])nn1C([H])([H])[H])C1([H])C([H])([H])C([H])([H])C([H])([H])C([H])([H])C1([H])[H]

$$$$
60:1:0
     RDKit          3D

 42 44  0  0  1  0  0  0  0  0999 V2000
    2.5711   -1.0391    6.6927 C   0  0  0  0  0  0  0  0  0  0  0  0
    1.1717   -1.2662    6.4193 N   0  0  0  0  0  0  0  0  0  0  0  0
    0.6460   -2.5023    6.6005 N   0  0  0  0  0  0  0  0  0  0  0  0
   -0.6139   -2.3481    6.2169 C   0  0  0  0  0  0  0  0  0  0  0  0
   -0.9699   -1.0786    5.8498 N   0  0  0  0  0  0  0  0  0  0  0  0
    0.2013   -0.4474    5.9785 C   0  0  0  0  0  0  0  0  0  0  0  0
    0.4549    1.0185    5.6384 C   0  0  2  0  0  0  0  0  0  0  0  0
   -0.3576    2.0049    6.5407 C   0  0  0  0  0  0  0  0  0  0  0  0
   -0.0772    1.7827    8.0472 C   0  0  0  0  0  0  0  0  0  0  0  0
   -0.8690    2.7513    8.9407 C   0  0  0  0  0  0  0  0  0  0  0  0
   -2.3724    2.6873    8.6454 C   0  0  0  0  0  0  0  0  0  0  0  0
   -2.6607    2.9661    7.1675 C   0  0  0  0  0  0  0  0  0  0  0  0
   -1.8863    2.0083    6.2609 C   0  0  0  0  0  0  0  0  0  0  0  0
    0.2554    1.2897    4.1981 N   0  0  0  0  0  0  0  0  0  0  0  0
   -0.7816    0.8392    3.4203 C   0  0  0  0  0  0  0  0  0  0  0  0
   -0.5933    1.3454    2.1696 C   0  0  0  0  0  0  0  0  0  0  0  0
    0.5194    2.1321    2.2312 N   0  0  0  0  0  0  0  0  0  0  0  0
    1.0419    2.1085    3.4626 C   0  0  0  0  0  0  0  0  0  0  0  0
    2.2418    2.8976    3.8773 C   0  0  0  0  0  0  0  0  0  0  0  0
    3.2624    1.9429    3.6704 O   0  0  0  0  0  0  0  0  0  0  0  0
    2.7383   -0.0466    7.1056 H   0  0  0  0  0  0  0  0  0  0  0  0
    3.1341   -1.1486    5.7686 H   0  0  0  0  0  0  0  0  0  0  0  0
    2.9274   -1.7668    7.4175 H   0  0  0  0  0  0  0  0  0  0  0  0
   -1.3093   -3.1730    6.2327 H   0  0  0  0  0  0  0  0  0  0  0  0
    1.5085    1.2223    5.8278 H   0  0  0  0  0  0  0  0  0  0  0  0
   -0.0081    3.0139    6.3051 H   0  0  0  0  0  0  0  0  0  0  0  0
   -0.3361    0.7615    8.3285 H   0  0  0  0  0  0  0  0  0  0  0  0
    0.9901    1.8963    8.2448 H   0  0  0  0  0  0  0  0  0  0  0  0
   -0.6908    2.5018    9.9853 H   0  0  0  0  0  0  0  0  0  0  0  0
   -0.5096    3.7696    8.7998 H   0  0  0  0  0  0  0  0  0  0  0  0
   -2.7486    1.7028    8.9082 H   0  0  0  0  0  0  0  0  0  0  0  0
   -2.9134    3.3956    9.2713 H   0  0  0  0  0  0  0  0  0  0  0  0
   -3.7254    2.8483    6.9687 H   0  0  0  0  0  0  0  0  0  0  0  0
   -2.4032    3.9951    6.9217 H   0  0  0  0  0  0  0  0  0  0  0  0
   -2.0993    2.2876    5.2283 H   0  0  0  0  0  0  0  0  0  0  0  0
   -2.3001    1.0123    6.4155 H   0  0  0  0  0  0  0  0  0  0  0  0
   -1.5952    0.2385    3.8024 H   0  0  0  0  0  0  0  0  0  0  0  0
   -1.2084    1.2660    1.2854 H   0  0  0  0  0  0  0  0  0  0  0  0
    2.3488    3.7660    3.2273 H   0  0  0  0  0  0  0  0  0  0  0  0
    2.1544    3.2184    4.9121 H   0  0  0  0  0  0  0  0  0  0  0  0
    3.9239    2.3194    3.0993 H   0  0  0  0  0  0  0  0  0  0  0  0
    0.8025    2.7636    1.4851 H   0  0  0  0  0  0  0  0  0  0  0  0
  1  2  1  0
  1 21  1  0
  1 22  1  0
  1 23  1  0
  2  6  1  0
  2  3  1  0
  3  4  2  0
  4  5  1  0
  4 24  1  0
  5  6  2  0
  6  7  1  0
  7  8  1  0
  7 14  1  0
  7 25  1  1
  8 13  1  0
  8  9  1  0
  8 26  1  0
  9 10  1  0
  9 27  1  0
  9 28  1  0
 10 11  1  0
 10 29  1  0
 10 30  1  0
 11 12  1  0
 11 31  1  0
 11 32  1  0
 12 13  1  0
 12 33  1  0
 12 34  1  0
 13 35  1  0
 13 36  1  0
 14 18  1  0
 14 15  1  0
 15 16  2  0
 15 37  1  0
 16 17  1  0
 16 38  1  0
 17 18  2  0
 17 42  1  0
 18 19  1  0
 19 20  1  0
 19 39  1  0
 19 40  1  0
 20 41  1  0
M  CHG  1  17   1
M  END
>  <i_m_ct_stereo_status>  (197) 
1

>  <s_m_source_file>  (197) 
/var/tmp/pbs.5076255.sched01/tmpr0mrskr5/46emy42_dx.sdf

>  <i_m_source_file_index>  (197) 
41

>  <i_lp_mmshare_version>  (197) 
48012

>  <i_f3d_flags>  (197) 
0

>  <s_epik_input>  (197) 
W0NIM11uMW5bY0hdbmMxW0NASF0oW0NIXTJbQ0gyXVtDSDJdW0NIMl1bQ0gyXVtDSDJdMiluM1tjSF1bY0hdbmMzW0NIMl1bT0hd

>  <s_epik_cmdline>  (197) 
J2VwaWtfcHl0aG9uJywgJy1waHQnLCAnMi4wJywgJy1waCcsICc3LjAnLCAnLXRuJywgJzgnLCAnLW1hJywgJzIwMCcsICctaW1hZScsICc8aW5maWxlLm1hZT4nLCAnLW9tYWUnLCAnPG91dGZpbGUubWFlPic=

>  <r_lp_tautomer_probability>  (197) 
1

>  <r_epik_Ionization_Penalty>  (197) 
0.568423

>  <r_epik_Ionization_Penalty_Charging>  (197) 
0

>  <r_epik_Ionization_Penalty_Neutral>  (197) 
0.568423

>  <r_epik_State_Penalty>  (197) 
0.579246

>  <r_epik_Charging_Adjusted_Penalty>  (197) 
0.579246

>  <i_epik_Tot_Q>  (197) 
1

>  <i_epik_Tot_abs_Q>  (197) 
1

>  <s_lp_Force_Field>  (197) 
OPLS3e

>  <r_lp_Energy>  (197) 
20.2825

>  <b_lp_Chiralities_Consistent>  (197) 
1

>  <s_lp_Variant>  (197) 
60:0-2

>  <s_i_glide_gridfile>  (197) 
pfpi4k_grid

>  <i_i_glide_lignum>  (197) 
41

>  <i_i_glide_rotatable_bonds>  (197) 
5

>  <r_i_docking_score>  (197) 
-3.34177

>  <r_i_glide_ligand_efficiency>  (197) 
-0.167088

>  <r_i_glide_ligand_efficiency_sa>  (197) 
-0.453548

>  <r_i_glide_ligand_efficiency_ln>  (197) 
-0.836334

>  <r_i_glide_gscore>  (197) 
-3.34177

>  <r_i_glide_lipo>  (197) 
-0.153521

>  <r_i_glide_hbond>  (197) 
-0.461872

>  <r_i_glide_metal>  (197) 
-0

>  <r_i_glide_rewards>  (197) 
-1.52484

>  <r_i_glide_evdw>  (197) 
-15.0716

>  <r_i_glide_ecoul>  (197) 
-7.88514

>  <r_i_glide_erotb>  (197) 
0.942225

>  <r_i_glide_esite>  (197) 
-0.207413

>  <r_i_glide_emodel>  (197) 
-29.2196

>  <r_i_glide_energy>  (197) 
-22.9567

>  <r_i_glide_einternal>  (197) 
3.28442

>  <r_i_glide_intrahb_reward>  (197) 
-0

>  <i_i_glide_confnum>  (197) 
2

>  <i_i_glide_posenum>  (197) 
20

>  <r_i_glide_eff_state_penalty>  (197) 
0

>  <ligand_id>  (197) 
60

>  <original_smiles>  (197) 
Cn1ncnc1C(C1CCCCC1)n1ccnc1CO

>  <smiles>  (197) 
[H]OC([H])([H])c1n(C([H])(c2nc([H])nn2C([H])([H])[H])C2([H])C([H])([H])C([H])([H])C([H])([H])C([H])([H])C2([H])[H])c([H])c([H])[n+]1[H]

$$$$
60:1:1
     RDKit          3D

 42 44  0  0  1  0  0  0  0  0999 V2000
    2.4567   -0.4612    7.1308 C   0  0  0  0  0  0  0  0  0  0  0  0
    1.1069   -0.8427    6.7685 N   0  0  0  0  0  0  0  0  0  0  0  0
    0.7089   -2.1266    6.9246 N   0  0  0  0  0  0  0  0  0  0  0  0
   -0.5343   -2.1000    6.4683 C   0  0  0  0  0  0  0  0  0  0  0  0
   -0.9990   -0.8845    6.0739 N   0  0  0  0  0  0  0  0  0  0  0  0
    0.0924   -0.1260    6.2467 C   0  0  0  0  0  0  0  0  0  0  0  0
    0.2066    1.3531    5.8967 C   0  0  2  0  0  0  0  0  0  0  0  0
   -0.6618    2.2676    6.8150 C   0  0  0  0  0  0  0  0  0  0  0  0
   -0.3370    2.0654    8.3169 C   0  0  0  0  0  0  0  0  0  0  0  0
   -1.1860    2.9630    9.2270 C   0  0  0  0  0  0  0  0  0  0  0  0
   -2.6834    2.7691    8.9560 C   0  0  0  0  0  0  0  0  0  0  0  0
   -3.0201    3.0245    7.4830 C   0  0  0  0  0  0  0  0  0  0  0  0
   -2.1858    2.1338    6.5572 C   0  0  0  0  0  0  0  0  0  0  0  0
   -0.0470    1.6207    4.4580 N   0  0  0  0  0  0  0  0  0  0  0  0
   -0.9500    0.9607    3.6480 C   0  0  0  0  0  0  0  0  0  0  0  0
   -0.8738    1.5307    2.4133 C   0  0  0  0  0  0  0  0  0  0  0  0
    0.0299    2.5425    2.5024 N   0  0  0  0  0  0  0  0  0  0  0  0
    0.5266    2.6188    3.7508 C   0  0  0  0  0  0  0  0  0  0  0  0
    1.5006    3.6634    4.2018 C   0  0  0  0  0  0  0  0  0  0  0  0
    2.7222    2.9595    4.1064 O   0  0  0  0  0  0  0  0  0  0  0  0
    2.4808    0.5512    7.5336 H   0  0  0  0  0  0  0  0  0  0  0  0
    3.0896   -0.5199    6.2509 H   0  0  0  0  0  0  0  0  0  0  0  0
    2.8344   -1.1355    7.8941 H   0  0  0  0  0  0  0  0  0  0  0  0
   -1.1337   -3.0040    6.4370 H   0  0  0  0  0  0  0  0  0  0  0  0
    1.2505    1.6539    6.0538 H   0  0  0  0  0  0  0  0  0  0  0  0
   -0.4143    3.3051    6.5856 H   0  0  0  0  0  0  0  0  0  0  0  0
   -0.5067    1.0272    8.5986 H   0  0  0  0  0  0  0  0  0  0  0  0
    0.7200    2.2683    8.4927 H   0  0  0  0  0  0  0  0  0  0  0  0
   -0.9697    2.7291   10.2665 H   0  0  0  0  0  0  0  0  0  0  0  0
   -0.9187    4.0075    9.0822 H   0  0  0  0  0  0  0  0  0  0  0  0
   -2.9729    1.7509    9.2321 H   0  0  0  0  0  0  0  0  0  0  0  0
   -3.2708    3.4331    9.5931 H   0  0  0  0  0  0  0  0  0  0  0  0
   -4.0743    2.8225    7.3075 H   0  0  0  0  0  0  0  0  0  0  0  0
   -2.8541    4.0709    7.2410 H   0  0  0  0  0  0  0  0  0  0  0  0
   -2.4280    2.3859    5.5226 H   0  0  0  0  0  0  0  0  0  0  0  0
   -2.5018    1.1052    6.7151 H   0  0  0  0  0  0  0  0  0  0  0  0
   -1.6014    0.1704    3.9820 H   0  0  0  0  0  0  0  0  0  0  0  0
   -1.4373    1.3101    1.5205 H   0  0  0  0  0  0  0  0  0  0  0  0
    1.4452    4.5285    3.5413 H   0  0  0  0  0  0  0  0  0  0  0  0
    1.2807    3.9719    5.2203 H   0  0  0  0  0  0  0  0  0  0  0  0
    3.0343    2.9967    3.2143 H   0  0  0  0  0  0  0  0  0  0  0  0
    0.2120    3.2396    1.7553 H   0  0  0  0  0  0  0  0  0  0  0  0
  1  2  1  0
  1 21  1  0
  1 22  1  0
  1 23  1  0
  2  6  1  0
  2  3  1  0
  3  4  2  0
  4  5  1  0
  4 24  1  0
  5  6  2  0
  6  7  1  0
  7  8  1  0
  7 14  1  0
  7 25  1  1
  8 13  1  0
  8  9  1  0
  8 26  1  0
  9 10  1  0
  9 27  1  0
  9 28  1  0
 10 11  1  0
 10 29  1  0
 10 30  1  0
 11 12  1  0
 11 31  1  0
 11 32  1  0
 12 13  1  0
 12 33  1  0
 12 34  1  0
 13 35  1  0
 13 36  1  0
 14 18  1  0
 14 15  1  0
 15 16  2  0
 15 37  1  0
 16 17  1  0
 16 38  1  0
 17 18  2  0
 17 42  1  0
 18 19  1  0
 19 20  1  0
 19 39  1  0
 19 40  1  0
 20 41  1  0
M  CHG  1  17   1
M  END
>  <i_m_ct_stereo_status>  (198) 
1

>  <s_m_source_file>  (198) 
/var/tmp/pbs.5076255.sched01/tmpr0mrskr5/46emy42_dx.sdf

>  <i_m_source_file_index>  (198) 
41

>  <i_lp_mmshare_version>  (198) 
48012

>  <i_f3d_flags>  (198) 
0

>  <s_epik_input>  (198) 
W0NIM11uMW5bY0hdbmMxW0NASF0oW0NIXTJbQ0gyXVtDSDJdW0NIMl1bQ0gyXVtDSDJdMiluM1tjSF1bY0hdbmMzW0NIMl1bT0hd

>  <s_epik_cmdline>  (198) 
J2VwaWtfcHl0aG9uJywgJy1waHQnLCAnMi4wJywgJy1waCcsICc3LjAnLCAnLXRuJywgJzgnLCAnLW1hJywgJzIwMCcsICctaW1hZScsICc8aW5maWxlLm1hZT4nLCAnLW9tYWUnLCAnPG91dGZpbGUubWFlPic=

>  <r_lp_tautomer_probability>  (198) 
1

>  <r_epik_Ionization_Penalty>  (198) 
0.568423

>  <r_epik_Ionization_Penalty_Charging>  (198) 
0

>  <r_epik_Ionization_Penalty_Neutral>  (198) 
0.568423

>  <r_epik_State_Penalty>  (198) 
0.579246

>  <r_epik_Charging_Adjusted_Penalty>  (198) 
0.579246

>  <i_epik_Tot_Q>  (198) 
1

>  <i_epik_Tot_abs_Q>  (198) 
1

>  <s_lp_Force_Field>  (198) 
OPLS3e

>  <r_lp_Energy>  (198) 
20.2825

>  <b_lp_Chiralities_Consistent>  (198) 
1

>  <s_lp_Variant>  (198) 
60:0-2

>  <s_i_glide_gridfile>  (198) 
pfpi4k_grid

>  <i_i_glide_lignum>  (198) 
41

>  <i_i_glide_rotatable_bonds>  (198) 
5

>  <r_i_docking_score>  (198) 
-3.29661

>  <r_i_glide_ligand_efficiency>  (198) 
-0.16483

>  <r_i_glide_ligand_efficiency_sa>  (198) 
-0.447418

>  <r_i_glide_ligand_efficiency_ln>  (198) 
-0.825032

>  <r_i_glide_gscore>  (198) 
-3.29661

>  <r_i_glide_lipo>  (198) 
-0.169703

>  <r_i_glide_hbond>  (198) 
-0.19022

>  <r_i_glide_metal>  (198) 
-0

>  <r_i_glide_rewards>  (198) 
-1.52484

>  <r_i_glide_evdw>  (198) 
-14.6859

>  <r_i_glide_ecoul>  (198) 
-9.26298

>  <r_i_glide_erotb>  (198) 
0.942225

>  <r_i_glide_esite>  (198) 
-0.230329

>  <r_i_glide_emodel>  (198) 
-30.6231

>  <r_i_glide_energy>  (198) 
-23.9489

>  <r_i_glide_einternal>  (198) 
2.24481

>  <r_i_glide_intrahb_reward>  (198) 
-0

>  <i_i_glide_confnum>  (198) 
2

>  <i_i_glide_posenum>  (198) 
13

>  <r_i_glide_eff_state_penalty>  (198) 
0

>  <ligand_id>  (198) 
60

>  <original_smiles>  (198) 
Cn1ncnc1C(C1CCCCC1)n1ccnc1CO

>  <smiles>  (198) 
[H]OC([H])([H])c1n(C([H])(c2nc([H])nn2C([H])([H])[H])C2([H])C([H])([H])C([H])([H])C([H])([H])C([H])([H])C2([H])[H])c([H])c([H])[n+]1[H]

$$$$
60:1:2
     RDKit          3D

 42 44  0  0  1  0  0  0  0  0999 V2000
    1.6606    5.8183    3.2604 C   0  0  0  0  0  0  0  0  0  0  0  0
    2.3970    5.0033    4.2123 N   0  0  0  0  0  0  0  0  0  0  0  0
    3.6640    5.3441    4.5488 N   0  0  0  0  0  0  0  0  0  0  0  0
    4.0212    4.3596    5.3655 C   0  0  0  0  0  0  0  0  0  0  0  0
    3.0825    3.3849    5.5648 N   0  0  0  0  0  0  0  0  0  0  0  0
    2.0768    3.8581    4.8294 C   0  0  0  0  0  0  0  0  0  0  0  0
    0.7226    3.1909    4.6760 C   0  0  2  0  0  0  0  0  0  0  0  0
    0.2525    2.3960    5.9370 C   0  0  0  0  0  0  0  0  0  0  0  0
   -1.1149    1.7342    5.7016 C   0  0  0  0  0  0  0  0  0  0  0  0
   -1.7152    0.9790    6.8660 C   0  0  0  0  0  0  0  0  0  0  0  0
   -1.8830    1.9609    8.0282 C   0  0  0  0  0  0  0  0  0  0  0  0
   -0.5326    2.6226    8.3563 C   0  0  0  0  0  0  0  0  0  0  0  0
    0.0881    3.3422    7.1456 C   0  0  0  0  0  0  0  0  0  0  0  0
    0.6645    2.3841    3.4211 N   0  0  0  0  0  0  0  0  0  0  0  0
    1.7191    1.6503    2.9347 C   0  0  0  0  0  0  0  0  0  0  0  0
    1.2735    0.9817    1.8288 C   0  0  0  0  0  0  0  0  0  0  0  0
   -0.0328    1.3389    1.6769 N   0  0  0  0  0  0  0  0  0  0  0  0
   -0.4392    2.1557    2.6514 C   0  0  0  0  0  0  0  0  0  0  0  0
   -1.8834    2.6744    2.7472 C   0  0  0  0  0  0  0  0  0  0  0  0
   -1.6761    4.0887    2.8362 O   0  0  0  0  0  0  0  0  0  0  0  0
    0.5919    5.8388    3.4923 H   0  0  0  0  0  0  0  0  0  0  0  0
    1.7973    5.4083    2.2526 H   0  0  0  0  0  0  0  0  0  0  0  0
    2.0237    6.8482    3.2812 H   0  0  0  0  0  0  0  0  0  0  0  0
    5.0011    4.3458    5.7919 H   0  0  0  0  0  0  0  0  0  0  0  0
    0.0164    4.0001    4.5354 H   0  0  0  0  0  0  0  0  0  0  0  0
    0.9912    1.6221    6.1821 H   0  0  0  0  0  0  0  0  0  0  0  0
   -1.8040    2.5392    5.4786 H   0  0  0  0  0  0  0  0  0  0  0  0
   -1.0828    1.0168    4.8957 H   0  0  0  0  0  0  0  0  0  0  0  0
   -2.6925    0.6096    6.5379 H   0  0  0  0  0  0  0  0  0  0  0  0
   -1.0935    0.1105    7.1246 H   0  0  0  0  0  0  0  0  0  0  0  0
   -2.6148    2.7317    7.7594 H   0  0  0  0  0  0  0  0  0  0  0  0
   -2.2834    1.4361    8.8945 H   0  0  0  0  0  0  0  0  0  0  0  0
   -0.6755    3.3284    9.1718 H   0  0  0  0  0  0  0  0  0  0  0  0
    0.1579    1.8580    8.7118 H   0  0  0  0  0  0  0  0  0  0  0  0
    1.0448    3.7754    7.4441 H   0  0  0  0  0  0  0  0  0  0  0  0
   -0.5574    4.1819    6.8744 H   0  0  0  0  0  0  0  0  0  0  0  0
    2.7037    1.6000    3.4007 H   0  0  0  0  0  0  0  0  0  0  0  0
    1.7640    0.2861    1.1495 H   0  0  0  0  0  0  0  0  0  0  0  0
   -2.4304    2.3909    1.8330 H   0  0  0  0  0  0  0  0  0  0  0  0
   -2.4133    2.2474    3.5923 H   0  0  0  0  0  0  0  0  0  0  0  0
   -1.1616    4.3950    2.0961 H   0  0  0  0  0  0  0  0  0  0  0  0
   -0.6292    0.9897    0.9072 H   0  0  0  0  0  0  0  0  0  0  0  0
  1  2  1  0
  1 21  1  0
  1 22  1  0
  1 23  1  0
  2  6  1  0
  2  3  1  0
  3  4  2  0
  4  5  1  0
  4 24  1  0
  5  6  2  0
  6  7  1  0
  7  8  1  0
  7 14  1  0
  7 25  1  6
  8 13  1  0
  8  9  1  0
  8 26  1  0
  9 10  1  0
  9 27  1  0
  9 28  1  0
 10 11  1  0
 10 29  1  0
 10 30  1  0
 11 12  1  0
 11 31  1  0
 11 32  1  0
 12 13  1  0
 12 33  1  0
 12 34  1  0
 13 35  1  0
 13 36  1  0
 14 18  1  0
 14 15  1  0
 15 16  2  0
 15 37  1  0
 16 17  1  0
 16 38  1  0
 17 18  2  0
 17 42  1  0
 18 19  1  0
 19 20  1  0
 19 39  1  0
 19 40  1  0
 20 41  1  0
M  CHG  1  17   1
M  END
>  <i_m_ct_stereo_status>  (199) 
1

>  <s_m_source_file>  (199) 
/var/tmp/pbs.5076255.sched01/tmpr0mrskr5/46emy42_dx.sdf

>  <i_m_source_file_index>  (199) 
41

>  <i_lp_mmshare_version>  (199) 
48012

>  <i_f3d_flags>  (199) 
0

>  <s_epik_input>  (199) 
W0NIM11uMW5bY0hdbmMxW0NASF0oW0NIXTJbQ0gyXVtDSDJdW0NIMl1bQ0gyXVtDSDJdMiluM1tjSF1bY0hdbmMzW0NIMl1bT0hd

>  <s_epik_cmdline>  (199) 
J2VwaWtfcHl0aG9uJywgJy1waHQnLCAnMi4wJywgJy1waCcsICc3LjAnLCAnLXRuJywgJzgnLCAnLW1hJywgJzIwMCcsICctaW1hZScsICc8aW5maWxlLm1hZT4nLCAnLW9tYWUnLCAnPG91dGZpbGUubWFlPic=

>  <r_lp_tautomer_probability>  (199) 
1

>  <r_epik_Ionization_Penalty>  (199) 
0.568423

>  <r_epik_Ionization_Penalty_Charging>  (199) 
0

>  <r_epik_Ionization_Penalty_Neutral>  (199) 
0.568423

>  <r_epik_State_Penalty>  (199) 
0.579246

>  <r_epik_Charging_Adjusted_Penalty>  (199) 
0.579246

>  <i_epik_Tot_Q>  (199) 
1

>  <i_epik_Tot_abs_Q>  (199) 
1

>  <s_lp_Force_Field>  (199) 
OPLS3e

>  <r_lp_Energy>  (199) 
20.2825

>  <b_lp_Chiralities_Consistent>  (199) 
1

>  <s_lp_Variant>  (199) 
60:0-2

>  <s_i_glide_gridfile>  (199) 
pfpi4k_grid

>  <i_i_glide_lignum>  (199) 
41

>  <i_i_glide_rotatable_bonds>  (199) 
5

>  <r_i_docking_score>  (199) 
-3.21686

>  <r_i_glide_ligand_efficiency>  (199) 
-0.160843

>  <r_i_glide_ligand_efficiency_sa>  (199) 
-0.436595

>  <r_i_glide_ligand_efficiency_ln>  (199) 
-0.805073

>  <r_i_glide_gscore>  (199) 
-3.21686

>  <r_i_glide_lipo>  (199) 
0

>  <r_i_glide_hbond>  (199) 
-0.36

>  <r_i_glide_metal>  (199) 
-0

>  <r_i_glide_rewards>  (199) 
-1.52484

>  <r_i_glide_evdw>  (199) 
-15.6583

>  <r_i_glide_ecoul>  (199) 
-8.28919

>  <r_i_glide_erotb>  (199) 
0.942225

>  <r_i_glide_esite>  (199) 
-0.247953

>  <r_i_glide_emodel>  (199) 
-29.2216

>  <r_i_glide_energy>  (199) 
-23.9475

>  <r_i_glide_einternal>  (199) 
2.19703

>  <r_i_glide_intrahb_reward>  (199) 
-0

>  <i_i_glide_confnum>  (199) 
2

>  <i_i_glide_posenum>  (199) 
5

>  <r_i_glide_eff_state_penalty>  (199) 
0

>  <ligand_id>  (199) 
60

>  <original_smiles>  (199) 
Cn1ncnc1C(C1CCCCC1)n1ccnc1CO

>  <smiles>  (199) 
[H]OC([H])([H])c1n(C([H])(c2nc([H])nn2C([H])([H])[H])C2([H])C([H])([H])C([H])([H])C([H])([H])C([H])([H])C2([H])[H])c([H])c([H])[n+]1[H]

$$$$
61:0:0
     RDKit          3D

 33 35  0  0  1  0  0  0  0  0999 V2000
    2.0070   -7.0654    1.9794 C   0  0  0  0  0  0  0  0  0  0  0  0
    2.0727   -6.0115    0.8828 C   0  0  0  0  0  0  0  0  0  0  0  0
    1.1132   -5.8640    0.1210 O   0  0  0  0  0  0  0  0  0  0  0  0
    3.1942   -5.2883    0.8250 N   0  0  0  0  0  0  0  0  0  0  0  0
    3.5246   -4.2279   -0.1343 C   0  0  2  0  0  0  0  0  0  0  0  0
    4.9556   -4.4400   -0.6927 C   0  0  2  0  0  0  0  0  0  0  0  0
    6.0022   -4.3437    0.4437 C   0  0  0  0  0  0  0  0  0  0  0  0
    5.9057   -2.9521    1.1066 C   0  0  1  0  0  0  0  0  0  0  0  0
    6.2077   -1.8659    0.0547 C   0  0  0  0  0  0  0  0  0  0  0  0
    5.1802   -1.9622   -1.0912 C   0  0  1  0  0  0  0  0  0  0  0  0
    5.2506   -3.3556   -1.7524 C   0  0  0  0  0  0  0  0  0  0  0  0
    3.7640   -1.7448   -0.5222 C   0  0  0  0  0  0  0  0  0  0  0  0
    3.4539   -2.8315    0.5325 C   0  0  2  0  0  0  0  0  0  0  0  0
    4.4878   -2.7333    1.6790 C   0  0  0  0  0  0  0  0  0  0  0  0
    2.9061   -7.0776    2.5938 H   0  0  0  0  0  0  0  0  0  0  0  0
    1.8857   -8.0584    1.5479 H   0  0  0  0  0  0  0  0  0  0  0  0
    1.1601   -6.8755    2.6343 H   0  0  0  0  0  0  0  0  0  0  0  0
    3.8963   -5.4755    1.5241 H   0  0  0  0  0  0  0  0  0  0  0  0
    2.8233   -4.2527   -0.9684 H   0  0  0  0  0  0  0  0  0  0  0  0
    5.0130   -5.4222   -1.1643 H   0  0  0  0  0  0  0  0  0  0  0  0
    5.8481   -5.1295    1.1859 H   0  0  0  0  0  0  0  0  0  0  0  0
    7.0044   -4.5041    0.0450 H   0  0  0  0  0  0  0  0  0  0  0  0
    6.6309   -2.8894    1.9164 H   0  0  0  0  0  0  0  0  0  0  0  0
    6.1618   -0.8786    0.5170 H   0  0  0  0  0  0  0  0  0  0  0  0
    7.2236   -1.9886   -0.3240 H   0  0  0  0  0  0  0  0  0  0  0  0
    5.3905   -1.1947   -1.8396 H   0  0  0  0  0  0  0  0  0  0  0  0
    6.2319   -3.5152   -2.2018 H   0  0  0  0  0  0  0  0  0  0  0  0
    4.5232   -3.4241   -2.5658 H   0  0  0  0  0  0  0  0  0  0  0  0
    3.6831   -0.7526   -0.0758 H   0  0  0  0  0  0  0  0  0  0  0  0
    3.0229   -1.7772   -1.3244 H   0  0  0  0  0  0  0  0  0  0  0  0
    2.4503   -2.6635    0.9245 H   0  0  0  0  0  0  0  0  0  0  0  0
    4.2791   -3.4660    2.4611 H   0  0  0  0  0  0  0  0  0  0  0  0
    4.4206   -1.7574    2.1610 H   0  0  0  0  0  0  0  0  0  0  0  0
  1  2  1  0
  1 15  1  0
  1 16  1  0
  1 17  1  0
  2  3  2  0
  2  4  1  0
  4  5  1  0
  4 18  1  0
  5 13  1  0
  5  6  1  0
  5 19  1  6
  6 11  1  0
  6  7  1  0
  6 20  1  6
  7  8  1  0
  7 21  1  0
  7 22  1  0
  8 14  1  0
  8  9  1  0
  8 23  1  1
  9 10  1  0
  9 24  1  0
  9 25  1  0
 10 11  1  0
 10 12  1  0
 10 26  1  6
 11 27  1  0
 11 28  1  0
 12 13  1  0
 12 29  1  0
 12 30  1  0
 13 14  1  0
 13 31  1  1
 14 32  1  0
 14 33  1  0
M  END
>  <i_m_ct_stereo_status>  (200) 
1

>  <s_m_source_file>  (200) 
/var/tmp/pbs.5076255.sched01/tmpr0mrskr5/46emy42_dx.sdf

>  <i_m_source_file_index>  (200) 
42

>  <i_lp_mmshare_version>  (200) 
48012

>  <i_f3d_flags>  (200) 
0

>  <s_epik_input>  (200) 
W0NIM11DKD1PKVtOSF1bQ0BIXShbQ0BASF0xMilbQ0BIXTNbQ0gyXVtDQEBIXShbQ0gyXTIpW0NIMl1bQ0BASF0oW0NIMl0xKVtDSDJdMw==

>  <s_epik_cmdline>  (200) 
J2VwaWtfcHl0aG9uJywgJy1waHQnLCAnMi4wJywgJy1waCcsICc3LjAnLCAnLXRuJywgJzgnLCAnLW1hJywgJzIwMCcsICctaW1hZScsICc8aW5maWxlLm1hZT4nLCAnLW9tYWUnLCAnPG91dGZpbGUubWFlPic=

>  <r_lp_tautomer_probability>  (200) 
1

>  <r_epik_Ionization_Penalty>  (200) 
3.08654e-06

>  <r_epik_Ionization_Penalty_Charging>  (200) 
0

>  <r_epik_Ionization_Penalty_Neutral>  (200) 
3.08654e-06

>  <r_epik_State_Penalty>  (200) 
-0

>  <r_epik_Charging_Adjusted_Penalty>  (200) 
0

>  <i_epik_Tot_Q>  (200) 
0

>  <i_epik_Tot_abs_Q>  (200) 
0

>  <s_lp_Force_Field>  (200) 
OPLS3e

>  <r_lp_Energy>  (200) 
-1.73574

>  <b_lp_Chiralities_Consistent>  (200) 
1

>  <s_lp_Variant>  (200) 
61:0-1

>  <s_i_glide_gridfile>  (200) 
pfpi4k_grid

>  <i_i_glide_lignum>  (200) 
42

>  <i_i_glide_rotatable_bonds>  (200) 
2

>  <r_i_docking_score>  (200) 
-4.36627

>  <r_i_glide_ligand_efficiency>  (200) 
-0.311877

>  <r_i_glide_ligand_efficiency_sa>  (200) 
-0.751667

>  <r_i_glide_ligand_efficiency_ln>  (200) 
-1.19984

>  <r_i_glide_gscore>  (200) 
-4.36627

>  <r_i_glide_lipo>  (200) 
-0.33797

>  <r_i_glide_hbond>  (200) 
-0.326447

>  <r_i_glide_metal>  (200) 
-0

>  <r_i_glide_rewards>  (200) 
-2.09124

>  <r_i_glide_evdw>  (200) 
-18.3233

>  <r_i_glide_ecoul>  (200) 
-4.27741

>  <r_i_glide_erotb>  (200) 
0

>  <r_i_glide_esite>  (200) 
-0.0528436

>  <r_i_glide_emodel>  (200) 
-28.8872

>  <r_i_glide_energy>  (200) 
-22.6007

>  <r_i_glide_einternal>  (200) 
0.353915

>  <r_i_glide_intrahb_reward>  (200) 
-0

>  <i_i_glide_confnum>  (200) 
1

>  <i_i_glide_posenum>  (200) 
16

>  <r_i_glide_eff_state_penalty>  (200) 
0

>  <ligand_id>  (200) 
61

>  <original_smiles>  (200) 
CC(=O)NC1C2CC3CC(C2)CC1C3

>  <smiles>  (200) 
[H]N(C(=O)C([H])([H])[H])C1([H])C2([H])C([H])([H])C3([H])C([H])([H])C([H])(C2([H])[H])C([H])([H])C1([H])C3([H])[H]

$$$$
61:0:1
     RDKit          3D

 33 35  0  0  1  0  0  0  0  0999 V2000
    3.0758   -5.2520    3.3708 C   0  0  0  0  0  0  0  0  0  0  0  0
    2.8570   -5.0749    1.8752 C   0  0  0  0  0  0  0  0  0  0  0  0
    1.8138   -5.4613    1.3496 O   0  0  0  0  0  0  0  0  0  0  0  0
    3.8483   -4.4778    1.2037 N   0  0  0  0  0  0  0  0  0  0  0  0
    3.8545   -4.1768   -0.2243 C   0  0  2  0  0  0  0  0  0  0  0  0
    5.3039   -3.9427   -0.7248 C   0  0  2  0  0  0  0  0  0  0  0  0
    5.9233   -2.7066   -0.0229 C   0  0  0  0  0  0  0  0  0  0  0  0
    5.0612   -1.4615   -0.3348 C   0  0  1  0  0  0  0  0  0  0  0  0
    5.0333   -1.2212   -1.8555 C   0  0  0  0  0  0  0  0  0  0  0  0
    4.4465   -2.4492   -2.5724 C   0  0  1  0  0  0  0  0  0  0  0  0
    5.2903   -3.6963   -2.2526 C   0  0  0  0  0  0  0  0  0  0  0  0
    3.0089   -2.6788   -2.0846 C   0  0  0  0  0  0  0  0  0  0  0  0
    3.0180   -2.9178   -0.5559 C   0  0  2  0  0  0  0  0  0  0  0  0
    3.6161   -1.6807    0.1608 C   0  0  0  0  0  0  0  0  0  0  0  0
    4.0339   -4.8415    3.6827 H   0  0  0  0  0  0  0  0  0  0  0  0
    3.0573   -6.3073    3.6351 H   0  0  0  0  0  0  0  0  0  0  0  0
    2.2949   -4.7393    3.9267 H   0  0  0  0  0  0  0  0  0  0  0  0
    4.6523   -4.1774    1.7358 H   0  0  0  0  0  0  0  0  0  0  0  0
    3.4379   -5.0499   -0.7205 H   0  0  0  0  0  0  0  0  0  0  0  0
    5.9049   -4.8289   -0.5101 H   0  0  0  0  0  0  0  0  0  0  0  0
    5.9890   -2.8593    1.0570 H   0  0  0  0  0  0  0  0  0  0  0  0
    6.9478   -2.5591   -0.3710 H   0  0  0  0  0  0  0  0  0  0  0  0
    5.4932   -0.5919    0.1617 H   0  0  0  0  0  0  0  0  0  0  0  0
    4.4490   -0.3283   -2.0856 H   0  0  0  0  0  0  0  0  0  0  0  0
    6.0466   -1.0550   -2.2091 H   0  0  0  0  0  0  0  0  0  0  0  0
    4.4488   -2.2767   -3.6484 H   0  0  0  0  0  0  0  0  0  0  0  0
    6.3075   -3.5646   -2.6251 H   0  0  0  0  0  0  0  0  0  0  0  0
    4.8834   -4.5703   -2.7667 H   0  0  0  0  0  0  0  0  0  0  0  0
    2.3960   -1.8124   -2.3259 H   0  0  0  0  0  0  0  0  0  0  0  0
    2.5579   -3.5231   -2.6084 H   0  0  0  0  0  0  0  0  0  0  0  0
    1.9811   -3.0563   -0.2310 H   0  0  0  0  0  0  0  0  0  0  0  0
    3.5964   -1.8061    1.2451 H   0  0  0  0  0  0  0  0  0  0  0  0
    3.0142   -0.7966   -0.0508 H   0  0  0  0  0  0  0  0  0  0  0  0
  1  2  1  0
  1 15  1  0
  1 16  1  0
  1 17  1  0
  2  3  2  0
  2  4  1  0
  4  5  1  0
  4 18  1  0
  5 13  1  0
  5  6  1  0
  5 19  1  6
  6 11  1  0
  6  7  1  0
  6 20  1  6
  7  8  1  0
  7 21  1  0
  7 22  1  0
  8 14  1  0
  8  9  1  0
  8 23  1  1
  9 10  1  0
  9 24  1  0
  9 25  1  0
 10 11  1  0
 10 12  1  0
 10 26  1  6
 11 27  1  0
 11 28  1  0
 12 13  1  0
 12 29  1  0
 12 30  1  0
 13 14  1  0
 13 31  1  1
 14 32  1  0
 14 33  1  0
M  END
>  <i_m_ct_stereo_status>  (201) 
1

>  <s_m_source_file>  (201) 
/var/tmp/pbs.5076255.sched01/tmpr0mrskr5/46emy42_dx.sdf

>  <i_m_source_file_index>  (201) 
42

>  <i_lp_mmshare_version>  (201) 
48012

>  <i_f3d_flags>  (201) 
0

>  <s_epik_input>  (201) 
W0NIM11DKD1PKVtOSF1bQ0BIXShbQ0BASF0xMilbQ0BIXTNbQ0gyXVtDQEBIXShbQ0gyXTIpW0NIMl1bQ0BASF0oW0NIMl0xKVtDSDJdMw==

>  <s_epik_cmdline>  (201) 
J2VwaWtfcHl0aG9uJywgJy1waHQnLCAnMi4wJywgJy1waCcsICc3LjAnLCAnLXRuJywgJzgnLCAnLW1hJywgJzIwMCcsICctaW1hZScsICc8aW5maWxlLm1hZT4nLCAnLW9tYWUnLCAnPG91dGZpbGUubWFlPic=

>  <r_lp_tautomer_probability>  (201) 
1

>  <r_epik_Ionization_Penalty>  (201) 
3.08654e-06

>  <r_epik_Ionization_Penalty_Charging>  (201) 
0

>  <r_epik_Ionization_Penalty_Neutral>  (201) 
3.08654e-06

>  <r_epik_State_Penalty>  (201) 
-0

>  <r_epik_Charging_Adjusted_Penalty>  (201) 
0

>  <i_epik_Tot_Q>  (201) 
0

>  <i_epik_Tot_abs_Q>  (201) 
0

>  <s_lp_Force_Field>  (201) 
OPLS3e

>  <r_lp_Energy>  (201) 
-1.73574

>  <b_lp_Chiralities_Consistent>  (201) 
1

>  <s_lp_Variant>  (201) 
61:0-1

>  <s_i_glide_gridfile>  (201) 
pfpi4k_grid

>  <i_i_glide_lignum>  (201) 
42

>  <i_i_glide_rotatable_bonds>  (201) 
2

>  <r_i_docking_score>  (201) 
-3.61875

>  <r_i_glide_ligand_efficiency>  (201) 
-0.258482

>  <r_i_glide_ligand_efficiency_sa>  (201) 
-0.622978

>  <r_i_glide_ligand_efficiency_ln>  (201) 
-0.994419

>  <r_i_glide_gscore>  (201) 
-3.61875

>  <r_i_glide_lipo>  (201) 
-0.273996

>  <r_i_glide_hbond>  (201) 
-0.0718178

>  <r_i_glide_metal>  (201) 
-0

>  <r_i_glide_rewards>  (201) 
-2.09124

>  <r_i_glide_evdw>  (201) 
-18.2022

>  <r_i_glide_ecoul>  (201) 
-1.76524

>  <r_i_glide_erotb>  (201) 
0

>  <r_i_glide_esite>  (201) 
-0.00680367

>  <r_i_glide_emodel>  (201) 
-25.3136

>  <r_i_glide_energy>  (201) 
-19.9674

>  <r_i_glide_einternal>  (201) 
0.00904627

>  <r_i_glide_intrahb_reward>  (201) 
-0

>  <i_i_glide_confnum>  (201) 
1

>  <i_i_glide_posenum>  (201) 
30

>  <r_i_glide_eff_state_penalty>  (201) 
0

>  <ligand_id>  (201) 
61

>  <original_smiles>  (201) 
CC(=O)NC1C2CC3CC(C2)CC1C3

>  <smiles>  (201) 
[H]N(C(=O)C([H])([H])[H])C1([H])C2([H])C([H])([H])C3([H])C([H])([H])C([H])(C2([H])[H])C([H])([H])C1([H])C3([H])[H]

$$$$
61:0:2
     RDKit          3D

 33 35  0  0  1  0  0  0  0  0999 V2000
    0.2221   -2.6183    5.0611 C   0  0  0  0  0  0  0  0  0  0  0  0
   -0.8283   -1.5114    5.0981 C   0  0  0  0  0  0  0  0  0  0  0  0
   -1.9002   -1.6871    5.6817 O   0  0  0  0  0  0  0  0  0  0  0  0
   -0.5074   -0.3733    4.4761 N   0  0  0  0  0  0  0  0  0  0  0  0
   -1.3127    0.8456    4.4321 C   0  0  2  0  0  0  0  0  0  0  0  0
   -1.0508    1.5990    3.1050 C   0  0  2  0  0  0  0  0  0  0  0  0
    0.4310    2.0381    3.0243 C   0  0  0  0  0  0  0  0  0  0  0  0
    0.7550    2.9666    4.2173 C   0  0  1  0  0  0  0  0  0  0  0  0
   -0.1500    4.2127    4.1605 C   0  0  0  0  0  0  0  0  0  0  0  0
   -1.6272    3.7745    4.2315 C   0  0  1  0  0  0  0  0  0  0  0  0
   -1.9592    2.8448    3.0498 C   0  0  0  0  0  0  0  0  0  0  0  0
   -1.8832    3.0315    5.5574 C   0  0  0  0  0  0  0  0  0  0  0  0
   -0.9791    1.7816    5.6207 C   0  0  2  0  0  0  0  0  0  0  0  0
    0.5051    2.2196    5.5492 C   0  0  0  0  0  0  0  0  0  0  0  0
    1.1171   -2.3106    4.5224 H   0  0  0  0  0  0  0  0  0  0  0  0
   -0.1822   -3.4976    4.5671 H   0  0  0  0  0  0  0  0  0  0  0  0
    0.5175   -2.8968    6.0699 H   0  0  0  0  0  0  0  0  0  0  0  0
    0.3919   -0.3224    4.0211 H   0  0  0  0  0  0  0  0  0  0  0  0
   -2.3691    0.5809    4.4791 H   0  0  0  0  0  0  0  0  0  0  0  0
   -1.2886    0.9554    2.2554 H   0  0  0  0  0  0  0  0  0  0  0  0
    1.1027    1.1791    3.0175 H   0  0  0  0  0  0  0  0  0  0  0  0
    0.6080    2.5460    2.0795 H   0  0  0  0  0  0  0  0  0  0  0  0
    1.8006    3.2758    4.1555 H   0  0  0  0  0  0  0  0  0  0  0  0
    0.0867    4.8814    4.9873 H   0  0  0  0  0  0  0  0  0  0  0  0
    0.0442    4.7683    3.2429 H   0  0  0  0  0  0  0  0  0  0  0  0
   -2.2688    4.6486    4.1757 H   0  0  0  0  0  0  0  0  0  0  0  0
   -1.8137    3.3746    2.1075 H   0  0  0  0  0  0  0  0  0  0  0  0
   -3.0104    2.5467    3.0835 H   0  0  0  0  0  0  0  0  0  0  0  0
   -1.6782    3.6899    6.4010 H   0  0  0  0  0  0  0  0  0  0  0  0
   -2.9353    2.7526    5.6331 H   0  0  0  0  0  0  0  0  0  0  0  0
   -1.1626    1.2620    6.5616 H   0  0  0  0  0  0  0  0  0  0  0  0
    1.1733    1.3602    5.6304 H   0  0  0  0  0  0  0  0  0  0  0  0
    0.7453    2.8642    6.3948 H   0  0  0  0  0  0  0  0  0  0  0  0
  1  2  1  0
  1 15  1  0
  1 16  1  0
  1 17  1  0
  2  3  2  0
  2  4  1  0
  4  5  1  0
  4 18  1  0
  5 13  1  0
  5  6  1  0
  5 19  1  1
  6 11  1  0
  6  7  1  0
  6 20  1  6
  7  8  1  0
  7 21  1  0
  7 22  1  0
  8 14  1  0
  8  9  1  0
  8 23  1  6
  9 10  1  0
  9 24  1  0
  9 25  1  0
 10 11  1  0
 10 12  1  0
 10 26  1  1
 11 27  1  0
 11 28  1  0
 12 13  1  0
 12 29  1  0
 12 30  1  0
 13 14  1  0
 13 31  1  1
 14 32  1  0
 14 33  1  0
M  END
>  <i_m_ct_stereo_status>  (202) 
1

>  <s_m_source_file>  (202) 
/var/tmp/pbs.5076255.sched01/tmpr0mrskr5/46emy42_dx.sdf

>  <i_m_source_file_index>  (202) 
42

>  <i_lp_mmshare_version>  (202) 
48012

>  <i_f3d_flags>  (202) 
0

>  <s_epik_input>  (202) 
W0NIM11DKD1PKVtOSF1bQ0BIXShbQ0BASF0xMilbQ0BIXTNbQ0gyXVtDQEBIXShbQ0gyXTIpW0NIMl1bQ0BASF0oW0NIMl0xKVtDSDJdMw==

>  <s_epik_cmdline>  (202) 
J2VwaWtfcHl0aG9uJywgJy1waHQnLCAnMi4wJywgJy1waCcsICc3LjAnLCAnLXRuJywgJzgnLCAnLW1hJywgJzIwMCcsICctaW1hZScsICc8aW5maWxlLm1hZT4nLCAnLW9tYWUnLCAnPG91dGZpbGUubWFlPic=

>  <r_lp_tautomer_probability>  (202) 
1

>  <r_epik_Ionization_Penalty>  (202) 
3.08654e-06

>  <r_epik_Ionization_Penalty_Charging>  (202) 
0

>  <r_epik_Ionization_Penalty_Neutral>  (202) 
3.08654e-06

>  <r_epik_State_Penalty>  (202) 
-0

>  <r_epik_Charging_Adjusted_Penalty>  (202) 
0

>  <i_epik_Tot_Q>  (202) 
0

>  <i_epik_Tot_abs_Q>  (202) 
0

>  <s_lp_Force_Field>  (202) 
OPLS3e

>  <r_lp_Energy>  (202) 
-1.73574

>  <b_lp_Chiralities_Consistent>  (202) 
1

>  <s_lp_Variant>  (202) 
61:0-1

>  <s_i_glide_gridfile>  (202) 
pfpi4k_grid

>  <i_i_glide_lignum>  (202) 
42

>  <i_i_glide_rotatable_bonds>  (202) 
2

>  <r_i_docking_score>  (202) 
-3.53038

>  <r_i_glide_ligand_efficiency>  (202) 
-0.25217

>  <r_i_glide_ligand_efficiency_sa>  (202) 
-0.607765

>  <r_i_glide_ligand_efficiency_ln>  (202) 
-0.970136

>  <r_i_glide_gscore>  (202) 
-3.53038

>  <r_i_glide_lipo>  (202) 
-0.0206429

>  <r_i_glide_hbond>  (202) 
0

>  <r_i_glide_metal>  (202) 
-0

>  <r_i_glide_rewards>  (202) 
-2.09124

>  <r_i_glide_evdw>  (202) 
-17.9318

>  <r_i_glide_ecoul>  (202) 
-3.13288

>  <r_i_glide_erotb>  (202) 
0

>  <r_i_glide_esite>  (202) 
-0.0519788

>  <r_i_glide_emodel>  (202) 
-26.2146

>  <r_i_glide_energy>  (202) 
-21.0647

>  <r_i_glide_einternal>  (202) 
0.0933704

>  <r_i_glide_intrahb_reward>  (202) 
-0

>  <i_i_glide_confnum>  (202) 
1

>  <i_i_glide_posenum>  (202) 
20

>  <r_i_glide_eff_state_penalty>  (202) 
0

>  <ligand_id>  (202) 
61

>  <original_smiles>  (202) 
CC(=O)NC1C2CC3CC(C2)CC1C3

>  <smiles>  (202) 
[H]N(C(=O)C([H])([H])[H])C1([H])C2([H])C([H])([H])C3([H])C([H])([H])C([H])(C2([H])[H])C([H])([H])C1([H])C3([H])[H]

$$$$
62:0:0
     RDKit          3D

 84 90  0  0  1  0  0  0  0  0999 V2000
    5.1385   -3.5400    5.8716 C   0  0  0  0  0  0  0  0  0  0  0  0
    4.2104   -2.5718    6.6659 C   0  0  0  0  0  0  0  0  0  0  0  0
    3.8662   -1.2322    5.9499 C   0  0  2  0  0  0  0  0  0  0  0  0
    3.9706   -0.0269    6.9418 C   0  0  1  0  0  0  0  0  0  0  0  0
    5.0590    0.8633    6.6836 O   0  0  0  0  0  0  0  0  0  0  0  0
    6.3739    0.3585    6.8770 C   0  0  0  0  0  0  0  0  0  0  0  0
    2.7019    0.8413    6.9054 C   0  0  1  0  0  0  0  0  0  0  0  0
    2.4395    1.3724    5.4271 C   0  0  2  0  0  0  0  0  0  0  0  0
    1.0281    2.0481    5.2850 C   0  0  1  0  0  0  0  0  0  0  0  0
    0.9645    2.8919    4.1812 O   0  0  0  0  0  0  0  0  0  0  0  0
   -0.3307    3.3570    3.8009 C   0  0  0  0  0  0  0  0  0  0  0  0
   -0.3875    4.8892    3.7927 C   0  0  0  0  0  0  0  0  0  0  0  0
   -1.3717    5.3398    2.8762 O   0  0  0  0  0  0  0  0  0  0  0  0
   -0.0216    1.1323    5.3628 O   0  0  0  0  0  0  0  0  0  0  0  0
    0.0852   -0.1483    4.7710 C   0  0  0  0  0  0  0  0  0  0  0  0
    1.1131   -1.0874    5.4834 C   0  0  2  0  0  0  0  0  0  0  0  0
    0.8321   -1.0691    7.0254 C   0  0  1  0  0  0  0  0  0  0  0  0
    0.7366   -2.4543    7.8182 C   0  0  1  0  0  0  0  0  0  0  0  0
   -0.1779   -2.2569    8.9068 O   0  0  0  0  0  0  0  0  0  0  0  0
    0.0170   -3.0449   10.0793 C   0  0  0  0  0  0  0  0  0  0  0  0
    0.2707   -3.7637    7.0857 C   0  0  1  0  0  0  0  0  0  0  0  0
   -1.0017   -3.5543    6.5151 O   0  0  0  0  0  0  0  0  0  0  0  0
    1.2912   -4.2331    6.0564 C   0  0  0  0  0  0  0  0  0  0  0  0
    1.1600   -4.0622    4.7276 C   0  0  0  0  0  0  0  0  0  0  0  0
    2.2464   -3.6073    3.8774 C   0  0  0  0  0  0  0  0  0  0  0  0
    2.8157   -2.3539    3.8827 C   0  0  0  0  0  0  0  0  0  0  0  0
    3.8100   -2.0933    2.7594 C   0  0  1  0  0  0  0  0  0  0  0  0
    4.5587   -3.2602    2.4613 O   0  0  0  0  0  0  0  0  0  0  0  0
    3.7899   -4.3824    2.1744 C   0  0  0  0  0  0  0  0  0  0  0  0
    2.6702   -4.5703    2.9929 O   0  0  0  0  0  0  0  0  0  0  0  0
    3.1792   -1.4236    1.5057 C   0  0  1  0  0  0  0  0  0  0  0  0
    2.2143   -2.2521    0.8882 O   0  0  0  0  0  0  0  0  0  0  0  0
    2.4735   -0.1064    1.7521 C   0  0  0  0  0  0  0  0  0  0  0  0
    2.3164    0.6036    2.8768 C   0  0  0  0  0  0  0  0  0  0  0  0
    2.8608    0.3370    4.2852 C   0  0  1  0  0  0  0  0  0  0  0  0
    4.2262    0.6731    4.0563 O   0  0  0  0  0  0  0  0  0  0  0  0
    2.6352   -1.1380    4.8982 C   0  0  2  0  0  0  0  0  0  0  0  0
    1.5388    0.1608    7.7237 C   0  0  1  0  0  0  0  0  0  0  0  0
    1.8873   -0.0557    9.2158 C   0  0  0  0  0  0  0  0  0  0  0  0
    0.6600    0.1477    9.8826 O   0  0  0  0  0  0  0  0  0  0  0  0
   -0.0099    1.0890    9.1283 C   0  0  0  0  0  0  0  0  0  0  0  0
    0.6093    1.2158    7.9072 O   0  0  0  0  0  0  0  0  0  0  0  0
    5.2600   -4.4736    6.4124 H   0  0  0  0  0  0  0  0  0  0  0  0
    6.1341   -3.1304    5.6995 H   0  0  0  0  0  0  0  0  0  0  0  0
    4.7510   -3.8185    4.8998 H   0  0  0  0  0  0  0  0  0  0  0  0
    3.3016   -3.0154    6.9885 H   0  0  0  0  0  0  0  0  0  0  0  0
    4.7518   -2.3762    7.6032 H   0  0  0  0  0  0  0  0  0  0  0  0
    4.7608   -1.1511    5.3380 H   0  0  0  0  0  0  0  0  0  0  0  0
    4.1265   -0.3819    7.9598 H   0  0  0  0  0  0  0  0  0  0  0  0
    7.0777    1.1822    6.7550 H   0  0  0  0  0  0  0  0  0  0  0  0
    6.6393   -0.3999    6.1405 H   0  0  0  0  0  0  0  0  0  0  0  0
    6.5106   -0.0545    7.8769 H   0  0  0  0  0  0  0  0  0  0  0  0
    2.9506    1.7336    7.4804 H   0  0  0  0  0  0  0  0  0  0  0  0
    3.1041    2.2339    5.3224 H   0  0  0  0  0  0  0  0  0  0  0  0
    0.8702    2.7488    6.1039 H   0  0  0  0  0  0  0  0  0  0  0  0
   -0.5019    2.9557    2.8017 H   0  0  0  0  0  0  0  0  0  0  0  0
   -1.1453    2.9861    4.4235 H   0  0  0  0  0  0  0  0  0  0  0  0
   -0.5974    5.2620    4.7937 H   0  0  0  0  0  0  0  0  0  0  0  0
    0.5674    5.3053    3.4768 H   0  0  0  0  0  0  0  0  0  0  0  0
   -1.0440    5.1062    2.0145 H   0  0  0  0  0  0  0  0  0  0  0  0
   -0.9122   -0.5640    4.9280 H   0  0  0  0  0  0  0  0  0  0  0  0
    0.1471   -0.1297    3.6866 H   0  0  0  0  0  0  0  0  0  0  0  0
    0.5769   -1.9293    5.1432 H   0  0  0  0  0  0  0  0  0  0  0  0
   -0.2223   -0.7927    7.0699 H   0  0  0  0  0  0  0  0  0  0  0  0
    1.7146   -2.6799    8.2330 H   0  0  0  0  0  0  0  0  0  0  0  0
   -0.6679   -2.7110   10.8594 H   0  0  0  0  0  0  0  0  0  0  0  0
    1.0264   -2.9509   10.4802 H   0  0  0  0  0  0  0  0  0  0  0  0
   -0.1963   -4.0976    9.9050 H   0  0  0  0  0  0  0  0  0  0  0  0
    0.1885   -4.5724    7.8023 H   0  0  0  0  0  0  0  0  0  0  0  0
   -1.2717   -4.3766    6.1359 H   0  0  0  0  0  0  0  0  0  0  0  0
    2.2460   -4.5192    6.4637 H   0  0  0  0  0  0  0  0  0  0  0  0
    0.1825   -3.8198    4.3278 H   0  0  0  0  0  0  0  0  0  0  0  0
    4.6097   -1.4566    3.1208 H   0  0  0  0  0  0  0  0  0  0  0  0
    3.4762   -4.3677    1.1340 H   0  0  0  0  0  0  0  0  0  0  0  0
    4.4237   -5.2606    2.2909 H   0  0  0  0  0  0  0  0  0  0  0  0
    3.9700   -1.2338    0.7803 H   0  0  0  0  0  0  0  0  0  0  0  0
    1.7418   -1.7302    0.2350 H   0  0  0  0  0  0  0  0  0  0  0  0
    2.0124    0.3080    0.8663 H   0  0  0  0  0  0  0  0  0  0  0  0
    1.7900    1.5224    2.7133 H   0  0  0  0  0  0  0  0  0  0  0  0
    4.2609    1.5063    3.6060 H   0  0  0  0  0  0  0  0  0  0  0  0
    2.3117   -1.0328    9.4416 H   0  0  0  0  0  0  0  0  0  0  0  0
    2.6093    0.6836    9.5731 H   0  0  0  0  0  0  0  0  0  0  0  0
   -1.0402    0.7905    8.9467 H   0  0  0  0  0  0  0  0  0  0  0  0
    0.0086    2.0542    9.6308 H   0  0  0  0  0  0  0  0  0  0  0  0
  1  2  1  0
  1 43  1  0
  1 44  1  0
  1 45  1  0
  2  3  1  0
  2 46  1  0
  2 47  1  0
  3 37  1  0
  3  4  1  0
  3 48  1  6
  4  5  1  0
  4  7  1  0
  4 49  1  1
  5  6  1  0
  6 50  1  0
  6 51  1  0
  6 52  1  0
  7 38  1  0
  7  8  1  0
  7 53  1  1
  8 35  1  0
  8  9  1  0
  8 54  1  6
  9 10  1  0
  9 14  1  0
  9 55  1  1
 10 11  1  0
 11 12  1  0
 11 56  1  0
 11 57  1  0
 12 13  1  0
 12 58  1  0
 12 59  1  0
 13 60  1  0
 14 15  1  0
 15 16  1  0
 15 61  1  0
 15 62  1  0
 16 37  1  0
 16 17  1  0
 16 63  1  6
 17 18  1  0
 17 38  1  0
 17 64  1  6
 18 19  1  0
 18 21  1  0
 18 65  1  1
 19 20  1  0
 20 66  1  0
 20 67  1  0
 20 68  1  0
 21 22  1  0
 21 23  1  0
 21 69  1  1
 22 70  1  0
 23 24  2  3
 23 71  1  0
 24 25  1  0
 24 72  1  0
 25 30  1  0
 25 26  2  0
 37 26  1  6
 26 27  1  0
 27 28  1  0
 27 31  1  0
 27 73  1  1
 28 29  1  0
 29 30  1  0
 29 74  1  0
 29 75  1  0
 31 32  1  0
 31 33  1  0
 31 76  1  6
 32 77  1  0
 33 34  2  0
 33 78  1  0
 34 35  1  0
 34 79  1  0
 35 36  1  6
 35 37  1  0
 36 80  1  0
 38 42  1  1
 38 39  1  0
 39 40  1  0
 39 81  1  0
 39 82  1  0
 40 41  1  0
 41 42  1  0
 41 83  1  0
 41 84  1  0
M  END
>  <i_m_ct_stereo_status>  (203) 
1

>  <s_m_source_file>  (203) 
/var/tmp/pbs.5076255.sched01/tmpr0mrskr5/46emy42_dx.sdf

>  <i_m_source_file_index>  (203) 
43

>  <i_lp_mmshare_version>  (203) 
48012

>  <i_f3d_flags>  (203) 
0

>  <s_epik_input>  (203) 
TzFbQ0gyXU9bQ0gyXVtDQF0xKFtDQEBIXTJbQ0BASF0zW0NAQF00NTYpW0NAQEhdKFtDQEhdKE9bQ0gzXSlbQ0BIXTRbQ0gyXVtDSDNdKVtDQEhdKFtDQEhdKE9bQ0gyXTMpT1tDSDJdW0NIMl1bT0hdKVtDQF02KFtPSF0pW0NIXT1bQ0hdW0NASF0oW09IXSlbQ0BIXTdDNT1DKE9bQ0gyXU83KS9bQ0hdPVtDSF1cW0NASF0oW09IXSlbQ0BASF0yT1tDSDNd

>  <s_epik_cmdline>  (203) 
J2VwaWtfcHl0aG9uJywgJy1waHQnLCAnMi4wJywgJy1waCcsICc3LjAnLCAnLXRuJywgJzgnLCAnLW1hJywgJzIwMCcsICctaW1hZScsICc8aW5maWxlLm1hZT4nLCAnLW9tYWUnLCAnPG91dGZpbGUubWFlPic=

>  <r_lp_tautomer_probability>  (203) 
1

>  <r_epik_Ionization_Penalty>  (203) 
0.000217154

>  <r_epik_Ionization_Penalty_Charging>  (203) 
0

>  <r_epik_Ionization_Penalty_Neutral>  (203) 
0.000217154

>  <r_epik_State_Penalty>  (203) 
-0

>  <r_epik_Charging_Adjusted_Penalty>  (203) 
0

>  <i_epik_Tot_Q>  (203) 
0

>  <i_epik_Tot_abs_Q>  (203) 
0

>  <s_epik_Chemistry_Notes>  (203) 
This compound contains an acetal/aminal-like group ( X-CH(R)-Y where X, Y are N, S, or O) that may be acid/base labile, releasing an aldehyde.

>  <s_lp_Force_Field>  (203) 
OPLS3e

>  <r_lp_Energy>  (203) 
148.298

>  <b_lp_Chiralities_Consistent>  (203) 
1

>  <s_lp_Variant>  (203) 
62:0-1

>  <s_i_glide_gridfile>  (203) 
pfpi4k_grid

>  <i_i_glide_lignum>  (203) 
43

>  <i_i_glide_rotatable_bonds>  (203) 
10

>  <r_i_docking_score>  (203) 
-3.66447

>  <r_i_glide_ligand_efficiency>  (203) 
-0.0872494

>  <r_i_glide_ligand_efficiency_sa>  (203) 
-0.303281

>  <r_i_glide_ligand_efficiency_ln>  (203) 
-0.773476

>  <r_i_glide_gscore>  (203) 
-3.66447

>  <r_i_glide_lipo>  (203) 
-0.065061

>  <r_i_glide_hbond>  (203) 
-0.448965

>  <r_i_glide_metal>  (203) 
-0

>  <r_i_glide_rewards>  (203) 
-0.00329502

>  <r_i_glide_evdw>  (203) 
-17.7034

>  <r_i_glide_ecoul>  (203) 
-15.2383

>  <r_i_glide_erotb>  (203) 
0.0459631

>  <r_i_glide_esite>  (203) 
-0.0222015

>  <r_i_glide_emodel>  (203) 
-37.672

>  <r_i_glide_energy>  (203) 
-32.9417

>  <r_i_glide_einternal>  (203) 
7.73695

>  <r_i_glide_intrahb_reward>  (203) 
-0

>  <i_i_glide_confnum>  (203) 
1

>  <i_i_glide_posenum>  (203) 
2

>  <r_i_glide_eff_state_penalty>  (203) 
0

>  <ligand_id>  (203) 
62

>  <original_smiles>  (203) 
CCC1C(OC)C2C3C(OCCO)OCC4C(C(OC)C(O)C=CC5=C6C(OCO5)C(O)C=CC3(O)C614)C21COCO1

>  <smiles>  (203) 
[H]OC([H])([H])C([H])([H])OC1([H])OC([H])([H])C2([H])C3([H])C([H])(OC([H])([H])[H])C([H])(O[H])C([H])=C([H])C4=C5C([H])(OC([H])([H])O4)C([H])(O[H])C([H])=C([H])C4(O[H])C1([H])C([H])(C([H])(OC([H])([H])[H])C([H])(C([H])([H])C([H])([H])[H])C542)C31OC([H])([H])OC1([H])[H]

$$$$
62:0:1
     RDKit          3D

 84 90  0  0  1  0  0  0  0  0999 V2000
    4.6369    2.1522    6.3266 C   0  0  0  0  0  0  0  0  0  0  0  0
    3.2359    2.6756    6.7549 C   0  0  0  0  0  0  0  0  0  0  0  0
    2.2653    3.0159    5.5831 C   0  0  2  0  0  0  0  0  0  0  0  0
    1.4581    4.3254    5.8774 C   0  0  1  0  0  0  0  0  0  0  0  0
    1.7950    5.4435    5.0445 O   0  0  0  0  0  0  0  0  0  0  0  0
    3.0960    6.0029    5.1951 C   0  0  0  0  0  0  0  0  0  0  0  0
   -0.0559    4.1237    5.6909 C   0  0  1  0  0  0  0  0  0  0  0  0
   -0.3642    3.6210    4.2104 C   0  0  2  0  0  0  0  0  0  0  0  0
   -1.8515    3.1577    4.0439 C   0  0  1  0  0  0  0  0  0  0  0  0
   -2.2533    3.1422    2.7093 O   0  0  0  0  0  0  0  0  0  0  0  0
   -3.6532    2.9841    2.4852 C   0  0  0  0  0  0  0  0  0  0  0  0
   -4.2994    4.3222    2.0917 C   0  0  0  0  0  0  0  0  0  0  0  0
   -5.6597    4.3829    2.4600 O   0  0  0  0  0  0  0  0  0  0  0  0
   -2.1374    1.9695    4.7087 O   0  0  0  0  0  0  0  0  0  0  0  0
   -1.1789    0.9217    4.7708 C   0  0  0  0  0  0  0  0  0  0  0  0
    0.0954    1.2565    5.6199 C   0  0  2  0  0  0  0  0  0  0  0  0
   -0.3605    1.8224    7.0138 C   0  0  1  0  0  0  0  0  0  0  0  0
    0.2979    1.2280    8.3477 C   0  0  1  0  0  0  0  0  0  0  0  0
   -0.6981    1.3338    9.3746 O   0  0  0  0  0  0  0  0  0  0  0  0
   -0.2489    1.3794   10.7279 C   0  0  0  0  0  0  0  0  0  0  0  0
    0.8598   -0.2405    8.3777 C   0  0  1  0  0  0  0  0  0  0  0  0
   -0.1544   -1.1448    7.9991 O   0  0  0  0  0  0  0  0  0  0  0  0
    2.0915   -0.3850    7.4965 C   0  0  0  0  0  0  0  0  0  0  0  0
    2.0689   -0.9958    6.2999 C   0  0  0  0  0  0  0  0  0  0  0  0
    2.7523   -0.4628    5.1429 C   0  0  0  0  0  0  0  0  0  0  0  0
    2.4311    0.6985    4.4758 C   0  0  0  0  0  0  0  0  0  0  0  0
    3.2182    0.9353    3.1986 C   0  0  1  0  0  0  0  0  0  0  0  0
    4.5541    0.4834    3.3396 O   0  0  0  0  0  0  0  0  0  0  0  0
    4.6808   -0.8378    3.7274 C   0  0  0  0  0  0  0  0  0  0  0  0
    3.8055   -1.2505    4.7364 O   0  0  0  0  0  0  0  0  0  0  0  0
    2.5037    0.4062    1.9278 C   0  0  1  0  0  0  0  0  0  0  0  0
    2.3437   -0.9952    1.9257 O   0  0  0  0  0  0  0  0  0  0  0  0
    1.1108    0.9421    1.6932 C   0  0  0  0  0  0  0  0  0  0  0  0
    0.3883    1.8338    2.3819 C   0  0  0  0  0  0  0  0  0  0  0  0
    0.7715    2.6662    3.6044 C   0  0  1  0  0  0  0  0  0  0  0  0
    1.6517    3.5897    2.9725 O   0  0  0  0  0  0  0  0  0  0  0  0
    1.4021    1.8557    4.8520 C   0  0  2  0  0  0  0  0  0  0  0  0
   -0.6693    3.3658    6.9384 C   0  0  1  0  0  0  0  0  0  0  0  0
   -0.4802    4.1356    8.2652 C   0  0  0  0  0  0  0  0  0  0  0  0
   -1.6622    3.8528    8.9843 O   0  0  0  0  0  0  0  0  0  0  0  0
   -2.6444    3.6894    8.0336 C   0  0  0  0  0  0  0  0  0  0  0  0
   -2.0622    3.5893    6.7858 O   0  0  0  0  0  0  0  0  0  0  0  0
    5.2303    1.8934    7.1993 H   0  0  0  0  0  0  0  0  0  0  0  0
    5.2089    2.8721    5.7466 H   0  0  0  0  0  0  0  0  0  0  0  0
    4.6138    1.2501    5.7291 H   0  0  0  0  0  0  0  0  0  0  0  0
    2.7411    2.0494    7.4580 H   0  0  0  0  0  0  0  0  0  0  0  0
    3.4601    3.6002    7.2970 H   0  0  0  0  0  0  0  0  0  0  0  0
    2.9980    3.3257    4.8393 H   0  0  0  0  0  0  0  0  0  0  0  0
    1.6490    4.6660    6.8940 H   0  0  0  0  0  0  0  0  0  0  0  0
    3.1551    6.9010    4.5816 H   0  0  0  0  0  0  0  0  0  0  0  0
    3.8781    5.3262    4.8517 H   0  0  0  0  0  0  0  0  0  0  0  0
    3.3000    6.2873    6.2283 H   0  0  0  0  0  0  0  0  0  0  0  0
   -0.4870    5.1180    5.7393 H   0  0  0  0  0  0  0  0  0  0  0  0
   -0.3464    4.5260    3.5977 H   0  0  0  0  0  0  0  0  0  0  0  0
   -2.5047    3.9082    4.4893 H   0  0  0  0  0  0  0  0  0  0  0  0
   -3.7874    2.2772    1.6683 H   0  0  0  0  0  0  0  0  0  0  0  0
   -4.1424    2.5520    3.3577 H   0  0  0  0  0  0  0  0  0  0  0  0
   -3.7801    5.1471    2.5792 H   0  0  0  0  0  0  0  0  0  0  0  0
   -4.2242    4.4954    1.0245 H   0  0  0  0  0  0  0  0  0  0  0  0
   -6.1909    3.8496    1.8623 H   0  0  0  0  0  0  0  0  0  0  0  0
   -1.7202    0.1266    5.2864 H   0  0  0  0  0  0  0  0  0  0  0  0
   -0.9773    0.4535    3.8106 H   0  0  0  0  0  0  0  0  0  0  0  0
    0.2453    0.2291    5.8035 H   0  0  0  0  0  0  0  0  0  0  0  0
   -1.3561    1.3850    7.1265 H   0  0  0  0  0  0  0  0  0  0  0  0
    1.1177    1.8752    8.6418 H   0  0  0  0  0  0  0  0  0  0  0  0
   -1.0974    1.5633   11.3846 H   0  0  0  0  0  0  0  0  0  0  0  0
    0.4685    2.1831   10.8955 H   0  0  0  0  0  0  0  0  0  0  0  0
    0.1921    0.4407   11.0579 H   0  0  0  0  0  0  0  0  0  0  0  0
    1.1786   -0.4965    9.3772 H   0  0  0  0  0  0  0  0  0  0  0  0
    0.2504   -1.9845    7.8342 H   0  0  0  0  0  0  0  0  0  0  0  0
    2.9153    0.2448    7.7579 H   0  0  0  0  0  0  0  0  0  0  0  0
    1.2306   -1.6264    6.0373 H   0  0  0  0  0  0  0  0  0  0  0  0
    3.4066    1.9970    3.0757 H   0  0  0  0  0  0  0  0  0  0  0  0
    4.5838   -1.4960    2.8715 H   0  0  0  0  0  0  0  0  0  0  0  0
    5.6935   -0.9625    4.1033 H   0  0  0  0  0  0  0  0  0  0  0  0
    3.1113    0.6666    1.0618 H   0  0  0  0  0  0  0  0  0  0  0  0
    1.9012   -1.2267    1.1172 H   0  0  0  0  0  0  0  0  0  0  0  0
    0.6283    0.5427    0.8249 H   0  0  0  0  0  0  0  0  0  0  0  0
   -0.5479    2.0518    1.9110 H   0  0  0  0  0  0  0  0  0  0  0  0
    1.1895    3.9704    2.2288 H   0  0  0  0  0  0  0  0  0  0  0  0
    0.4134    3.8483    8.8246 H   0  0  0  0  0  0  0  0  0  0  0  0
   -0.4259    5.2167    8.0988 H   0  0  0  0  0  0  0  0  0  0  0  0
   -3.2256    2.7898    8.2152 H   0  0  0  0  0  0  0  0  0  0  0  0
   -3.2959    4.5563    8.0516 H   0  0  0  0  0  0  0  0  0  0  0  0
  1  2  1  0
  1 43  1  0
  1 44  1  0
  1 45  1  0
  2  3  1  0
  2 46  1  0
  2 47  1  0
  3 37  1  0
  3  4  1  0
  3 48  1  6
  4  5  1  0
  4  7  1  0
  4 49  1  1
  5  6  1  0
  6 50  1  0
  6 51  1  0
  6 52  1  0
  7 38  1  0
  7  8  1  0
  7 53  1  6
  8 35  1  0
  8  9  1  0
  8 54  1  6
  9 10  1  0
  9 14  1  0
  9 55  1  1
 10 11  1  0
 11 12  1  0
 11 56  1  0
 11 57  1  0
 12 13  1  0
 12 58  1  0
 12 59  1  0
 13 60  1  0
 14 15  1  0
 15 16  1  0
 15 61  1  0
 15 62  1  0
 16 37  1  0
 16 17  1  0
 16 63  1  1
 17 18  1  0
 17 38  1  0
 17 64  1  1
 18 19  1  0
 18 21  1  0
 18 65  1  1
 19 20  1  0
 20 66  1  0
 20 67  1  0
 20 68  1  0
 21 22  1  0
 21 23  1  0
 21 69  1  1
 22 70  1  0
 23 24  2  3
 23 71  1  0
 24 25  1  0
 24 72  1  0
 25 30  1  0
 25 26  2  0
 37 26  1  6
 26 27  1  0
 27 28  1  0
 27 31  1  0
 27 73  1  6
 28 29  1  0
 29 30  1  0
 29 74  1  0
 29 75  1  0
 31 32  1  0
 31 33  1  0
 31 76  1  6
 32 77  1  0
 33 34  2  0
 33 78  1  0
 34 35  1  0
 34 79  1  0
 35 36  1  6
 35 37  1  0
 36 80  1  0
 38 42  1  6
 38 39  1  0
 39 40  1  0
 39 81  1  0
 39 82  1  0
 40 41  1  0
 41 42  1  0
 41 83  1  0
 41 84  1  0
M  END
>  <i_m_ct_stereo_status>  (204) 
1

>  <s_m_source_file>  (204) 
/var/tmp/pbs.5076255.sched01/tmpr0mrskr5/46emy42_dx.sdf

>  <i_m_source_file_index>  (204) 
43

>  <i_lp_mmshare_version>  (204) 
48012

>  <i_f3d_flags>  (204) 
0

>  <s_epik_input>  (204) 
TzFbQ0gyXU9bQ0gyXVtDQF0xKFtDQEBIXTJbQ0BASF0zW0NAQF00NTYpW0NAQEhdKFtDQEhdKE9bQ0gzXSlbQ0BIXTRbQ0gyXVtDSDNdKVtDQEhdKFtDQEhdKE9bQ0gyXTMpT1tDSDJdW0NIMl1bT0hdKVtDQF02KFtPSF0pW0NIXT1bQ0hdW0NASF0oW09IXSlbQ0BIXTdDNT1DKE9bQ0gyXU83KS9bQ0hdPVtDSF1cW0NASF0oW09IXSlbQ0BASF0yT1tDSDNd

>  <s_epik_cmdline>  (204) 
J2VwaWtfcHl0aG9uJywgJy1waHQnLCAnMi4wJywgJy1waCcsICc3LjAnLCAnLXRuJywgJzgnLCAnLW1hJywgJzIwMCcsICctaW1hZScsICc8aW5maWxlLm1hZT4nLCAnLW9tYWUnLCAnPG91dGZpbGUubWFlPic=

>  <r_lp_tautomer_probability>  (204) 
1

>  <r_epik_Ionization_Penalty>  (204) 
0.000217154

>  <r_epik_Ionization_Penalty_Charging>  (204) 
0

>  <r_epik_Ionization_Penalty_Neutral>  (204) 
0.000217154

>  <r_epik_State_Penalty>  (204) 
-0

>  <r_epik_Charging_Adjusted_Penalty>  (204) 
0

>  <i_epik_Tot_Q>  (204) 
0

>  <i_epik_Tot_abs_Q>  (204) 
0

>  <s_epik_Chemistry_Notes>  (204) 
This compound contains an acetal/aminal-like group ( X-CH(R)-Y where X, Y are N, S, or O) that may be acid/base labile, releasing an aldehyde.

>  <s_lp_Force_Field>  (204) 
OPLS3e

>  <r_lp_Energy>  (204) 
148.298

>  <b_lp_Chiralities_Consistent>  (204) 
1

>  <s_lp_Variant>  (204) 
62:0-1

>  <s_i_glide_gridfile>  (204) 
pfpi4k_grid

>  <i_i_glide_lignum>  (204) 
43

>  <i_i_glide_rotatable_bonds>  (204) 
10

>  <r_i_docking_score>  (204) 
-3.33175

>  <r_i_glide_ligand_efficiency>  (204) 
-0.0793274

>  <r_i_glide_ligand_efficiency_sa>  (204) 
-0.275744

>  <r_i_glide_ligand_efficiency_ln>  (204) 
-0.703247

>  <r_i_glide_gscore>  (204) 
-3.33175

>  <r_i_glide_lipo>  (204) 
-0.0542513

>  <r_i_glide_hbond>  (204) 
-0.297544

>  <r_i_glide_metal>  (204) 
-0

>  <r_i_glide_rewards>  (204) 
-0.2206

>  <r_i_glide_evdw>  (204) 
-24.8463

>  <r_i_glide_ecoul>  (204) 
-10.2765

>  <r_i_glide_erotb>  (204) 
0.0656616

>  <r_i_glide_esite>  (204) 
-0.0412308

>  <r_i_glide_emodel>  (204) 
-39.415

>  <r_i_glide_energy>  (204) 
-35.1228

>  <r_i_glide_einternal>  (204) 
6.60943

>  <r_i_glide_intrahb_reward>  (204) 
-0

>  <i_i_glide_confnum>  (204) 
1

>  <i_i_glide_posenum>  (204) 
25

>  <r_i_glide_eff_state_penalty>  (204) 
0

>  <ligand_id>  (204) 
62

>  <original_smiles>  (204) 
CCC1C(OC)C2C3C(OCCO)OCC4C(C(OC)C(O)C=CC5=C6C(OCO5)C(O)C=CC3(O)C614)C21COCO1

>  <smiles>  (204) 
[H]OC([H])([H])C([H])([H])OC1([H])OC([H])([H])C2([H])C3([H])C([H])(OC([H])([H])[H])C([H])(O[H])C([H])=C([H])C4=C5C([H])(OC([H])([H])O4)C([H])(O[H])C([H])=C([H])C4(O[H])C1([H])C([H])(C([H])(OC([H])([H])[H])C([H])(C([H])([H])C([H])([H])[H])C542)C31OC([H])([H])OC1([H])[H]

$$$$
62:0:2
     RDKit          3D

 84 90  0  0  1  0  0  0  0  0999 V2000
    5.5645   -1.9448    7.3156 C   0  0  0  0  0  0  0  0  0  0  0  0
    4.1851   -2.0114    6.6435 C   0  0  0  0  0  0  0  0  0  0  0  0
    3.6836   -0.7290    5.9330 C   0  0  2  0  0  0  0  0  0  0  0  0
    3.6399    0.5126    6.8842 C   0  0  1  0  0  0  0  0  0  0  0  0
    4.5938    1.5395    6.5875 O   0  0  0  0  0  0  0  0  0  0  0  0
    5.9643    1.2506    6.8026 C   0  0  0  0  0  0  0  0  0  0  0  0
    2.2768    1.2147    6.8090 C   0  0  1  0  0  0  0  0  0  0  0  0
    1.9749    1.6643    5.3088 C   0  0  2  0  0  0  0  0  0  0  0  0
    0.4875    2.1240    5.1327 C   0  0  1  0  0  0  0  0  0  0  0  0
    0.2966    2.9207    4.0082 O   0  0  0  0  0  0  0  0  0  0  0  0
   -0.9766    2.8528    3.3685 C   0  0  0  0  0  0  0  0  0  0  0  0
   -2.2031    3.1477    4.2618 C   0  0  0  0  0  0  0  0  0  0  0  0
   -3.3689    2.9592    3.4952 O   0  0  0  0  0  0  0  0  0  0  0  0
   -0.4183    1.0700    5.2740 O   0  0  0  0  0  0  0  0  0  0  0  0
   -0.1601   -0.1835    4.6978 C   0  0  0  0  0  0  0  0  0  0  0  0
    0.9591   -0.9532    5.4440 C   0  0  2  0  0  0  0  0  0  0  0  0
    0.6645   -0.9119    6.9830 C   0  0  1  0  0  0  0  0  0  0  0  0
    0.7343   -2.2645    7.8293 C   0  0  1  0  0  0  0  0  0  0  0  0
   -0.1797   -2.1482    8.9137 O   0  0  0  0  0  0  0  0  0  0  0  0
    0.1196   -2.8531   10.1119 C   0  0  0  0  0  0  0  0  0  0  0  0
    0.4585   -3.6390    7.1339 C   0  0  1  0  0  0  0  0  0  0  0  0
   -0.8209   -3.6185    6.5332 O   0  0  0  0  0  0  0  0  0  0  0  0
    1.5643   -3.9241    6.1377 C   0  0  0  0  0  0  0  0  0  0  0  0
    1.4220   -3.8997    4.8066 C   0  0  0  0  0  0  0  0  0  0  0  0
    2.4226   -3.3355    3.9233 C   0  0  0  0  0  0  0  0  0  0  0  0
    2.8246   -2.0166    3.8882 C   0  0  0  0  0  0  0  0  0  0  0  0
    3.7765   -1.6671    2.7621 C   0  0  1  0  0  0  0  0  0  0  0  0
    4.6705   -2.7370    2.5049 O   0  0  0  0  0  0  0  0  0  0  0  0
    4.0527   -3.9547    2.2448 C   0  0  0  0  0  0  0  0  0  0  0  0
    2.9665   -4.2542    3.0626 O   0  0  0  0  0  0  0  0  0  0  0  0
    3.0595   -1.1434    1.4814 C   0  0  1  0  0  0  0  0  0  0  0  0
    2.2143   -2.1085    0.8886 O   0  0  0  0  0  0  0  0  0  0  0  0
    2.2046    0.0898    1.6866 C   0  0  0  0  0  0  0  0  0  0  0  0
    1.9595    0.8122    2.7938 C   0  0  0  0  0  0  0  0  0  0  0  0
    2.5135    0.6500    4.2096 C   0  0  1  0  0  0  0  0  0  0  0  0
    3.8253    1.1379    3.9834 O   0  0  0  0  0  0  0  0  0  0  0  0
    2.4719   -0.8163    4.8677 C   0  0  2  0  0  0  0  0  0  0  0  0
    1.2054    0.4308    7.6482 C   0  0  1  0  0  0  0  0  0  0  0  0
    1.5699    0.3263    9.1581 C   0  0  0  0  0  0  0  0  0  0  0  0
    0.3252    0.3843    9.8217 O   0  0  0  0  0  0  0  0  0  0  0  0
   -0.4554    1.2013    9.0393 C   0  0  0  0  0  0  0  0  0  0  0  0
    0.1320    1.3486    7.8147 O   0  0  0  0  0  0  0  0  0  0  0  0
    5.8240   -2.9209    7.7263 H   0  0  0  0  0  0  0  0  0  0  0  0
    5.5729   -1.2489    8.1533 H   0  0  0  0  0  0  0  0  0  0  0  0
    6.3498   -1.6729    6.6117 H   0  0  0  0  0  0  0  0  0  0  0  0
    4.2538   -2.8210    5.9195 H   0  0  0  0  0  0  0  0  0  0  0  0
    3.5109   -2.2960    7.4283 H   0  0  0  0  0  0  0  0  0  0  0  0
    4.5698   -0.5842    5.3215 H   0  0  0  0  0  0  0  0  0  0  0  0
    3.8319    0.2083    7.9098 H   0  0  0  0  0  0  0  0  0  0  0  0
    6.5569    2.1561    6.6526 H   0  0  0  0  0  0  0  0  0  0  0  0
    6.3404    0.5134    6.0923 H   0  0  0  0  0  0  0  0  0  0  0  0
    6.1507    0.9063    7.8205 H   0  0  0  0  0  0  0  0  0  0  0  0
    2.3983    2.1520    7.3545 H   0  0  0  0  0  0  0  0  0  0  0  0
    2.5187    2.6047    5.1719 H   0  0  0  0  0  0  0  0  0  0  0  0
    0.2385    2.8448    5.9096 H   0  0  0  0  0  0  0  0  0  0  0  0
   -0.9730    3.5661    2.5471 H   0  0  0  0  0  0  0  0  0  0  0  0
   -1.0480    1.8797    2.8852 H   0  0  0  0  0  0  0  0  0  0  0  0
   -2.3195    2.4906    5.1220 H   0  0  0  0  0  0  0  0  0  0  0  0
   -2.1284    4.1646    4.6593 H   0  0  0  0  0  0  0  0  0  0  0  0
   -3.4207    2.0379    3.2429 H   0  0  0  0  0  0  0  0  0  0  0  0
   -1.0979   -0.7126    4.8662 H   0  0  0  0  0  0  0  0  0  0  0  0
   -0.0989   -0.1894    3.6159 H   0  0  0  0  0  0  0  0  0  0  0  0
    0.5286   -1.8570    5.1000 H   0  0  0  0  0  0  0  0  0  0  0  0
   -0.4178   -0.7732    7.0104 H   0  0  0  0  0  0  0  0  0  0  0  0
    1.7167   -2.3632    8.2743 H   0  0  0  0  0  0  0  0  0  0  0  0
   -0.6154   -2.5820   10.8672 H   0  0  0  0  0  0  0  0  0  0  0  0
    1.1005   -2.5839   10.5052 H   0  0  0  0  0  0  0  0  0  0  0  0
    0.0681   -3.9338    9.9858 H   0  0  0  0  0  0  0  0  0  0  0  0
    0.4907   -4.4367    7.8743 H   0  0  0  0  0  0  0  0  0  0  0  0
   -1.0020   -4.4969    6.2362 H   0  0  0  0  0  0  0  0  0  0  0  0
    2.5488   -3.9038    6.5554 H   0  0  0  0  0  0  0  0  0  0  0  0
    0.4187   -3.8847    4.4051 H   0  0  0  0  0  0  0  0  0  0  0  0
    4.4778   -0.9182    3.1016 H   0  0  0  0  0  0  0  0  0  0  0  0
    3.7456   -4.0125    1.2044 H   0  0  0  0  0  0  0  0  0  0  0  0
    4.7913   -4.7393    2.3844 H   0  0  0  0  0  0  0  0  0  0  0  0
    3.8262   -0.8699    0.7500 H   0  0  0  0  0  0  0  0  0  0  0  0
    1.6865   -1.6526    0.2174 H   0  0  0  0  0  0  0  0  0  0  0  0
    1.7067    0.4320    0.7892 H   0  0  0  0  0  0  0  0  0  0  0  0
    1.3296    1.6484    2.5843 H   0  0  0  0  0  0  0  0  0  0  0  0
    3.7615    1.9354    3.4705 H   0  0  0  0  0  0  0  0  0  0  0  0
    2.1329   -0.5639    9.4292 H   0  0  0  0  0  0  0  0  0  0  0  0
    2.1699    1.1791    9.4829 H   0  0  0  0  0  0  0  0  0  0  0  0
   -1.4340    0.7645    8.8708 H   0  0  0  0  0  0  0  0  0  0  0  0
   -0.5702    2.1778    9.5070 H   0  0  0  0  0  0  0  0  0  0  0  0
  1  2  1  0
  1 43  1  0
  1 44  1  0
  1 45  1  0
  2  3  1  0
  2 46  1  0
  2 47  1  0
  3 37  1  0
  3  4  1  0
  3 48  1  6
  4  5  1  0
  4  7  1  0
  4 49  1  1
  5  6  1  0
  6 50  1  0
  6 51  1  0
  6 52  1  0
  7 38  1  0
  7  8  1  0
  7 53  1  1
  8 35  1  0
  8  9  1  0
  8 54  1  6
  9 10  1  0
  9 14  1  0
  9 55  1  1
 10 11  1  0
 11 12  1  0
 11 56  1  0
 11 57  1  0
 12 13  1  0
 12 58  1  0
 12 59  1  0
 13 60  1  0
 14 15  1  0
 15 16  1  0
 15 61  1  0
 15 62  1  0
 16 37  1  0
 16 17  1  0
 16 63  1  6
 17 18  1  0
 17 38  1  0
 17 64  1  6
 18 19  1  0
 18 21  1  0
 18 65  1  1
 19 20  1  0
 20 66  1  0
 20 67  1  0
 20 68  1  0
 21 22  1  0
 21 23  1  0
 21 69  1  1
 22 70  1  0
 23 24  2  3
 23 71  1  0
 24 25  1  0
 24 72  1  0
 25 30  1  0
 25 26  2  0
 37 26  1  6
 26 27  1  0
 27 28  1  0
 27 31  1  0
 27 73  1  1
 28 29  1  0
 29 30  1  0
 29 74  1  0
 29 75  1  0
 31 32  1  0
 31 33  1  0
 31 76  1  6
 32 77  1  0
 33 34  2  0
 33 78  1  0
 34 35  1  0
 34 79  1  0
 35 36  1  6
 35 37  1  0
 36 80  1  0
 38 42  1  1
 38 39  1  0
 39 40  1  0
 39 81  1  0
 39 82  1  0
 40 41  1  0
 41 42  1  0
 41 83  1  0
 41 84  1  0
M  END
>  <i_m_ct_stereo_status>  (205) 
1

>  <s_m_source_file>  (205) 
/var/tmp/pbs.5076255.sched01/tmpr0mrskr5/46emy42_dx.sdf

>  <i_m_source_file_index>  (205) 
43

>  <i_lp_mmshare_version>  (205) 
48012

>  <i_f3d_flags>  (205) 
0

>  <s_epik_input>  (205) 
TzFbQ0gyXU9bQ0gyXVtDQF0xKFtDQEBIXTJbQ0BASF0zW0NAQF00NTYpW0NAQEhdKFtDQEhdKE9bQ0gzXSlbQ0BIXTRbQ0gyXVtDSDNdKVtDQEhdKFtDQEhdKE9bQ0gyXTMpT1tDSDJdW0NIMl1bT0hdKVtDQF02KFtPSF0pW0NIXT1bQ0hdW0NASF0oW09IXSlbQ0BIXTdDNT1DKE9bQ0gyXU83KS9bQ0hdPVtDSF1cW0NASF0oW09IXSlbQ0BASF0yT1tDSDNd

>  <s_epik_cmdline>  (205) 
J2VwaWtfcHl0aG9uJywgJy1waHQnLCAnMi4wJywgJy1waCcsICc3LjAnLCAnLXRuJywgJzgnLCAnLW1hJywgJzIwMCcsICctaW1hZScsICc8aW5maWxlLm1hZT4nLCAnLW9tYWUnLCAnPG91dGZpbGUubWFlPic=

>  <r_lp_tautomer_probability>  (205) 
1

>  <r_epik_Ionization_Penalty>  (205) 
0.000217154

>  <r_epik_Ionization_Penalty_Charging>  (205) 
0

>  <r_epik_Ionization_Penalty_Neutral>  (205) 
0.000217154

>  <r_epik_State_Penalty>  (205) 
-0

>  <r_epik_Charging_Adjusted_Penalty>  (205) 
0

>  <i_epik_Tot_Q>  (205) 
0

>  <i_epik_Tot_abs_Q>  (205) 
0

>  <s_epik_Chemistry_Notes>  (205) 
This compound contains an acetal/aminal-like group ( X-CH(R)-Y where X, Y are N, S, or O) that may be acid/base labile, releasing an aldehyde.

>  <s_lp_Force_Field>  (205) 
OPLS3e

>  <r_lp_Energy>  (205) 
148.298

>  <b_lp_Chiralities_Consistent>  (205) 
1

>  <s_lp_Variant>  (205) 
62:0-1

>  <s_i_glide_gridfile>  (205) 
pfpi4k_grid

>  <i_i_glide_lignum>  (205) 
43

>  <i_i_glide_rotatable_bonds>  (205) 
10

>  <r_i_docking_score>  (205) 
-3.28494

>  <r_i_glide_ligand_efficiency>  (205) 
-0.0782128

>  <r_i_glide_ligand_efficiency_sa>  (205) 
-0.27187

>  <r_i_glide_ligand_efficiency_ln>  (205) 
-0.693366

>  <r_i_glide_gscore>  (205) 
-3.28494

>  <r_i_glide_lipo>  (205) 
-0.0400257

>  <r_i_glide_hbond>  (205) 
-0.453552

>  <r_i_glide_metal>  (205) 
-0

>  <r_i_glide_rewards>  (205) 
-0.00359199

>  <r_i_glide_evdw>  (205) 
-18.57

>  <r_i_glide_ecoul>  (205) 
-12.4391

>  <r_i_glide_erotb>  (205) 
0.0459631

>  <r_i_glide_esite>  (205) 
-0.0393679

>  <r_i_glide_emodel>  (205) 
-36.4906

>  <r_i_glide_energy>  (205) 
-31.0091

>  <r_i_glide_einternal>  (205) 
5.65512

>  <r_i_glide_intrahb_reward>  (205) 
-0

>  <i_i_glide_confnum>  (205) 
1

>  <i_i_glide_posenum>  (205) 
30

>  <r_i_glide_eff_state_penalty>  (205) 
0

>  <ligand_id>  (205) 
62

>  <original_smiles>  (205) 
CCC1C(OC)C2C3C(OCCO)OCC4C(C(OC)C(O)C=CC5=C6C(OCO5)C(O)C=CC3(O)C614)C21COCO1

>  <smiles>  (205) 
[H]OC([H])([H])C([H])([H])OC1([H])OC([H])([H])C2([H])C3([H])C([H])(OC([H])([H])[H])C([H])(O[H])C([H])=C([H])C4=C5C([H])(OC([H])([H])O4)C([H])(O[H])C([H])=C([H])C4(O[H])C1([H])C([H])(C([H])(OC([H])([H])[H])C([H])(C([H])([H])C([H])([H])[H])C542)C31OC([H])([H])OC1([H])[H]

$$$$
63:0:0
     RDKit          3D

 86 93  0  0  1  0  0  0  0  0999 V2000
    0.2519    5.3322    9.0261 C   0  0  0  0  0  0  0  0  0  0  0  0
    1.1493    4.5764    8.2264 O   0  0  0  0  0  0  0  0  0  0  0  0
    2.4353    5.1637    8.0622 C   0  0  2  0  0  0  0  0  0  0  0  0
    2.4827    6.3248    7.0759 C   0  0  2  0  0  0  0  0  0  0  0  0
    1.5812    6.1907    5.8697 C   0  0  0  0  0  0  0  0  0  0  0  0
    1.5769    4.8478    5.0451 C   0  0  1  0  0  0  0  0  0  0  0  0
    2.6606    4.4529    3.9774 C   0  0  1  0  0  0  0  0  0  0  0  0
    3.4509    5.5214    3.5127 O   0  0  0  0  0  0  0  0  0  0  0  0
    3.4286    3.1731    4.5907 C   0  0  1  0  0  0  0  0  0  0  0  0
    2.8592    3.6098    5.8428 C   0  0  1  0  0  0  0  0  0  0  0  0
    3.4131    4.4942    7.0534 C   0  0  1  0  0  0  0  0  0  0  0  0
    3.9535    5.9325    6.9373 C   0  0  1  0  0  0  0  0  0  0  0  0
    4.6042    6.3361    5.7512 O   0  0  0  0  0  0  0  0  0  0  0  0
    5.9044    5.7931    5.6039 C   0  0  0  0  0  0  0  0  0  0  0  0
    1.2860    3.3639    5.5352 C   0  0  2  0  0  0  0  0  0  0  0  0
    0.3422    2.6900    4.2263 C   0  0  1  0  0  0  0  0  0  0  0  0
   -0.6023    3.6513    3.4875 C   0  0  0  0  0  0  0  0  0  0  0  0
   -1.9696    3.7037    3.4842 C   0  0  0  0  0  0  0  0  0  0  0  0
   -2.8960    2.7746    4.2427 C   0  0  0  0  0  0  0  0  0  0  0  0
   -2.7046    4.7154    2.6306 C   0  0  0  0  0  0  0  0  0  0  0  0
    0.5566    1.3125    3.2158 C   0  0  1  0  0  0  0  0  0  0  0  0
    0.7660    1.7204    1.8754 O   0  0  0  0  0  0  0  0  0  0  0  0
    1.5867   -0.0315    3.4726 C   0  0  2  0  0  0  0  0  0  0  0  0
    1.6473   -0.8857    2.1719 C   0  0  0  0  0  0  0  0  0  0  0  0
    0.8041   -0.9012    4.4261 C   0  0  0  0  0  0  0  0  0  0  0  0
    0.3645    0.0531    5.4866 C   0  0  0  0  0  0  0  0  0  0  0  0
    1.5519    1.0552    5.8254 C   0  0  2  0  0  0  0  0  0  0  0  0
    1.7614    0.3541    7.2503 C   0  0  0  0  0  0  0  0  0  0  0  0
    2.7262    1.3816    7.4017 C   0  0  2  0  0  0  0  0  0  0  0  0
    1.4549    2.2631    6.6735 C   0  0  1  0  0  0  0  0  0  0  0  0
    3.9572    0.7079    6.7110 N   0  0  1  0  0  0  0  0  0  0  0  0
    4.8393    0.1027    7.7435 C   0  0  0  0  0  0  0  0  0  0  0  0
    3.7787   -0.2759    5.5113 C   0  0  0  0  0  0  0  0  0  0  0  0
    3.1442    0.2210    4.1041 C   0  0  1  0  0  0  0  0  0  0  0  0
    4.2138    0.0017    3.1397 O   0  0  0  0  0  0  0  0  0  0  0  0
    4.6931   -1.3394    2.9319 C   0  0  0  0  0  0  0  0  0  0  0  0
    2.8104    1.5797    4.6078 C   0  0  2  0  0  0  0  0  0  0  0  0
    2.9863    2.0314    3.2546 O   0  0  0  0  0  0  0  0  0  0  0  0
   -0.7108    4.8199    9.0668 H   0  0  0  0  0  0  0  0  0  0  0  0
    0.0786    6.3274    8.6149 H   0  0  0  0  0  0  0  0  0  0  0  0
    0.6222    5.4321   10.0463 H   0  0  0  0  0  0  0  0  0  0  0  0
    2.9085    5.4043    9.0187 H   0  0  0  0  0  0  0  0  0  0  0  0
    2.3869    7.2822    7.5966 H   0  0  0  0  0  0  0  0  0  0  0  0
    0.5609    6.3748    6.2033 H   0  0  0  0  0  0  0  0  0  0  0  0
    1.7928    7.0173    5.1918 H   0  0  0  0  0  0  0  0  0  0  0  0
    0.7823    5.2391    4.4427 H   0  0  0  0  0  0  0  0  0  0  0  0
    2.1422    4.1993    3.0520 H   0  0  0  0  0  0  0  0  0  0  0  0
    3.8654    5.2536    2.7111 H   0  0  0  0  0  0  0  0  0  0  0  0
    4.5224    3.2524    4.5273 H   0  0  0  0  0  0  0  0  0  0  0  0
    3.5960    2.9242    6.1543 H   0  0  0  0  0  0  0  0  0  0  0  0
    4.1450    3.9567    7.6643 H   0  0  0  0  0  0  0  0  0  0  0  0
    4.5227    6.2472    7.8173 H   0  0  0  0  0  0  0  0  0  0  0  0
    6.2997    6.0819    4.6297 H   0  0  0  0  0  0  0  0  0  0  0  0
    5.9004    4.7042    5.6523 H   0  0  0  0  0  0  0  0  0  0  0  0
    6.5774    6.1733    6.3712 H   0  0  0  0  0  0  0  0  0  0  0  0
   -0.4080    2.4030    4.9345 H   0  0  0  0  0  0  0  0  0  0  0  0
   -0.1010    4.3760    2.8707 H   0  0  0  0  0  0  0  0  0  0  0  0
   -3.6317    3.3393    4.8218 H   0  0  0  0  0  0  0  0  0  0  0  0
   -2.4204    2.0943    4.9403 H   0  0  0  0  0  0  0  0  0  0  0  0
   -3.4467    2.1977    3.5046 H   0  0  0  0  0  0  0  0  0  0  0  0
   -3.3691    4.2004    1.9368 H   0  0  0  0  0  0  0  0  0  0  0  0
   -2.0404    5.3803    2.0783 H   0  0  0  0  0  0  0  0  0  0  0  0
   -3.3514    5.3433    3.2177 H   0  0  0  0  0  0  0  0  0  0  0  0
   -0.4509    0.9006    3.1259 H   0  0  0  0  0  0  0  0  0  0  0  0
    0.3099    1.1211    1.3015 H   0  0  0  0  0  0  0  0  0  0  0  0
    2.0413   -1.8847    2.3552 H   0  0  0  0  0  0  0  0  0  0  0  0
    2.2703   -0.3999    1.4147 H   0  0  0  0  0  0  0  0  0  0  0  0
    0.6496   -0.9942    1.7287 H   0  0  0  0  0  0  0  0  0  0  0  0
   -0.0603   -1.3754    3.9592 H   0  0  0  0  0  0  0  0  0  0  0  0
    1.4209   -1.6942    4.8524 H   0  0  0  0  0  0  0  0  0  0  0  0
   -0.5950    0.4996    5.2464 H   0  0  0  0  0  0  0  0  0  0  0  0
    0.0062   -0.5710    6.3116 H   0  0  0  0  0  0  0  0  0  0  0  0
    0.9475    0.4219    7.9834 H   0  0  0  0  0  0  0  0  0  0  0  0
    2.0922   -0.6852    7.2906 H   0  0  0  0  0  0  0  0  0  0  0  0
    2.8694    1.6653    8.4458 H   0  0  0  0  0  0  0  0  0  0  0  0
    0.5664    2.3046    7.3137 H   0  0  0  0  0  0  0  0  0  0  0  0
    4.3455   -0.7688    8.2027 H   0  0  0  0  0  0  0  0  0  0  0  0
    5.0773    0.8237    8.5386 H   0  0  0  0  0  0  0  0  0  0  0  0
    5.7875   -0.2390    7.3062 H   0  0  0  0  0  0  0  0  0  0  0  0
    4.8269   -0.4720    5.3130 H   0  0  0  0  0  0  0  0  0  0  0  0
    3.3926   -1.2577    5.7859 H   0  0  0  0  0  0  0  0  0  0  0  0
    5.1099   -1.3995    1.9234 H   0  0  0  0  0  0  0  0  0  0  0  0
    3.9254   -2.1019    3.0328 H   0  0  0  0  0  0  0  0  0  0  0  0
    5.5188   -1.5759    3.6107 H   0  0  0  0  0  0  0  0  0  0  0  0
    2.3030    1.6850    2.6889 H   0  0  0  0  0  0  0  0  0  0  0  0
    4.5046    1.4891    6.3476 H   0  0  0  0  0  0  0  0  0  0  0  0
  1  2  1  0
  1 39  1  0
  1 40  1  0
  1 41  1  0
  2  3  1  0
  3 11  1  0
  3  4  1  0
  3 42  1  1
  4 12  1  0
  4  5  1  0
  4 43  1  1
  5  6  1  0
  5 44  1  0
  5 45  1  0
  6 15  1  0
  6  7  1  0
  6 46  1  6
  7  8  1  0
  7  9  1  0
  7 47  1  6
  8 48  1  0
  9 37  1  0
  9 10  1  0
  9 49  1  1
 10 11  1  0
 10 15  1  0
 10 50  1  1
 11 12  1  0
 11 51  1  1
 12 13  1  0
 12 52  1  1
 13 14  1  0
 14 53  1  0
 14 54  1  0
 14 55  1  0
 15 30  1  0
 15 16  1  6
 16 17  1  0
 16 21  1  0
 16 56  1  1
 17 18  2  3
 17 57  1  0
 18 19  1  0
 18 20  1  0
 19 58  1  0
 19 59  1  0
 19 60  1  0
 20 61  1  0
 20 62  1  0
 20 63  1  0
 21 22  1  0
 21 23  1  0
 21 64  1  6
 22 65  1  0
 23 34  1  0
 23 24  1  6
 23 25  1  0
 24 66  1  0
 24 67  1  0
 24 68  1  0
 25 26  1  0
 25 69  1  0
 25 70  1  0
 27 26  1  6
 26 71  1  0
 26 72  1  0
 27 30  1  0
 27 37  1  0
 27 28  1  0
 28 29  1  0
 28 73  1  0
 28 74  1  0
 29 30  1  0
 29 31  1  0
 29 75  1  1
 30 76  1  1
 31 32  1  0
 31 33  1  0
 31 86  1  6
 32 77  1  0
 32 78  1  0
 32 79  1  0
 33 34  1  0
 33 80  1  0
 33 81  1  0
 34 35  1  6
 34 37  1  0
 35 36  1  0
 36 82  1  0
 36 83  1  0
 36 84  1  0
 37 38  1  6
 38 85  1  0
M  CHG  1  31   1
M  END
>  <i_m_ct_stereo_status>  (206) 
1

>  <s_m_source_file>  (206) 
/var/tmp/pbs.5076255.sched01/tmpr0mrskr5/46emy42_dx.sdf

>  <i_m_source_file_index>  (206) 
44

>  <i_lp_mmshare_version>  (206) 
48012

>  <i_f3d_flags>  (206) 
0

>  <s_epik_input>  (206) 
QzEyM1tDQEhdNFtDSDJdW0NASF01W0NAQEhdKE9bQ0gzXSlbQ0BIXShbQ0BIXTVPW0NIM10pW0NAQEhdMVtDQEhdKFtDQEBIXTRbT0hdKVtDQF02KFtPSF0pW0NAQF03OFtDQEhdM1tDQEBIXShbQ0gyXTgpTihbQ0gzXSlbQ0gyXVtDQEBdNihPW0NIM10pW0NAQF0oW0NIM10pKFtDSDJdW0NIMl03KVtDQEhdKFtPSF0pW0NAQEhdMltDSF09QyhbQ0gzXSlbQ0gzXQ==

>  <s_epik_cmdline>  (206) 
J2VwaWtfcHl0aG9uJywgJy1waHQnLCAnMi4wJywgJy1waCcsICc3LjAnLCAnLXRuJywgJzgnLCAnLW1hJywgJzIwMCcsICctaW1hZScsICc8aW5maWxlLm1hZT4nLCAnLW9tYWUnLCAnPG91dGZpbGUubWFlPic=

>  <r_epik_Ionization_Penalty>  (206) 
0.0111743

>  <r_epik_Ionization_Penalty_Charging>  (206) 
0.0111736

>  <r_epik_Ionization_Penalty_Neutral>  (206) 
6.40486e-07

>  <r_epik_State_Penalty>  (206) 
0.00858501

>  <r_epik_Charging_Adjusted_Penalty>  (206) 
0.0197586

>  <i_epik_Tot_Q>  (206) 
1

>  <i_epik_Tot_abs_Q>  (206) 
1

>  <s_lp_Force_Field>  (206) 
OPLS3e

>  <r_lp_Energy>  (206) 
672.925

>  <b_lp_Chiralities_Consistent>  (206) 
1

>  <s_lp_Variant>  (206) 
63:0-1

>  <s_i_glide_gridfile>  (206) 
pfpi4k_grid

>  <i_i_glide_lignum>  (206) 
44

>  <i_i_glide_rotatable_bonds>  (206) 
7

>  <r_i_docking_score>  (206) 
-1.06588

>  <r_i_glide_ligand_efficiency>  (206) 
-0.0280495

>  <r_i_glide_ligand_efficiency_sa>  (206) 
-0.0943017

>  <r_i_glide_ligand_efficiency_ln>  (206) 
-0.229835

>  <r_i_glide_gscore>  (206) 
-1.06588

>  <r_i_glide_lipo>  (206) 
-0.0978799

>  <r_i_glide_hbond>  (206) 
0

>  <r_i_glide_metal>  (206) 
-0

>  <r_i_glide_rewards>  (206) 
0

>  <r_i_glide_evdw>  (206) 
-16.8369

>  <r_i_glide_ecoul>  (206) 
-1.32901

>  <r_i_glide_erotb>  (206) 
0.0731931

>  <r_i_glide_esite>  (206) 
0

>  <r_i_glide_emodel>  (206) 
-16.8758

>  <r_i_glide_energy>  (206) 
-18.1659

>  <r_i_glide_einternal>  (206) 
2.43569

>  <r_i_glide_intrahb_reward>  (206) 
-0

>  <i_i_glide_confnum>  (206) 
1

>  <i_i_glide_posenum>  (206) 
24

>  <r_i_glide_eff_state_penalty>  (206) 
0

>  <ligand_id>  (206) 
63

>  <original_smiles>  (206) 
COC1C2CC3C(O)C4C(C1C2OC)C31C(C=C(C)C)C(O)C2(C)CCC35CC(C13)N(C)CC2(OC)C45O

>  <smiles>  (206) 
[H]OC1([H])C2([H])C3([H])C4([H])C([H])(OC([H])([H])[H])C([H])(C([H])([H])C1([H])C31C([H])(C([H])=C(C([H])([H])[H])C([H])([H])[H])C([H])(O[H])C3(C([H])([H])[H])C([H])([H])C([H])([H])C56C([H])([H])C([H])(C15[H])[N+]([H])(C([H])([H])[H])C([H])([H])C3(OC([H])([H])[H])C26O[H])C4([H])OC([H])([H])[H]

$$$$
63:0:1
     RDKit          3D

 86 93  0  0  1  0  0  0  0  0999 V2000
    4.9481    1.3565    5.2121 C   0  0  0  0  0  0  0  0  0  0  0  0
    4.5550    0.8396    3.9411 O   0  0  0  0  0  0  0  0  0  0  0  0
    3.3124    1.3272    3.4526 C   0  0  2  0  0  0  0  0  0  0  0  0
    2.1284    1.0065    4.3593 C   0  0  2  0  0  0  0  0  0  0  0  0
    2.2096   -0.3306    5.0859 C   0  0  0  0  0  0  0  0  0  0  0  0
    2.6010   -1.6063    4.2625 C   0  0  1  0  0  0  0  0  0  0  0  0
    1.5704   -2.2778    3.3283 C   0  0  1  0  0  0  0  0  0  0  0  0
    0.2183   -2.0858    3.6602 O   0  0  0  0  0  0  0  0  0  0  0  0
    2.0877   -2.1985    1.8302 C   0  0  1  0  0  0  0  0  0  0  0  0
    2.8563   -1.1069    2.3729 C   0  0  1  0  0  0  0  0  0  0  0  0
    2.5511    0.4573    2.4230 C   0  0  1  0  0  0  0  0  0  0  0  0
    1.2996    1.0789    3.0726 C   0  0  1  0  0  0  0  0  0  0  0  0
    0.0794    0.3651    3.0375 O   0  0  0  0  0  0  0  0  0  0  0  0
   -0.9413    0.9519    3.8296 C   0  0  0  0  0  0  0  0  0  0  0  0
    3.8697   -1.9406    3.3826 C   0  0  2  0  0  0  0  0  0  0  0  0
    4.1768   -3.6452    3.7567 C   0  0  1  0  0  0  0  0  0  0  0  0
    3.9102   -4.1209    5.2241 C   0  0  0  0  0  0  0  0  0  0  0  0
    2.7821   -4.6145    5.7729 C   0  0  0  0  0  0  0  0  0  0  0  0
    1.4563   -4.8956    5.0835 C   0  0  0  0  0  0  0  0  0  0  0  0
    2.7057   -4.9542    7.2515 C   0  0  0  0  0  0  0  0  0  0  0  0
    4.3824   -5.0529    2.7754 C   0  0  1  0  0  0  0  0  0  0  0  0
    3.4408   -6.0462    3.1481 O   0  0  0  0  0  0  0  0  0  0  0  0
    4.5756   -5.1084    1.0649 C   0  0  2  0  0  0  0  0  0  0  0  0
    4.3595   -6.5566    0.5342 C   0  0  0  0  0  0  0  0  0  0  0  0
    6.0630   -4.8724    0.8730 C   0  0  0  0  0  0  0  0  0  0  0  0
    6.3346   -3.6751    1.7172 C   0  0  0  0  0  0  0  0  0  0  0  0
    5.1422   -2.6283    1.5481 C   0  0  2  0  0  0  0  0  0  0  0  0
    6.1080   -1.6770    0.6900 C   0  0  0  0  0  0  0  0  0  0  0  0
    4.9635   -0.8417    0.7033 C   0  0  2  0  0  0  0  0  0  0  0  0
    4.9479   -1.3999    2.3340 C   0  0  1  0  0  0  0  0  0  0  0  0
    4.1775   -1.4017   -0.5587 N   0  0  1  0  0  0  0  0  0  0  0  0
    4.4603   -0.5798   -1.7744 C   0  0  0  0  0  0  0  0  0  0  0  0
    4.2859   -2.9230   -0.9424 C   0  0  0  0  0  0  0  0  0  0  0  0
    3.6977   -4.0085    0.1053 C   0  0  1  0  0  0  0  0  0  0  0  0
    2.6938   -4.6974   -0.6498 O   0  0  0  0  0  0  0  0  0  0  0  0
    1.6577   -4.0510   -1.3858 C   0  0  0  0  0  0  0  0  0  0  0  0
    3.4002   -3.0962    1.2133 C   0  0  2  0  0  0  0  0  0  0  0  0
    2.3755   -4.0394    1.6248 O   0  0  0  0  0  0  0  0  0  0  0  0
    5.9108    0.9178    5.4959 H   0  0  0  0  0  0  0  0  0  0  0  0
    4.2509    1.1067    6.0045 H   0  0  0  0  0  0  0  0  0  0  0  0
    5.0108    2.4491    5.2173 H   0  0  0  0  0  0  0  0  0  0  0  0
    3.3744    2.3788    3.1670 H   0  0  0  0  0  0  0  0  0  0  0  0
    1.9009    1.8136    5.0481 H   0  0  0  0  0  0  0  0  0  0  0  0
    2.9144   -0.2852    5.9116 H   0  0  0  0  0  0  0  0  0  0  0  0
    1.2495   -0.5055    5.5828 H   0  0  0  0  0  0  0  0  0  0  0  0
    2.5694   -2.2141    5.1451 H   0  0  0  0  0  0  0  0  0  0  0  0
    1.5897   -3.2407    3.5845 H   0  0  0  0  0  0  0  0  0  0  0  0
   -0.0901   -1.2524    3.3179 H   0  0  0  0  0  0  0  0  0  0  0  0
    1.2745   -1.9674    1.1251 H   0  0  0  0  0  0  0  0  0  0  0  0
    2.9108   -0.9738    1.3229 H   0  0  0  0  0  0  0  0  0  0  0  0
    2.6606    0.9115    1.4362 H   0  0  0  0  0  0  0  0  0  0  0  0
    1.1144    2.1056    2.7485 H   0  0  0  0  0  0  0  0  0  0  0  0
   -1.8566    0.3777    3.7171 H   0  0  0  0  0  0  0  0  0  0  0  0
   -1.1471    1.9747    3.5228 H   0  0  0  0  0  0  0  0  0  0  0  0
   -0.6808    0.9478    4.8860 H   0  0  0  0  0  0  0  0  0  0  0  0
    5.2065   -3.4448    4.0266 H   0  0  0  0  0  0  0  0  0  0  0  0
    4.7726   -4.0307    5.8803 H   0  0  0  0  0  0  0  0  0  0  0  0
    1.0454   -5.8577    5.3238 H   0  0  0  0  0  0  0  0  0  0  0  0
    1.5504   -4.9656    4.0105 H   0  0  0  0  0  0  0  0  0  0  0  0
    0.7383   -4.1145    5.3347 H   0  0  0  0  0  0  0  0  0  0  0  0
    1.9422   -4.3424    7.7381 H   0  0  0  0  0  0  0  0  0  0  0  0
    3.6570   -4.7968    7.7677 H   0  0  0  0  0  0  0  0  0  0  0  0
    2.4178   -6.0026    7.3562 H   0  0  0  0  0  0  0  0  0  0  0  0
    5.2505   -5.5661    3.1959 H   0  0  0  0  0  0  0  0  0  0  0  0
    3.7052   -6.8931    2.8143 H   0  0  0  0  0  0  0  0  0  0  0  0
    4.6360   -6.6449   -0.5158 H   0  0  0  0  0  0  0  0  0  0  0  0
    3.3222   -6.8738    0.6146 H   0  0  0  0  0  0  0  0  0  0  0  0
    4.9550   -7.2911    1.0776 H   0  0  0  0  0  0  0  0  0  0  0  0
    6.6747   -5.7000    1.2366 H   0  0  0  0  0  0  0  0  0  0  0  0
    6.3306   -4.7209   -0.1710 H   0  0  0  0  0  0  0  0  0  0  0  0
    6.5740   -3.9894    2.7202 H   0  0  0  0  0  0  0  0  0  0  0  0
    7.3433   -3.3427    1.4479 H   0  0  0  0  0  0  0  0  0  0  0  0
    6.9762   -1.2282    1.1791 H   0  0  0  0  0  0  0  0  0  0  0  0
    6.4817   -2.0277   -0.2729 H   0  0  0  0  0  0  0  0  0  0  0  0
    5.1621    0.2248    0.6012 H   0  0  0  0  0  0  0  0  0  0  0  0
    5.8201   -1.0698    2.8973 H   0  0  0  0  0  0  0  0  0  0  0  0
    5.4984   -0.6746   -2.0715 H   0  0  0  0  0  0  0  0  0  0  0  0
    4.2402    0.4507   -1.5838 H   0  0  0  0  0  0  0  0  0  0  0  0
    3.8159   -0.8459   -2.6066 H   0  0  0  0  0  0  0  0  0  0  0  0
    3.7460   -2.9737   -1.8814 H   0  0  0  0  0  0  0  0  0  0  0  0
    5.2553   -3.2249   -1.3381 H   0  0  0  0  0  0  0  0  0  0  0  0
    1.3044   -4.6979   -2.1911 H   0  0  0  0  0  0  0  0  0  0  0  0
    1.8494   -3.0661   -1.8095 H   0  0  0  0  0  0  0  0  0  0  0  0
    0.8460   -3.9498   -0.7127 H   0  0  0  0  0  0  0  0  0  0  0  0
    2.2524   -3.9805    2.5647 H   0  0  0  0  0  0  0  0  0  0  0  0
    3.1916   -1.2288   -0.3700 H   0  0  0  0  0  0  0  0  0  0  0  0
  1  2  1  0
  1 39  1  0
  1 40  1  0
  1 41  1  0
  2  3  1  0
  3 11  1  0
  3  4  1  0
  3 42  1  6
  4 12  1  0
  4  5  1  0
  4 43  1  1
  5  6  1  0
  5 44  1  0
  5 45  1  0
  6 15  1  0
  6  7  1  0
  6 46  1  1
  7  8  1  0
  7  9  1  0
  7 47  1  1
  8 48  1  0
  9 37  1  0
  9 10  1  0
  9 49  1  6
 10 11  1  0
 10 15  1  0
 10 50  1  6
 11 12  1  0
 11 51  1  6
 12 13  1  0
 12 52  1  6
 13 14  1  0
 14 53  1  0
 14 54  1  0
 14 55  1  0
 15 30  1  0
 15 16  1  6
 16 17  1  0
 16 21  1  0
 16 56  1  1
 17 18  2  3
 17 57  1  0
 18 19  1  0
 18 20  1  0
 19 58  1  0
 19 59  1  0
 19 60  1  0
 20 61  1  0
 20 62  1  0
 20 63  1  0
 21 22  1  0
 21 23  1  0
 21 64  1  1
 22 65  1  0
 23 34  1  0
 23 24  1  6
 23 25  1  0
 24 66  1  0
 24 67  1  0
 24 68  1  0
 25 26  1  0
 25 69  1  0
 25 70  1  0
 27 26  1  1
 26 71  1  0
 26 72  1  0
 27 30  1  0
 27 37  1  0
 27 28  1  0
 28 29  1  0
 28 73  1  0
 28 74  1  0
 29 30  1  0
 29 31  1  0
 29 75  1  1
 30 76  1  1
 31 32  1  0
 31 33  1  0
 31 86  1  1
 32 77  1  0
 32 78  1  0
 32 79  1  0
 33 34  1  0
 33 80  1  0
 33 81  1  0
 34 35  1  6
 34 37  1  0
 35 36  1  0
 36 82  1  0
 36 83  1  0
 36 84  1  0
 37 38  1  1
 38 85  1  0
M  CHG  1  31   1
M  END
>  <i_m_ct_stereo_status>  (207) 
1

>  <s_m_source_file>  (207) 
/var/tmp/pbs.5076255.sched01/tmpr0mrskr5/46emy42_dx.sdf

>  <i_m_source_file_index>  (207) 
44

>  <i_lp_mmshare_version>  (207) 
48012

>  <i_f3d_flags>  (207) 
0

>  <s_epik_input>  (207) 
QzEyM1tDQEhdNFtDSDJdW0NASF01W0NAQEhdKE9bQ0gzXSlbQ0BIXShbQ0BIXTVPW0NIM10pW0NAQEhdMVtDQEhdKFtDQEBIXTRbT0hdKVtDQF02KFtPSF0pW0NAQF03OFtDQEhdM1tDQEBIXShbQ0gyXTgpTihbQ0gzXSlbQ0gyXVtDQEBdNihPW0NIM10pW0NAQF0oW0NIM10pKFtDSDJdW0NIMl03KVtDQEhdKFtPSF0pW0NAQEhdMltDSF09QyhbQ0gzXSlbQ0gzXQ==

>  <s_epik_cmdline>  (207) 
J2VwaWtfcHl0aG9uJywgJy1waHQnLCAnMi4wJywgJy1waCcsICc3LjAnLCAnLXRuJywgJzgnLCAnLW1hJywgJzIwMCcsICctaW1hZScsICc8aW5maWxlLm1hZT4nLCAnLW9tYWUnLCAnPG91dGZpbGUubWFlPic=

>  <r_epik_Ionization_Penalty>  (207) 
0.0111743

>  <r_epik_Ionization_Penalty_Charging>  (207) 
0.0111736

>  <r_epik_Ionization_Penalty_Neutral>  (207) 
6.40486e-07

>  <r_epik_State_Penalty>  (207) 
0.00858501

>  <r_epik_Charging_Adjusted_Penalty>  (207) 
0.0197586

>  <i_epik_Tot_Q>  (207) 
1

>  <i_epik_Tot_abs_Q>  (207) 
1

>  <s_lp_Force_Field>  (207) 
OPLS3e

>  <r_lp_Energy>  (207) 
672.925

>  <b_lp_Chiralities_Consistent>  (207) 
1

>  <s_lp_Variant>  (207) 
63:0-1

>  <s_i_glide_gridfile>  (207) 
pfpi4k_grid

>  <i_i_glide_lignum>  (207) 
44

>  <i_i_glide_rotatable_bonds>  (207) 
7

>  <r_i_docking_score>  (207) 
-0.644945

>  <r_i_glide_ligand_efficiency>  (207) 
-0.0169722

>  <r_i_glide_ligand_efficiency_sa>  (207) 
-0.0570602

>  <r_i_glide_ligand_efficiency_ln>  (207) 
-0.139069

>  <r_i_glide_gscore>  (207) 
-0.644945

>  <r_i_glide_lipo>  (207) 
-0.752537

>  <r_i_glide_hbond>  (207) 
0

>  <r_i_glide_metal>  (207) 
-0

>  <r_i_glide_rewards>  (207) 
-0.5

>  <r_i_glide_evdw>  (207) 
-4.66783

>  <r_i_glide_ecoul>  (207) 
-1.37696

>  <r_i_glide_erotb>  (207) 
0.0731931

>  <r_i_glide_esite>  (207) 
-0.0425565

>  <r_i_glide_emodel>  (207) 
1.65534

>  <r_i_glide_energy>  (207) 
-6.04479

>  <r_i_glide_einternal>  (207) 
12.0594

>  <r_i_glide_intrahb_reward>  (207) 
-0.5

>  <i_i_glide_confnum>  (207) 
2

>  <i_i_glide_posenum>  (207) 
21

>  <r_i_glide_eff_state_penalty>  (207) 
0

>  <ligand_id>  (207) 
63

>  <original_smiles>  (207) 
COC1C2CC3C(O)C4C(C1C2OC)C31C(C=C(C)C)C(O)C2(C)CCC35CC(C13)N(C)CC2(OC)C45O

>  <smiles>  (207) 
[H]OC1([H])C2([H])C3([H])C4([H])C([H])(OC([H])([H])[H])C([H])(C([H])([H])C1([H])C31C([H])(C([H])=C(C([H])([H])[H])C([H])([H])[H])C([H])(O[H])C3(C([H])([H])[H])C([H])([H])C([H])([H])C56C([H])([H])C([H])(C15[H])[N+]([H])(C([H])([H])[H])C([H])([H])C3(OC([H])([H])[H])C26O[H])C4([H])OC([H])([H])[H]

$$$$
64:0:0
     RDKit          3D

 45 50  0  0  1  0  0  0  0  0999 V2000
    5.6356   -6.9401    1.4817 C   0  0  0  0  0  0  0  0  0  0  0  0
    5.8650   -5.4435    1.7155 C   0  0  2  0  0  0  0  0  0  0  0  0
    4.7571   -4.9676    2.5775 O   0  0  0  0  0  0  0  0  0  0  0  0
    3.4847   -4.3795    2.1166 C   0  0  1  0  0  0  0  0  0  0  0  0
    3.2050   -2.8691    2.5948 C   0  0  0  0  0  0  0  0  0  0  0  0
    3.1620   -2.6776    3.8108 O   0  0  0  0  0  0  0  0  0  0  0  0
    3.0010   -1.5664    1.6592 C   0  0  0  0  0  0  0  0  0  0  0  0
    3.9487   -0.9190    0.4601 C   0  0  2  0  0  0  0  0  0  0  0  0
    3.6565   -1.3840   -0.9941 C   0  0  0  0  0  0  0  0  0  0  0  0
    3.3931   -2.8553   -1.0144 C   0  0  0  0  0  0  0  0  0  0  0  0
    2.2388   -3.3177   -1.6657 C   0  0  0  0  0  0  0  0  0  0  0  0
    1.6345   -4.4571   -1.0868 C   0  0  0  0  0  0  0  0  0  0  0  0
    2.0885   -5.0524    0.1266 C   0  0  0  0  0  0  0  0  0  0  0  0
    1.3303   -5.9693    0.8025 O   0  0  0  0  0  0  0  0  0  0  0  0
    3.2618   -4.4829    0.6501 C   0  0  0  0  0  0  0  0  0  0  0  0
    4.0528   -3.5830   -0.0212 C   0  0  0  0  0  0  0  0  0  0  0  0
    5.4969   -3.3048    0.4881 C   0  0  2  0  0  0  0  0  0  0  0  0
    5.9475   -2.5900    1.8929 C   0  0  0  0  0  0  0  0  0  0  0  0
    5.9704   -1.0851    1.9345 C   0  0  0  0  0  0  0  0  0  0  0  0
    5.5167   -0.6781    0.5816 C   0  0  1  0  0  0  0  0  0  0  0  0
    6.4820   -1.3491   -0.3351 O   0  0  0  0  0  0  0  0  0  0  0  0
    6.3456   -2.7668   -0.6322 C   0  0  1  0  0  0  0  0  0  0  0  0
    7.3683   -3.8439   -0.0890 C   0  0  0  0  0  0  0  0  0  0  0  0
    8.5901   -3.9673   -0.0217 O   0  0  0  0  0  0  0  0  0  0  0  0
    6.1008   -4.6724    0.3781 C   0  0  1  0  0  0  0  0  0  0  0  0
    6.4442   -7.3770    0.8963 H   0  0  0  0  0  0  0  0  0  0  0  0
    4.7032   -7.1157    0.9469 H   0  0  0  0  0  0  0  0  0  0  0  0
    5.5792   -7.4807    2.4253 H   0  0  0  0  0  0  0  0  0  0  0  0
    6.7640   -5.3666    2.3317 H   0  0  0  0  0  0  0  0  0  0  0  0
    2.7105   -4.9538    2.6214 H   0  0  0  0  0  0  0  0  0  0  0  0
    1.9959   -1.6697    1.2506 H   0  0  0  0  0  0  0  0  0  0  0  0
    2.8845   -0.7557    2.3830 H   0  0  0  0  0  0  0  0  0  0  0  0
    3.5896    0.1089    0.4789 H   0  0  0  0  0  0  0  0  0  0  0  0
    2.7430   -0.8922   -1.3224 H   0  0  0  0  0  0  0  0  0  0  0  0
    4.4067   -1.0709   -1.7207 H   0  0  0  0  0  0  0  0  0  0  0  0
    1.7439   -2.7634   -2.4565 H   0  0  0  0  0  0  0  0  0  0  0  0
    0.7238   -4.8320   -1.5278 H   0  0  0  0  0  0  0  0  0  0  0  0
    1.7737   -6.3924    1.5217 H   0  0  0  0  0  0  0  0  0  0  0  0
    5.6271   -2.9594    2.8536 H   0  0  0  0  0  0  0  0  0  0  0  0
    6.9986   -2.8072    2.0643 H   0  0  0  0  0  0  0  0  0  0  0  0
    5.3395   -0.6768    2.7286 H   0  0  0  0  0  0  0  0  0  0  0  0
    6.9857   -0.7205    2.1040 H   0  0  0  0  0  0  0  0  0  0  0  0
    5.6953    0.3898    0.4838 H   0  0  0  0  0  0  0  0  0  0  0  0
    5.9727   -2.9915   -1.6365 H   0  0  0  0  0  0  0  0  0  0  0  0
    5.7082   -5.2132   -0.4845 H   0  0  0  0  0  0  0  0  0  0  0  0
  1  2  1  0
  1 26  1  0
  1 27  1  0
  1 28  1  0
  2 25  1  0
  2  3  1  0
  2 29  1  1
  3  4  1  0
  4 15  1  0
  4  5  1  0
  4 30  1  1
  5  6  2  0
  5  7  1  0
  7  8  1  0
  7 31  1  0
  7 32  1  0
  8 20  1  0
  8  9  1  0
  8 33  1  6
  9 10  1  0
  9 34  1  0
  9 35  1  0
 10 16  2  0
 10 11  1  0
 11 12  2  0
 11 36  1  0
 12 13  1  0
 12 37  1  0
 13 14  1  0
 13 15  2  0
 14 38  1  0
 15 16  1  0
 16 17  1  0
 17 22  1  0
 17 25  1  0
 17 18  1  1
 18 19  1  0
 18 39  1  0
 18 40  1  0
 19 20  1  0
 19 41  1  0
 19 42  1  0
 20 21  1  0
 20 43  1  1
 21 22  1  0
 22 23  1  0
 22 44  1  6
 23 24  2  0
 23 25  1  0
 25 45  1  6
M  END
>  <i_m_ct_stereo_status>  (208) 
1

>  <s_m_source_file>  (208) 
/var/tmp/pbs.5076255.sched01/tmpr0mrskr5/46emy42_dx.sdf

>  <i_m_source_file_index>  (208) 
46

>  <i_lp_mmshare_version>  (208) 
48012

>  <i_f3d_flags>  (208) 
0

>  <s_epik_input>  (208) 
W0NAQF0xMjNjNGM1W2NIXVtjSF1jKFtPSF0pYzRbQ0BIXTZPW0NAQEhdKFtDSDNdKVtDQEBIXTNDKD1PKVtDQEBIXTJPW0NASF0oW0NIMl1bQ0gyXTEpW0NAQEhdKFtDSDJdNSlbQ0gyXUM2PU8=

>  <s_epik_cmdline>  (208) 
J2VwaWtfcHl0aG9uJywgJy1waHQnLCAnMi4wJywgJy1waCcsICc3LjAnLCAnLXRuJywgJzgnLCAnLW1hJywgJzIwMCcsICctaW1hZScsICc8aW5maWxlLm1hZT4nLCAnLW9tYWUnLCAnPG91dGZpbGUubWFlPic=

>  <r_lp_tautomer_probability>  (208) 
1

>  <r_epik_Ionization_Penalty>  (208) 
0.00161615

>  <r_epik_Ionization_Penalty_Charging>  (208) 
0

>  <r_epik_Ionization_Penalty_Neutral>  (208) 
0.00161615

>  <r_epik_State_Penalty>  (208) 
0.00108819

>  <r_epik_Charging_Adjusted_Penalty>  (208) 
0.00108819

>  <i_epik_Tot_Q>  (208) 
0

>  <i_epik_Tot_abs_Q>  (208) 
0

>  <s_lp_Force_Field>  (208) 
OPLS3e

>  <r_lp_Energy>  (208) 
199.713

>  <b_lp_Chiralities_Consistent>  (208) 
1

>  <s_lp_Variant>  (208) 
64:0-1

>  <s_i_glide_gridfile>  (208) 
pfpi4k_grid

>  <i_i_glide_lignum>  (208) 
46

>  <i_i_glide_rotatable_bonds>  (208) 
1

>  <r_i_docking_score>  (208) 
-3.84398

>  <r_i_glide_ligand_efficiency>  (208) 
-0.153759

>  <r_i_glide_ligand_efficiency_sa>  (208) 
-0.449595

>  <r_i_glide_ligand_efficiency_ln>  (208) 
-0.911139

>  <r_i_glide_gscore>  (208) 
-3.84398

>  <r_i_glide_lipo>  (208) 
-0.793304

>  <r_i_glide_hbond>  (208) 
-0.263486

>  <r_i_glide_metal>  (208) 
-0

>  <r_i_glide_rewards>  (208) 
-1.26669

>  <r_i_glide_evdw>  (208) 
-13.7889

>  <r_i_glide_ecoul>  (208) 
-5.5404

>  <r_i_glide_erotb>  (208) 
0

>  <r_i_glide_esite>  (208) 
0

>  <r_i_glide_emodel>  (208) 
-24.3447

>  <r_i_glide_energy>  (208) 
-19.3293

>  <r_i_glide_einternal>  (208) 
0.191612

>  <r_i_glide_intrahb_reward>  (208) 
-0

>  <i_i_glide_confnum>  (208) 
1

>  <i_i_glide_posenum>  (208) 
1

>  <r_i_glide_eff_state_penalty>  (208) 
0

>  <ligand_id>  (208) 
64

>  <original_smiles>  (208) 
CC1OC2C(=O)CC3Cc4ccc(O)c2c4C24CCC3OC2C(=O)C14

>  <smiles>  (208) 
[H]Oc1c([H])c([H])c2c3c1C1([H])OC([H])(C([H])([H])[H])C4([H])C(=O)C5([H])OC([H])(C([H])([H])C([H])([H])C354)C([H])(C([H])([H])C1=O)C2([H])[H]

$$$$
64:0:1
     RDKit          3D

 45 50  0  0  1  0  0  0  0  0999 V2000
    5.1374   -0.2717    2.5455 C   0  0  0  0  0  0  0  0  0  0  0  0
    5.0912   -1.7484    2.9411 C   0  0  2  0  0  0  0  0  0  0  0  0
    6.0740   -2.4509    2.0790 O   0  0  0  0  0  0  0  0  0  0  0  0
    5.8010   -3.1148    0.8012 C   0  0  1  0  0  0  0  0  0  0  0  0
    6.0886   -4.6978    0.7647 C   0  0  0  0  0  0  0  0  0  0  0  0
    7.2466   -5.0491    0.9785 O   0  0  0  0  0  0  0  0  0  0  0  0
    5.0221   -5.8863    0.4851 C   0  0  0  0  0  0  0  0  0  0  0  0
    3.5862   -6.2629    1.2186 C   0  0  2  0  0  0  0  0  0  0  0  0
    2.3170   -5.6585    0.5798 C   0  0  0  0  0  0  0  0  0  0  0  0
    2.5865   -4.2387    0.1867 C   0  0  0  0  0  0  0  0  0  0  0  0
    2.2353   -3.8202   -1.1164 C   0  0  0  0  0  0  0  0  0  0  0  0
    3.0642   -2.8146   -1.6611 C   0  0  0  0  0  0  0  0  0  0  0  0
    4.2637   -2.3811   -1.0540 C   0  0  0  0  0  0  0  0  0  0  0  0
    5.1852   -1.6291   -1.7316 O   0  0  0  0  0  0  0  0  0  0  0  0
    4.4536   -2.8577    0.2599 C   0  0  0  0  0  0  0  0  0  0  0  0
    3.5132   -3.5648    0.9783 C   0  0  0  0  0  0  0  0  0  0  0  0
    3.6762   -3.7367    2.5209 C   0  0  2  0  0  0  0  0  0  0  0  0
    4.8462   -4.5636    3.3467 C   0  0  0  0  0  0  0  0  0  0  0  0
    4.6447   -6.0523    3.4955 C   0  0  0  0  0  0  0  0  0  0  0  0
    3.3584   -6.3277    2.7930 C   0  0  1  0  0  0  0  0  0  0  0  0
    2.3667   -5.4455    3.4662 O   0  0  0  0  0  0  0  0  0  0  0  0
    2.3303   -4.0185    3.1522 C   0  0  1  0  0  0  0  0  0  0  0  0
    2.8148   -2.9135    4.1614 C   0  0  0  0  0  0  0  0  0  0  0  0
    2.6686   -2.6568    5.3516 O   0  0  0  0  0  0  0  0  0  0  0  0
    3.6348   -2.3048    2.9601 C   0  0  1  0  0  0  0  0  0  0  0  0
    4.4802    0.3362    3.1672 H   0  0  0  0  0  0  0  0  0  0  0  0
    4.8435   -0.1357    1.5068 H   0  0  0  0  0  0  0  0  0  0  0  0
    6.1516    0.1033    2.6588 H   0  0  0  0  0  0  0  0  0  0  0  0
    5.5056   -1.7949    3.9492 H   0  0  0  0  0  0  0  0  0  0  0  0
    6.5222   -2.7040    0.0965 H   0  0  0  0  0  0  0  0  0  0  0  0
    4.8307   -5.8427   -0.5877 H   0  0  0  0  0  0  0  0  0  0  0  0
    5.6261   -6.7882    0.5917 H   0  0  0  0  0  0  0  0  0  0  0  0
    3.5064   -7.3165    0.9625 H   0  0  0  0  0  0  0  0  0  0  0  0
    2.1128   -6.2148   -0.3276 H   0  0  0  0  0  0  0  0  0  0  0  0
    1.4210   -5.7747    1.1878 H   0  0  0  0  0  0  0  0  0  0  0  0
    1.4640   -4.2986   -1.7026 H   0  0  0  0  0  0  0  0  0  0  0  0
    2.8257   -2.4641   -2.6516 H   0  0  0  0  0  0  0  0  0  0  0  0
    4.8277   -1.3093   -2.5461 H   0  0  0  0  0  0  0  0  0  0  0  0
    5.8908   -4.3669    3.1691 H   0  0  0  0  0  0  0  0  0  0  0  0
    4.8869   -4.2551    4.3965 H   0  0  0  0  0  0  0  0  0  0  0  0
    5.4736   -6.6205    3.0700 H   0  0  0  0  0  0  0  0  0  0  0  0
    4.5575   -6.3188    4.5486 H   0  0  0  0  0  0  0  0  0  0  0  0
    3.0540   -7.3461    3.0328 H   0  0  0  0  0  0  0  0  0  0  0  0
    1.4706   -3.6972    2.5560 H   0  0  0  0  0  0  0  0  0  0  0  0
    2.9584   -1.7104    2.3466 H   0  0  0  0  0  0  0  0  0  0  0  0
  1  2  1  0
  1 26  1  0
  1 27  1  0
  1 28  1  0
  2 25  1  0
  2  3  1  0
  2 29  1  1
  3  4  1  0
  4 15  1  0
  4  5  1  0
  4 30  1  6
  5  6  2  0
  5  7  1  0
  7  8  1  0
  7 31  1  0
  7 32  1  0
  8 20  1  0
  8  9  1  0
  8 33  1  6
  9 10  1  0
  9 34  1  0
  9 35  1  0
 10 16  2  0
 10 11  1  0
 11 12  2  0
 11 36  1  0
 12 13  1  0
 12 37  1  0
 13 14  1  0
 13 15  2  0
 14 38  1  0
 15 16  1  0
 16 17  1  0
 17 22  1  0
 17 25  1  0
 17 18  1  6
 18 19  1  0
 18 39  1  0
 18 40  1  0
 19 20  1  0
 19 41  1  0
 19 42  1  0
 20 21  1  0
 20 43  1  6
 21 22  1  0
 22 23  1  0
 22 44  1  6
 23 24  2  0
 23 25  1  0
 25 45  1  6
M  END
>  <i_m_ct_stereo_status>  (209) 
1

>  <s_m_source_file>  (209) 
/var/tmp/pbs.5076255.sched01/tmpr0mrskr5/46emy42_dx.sdf

>  <i_m_source_file_index>  (209) 
46

>  <i_lp_mmshare_version>  (209) 
48012

>  <i_f3d_flags>  (209) 
0

>  <s_epik_input>  (209) 
W0NAQF0xMjNjNGM1W2NIXVtjSF1jKFtPSF0pYzRbQ0BIXTZPW0NAQEhdKFtDSDNdKVtDQEBIXTNDKD1PKVtDQEBIXTJPW0NASF0oW0NIMl1bQ0gyXTEpW0NAQEhdKFtDSDJdNSlbQ0gyXUM2PU8=

>  <s_epik_cmdline>  (209) 
J2VwaWtfcHl0aG9uJywgJy1waHQnLCAnMi4wJywgJy1waCcsICc3LjAnLCAnLXRuJywgJzgnLCAnLW1hJywgJzIwMCcsICctaW1hZScsICc8aW5maWxlLm1hZT4nLCAnLW9tYWUnLCAnPG91dGZpbGUubWFlPic=

>  <r_lp_tautomer_probability>  (209) 
1

>  <r_epik_Ionization_Penalty>  (209) 
0.00161615

>  <r_epik_Ionization_Penalty_Charging>  (209) 
0

>  <r_epik_Ionization_Penalty_Neutral>  (209) 
0.00161615

>  <r_epik_State_Penalty>  (209) 
0.00108819

>  <r_epik_Charging_Adjusted_Penalty>  (209) 
0.00108819

>  <i_epik_Tot_Q>  (209) 
0

>  <i_epik_Tot_abs_Q>  (209) 
0

>  <s_lp_Force_Field>  (209) 
OPLS3e

>  <r_lp_Energy>  (209) 
199.713

>  <b_lp_Chiralities_Consistent>  (209) 
1

>  <s_lp_Variant>  (209) 
64:0-1

>  <s_i_glide_gridfile>  (209) 
pfpi4k_grid

>  <i_i_glide_lignum>  (209) 
46

>  <i_i_glide_rotatable_bonds>  (209) 
1

>  <r_i_docking_score>  (209) 
-2.95843

>  <r_i_glide_ligand_efficiency>  (209) 
-0.118337

>  <r_i_glide_ligand_efficiency_sa>  (209) 
-0.34602

>  <r_i_glide_ligand_efficiency_ln>  (209) 
-0.701236

>  <r_i_glide_gscore>  (209) 
-2.95843

>  <r_i_glide_lipo>  (209) 
-0.470533

>  <r_i_glide_hbond>  (209) 
0

>  <r_i_glide_metal>  (209) 
-0

>  <r_i_glide_rewards>  (209) 
-1.22479

>  <r_i_glide_evdw>  (209) 
-21.4233

>  <r_i_glide_ecoul>  (209) 
-1.27962

>  <r_i_glide_erotb>  (209) 
0

>  <r_i_glide_esite>  (209) 
0

>  <r_i_glide_emodel>  (209) 
-26.6206

>  <r_i_glide_energy>  (209) 
-22.7029

>  <r_i_glide_einternal>  (209) 
0.0487377

>  <r_i_glide_intrahb_reward>  (209) 
-0

>  <i_i_glide_confnum>  (209) 
1

>  <i_i_glide_posenum>  (209) 
2

>  <r_i_glide_eff_state_penalty>  (209) 
0

>  <ligand_id>  (209) 
64

>  <original_smiles>  (209) 
CC1OC2C(=O)CC3Cc4ccc(O)c2c4C24CCC3OC2C(=O)C14

>  <smiles>  (209) 
[H]Oc1c([H])c([H])c2c3c1C1([H])OC([H])(C([H])([H])[H])C4([H])C(=O)C5([H])OC([H])(C([H])([H])C([H])([H])C354)C([H])(C([H])([H])C1=O)C2([H])[H]

$$$$
64:0:2
     RDKit          3D

 45 50  0  0  1  0  0  0  0  0999 V2000
    4.7003   -0.1798    3.0148 C   0  0  0  0  0  0  0  0  0  0  0  0
    4.6719   -1.6618    3.3909 C   0  0  2  0  0  0  0  0  0  0  0  0
    5.7775   -2.3094    2.6437 O   0  0  0  0  0  0  0  0  0  0  0  0
    5.6820   -2.9747    1.3382 C   0  0  1  0  0  0  0  0  0  0  0  0
    6.0421   -4.5423    1.3162 C   0  0  0  0  0  0  0  0  0  0  0  0
    7.1886   -4.8472    1.6370 O   0  0  0  0  0  0  0  0  0  0  0  0
    5.0721   -5.7692    0.9043 C   0  0  0  0  0  0  0  0  0  0  0  0
    3.5754   -6.2116    1.4525 C   0  0  2  0  0  0  0  0  0  0  0  0
    2.3718   -5.6576    0.6584 C   0  0  0  0  0  0  0  0  0  0  0  0
    2.6121   -4.2192    0.3223 C   0  0  0  0  0  0  0  0  0  0  0  0
    2.4113   -3.7874   -1.0051 C   0  0  0  0  0  0  0  0  0  0  0  0
    3.2628   -2.7499   -1.4468 C   0  0  0  0  0  0  0  0  0  0  0  0
    4.3606   -2.2782   -0.6847 C   0  0  0  0  0  0  0  0  0  0  0  0
    5.3386   -1.4839   -1.2108 O   0  0  0  0  0  0  0  0  0  0  0  0
    4.3982   -2.7628    0.6375 C   0  0  0  0  0  0  0  0  0  0  0  0
    3.4107   -3.5150    1.2315 C   0  0  0  0  0  0  0  0  0  0  0  0
    3.3963   -3.6989    2.7803 C   0  0  2  0  0  0  0  0  0  0  0  0
    4.4955   -4.4876    3.7338 C   0  0  0  0  0  0  0  0  0  0  0  0
    4.3404   -5.9850    3.8463 C   0  0  0  0  0  0  0  0  0  0  0  0
    3.1618   -6.3061    2.9880 C   0  0  1  0  0  0  0  0  0  0  0  0
    2.0581   -5.4739    3.5422 O   0  0  0  0  0  0  0  0  0  0  0  0
    2.0015   -4.0488    3.2399 C   0  0  1  0  0  0  0  0  0  0  0  0
    2.3088   -2.9350    4.3129 C   0  0  0  0  0  0  0  0  0  0  0  0
    1.9991   -2.6998    5.4775 O   0  0  0  0  0  0  0  0  0  0  0  0
    3.2459   -2.2760    3.2276 C   0  0  1  0  0  0  0  0  0  0  0  0
    3.9410    0.3881    3.5526 H   0  0  0  0  0  0  0  0  0  0  0  0
    4.5251   -0.0454    1.9492 H   0  0  0  0  0  0  0  0  0  0  0  0
    5.6670    0.2602    3.2514 H   0  0  0  0  0  0  0  0  0  0  0  0
    4.9683   -1.7074    4.4411 H   0  0  0  0  0  0  0  0  0  0  0  0
    6.4682   -2.5260    0.7344 H   0  0  0  0  0  0  0  0  0  0  0  0
    5.0141   -5.7166   -0.1821 H   0  0  0  0  0  0  0  0  0  0  0  0
    5.7007   -6.6452    1.0783 H   0  0  0  0  0  0  0  0  0  0  0  0
    3.5744   -7.2647    1.1830 H   0  0  0  0  0  0  0  0  0  0  0  0
    2.3248   -6.1970   -0.2896 H   0  0  0  0  0  0  0  0  0  0  0  0
    1.4138   -5.8260    1.1504 H   0  0  0  0  0  0  0  0  0  0  0  0
    1.7394   -4.2843   -1.6902 H   0  0  0  0  0  0  0  0  0  0  0  0
    3.1480   -2.3922   -2.4565 H   0  0  0  0  0  0  0  0  0  0  0  0
    5.8932   -1.1186   -0.5437 H   0  0  0  0  0  0  0  0  0  0  0  0
    5.5436   -4.2422    3.6896 H   0  0  0  0  0  0  0  0  0  0  0  0
    4.3896   -4.1920    4.7825 H   0  0  0  0  0  0  0  0  0  0  0  0
    5.2398   -6.5135    3.5208 H   0  0  0  0  0  0  0  0  0  0  0  0
    4.1404   -6.2714    4.8799 H   0  0  0  0  0  0  0  0  0  0  0  0
    2.8771   -7.3397    3.1825 H   0  0  0  0  0  0  0  0  0  0  0  0
    1.2081   -3.7557    2.5495 H   0  0  0  0  0  0  0  0  0  0  0  0
    2.6244   -1.7040    2.5391 H   0  0  0  0  0  0  0  0  0  0  0  0
  1  2  1  0
  1 26  1  0
  1 27  1  0
  1 28  1  0
  2 25  1  0
  2  3  1  0
  2 29  1  1
  3  4  1  0
  4 15  1  0
  4  5  1  0
  4 30  1  6
  5  6  2  0
  5  7  1  0
  7  8  1  0
  7 31  1  0
  7 32  1  0
  8 20  1  0
  8  9  1  0
  8 33  1  6
  9 10  1  0
  9 34  1  0
  9 35  1  0
 10 16  2  0
 10 11  1  0
 11 12  2  0
 11 36  1  0
 12 13  1  0
 12 37  1  0
 13 14  1  0
 13 15  2  0
 14 38  1  0
 15 16  1  0
 16 17  1  0
 17 22  1  0
 17 25  1  0
 17 18  1  1
 18 19  1  0
 18 39  1  0
 18 40  1  0
 19 20  1  0
 19 41  1  0
 19 42  1  0
 20 21  1  0
 20 43  1  1
 21 22  1  0
 22 23  1  0
 22 44  1  6
 23 24  2  0
 23 25  1  0
 25 45  1  6
M  END
>  <i_m_ct_stereo_status>  (210) 
1

>  <s_m_source_file>  (210) 
/var/tmp/pbs.5076255.sched01/tmpr0mrskr5/46emy42_dx.sdf

>  <i_m_source_file_index>  (210) 
46

>  <i_lp_mmshare_version>  (210) 
48012

>  <i_f3d_flags>  (210) 
0

>  <s_epik_input>  (210) 
W0NAQF0xMjNjNGM1W2NIXVtjSF1jKFtPSF0pYzRbQ0BIXTZPW0NAQEhdKFtDSDNdKVtDQEBIXTNDKD1PKVtDQEBIXTJPW0NASF0oW0NIMl1bQ0gyXTEpW0NAQEhdKFtDSDJdNSlbQ0gyXUM2PU8=

>  <s_epik_cmdline>  (210) 
J2VwaWtfcHl0aG9uJywgJy1waHQnLCAnMi4wJywgJy1waCcsICc3LjAnLCAnLXRuJywgJzgnLCAnLW1hJywgJzIwMCcsICctaW1hZScsICc8aW5maWxlLm1hZT4nLCAnLW9tYWUnLCAnPG91dGZpbGUubWFlPic=

>  <r_lp_tautomer_probability>  (210) 
1

>  <r_epik_Ionization_Penalty>  (210) 
0.00161615

>  <r_epik_Ionization_Penalty_Charging>  (210) 
0

>  <r_epik_Ionization_Penalty_Neutral>  (210) 
0.00161615

>  <r_epik_State_Penalty>  (210) 
0.00108819

>  <r_epik_Charging_Adjusted_Penalty>  (210) 
0.00108819

>  <i_epik_Tot_Q>  (210) 
0

>  <i_epik_Tot_abs_Q>  (210) 
0

>  <s_lp_Force_Field>  (210) 
OPLS3e

>  <r_lp_Energy>  (210) 
199.713

>  <b_lp_Chiralities_Consistent>  (210) 
1

>  <s_lp_Variant>  (210) 
64:0-1

>  <s_i_glide_gridfile>  (210) 
pfpi4k_grid

>  <i_i_glide_lignum>  (210) 
46

>  <i_i_glide_rotatable_bonds>  (210) 
1

>  <r_i_docking_score>  (210) 
-2.73549

>  <r_i_glide_ligand_efficiency>  (210) 
-0.10942

>  <r_i_glide_ligand_efficiency_sa>  (210) 
-0.319945

>  <r_i_glide_ligand_efficiency_ln>  (210) 
-0.648393

>  <r_i_glide_gscore>  (210) 
-2.73549

>  <r_i_glide_lipo>  (210) 
-0.352698

>  <r_i_glide_hbond>  (210) 
0

>  <r_i_glide_metal>  (210) 
-0

>  <r_i_glide_rewards>  (210) 
-1.19544

>  <r_i_glide_evdw>  (210) 
-20.1149

>  <r_i_glide_ecoul>  (210) 
-1.2107

>  <r_i_glide_erotb>  (210) 
0

>  <r_i_glide_esite>  (210) 
0

>  <r_i_glide_emodel>  (210) 
-24.877

>  <r_i_glide_energy>  (210) 
-21.3256

>  <r_i_glide_einternal>  (210) 
0.133251

>  <r_i_glide_intrahb_reward>  (210) 
-0

>  <i_i_glide_confnum>  (210) 
2

>  <i_i_glide_posenum>  (210) 
34

>  <r_i_glide_eff_state_penalty>  (210) 
0

>  <ligand_id>  (210) 
64

>  <original_smiles>  (210) 
CC1OC2C(=O)CC3Cc4ccc(O)c2c4C24CCC3OC2C(=O)C14

>  <smiles>  (210) 
[H]Oc1c([H])c([H])c2c3c1C1([H])OC([H])(C([H])([H])[H])C4([H])C(=O)C5([H])OC([H])(C([H])([H])C([H])([H])C354)C([H])(C([H])([H])C1=O)C2([H])[H]

$$$$
65:0:0
     RDKit          3D

 95102  0  0  1  0  0  0  0  0999 V2000
   -1.7944   -7.6892    3.7060 C   0  0  0  0  0  0  0  0  0  0  0  0
   -0.6445   -7.5011    4.6505 C   0  0  0  0  0  0  0  0  0  0  0  0
   -0.1886   -6.3934    4.9057 O   0  0  0  0  0  0  0  0  0  0  0  0
   -0.1871   -8.7291    5.0925 O   0  0  0  0  0  0  0  0  0  0  0  0
    1.1890   -9.0491    5.3521 C   0  0  2  0  0  0  0  0  0  0  0  0
    2.1351   -7.8538    5.7057 C   0  0  0  0  0  0  0  0  0  0  0  0
    2.8277   -7.5758    4.3307 C   0  0  1  0  0  0  0  0  0  0  0  0
    4.1900   -8.1205    4.1391 C   0  0  2  0  0  0  0  0  0  0  0  0
    4.2599   -9.2775    4.9088 O   0  0  0  0  0  0  0  0  0  0  0  0
    3.2230  -10.2179    4.4145 C   0  0  0  0  0  0  0  0  0  0  0  0
    1.8071   -9.5601    4.0251 C   0  0  1  0  0  0  0  0  0  0  0  0
    0.8911  -10.5653    3.2991 C   0  0  0  0  0  0  0  0  0  0  0  0
    2.0695   -8.2421    3.2711 C   0  0  0  0  0  0  0  0  0  0  0  0
    2.6475   -8.5971    1.9880 O   0  0  0  0  0  0  0  0  0  0  0  0
    1.8984   -7.4368    1.9343 C   0  0  2  0  0  0  0  0  0  0  0  0
    2.8103   -6.2837    1.3708 C   0  0  0  0  0  0  0  0  0  0  0  0
    3.8833   -5.3843    2.2009 C   0  0  1  0  0  0  0  0  0  0  0  0
    4.7524   -4.5396    1.1521 C   0  0  1  0  0  0  0  0  0  0  0  0
    5.0607   -5.2179   -0.2264 C   0  0  0  0  0  0  0  0  0  0  0  0
    4.0754   -3.2493    0.6463 C   0  0  0  0  0  0  0  0  0  0  0  0
    3.8181   -2.2096    1.7013 C   0  0  0  0  0  0  0  0  0  0  0  0
    2.8259   -2.7417    2.7295 C   0  0  2  0  0  0  0  0  0  0  0  0
    2.3993   -1.6548    3.8658 C   0  0  1  0  0  0  0  0  0  0  0  0
    3.4773   -0.5351    3.9467 C   0  0  0  0  0  0  0  0  0  0  0  0
    1.1328   -0.8923    3.3496 C   0  0  0  0  0  0  0  0  0  0  0  0
   -0.1794   -1.1980    4.0525 C   0  0  0  0  0  0  0  0  0  0  0  0
    0.0158   -0.8339    5.5276 C   0  0  1  0  0  0  0  0  0  0  0  0
   -1.2623   -0.6821    6.1226 O   0  0  0  0  0  0  0  0  0  0  0  0
    0.9487   -1.8422    6.2592 C   0  0  0  0  0  0  0  0  0  0  0  0
    1.4094   -1.1731    7.5838 C   0  0  0  0  0  0  0  0  0  0  0  0
    0.1298   -3.1069    6.6640 C   0  0  0  0  0  0  0  0  0  0  0  0
    2.2487   -2.1920    5.3869 C   0  0  1  0  0  0  0  0  0  0  0  0
    2.8371   -3.6053    5.6595 C   0  0  0  0  0  0  0  0  0  0  0  0
    3.7654   -4.1096    4.5615 C   0  0  0  0  0  0  0  0  0  0  0  0
    3.0569   -4.2732    3.1807 C   0  0  2  0  0  0  0  0  0  0  0  0
    1.5274   -4.6800    3.3487 C   0  0  0  0  0  0  0  0  0  0  0  0
    6.0890   -4.2584    1.8944 C   0  0  0  0  0  0  0  0  0  0  0  0
    6.2591   -5.2750    3.0191 C   0  0  0  0  0  0  0  0  0  0  0  0
    5.1384   -6.2960    2.8534 C   0  0  2  0  0  0  0  0  0  0  0  0
    5.8213   -7.3472    1.8959 C   0  0  0  0  0  0  0  0  0  0  0  0
    5.0748   -7.0305    4.1475 O   0  0  0  0  0  0  0  0  0  0  0  0
   -2.5974   -8.0433    4.3584 H   0  0  0  0  0  0  0  0  0  0  0  0
   -1.6639   -8.4209    2.8675 H   0  0  0  0  0  0  0  0  0  0  0  0
   -2.0597   -6.7140    3.3233 H   0  0  0  0  0  0  0  0  0  0  0  0
    1.2681   -9.8074    6.1255 H   0  0  0  0  0  0  0  0  0  0  0  0
    1.5713   -6.9777    6.0411 H   0  0  0  0  0  0  0  0  0  0  0  0
    2.8691   -8.0886    6.4978 H   0  0  0  0  0  0  0  0  0  0  0  0
    2.9522   -6.5458    4.2181 H   0  0  0  0  0  0  0  0  0  0  0  0
    4.4068   -8.6080    3.2016 H   0  0  0  0  0  0  0  0  0  0  0  0
    3.6274  -10.7117    3.5286 H   0  0  0  0  0  0  0  0  0  0  0  0
    3.0915  -11.0094    5.1498 H   0  0  0  0  0  0  0  0  0  0  0  0
    1.3809  -10.9646    2.4211 H   0  0  0  0  0  0  0  0  0  0  0  0
   -0.0442  -10.1169    2.9699 H   0  0  0  0  0  0  0  0  0  0  0  0
    0.6421  -11.4109    3.9356 H   0  0  0  0  0  0  0  0  0  0  0  0
    0.9692   -7.5784    1.3997 H   0  0  0  0  0  0  0  0  0  0  0  0
    3.3195   -6.7900    0.5560 H   0  0  0  0  0  0  0  0  0  0  0  0
    2.1508   -5.6047    0.8273 H   0  0  0  0  0  0  0  0  0  0  0  0
    5.8448   -4.6707   -0.7443 H   0  0  0  0  0  0  0  0  0  0  0  0
    4.2029   -5.1887   -0.8958 H   0  0  0  0  0  0  0  0  0  0  0  0
    5.3629   -6.2559   -0.2357 H   0  0  0  0  0  0  0  0  0  0  0  0
    4.6891   -2.7740   -0.1163 H   0  0  0  0  0  0  0  0  0  0  0  0
    3.1328   -3.4895    0.1558 H   0  0  0  0  0  0  0  0  0  0  0  0
    4.7334   -1.8559    2.1550 H   0  0  0  0  0  0  0  0  0  0  0  0
    3.3642   -1.3451    1.2210 H   0  0  0  0  0  0  0  0  0  0  0  0
    1.9674   -2.7931    2.0529 H   0  0  0  0  0  0  0  0  0  0  0  0
    3.2220    0.2058    4.6996 H   0  0  0  0  0  0  0  0  0  0  0  0
    3.5702    0.0255    3.0223 H   0  0  0  0  0  0  0  0  0  0  0  0
    4.4592   -0.9221    4.2052 H   0  0  0  0  0  0  0  0  0  0  0  0
    1.2702    0.1854    3.4734 H   0  0  0  0  0  0  0  0  0  0  0  0
    0.9885   -0.9947    2.2782 H   0  0  0  0  0  0  0  0  0  0  0  0
   -0.9655   -0.5698    3.6431 H   0  0  0  0  0  0  0  0  0  0  0  0
   -0.5151   -2.2329    3.9468 H   0  0  0  0  0  0  0  0  0  0  0  0
    0.4670    0.1608    5.5900 H   0  0  0  0  0  0  0  0  0  0  0  0
   -1.7119    0.0171    5.6720 H   0  0  0  0  0  0  0  0  0  0  0  0
    2.0811   -1.8146    8.1551 H   0  0  0  0  0  0  0  0  0  0  0  0
    0.5729   -0.9210    8.2331 H   0  0  0  0  0  0  0  0  0  0  0  0
    1.9454   -0.2455    7.3929 H   0  0  0  0  0  0  0  0  0  0  0  0
    0.6961   -3.7768    7.3115 H   0  0  0  0  0  0  0  0  0  0  0  0
   -0.1996   -3.6805    5.8001 H   0  0  0  0  0  0  0  0  0  0  0  0
   -0.7631   -2.8639    7.2384 H   0  0  0  0  0  0  0  0  0  0  0  0
    3.0195   -1.6161    5.9047 H   0  0  0  0  0  0  0  0  0  0  0  0
    3.3769   -3.5905    6.6034 H   0  0  0  0  0  0  0  0  0  0  0  0
    2.0815   -4.3760    5.8054 H   0  0  0  0  0  0  0  0  0  0  0  0
    4.6138   -3.4283    4.4764 H   0  0  0  0  0  0  0  0  0  0  0  0
    4.1741   -5.0378    4.9512 H   0  0  0  0  0  0  0  0  0  0  0  0
    1.3622   -5.5372    3.8755 H   0  0  0  0  0  0  0  0  0  0  0  0
    1.0223   -4.7475    2.3776 H   0  0  0  0  0  0  0  0  0  0  0  0
    0.9623   -3.8840    3.8446 H   0  0  0  0  0  0  0  0  0  0  0  0
    6.9352   -4.2739    1.2159 H   0  0  0  0  0  0  0  0  0  0  0  0
    6.1407   -3.2836    2.3597 H   0  0  0  0  0  0  0  0  0  0  0  0
    7.2584   -5.7112    2.9959 H   0  0  0  0  0  0  0  0  0  0  0  0
    6.2146   -4.7895    3.9848 H   0  0  0  0  0  0  0  0  0  0  0  0
    5.1104   -7.9055    1.2872 H   0  0  0  0  0  0  0  0  0  0  0  0
    6.3859   -8.0889    2.4644 H   0  0  0  0  0  0  0  0  0  0  0  0
    6.5843   -6.9335    1.2375 H   0  0  0  0  0  0  0  0  0  0  0  0
  1  2  1  0
  1 42  1  0
  1 43  1  0
  1 44  1  0
  2  3  2  0
  2  4  1  0
  4  5  1  0
  5 11  1  0
  5  6  1  0
  5 45  1  1
  6  7  1  0
  6 46  1  0
  6 47  1  0
  7 13  1  0
  7  8  1  0
  7 48  1  6
  8 41  1  0
  8  9  1  0
  8 49  1  6
  9 10  1  0
 10 11  1  0
 10 50  1  0
 10 51  1  0
 11 12  1  6
 11 13  1  0
 12 52  1  0
 12 53  1  0
 12 54  1  0
 13 15  1  0
 13 14  1  0
 14 15  1  0
 15 16  1  0
 15 55  1  6
 17 16  1  6
 16 56  1  0
 16 57  1  0
 17 35  1  0
 17 39  1  0
 17 18  1  0
 18 19  1  6
 18 20  1  0
 18 37  1  0
 19 58  1  0
 19 59  1  0
 19 60  1  0
 20 21  1  0
 20 61  1  0
 20 62  1  0
 21 22  1  0
 21 63  1  0
 21 64  1  0
 22 35  1  0
 22 23  1  0
 22 65  1  6
 23 32  1  0
 23 24  1  1
 23 25  1  0
 24 66  1  0
 24 67  1  0
 24 68  1  0
 25 26  1  0
 25 69  1  0
 25 70  1  0
 26 27  1  0
 26 71  1  0
 26 72  1  0
 27 28  1  0
 27 29  1  0
 27 73  1  6
 28 74  1  0
 29 30  1  0
 29 31  1  0
 29 32  1  0
 30 75  1  0
 30 76  1  0
 30 77  1  0
 31 78  1  0
 31 79  1  0
 31 80  1  0
 32 33  1  0
 32 81  1  1
 33 34  1  0
 33 82  1  0
 33 83  1  0
 34 35  1  0
 34 84  1  0
 34 85  1  0
 35 36  1  1
 36 86  1  0
 36 87  1  0
 36 88  1  0
 37 38  1  0
 37 89  1  0
 37 90  1  0
 38 39  1  0
 38 91  1  0
 38 92  1  0
 39 40  1  6
 39 41  1  0
 40 93  1  0
 40 94  1  0
 40 95  1  0
M  END
>  <i_m_ct_stereo_status>  (211) 
1

>  <s_m_source_file>  (211) 
/var/tmp/pbs.5076255.sched01/tmpt7uccrld/92zpefy4ut.sdf

>  <i_m_source_file_index>  (211) 
1

>  <i_lp_mmshare_version>  (211) 
48012

>  <i_f3d_flags>  (211) 
0

>  <s_epik_input>  (211) 
W0NIM11DKD1PKU9bQ0BIXShbQ0gyXTEpW0NAXTIoW0NIM10pW0NIMl1PW0NAQEhdKFtDSF0xW0NAXTIzNClPW0NAQF01KFtDSDNdKVtDQF02KFtDSDJdW0NASF00TzMpW0NAXShbQ0gzXSkoW0NIMl1bQ0gyXTUpW0NIMl1bQ0gyXVtDQEBIXTdbQ0BdOChbQ0gzXSlbQ0BASF0oQyhbQ0gzXSkoW0NIM10pW0NASF0oW09IXSlbQ0gyXVtDSDJdOClbQ0gyXVtDSDJdW0NAXTY3W0NIM10=

>  <s_epik_cmdline>  (211) 
J2VwaWtfcHl0aG9uJywgJy1waHQnLCAnMi4wJywgJy1waCcsICc3LjAnLCAnLXRuJywgJzgnLCAnLW1hJywgJzIwMCcsICctaW1hZScsICc8aW5maWxlLm1hZT4nLCAnLW9tYWUnLCAnPG91dGZpbGUubWFlPic=

>  <r_lp_tautomer_probability>  (211) 
1

>  <r_epik_Ionization_Penalty>  (211) 
3.12598e-06

>  <r_epik_Ionization_Penalty_Charging>  (211) 
0

>  <r_epik_Ionization_Penalty_Neutral>  (211) 
3.12598e-06

>  <r_epik_State_Penalty>  (211) 
-0

>  <r_epik_Charging_Adjusted_Penalty>  (211) 
0

>  <i_epik_Tot_Q>  (211) 
0

>  <i_epik_Tot_abs_Q>  (211) 
0

>  <s_epik_Chemistry_Notes>  (211) 
This compound has an ester and may undergo hydrolysis at high or low pH. This compound contains an acetal/aminal-like group ( X-CH(R)-Y where X, Y are N, S, or O) that may be acid/base labile, releasing an aldehyde.

>  <s_lp_Force_Field>  (211) 
OPLS3e

>  <r_lp_Energy>  (211) 
239.276

>  <b_lp_Chiralities_Consistent>  (211) 
1

>  <s_lp_Variant>  (211) 
65:0-1

>  <s_i_glide_gridfile>  (211) 
pfpi4k_grid

>  <i_i_glide_lignum>  (211) 
1

>  <i_i_glide_rotatable_bonds>  (211) 
3

>  <r_i_docking_score>  (211) 
-2.34547

>  <r_i_glide_ligand_efficiency>  (211) 
-0.0572065

>  <r_i_glide_ligand_efficiency_sa>  (211) 
-0.19726

>  <r_i_glide_ligand_efficiency_ln>  (211) 
-0.497599

>  <r_i_glide_gscore>  (211) 
-2.34547

>  <r_i_glide_lipo>  (211) 
-0.29819

>  <r_i_glide_hbond>  (211) 
-0.0692873

>  <r_i_glide_metal>  (211) 
-0

>  <r_i_glide_rewards>  (211) 
0

>  <r_i_glide_evdw>  (211) 
-31.8312

>  <r_i_glide_ecoul>  (211) 
-2.72265

>  <r_i_glide_erotb>  (211) 
0.0639867

>  <r_i_glide_esite>  (211) 
-0.0420175

>  <r_i_glide_emodel>  (211) 
-28.0779

>  <r_i_glide_energy>  (211) 
-34.5539

>  <r_i_glide_einternal>  (211) 
18.9871

>  <r_i_glide_intrahb_reward>  (211) 
-0

>  <i_i_glide_confnum>  (211) 
2

>  <i_i_glide_posenum>  (211) 
15

>  <r_i_glide_eff_state_penalty>  (211) 
0

>  <ligand_id>  (211) 
65

>  <original_smiles>  (211) 
CC(=O)OC1CC2C3OCC1(C)C21OC1CC12C(C)(CCC4C5(C)CCC(O)C(C)(C)C5CCC41C)CCC2(C)O3

>  <smiles>  (211) 
[H]OC1([H])C([H])([H])C([H])([H])C2(C([H])([H])[H])C([H])(C([H])([H])C([H])([H])C3(C([H])([H])[H])C2([H])C([H])([H])C([H])([H])C2(C([H])([H])[H])C([H])([H])C([H])([H])C4(C([H])([H])[H])OC5([H])OC([H])([H])C6(C([H])([H])[H])C([H])(OC(=O)C([H])([H])[H])C([H])([H])C5([H])C65OC5([H])C([H])([H])C423)C1(C([H])([H])[H])C([H])([H])[H]

$$$$
65:0:1
     RDKit          3D

 95102  0  0  1  0  0  0  0  0999 V2000
   -1.2067   -8.5288    4.8866 C   0  0  0  0  0  0  0  0  0  0  0  0
   -0.8577   -7.8398    3.5663 C   0  0  0  0  0  0  0  0  0  0  0  0
   -1.7421   -7.4209    2.8201 O   0  0  0  0  0  0  0  0  0  0  0  0
    0.4693   -7.7316    3.3420 O   0  0  0  0  0  0  0  0  0  0  0  0
    1.4546   -8.2259    4.2680 C   0  0  2  0  0  0  0  0  0  0  0  0
    2.3859   -7.0796    4.6560 C   0  0  0  0  0  0  0  0  0  0  0  0
    3.6500   -7.3984    3.8422 C   0  0  1  0  0  0  0  0  0  0  0  0
    4.7359   -8.1332    4.5518 C   0  0  2  0  0  0  0  0  0  0  0  0
    4.1229   -8.9244    5.5157 O   0  0  0  0  0  0  0  0  0  0  0  0
    3.2223   -9.8630    4.8199 C   0  0  0  0  0  0  0  0  0  0  0  0
    2.3864   -9.2360    3.6049 C   0  0  1  0  0  0  0  0  0  0  0  0
    1.6359  -10.3197    2.8121 C   0  0  0  0  0  0  0  0  0  0  0  0
    3.2893   -8.3154    2.7603 C   0  0  1  0  0  0  0  0  0  0  0  0
    4.2546   -9.1771    2.1378 O   0  0  0  0  0  0  0  0  0  0  0  0
    3.9723   -8.0498    1.4030 C   0  0  2  0  0  0  0  0  0  0  0  0
    5.3119   -7.2905    1.1260 C   0  0  0  0  0  0  0  0  0  0  0  0
    6.0838   -6.2914    2.1469 C   0  0  1  0  0  0  0  0  0  0  0  0
    7.5349   -5.9916    1.5347 C   0  0  1  0  0  0  0  0  0  0  0  0
    8.2176   -7.0940    0.6851 C   0  0  0  0  0  0  0  0  0  0  0  0
    7.5448   -4.8848    0.4702 C   0  0  0  0  0  0  0  0  0  0  0  0
    7.1278   -3.5172    0.9014 C   0  0  0  0  0  0  0  0  0  0  0  0
    5.6685   -3.5413    1.3465 C   0  0  2  0  0  0  0  0  0  0  0  0
    5.1200   -2.0681    1.7470 C   0  0  1  0  0  0  0  0  0  0  0  0
    6.2848   -1.0747    2.0277 C   0  0  0  0  0  0  0  0  0  0  0  0
    4.5183   -1.3931    0.4826 C   0  0  0  0  0  0  0  0  0  0  0  0
    3.0174   -1.2590    0.5043 C   0  0  0  0  0  0  0  0  0  0  0  0
    2.6475   -0.3988    1.7172 C   0  0  1  0  0  0  0  0  0  0  0  0
    1.3405    0.1147    1.5632 O   0  0  0  0  0  0  0  0  0  0  0  0
    2.8176   -1.1910    3.0339 C   0  0  0  0  0  0  0  0  0  0  0  0
    2.8102   -0.1457    4.1729 C   0  0  0  0  0  0  0  0  0  0  0  0
    1.5809   -2.1125    3.2577 C   0  0  0  0  0  0  0  0  0  0  0  0
    4.2040   -1.9921    3.0658 C   0  0  1  0  0  0  0  0  0  0  0  0
    4.1431   -3.2666    3.9504 C   0  0  0  0  0  0  0  0  0  0  0  0
    5.2784   -4.2452    3.6665 C   0  0  0  0  0  0  0  0  0  0  0  0
    5.2320   -4.8255    2.2210 C   0  0  2  0  0  0  0  0  0  0  0  0
    3.7604   -4.9497    1.6505 C   0  0  0  0  0  0  0  0  0  0  0  0
    8.4862   -5.7249    2.7061 C   0  0  0  0  0  0  0  0  0  0  0  0
    7.8164   -6.1891    3.9853 C   0  0  0  0  0  0  0  0  0  0  0  0
    6.6204   -7.0466    3.5388 C   0  0  2  0  0  0  0  0  0  0  0  0
    7.3420   -8.4348    3.3585 C   0  0  0  0  0  0  0  0  0  0  0  0
    5.7848   -7.2385    4.7486 O   0  0  0  0  0  0  0  0  0  0  0  0
   -0.7589   -7.9952    5.7053 H   0  0  0  0  0  0  0  0  0  0  0  0
   -0.7959   -9.5342    4.8450 H   0  0  0  0  0  0  0  0  0  0  0  0
   -2.2707   -8.6238    5.0306 H   0  0  0  0  0  0  0  0  0  0  0  0
    1.0768   -8.6779    5.1812 H   0  0  0  0  0  0  0  0  0  0  0  0
    1.9477   -6.1213    4.3689 H   0  0  0  0  0  0  0  0  0  0  0  0
    2.5557   -7.0400    5.7326 H   0  0  0  0  0  0  0  0  0  0  0  0
    4.0542   -6.4919    3.5100 H   0  0  0  0  0  0  0  0  0  0  0  0
    5.2061   -8.9563    4.0427 H   0  0  0  0  0  0  0  0  0  0  0  0
    3.8225  -10.6890    4.4394 H   0  0  0  0  0  0  0  0  0  0  0  0
    2.5593  -10.3128    5.5602 H   0  0  0  0  0  0  0  0  0  0  0  0
    2.3371  -11.0699    2.4467 H   0  0  0  0  0  0  0  0  0  0  0  0
    1.1018   -9.9051    1.9550 H   0  0  0  0  0  0  0  0  0  0  0  0
    0.9049  -10.8392    3.4375 H   0  0  0  0  0  0  0  0  0  0  0  0
    3.4193   -8.2863    0.4986 H   0  0  0  0  0  0  0  0  0  0  0  0
    5.9666   -8.1197    0.8830 H   0  0  0  0  0  0  0  0  0  0  0  0
    5.1840   -6.7880    0.1705 H   0  0  0  0  0  0  0  0  0  0  0  0
    9.2391   -6.8099    0.4925 H   0  0  0  0  0  0  0  0  0  0  0  0
    7.8535   -7.0222   -0.3340 H   0  0  0  0  0  0  0  0  0  0  0  0
    8.1991   -8.1226    1.0512 H   0  0  0  0  0  0  0  0  0  0  0  0
    8.5122   -4.8009   -0.0326 H   0  0  0  0  0  0  0  0  0  0  0  0
    6.8320   -5.1761   -0.2929 H   0  0  0  0  0  0  0  0  0  0  0  0
    7.8021   -3.1347    1.6627 H   0  0  0  0  0  0  0  0  0  0  0  0
    7.2299   -2.8650    0.0337 H   0  0  0  0  0  0  0  0  0  0  0  0
    5.2125   -3.7521    0.3699 H   0  0  0  0  0  0  0  0  0  0  0  0
    5.9295   -0.0822    2.3210 H   0  0  0  0  0  0  0  0  0  0  0  0
    6.9626   -0.9288    1.1731 H   0  0  0  0  0  0  0  0  0  0  0  0
    6.8484   -1.4112    2.8621 H   0  0  0  0  0  0  0  0  0  0  0  0
    4.8929   -0.3702    0.3551 H   0  0  0  0  0  0  0  0  0  0  0  0
    4.8412   -1.8709   -0.4415 H   0  0  0  0  0  0  0  0  0  0  0  0
    2.7655   -0.7382   -0.4112 H   0  0  0  0  0  0  0  0  0  0  0  0
    2.5101   -2.2266    0.4856 H   0  0  0  0  0  0  0  0  0  0  0  0
    3.2933    0.4805    1.7121 H   0  0  0  0  0  0  0  0  0  0  0  0
    1.0323   -0.1470    0.6961 H   0  0  0  0  0  0  0  0  0  0  0  0
    2.9430   -0.6153    5.1451 H   0  0  0  0  0  0  0  0  0  0  0  0
    1.8748    0.4132    4.1961 H   0  0  0  0  0  0  0  0  0  0  0  0
    3.6113    0.5822    4.0419 H   0  0  0  0  0  0  0  0  0  0  0  0
    1.5836   -2.5573    4.2499 H   0  0  0  0  0  0  0  0  0  0  0  0
    1.5206   -2.9170    2.5264 H   0  0  0  0  0  0  0  0  0  0  0  0
    0.6375   -1.5712    3.2099 H   0  0  0  0  0  0  0  0  0  0  0  0
    4.7993   -1.3569    3.7244 H   0  0  0  0  0  0  0  0  0  0  0  0
    4.2275   -2.9612    4.9913 H   0  0  0  0  0  0  0  0  0  0  0  0
    3.2263   -3.8159    3.8897 H   0  0  0  0  0  0  0  0  0  0  0  0
    6.2123   -3.7338    3.8405 H   0  0  0  0  0  0  0  0  0  0  0  0
    5.1965   -5.0076    4.4415 H   0  0  0  0  0  0  0  0  0  0  0  0
    3.0108   -5.5104    2.2048 H   0  0  0  0  0  0  0  0  0  0  0  0
    3.7138   -5.3167    0.6218 H   0  0  0  0  0  0  0  0  0  0  0  0
    3.2774   -3.9759    1.5675 H   0  0  0  0  0  0  0  0  0  0  0  0
    9.4884   -6.1476    2.5566 H   0  0  0  0  0  0  0  0  0  0  0  0
    8.5832   -4.6709    2.7890 H   0  0  0  0  0  0  0  0  0  0  0  0
    8.5386   -6.7213    4.6155 H   0  0  0  0  0  0  0  0  0  0  0  0
    7.4923   -5.3444    4.5822 H   0  0  0  0  0  0  0  0  0  0  0  0
    6.8585   -9.0870    2.6373 H   0  0  0  0  0  0  0  0  0  0  0  0
    7.3711   -8.9742    4.3063 H   0  0  0  0  0  0  0  0  0  0  0  0
    8.3975   -8.3745    3.0968 H   0  0  0  0  0  0  0  0  0  0  0  0
  1  2  1  0
  1 42  1  0
  1 43  1  0
  1 44  1  0
  2  3  2  0
  2  4  1  0
  4  5  1  0
  5 11  1  0
  5  6  1  0
  5 45  1  1
  6  7  1  0
  6 46  1  0
  6 47  1  0
  7 13  1  0
  7  8  1  0
  7 48  1  6
  8 41  1  0
  8  9  1  0
  8 49  1  6
  9 10  1  0
 10 11  1  0
 10 50  1  0
 10 51  1  0
 11 12  1  6
 11 13  1  0
 12 52  1  0
 12 53  1  0
 12 54  1  0
 13 15  1  0
 13 14  1  6
 14 15  1  0
 15 16  1  0
 15 55  1  6
 17 16  1  6
 16 56  1  0
 16 57  1  0
 17 35  1  0
 17 39  1  0
 17 18  1  0
 18 19  1  6
 18 20  1  0
 18 37  1  0
 19 58  1  0
 19 59  1  0
 19 60  1  0
 20 21  1  0
 20 61  1  0
 20 62  1  0
 21 22  1  0
 21 63  1  0
 21 64  1  0
 22 35  1  0
 22 23  1  0
 22 65  1  6
 23 32  1  0
 23 24  1  1
 23 25  1  0
 24 66  1  0
 24 67  1  0
 24 68  1  0
 25 26  1  0
 25 69  1  0
 25 70  1  0
 26 27  1  0
 26 71  1  0
 26 72  1  0
 27 28  1  0
 27 29  1  0
 27 73  1  1
 28 74  1  0
 29 30  1  0
 29 31  1  0
 29 32  1  0
 30 75  1  0
 30 76  1  0
 30 77  1  0
 31 78  1  0
 31 79  1  0
 31 80  1  0
 32 33  1  0
 32 81  1  1
 33 34  1  0
 33 82  1  0
 33 83  1  0
 34 35  1  0
 34 84  1  0
 34 85  1  0
 35 36  1  6
 36 86  1  0
 36 87  1  0
 36 88  1  0
 37 38  1  0
 37 89  1  0
 37 90  1  0
 38 39  1  0
 38 91  1  0
 38 92  1  0
 39 40  1  6
 39 41  1  0
 40 93  1  0
 40 94  1  0
 40 95  1  0
M  END
>  <i_m_ct_stereo_status>  (212) 
1

>  <s_m_source_file>  (212) 
/var/tmp/pbs.5076255.sched01/tmpt7uccrld/92zpefy4ut.sdf

>  <i_m_source_file_index>  (212) 
1

>  <i_lp_mmshare_version>  (212) 
48012

>  <i_f3d_flags>  (212) 
0

>  <s_epik_input>  (212) 
W0NIM11DKD1PKU9bQ0BIXShbQ0gyXTEpW0NAXTIoW0NIM10pW0NIMl1PW0NAQEhdKFtDSF0xW0NAXTIzNClPW0NAQF01KFtDSDNdKVtDQF02KFtDSDJdW0NASF00TzMpW0NAXShbQ0gzXSkoW0NIMl1bQ0gyXTUpW0NIMl1bQ0gyXVtDQEBIXTdbQ0BdOChbQ0gzXSlbQ0BASF0oQyhbQ0gzXSkoW0NIM10pW0NASF0oW09IXSlbQ0gyXVtDSDJdOClbQ0gyXVtDSDJdW0NAXTY3W0NIM10=

>  <s_epik_cmdline>  (212) 
J2VwaWtfcHl0aG9uJywgJy1waHQnLCAnMi4wJywgJy1waCcsICc3LjAnLCAnLXRuJywgJzgnLCAnLW1hJywgJzIwMCcsICctaW1hZScsICc8aW5maWxlLm1hZT4nLCAnLW9tYWUnLCAnPG91dGZpbGUubWFlPic=

>  <r_lp_tautomer_probability>  (212) 
1

>  <r_epik_Ionization_Penalty>  (212) 
3.12598e-06

>  <r_epik_Ionization_Penalty_Charging>  (212) 
0

>  <r_epik_Ionization_Penalty_Neutral>  (212) 
3.12598e-06

>  <r_epik_State_Penalty>  (212) 
-0

>  <r_epik_Charging_Adjusted_Penalty>  (212) 
0

>  <i_epik_Tot_Q>  (212) 
0

>  <i_epik_Tot_abs_Q>  (212) 
0

>  <s_epik_Chemistry_Notes>  (212) 
This compound has an ester and may undergo hydrolysis at high or low pH. This compound contains an acetal/aminal-like group ( X-CH(R)-Y where X, Y are N, S, or O) that may be acid/base labile, releasing an aldehyde.

>  <s_lp_Force_Field>  (212) 
OPLS3e

>  <r_lp_Energy>  (212) 
239.276

>  <b_lp_Chiralities_Consistent>  (212) 
1

>  <s_lp_Variant>  (212) 
65:0-1

>  <s_i_glide_gridfile>  (212) 
pfpi4k_grid

>  <i_i_glide_lignum>  (212) 
1

>  <i_i_glide_rotatable_bonds>  (212) 
3

>  <r_i_docking_score>  (212) 
-2.29971

>  <r_i_glide_ligand_efficiency>  (212) 
-0.0560905

>  <r_i_glide_ligand_efficiency_sa>  (212) 
-0.193412

>  <r_i_glide_ligand_efficiency_ln>  (212) 
-0.487891

>  <r_i_glide_gscore>  (212) 
-2.29971

>  <r_i_glide_lipo>  (212) 
-0.809166

>  <r_i_glide_hbond>  (212) 
-0.220867

>  <r_i_glide_metal>  (212) 
-0

>  <r_i_glide_rewards>  (212) 
0

>  <r_i_glide_evdw>  (212) 
-9.70993

>  <r_i_glide_ecoul>  (212) 
-5.23803

>  <r_i_glide_erotb>  (212) 
0.0639867

>  <r_i_glide_esite>  (212) 
-0.062462

>  <r_i_glide_emodel>  (212) 
-15.246

>  <r_i_glide_energy>  (212) 
-14.948

>  <r_i_glide_einternal>  (212) 
7.16622

>  <r_i_glide_intrahb_reward>  (212) 
-0

>  <i_i_glide_confnum>  (212) 
3

>  <i_i_glide_posenum>  (212) 
23

>  <r_i_glide_eff_state_penalty>  (212) 
0

>  <ligand_id>  (212) 
65

>  <original_smiles>  (212) 
CC(=O)OC1CC2C3OCC1(C)C21OC1CC12C(C)(CCC4C5(C)CCC(O)C(C)(C)C5CCC41C)CCC2(C)O3

>  <smiles>  (212) 
[H]OC1([H])C([H])([H])C([H])([H])C2(C([H])([H])[H])C([H])(C([H])([H])C([H])([H])C3(C([H])([H])[H])C2([H])C([H])([H])C([H])([H])C2(C([H])([H])[H])C([H])([H])C([H])([H])C4(C([H])([H])[H])OC5([H])OC([H])([H])C6(C([H])([H])[H])C([H])(OC(=O)C([H])([H])[H])C([H])([H])C5([H])C65OC5([H])C([H])([H])C423)C1(C([H])([H])[H])C([H])([H])[H]

$$$$
66:0:0
     RDKit          3D

 27 30  0  0  1  0  0  0  0  0999 V2000
    3.5180   -0.5712   -4.5132 C   0  0  0  0  0  0  0  0  0  0  0  0
    3.4162   -1.5872   -3.4787 N   0  0  0  0  0  0  0  0  0  0  0  0
    2.4328   -2.5448   -3.5840 N   0  0  0  0  0  0  0  0  0  0  0  0
    2.5352   -3.2954   -2.4942 C   0  0  0  0  0  0  0  0  0  0  0  0
    3.6264   -2.8667   -1.7158 C   0  0  0  0  0  0  0  0  0  0  0  0
    4.2064   -3.3088   -0.5005 C   0  0  0  0  0  0  0  0  0  0  0  0
    3.7536   -4.4181    0.2520 N   0  0  0  0  0  0  0  0  0  0  0  0
    4.3121   -5.7164   -0.2249 C   0  0  0  0  0  0  0  0  0  0  0  0
    5.0855   -6.0956    0.9735 C   0  0  0  0  0  0  0  0  0  0  0  0
    5.9782   -7.0047    1.2712 N   0  0  0  0  0  0  0  0  0  0  0  0
    6.2831   -6.7286    2.6232 O   0  0  0  0  0  0  0  0  0  0  0  0
    5.5204   -5.6341    3.0893 N   0  0  0  0  0  0  0  0  0  0  0  0
    4.8092   -5.3016    2.0479 C   0  0  0  0  0  0  0  0  0  0  0  0
    3.8081   -4.2586    1.7382 C   0  0  0  0  0  0  0  0  0  0  0  0
    5.3232   -2.5450   -0.0715 C   0  0  0  0  0  0  0  0  0  0  0  0
    5.8169   -1.4738   -0.7411 N   0  0  0  0  0  0  0  0  0  0  0  0
    5.2833   -1.0514   -1.8926 N   0  0  0  0  0  0  0  0  0  0  0  0
    4.2035   -1.7533   -2.3411 C   0  0  0  0  0  0  0  0  0  0  0  0
    4.3514    0.0985   -4.3039 H   0  0  0  0  0  0  0  0  0  0  0  0
    2.6033    0.0241   -4.5509 H   0  0  0  0  0  0  0  0  0  0  0  0
    3.6767   -1.0380   -5.4853 H   0  0  0  0  0  0  0  0  0  0  0  0
    1.8809   -4.1248   -2.2745 H   0  0  0  0  0  0  0  0  0  0  0  0
    3.4946   -6.4270   -0.3566 H   0  0  0  0  0  0  0  0  0  0  0  0
    4.9119   -5.6635   -1.1359 H   0  0  0  0  0  0  0  0  0  0  0  0
    4.0840   -3.2726    2.1120 H   0  0  0  0  0  0  0  0  0  0  0  0
    2.8437   -4.5191    2.1780 H   0  0  0  0  0  0  0  0  0  0  0  0
    5.8533   -2.7913    0.8332 H   0  0  0  0  0  0  0  0  0  0  0  0
  1  2  1  0
  1 19  1  0
  1 20  1  0
  1 21  1  0
  2 18  1  0
  2  3  1  0
  3  4  2  0
  4  5  1  0
  4 22  1  0
  5 18  2  0
  5  6  1  0
  6  7  1  0
  6 15  2  0
  7 14  1  0
  7  8  1  0
  8  9  1  0
  8 23  1  0
  8 24  1  0
  9 13  1  0
  9 10  2  0
 10 11  1  0
 11 12  1  0
 12 13  2  0
 13 14  1  0
 14 25  1  0
 14 26  1  0
 15 16  1  0
 15 27  1  0
 16 17  2  0
 17 18  1  0
M  END
>  <i_m_ct_stereo_status>  (213) 
1

>  <s_m_source_file>  (213) 
/var/tmp/pbs.5076255.sched01/tmpt7uccrld/92zpefy4ut.sdf

>  <i_m_source_file_index>  (213) 
2

>  <i_lp_mmshare_version>  (213) 
48012

>  <i_f3d_flags>  (213) 
0

>  <s_epik_input>  (213) 
W2NIXTFubihbQ0gzXSljKGMxMilubltjSF1jMk4oW0NIMl0zKVtDSDJdYyhjMzQpbm9uNA==

>  <s_epik_cmdline>  (213) 
J2VwaWtfcHl0aG9uJywgJy1waHQnLCAnMi4wJywgJy1waCcsICc3LjAnLCAnLXRuJywgJzgnLCAnLW1hJywgJzIwMCcsICctaW1hZScsICc8aW5maWxlLm1hZT4nLCAnLW9tYWUnLCAnPG91dGZpbGUubWFlPic=

>  <r_lp_tautomer_probability>  (213) 
1

>  <r_epik_Ionization_Penalty>  (213) 
2.31973e-07

>  <r_epik_Ionization_Penalty_Charging>  (213) 
0

>  <r_epik_Ionization_Penalty_Neutral>  (213) 
2.31973e-07

>  <r_epik_State_Penalty>  (213) 
-0

>  <r_epik_Charging_Adjusted_Penalty>  (213) 
0

>  <i_epik_Tot_Q>  (213) 
0

>  <i_epik_Tot_abs_Q>  (213) 
0

>  <s_lp_Force_Field>  (213) 
OPLS3e

>  <r_lp_Energy>  (213) 
25.7485

>  <b_lp_Chiralities_Consistent>  (213) 
1

>  <s_lp_Variant>  (213) 
66:0-1

>  <s_i_glide_gridfile>  (213) 
pfpi4k_grid

>  <i_i_glide_lignum>  (213) 
2

>  <i_i_glide_rotatable_bonds>  (213) 
1

>  <r_i_docking_score>  (213) 
-3.88002

>  <r_i_glide_ligand_efficiency>  (213) 
-0.215557

>  <r_i_glide_ligand_efficiency_sa>  (213) 
-0.564918

>  <r_i_glide_ligand_efficiency_ln>  (213) 
-0.997339

>  <r_i_glide_gscore>  (213) 
-3.88002

>  <r_i_glide_lipo>  (213) 
-0.51626

>  <r_i_glide_hbond>  (213) 
0

>  <r_i_glide_metal>  (213) 
-0

>  <r_i_glide_rewards>  (213) 
-1.99856

>  <r_i_glide_evdw>  (213) 
-23.3065

>  <r_i_glide_ecoul>  (213) 
-2.40009

>  <r_i_glide_erotb>  (213) 
0.293481

>  <r_i_glide_esite>  (213) 
-0.133343

>  <r_i_glide_emodel>  (213) 
-31.7656

>  <r_i_glide_energy>  (213) 
-25.7066

>  <r_i_glide_einternal>  (213) 
0.0878527

>  <r_i_glide_intrahb_reward>  (213) 
-0

>  <i_i_glide_confnum>  (213) 
4

>  <i_i_glide_posenum>  (213) 
35

>  <r_i_glide_eff_state_penalty>  (213) 
0

>  <ligand_id>  (213) 
66

>  <original_smiles>  (213) 
Cn1ncc2c(N3Cc4nonc4C3)cnnc21

>  <smiles>  (213) 
[H]c1nnc2c(c([H])nn2C([H])([H])[H])c1N1C([H])([H])c2nonc2C1([H])[H]

$$$$
66:0:1
     RDKit          3D

 27 30  0  0  1  0  0  0  0  0999 V2000
    3.3886   -0.8589   -3.2804 C   0  0  0  0  0  0  0  0  0  0  0  0
    3.5979   -1.8936   -2.3036 N   0  0  0  0  0  0  0  0  0  0  0  0
    2.6114   -2.8264   -2.1579 N   0  0  0  0  0  0  0  0  0  0  0  0
    2.9876   -3.5732   -1.1452 C   0  0  0  0  0  0  0  0  0  0  0  0
    4.2672   -3.2078   -0.7030 C   0  0  0  0  0  0  0  0  0  0  0  0
    5.1607   -3.7183    0.2631 C   0  0  0  0  0  0  0  0  0  0  0  0
    4.9239   -4.8481    1.0753 N   0  0  0  0  0  0  0  0  0  0  0  0
    4.3609   -4.4834    2.4057 C   0  0  0  0  0  0  0  0  0  0  0  0
    3.0432   -5.1219    2.2481 C   0  0  0  0  0  0  0  0  0  0  0  0
    1.8910   -5.0277    2.8465 N   0  0  0  0  0  0  0  0  0  0  0  0
    1.0636   -5.8612    2.0699 O   0  0  0  0  0  0  0  0  0  0  0  0
    1.7706   -6.3938    0.9728 N   0  0  0  0  0  0  0  0  0  0  0  0
    2.9826   -5.9523    1.1590 C   0  0  0  0  0  0  0  0  0  0  0  0
    4.2560   -6.0010    0.4056 C   0  0  0  0  0  0  0  0  0  0  0  0
    6.3851   -3.0221    0.3757 C   0  0  0  0  0  0  0  0  0  0  0  0
    6.7089   -1.9442   -0.3868 N   0  0  0  0  0  0  0  0  0  0  0  0
    5.8756   -1.4510   -1.3177 N   0  0  0  0  0  0  0  0  0  0  0  0
    4.6859   -2.0999   -1.4508 C   0  0  0  0  0  0  0  0  0  0  0  0
    4.2610   -0.2112   -3.3262 H   0  0  0  0  0  0  0  0  0  0  0  0
    2.5218   -0.2687   -2.9798 H   0  0  0  0  0  0  0  0  0  0  0  0
    3.2000   -1.3243   -4.2493 H   0  0  0  0  0  0  0  0  0  0  0  0
    2.4139   -4.4051   -0.7792 H   0  0  0  0  0  0  0  0  0  0  0  0
    4.9138   -4.9758    3.2158 H   0  0  0  0  0  0  0  0  0  0  0  0
    4.3245   -3.4123    2.6251 H   0  0  0  0  0  0  0  0  0  0  0  0
    4.1643   -5.9038   -0.6791 H   0  0  0  0  0  0  0  0  0  0  0  0
    4.7870   -6.9437    0.5872 H   0  0  0  0  0  0  0  0  0  0  0  0
    7.1622   -3.3148    1.0638 H   0  0  0  0  0  0  0  0  0  0  0  0
  1  2  1  0
  1 19  1  0
  1 20  1  0
  1 21  1  0
  2 18  1  0
  2  3  1  0
  3  4  2  0
  4  5  1  0
  4 22  1  0
  5 18  2  0
  5  6  1  0
  6  7  1  0
  6 15  2  0
  7 14  1  0
  7  8  1  0
  8  9  1  0
  8 23  1  0
  8 24  1  0
  9 13  1  0
  9 10  2  0
 10 11  1  0
 11 12  1  0
 12 13  2  0
 13 14  1  0
 14 25  1  0
 14 26  1  0
 15 16  1  0
 15 27  1  0
 16 17  2  0
 17 18  1  0
M  END
>  <i_m_ct_stereo_status>  (214) 
1

>  <s_m_source_file>  (214) 
/var/tmp/pbs.5076255.sched01/tmpt7uccrld/92zpefy4ut.sdf

>  <i_m_source_file_index>  (214) 
2

>  <i_lp_mmshare_version>  (214) 
48012

>  <i_f3d_flags>  (214) 
0

>  <s_epik_input>  (214) 
W2NIXTFubihbQ0gzXSljKGMxMilubltjSF1jMk4oW0NIMl0zKVtDSDJdYyhjMzQpbm9uNA==

>  <s_epik_cmdline>  (214) 
J2VwaWtfcHl0aG9uJywgJy1waHQnLCAnMi4wJywgJy1waCcsICc3LjAnLCAnLXRuJywgJzgnLCAnLW1hJywgJzIwMCcsICctaW1hZScsICc8aW5maWxlLm1hZT4nLCAnLW9tYWUnLCAnPG91dGZpbGUubWFlPic=

>  <r_lp_tautomer_probability>  (214) 
1

>  <r_epik_Ionization_Penalty>  (214) 
2.31973e-07

>  <r_epik_Ionization_Penalty_Charging>  (214) 
0

>  <r_epik_Ionization_Penalty_Neutral>  (214) 
2.31973e-07

>  <r_epik_State_Penalty>  (214) 
-0

>  <r_epik_Charging_Adjusted_Penalty>  (214) 
0

>  <i_epik_Tot_Q>  (214) 
0

>  <i_epik_Tot_abs_Q>  (214) 
0

>  <s_lp_Force_Field>  (214) 
OPLS3e

>  <r_lp_Energy>  (214) 
25.7485

>  <b_lp_Chiralities_Consistent>  (214) 
1

>  <s_lp_Variant>  (214) 
66:0-1

>  <s_i_glide_gridfile>  (214) 
pfpi4k_grid

>  <i_i_glide_lignum>  (214) 
2

>  <i_i_glide_rotatable_bonds>  (214) 
1

>  <r_i_docking_score>  (214) 
-3.67953

>  <r_i_glide_ligand_efficiency>  (214) 
-0.204418

>  <r_i_glide_ligand_efficiency_sa>  (214) 
-0.535728

>  <r_i_glide_ligand_efficiency_ln>  (214) 
-0.945804

>  <r_i_glide_gscore>  (214) 
-3.67953

>  <r_i_glide_lipo>  (214) 
-0.434221

>  <r_i_glide_hbond>  (214) 
0

>  <r_i_glide_metal>  (214) 
-0

>  <r_i_glide_rewards>  (214) 
-1.81361

>  <r_i_glide_evdw>  (214) 
-21.077

>  <r_i_glide_ecoul>  (214) 
-2.21597

>  <r_i_glide_erotb>  (214) 
0.293481

>  <r_i_glide_esite>  (214) 
-0.338935

>  <r_i_glide_emodel>  (214) 
-27.9103

>  <r_i_glide_energy>  (214) 
-23.293

>  <r_i_glide_einternal>  (214) 
1.96303

>  <r_i_glide_intrahb_reward>  (214) 
-0

>  <i_i_glide_confnum>  (214) 
4

>  <i_i_glide_posenum>  (214) 
1

>  <r_i_glide_eff_state_penalty>  (214) 
0

>  <ligand_id>  (214) 
66

>  <original_smiles>  (214) 
Cn1ncc2c(N3Cc4nonc4C3)cnnc21

>  <smiles>  (214) 
[H]c1nnc2c(c([H])nn2C([H])([H])[H])c1N1C([H])([H])c2nonc2C1([H])[H]

$$$$
66:0:2
     RDKit          3D

 27 30  0  0  1  0  0  0  0  0999 V2000
   -1.7961   -9.0345    2.1278 C   0  0  0  0  0  0  0  0  0  0  0  0
   -1.0811   -8.0506    2.8812 N   0  0  0  0  0  0  0  0  0  0  0  0
   -1.4845   -7.8667    4.1732 N   0  0  0  0  0  0  0  0  0  0  0  0
   -0.6839   -6.9574    4.6659 C   0  0  0  0  0  0  0  0  0  0  0  0
    0.2137   -6.5074    3.6805 C   0  0  0  0  0  0  0  0  0  0  0  0
    1.2139   -5.5282    3.6756 C   0  0  0  0  0  0  0  0  0  0  0  0
    1.5617   -4.7222    4.7776 N   0  0  0  0  0  0  0  0  0  0  0  0
    0.7502   -3.4764    4.8959 C   0  0  0  0  0  0  0  0  0  0  0  0
    0.1155   -3.7902    6.1885 C   0  0  0  0  0  0  0  0  0  0  0  0
   -0.9573   -3.3935    6.8100 N   0  0  0  0  0  0  0  0  0  0  0  0
   -1.0266   -4.2682    7.9101 O   0  0  0  0  0  0  0  0  0  0  0  0
    0.0261   -5.2031    7.8828 N   0  0  0  0  0  0  0  0  0  0  0  0
    0.7038   -4.8524    6.8293 C   0  0  0  0  0  0  0  0  0  0  0  0
    1.8044   -5.4566    6.0522 C   0  0  0  0  0  0  0  0  0  0  0  0
    1.8825   -5.3667    2.4452 C   0  0  0  0  0  0  0  0  0  0  0  0
    1.5767   -6.0733    1.3164 N   0  0  0  0  0  0  0  0  0  0  0  0
    0.6141   -7.0077    1.3004 N   0  0  0  0  0  0  0  0  0  0  0  0
   -0.0337   -7.2136    2.4860 C   0  0  0  0  0  0  0  0  0  0  0  0
   -1.4078   -9.0455    1.1182 H   0  0  0  0  0  0  0  0  0  0  0  0
   -2.8471   -8.7679    2.0856 H   0  0  0  0  0  0  0  0  0  0  0  0
   -1.6695  -10.0121    2.5940 H   0  0  0  0  0  0  0  0  0  0  0  0
   -0.7337   -6.5900    5.6729 H   0  0  0  0  0  0  0  0  0  0  0  0
    1.3836   -2.5853    5.0104 H   0  0  0  0  0  0  0  0  0  0  0  0
    0.0518   -3.2835    4.0653 H   0  0  0  0  0  0  0  0  0  0  0  0
    1.7525   -6.5510    5.9540 H   0  0  0  0  0  0  0  0  0  0  0  0
    2.7774   -5.2143    6.5017 H   0  0  0  0  0  0  0  0  0  0  0  0
    2.6818   -4.6592    2.3083 H   0  0  0  0  0  0  0  0  0  0  0  0
  1  2  1  0
  1 19  1  0
  1 20  1  0
  1 21  1  0
  2 18  1  0
  2  3  1  0
  3  4  2  0
  4  5  1  0
  4 22  1  0
  5 18  2  0
  5  6  1  0
  6  7  1  0
  6 15  2  0
  7 14  1  0
  7  8  1  0
  8  9  1  0
  8 23  1  0
  8 24  1  0
  9 13  1  0
  9 10  2  0
 10 11  1  0
 11 12  1  0
 12 13  2  0
 13 14  1  0
 14 25  1  0
 14 26  1  0
 15 16  1  0
 15 27  1  0
 16 17  2  0
 17 18  1  0
M  END
>  <i_m_ct_stereo_status>  (215) 
1

>  <s_m_source_file>  (215) 
/var/tmp/pbs.5076255.sched01/tmpt7uccrld/92zpefy4ut.sdf

>  <i_m_source_file_index>  (215) 
2

>  <i_lp_mmshare_version>  (215) 
48012

>  <i_f3d_flags>  (215) 
0

>  <s_epik_input>  (215) 
W2NIXTFubihbQ0gzXSljKGMxMilubltjSF1jMk4oW0NIMl0zKVtDSDJdYyhjMzQpbm9uNA==

>  <s_epik_cmdline>  (215) 
J2VwaWtfcHl0aG9uJywgJy1waHQnLCAnMi4wJywgJy1waCcsICc3LjAnLCAnLXRuJywgJzgnLCAnLW1hJywgJzIwMCcsICctaW1hZScsICc8aW5maWxlLm1hZT4nLCAnLW9tYWUnLCAnPG91dGZpbGUubWFlPic=

>  <r_lp_tautomer_probability>  (215) 
1

>  <r_epik_Ionization_Penalty>  (215) 
2.31973e-07

>  <r_epik_Ionization_Penalty_Charging>  (215) 
0

>  <r_epik_Ionization_Penalty_Neutral>  (215) 
2.31973e-07

>  <r_epik_State_Penalty>  (215) 
-0

>  <r_epik_Charging_Adjusted_Penalty>  (215) 
0

>  <i_epik_Tot_Q>  (215) 
0

>  <i_epik_Tot_abs_Q>  (215) 
0

>  <s_lp_Force_Field>  (215) 
OPLS3e

>  <r_lp_Energy>  (215) 
25.7485

>  <b_lp_Chiralities_Consistent>  (215) 
1

>  <s_lp_Variant>  (215) 
66:0-1

>  <s_i_glide_gridfile>  (215) 
pfpi4k_grid

>  <i_i_glide_lignum>  (215) 
2

>  <i_i_glide_rotatable_bonds>  (215) 
1

>  <r_i_docking_score>  (215) 
-3.59068

>  <r_i_glide_ligand_efficiency>  (215) 
-0.199482

>  <r_i_glide_ligand_efficiency_sa>  (215) 
-0.522791

>  <r_i_glide_ligand_efficiency_ln>  (215) 
-0.922965

>  <r_i_glide_gscore>  (215) 
-3.59068

>  <r_i_glide_lipo>  (215) 
-0.215166

>  <r_i_glide_hbond>  (215) 
0

>  <r_i_glide_metal>  (215) 
-0

>  <r_i_glide_rewards>  (215) 
-1.75074

>  <r_i_glide_evdw>  (215) 
-20.5572

>  <r_i_glide_ecoul>  (215) 
-3.55547

>  <r_i_glide_erotb>  (215) 
0.293481

>  <r_i_glide_esite>  (215) 
-0.357071

>  <r_i_glide_emodel>  (215) 
-28.6763

>  <r_i_glide_energy>  (215) 
-24.1127

>  <r_i_glide_einternal>  (215) 
1.53439

>  <r_i_glide_intrahb_reward>  (215) 
-0

>  <i_i_glide_confnum>  (215) 
4

>  <i_i_glide_posenum>  (215) 
22

>  <r_i_glide_eff_state_penalty>  (215) 
0

>  <ligand_id>  (215) 
66

>  <original_smiles>  (215) 
Cn1ncc2c(N3Cc4nonc4C3)cnnc21

>  <smiles>  (215) 
[H]c1nnc2c(c([H])nn2C([H])([H])[H])c1N1C([H])([H])c2nonc2C1([H])[H]

$$$$
67:0:0
     RDKit          3D

109115  0  0  1  0  0  0  0  0999 V2000
    4.9672   -6.6608    1.0488 C   0  0  0  0  0  0  0  0  0  0  0  0
    3.7772   -6.2167    1.4495 C   0  0  0  0  0  0  0  0  0  0  0  0
    3.5192   -4.7151    1.5230 C   0  0  0  0  0  0  0  0  0  0  0  0
    2.6424   -7.1849    1.8206 C   0  0  2  0  0  0  0  0  0  0  0  0
    1.2677   -6.7666    1.3136 C   0  0  0  0  0  0  0  0  0  0  0  0
    0.2953   -7.6947    2.0103 C   0  0  0  0  0  0  0  0  0  0  0  0
    1.0350   -8.3351    3.2200 C   0  0  2  0  0  0  0  0  0  0  0  0
    1.3309   -9.8473    2.9847 C   0  0  0  0  0  0  0  0  0  0  0  0
    0.2124  -10.5670    2.5234 O   0  0  0  0  0  0  0  0  0  0  0  0
    0.1644   -8.2185    4.4931 C   0  0  0  0  0  0  0  0  0  0  0  0
    0.2111   -6.8250    5.1344 C   0  0  0  0  0  0  0  0  0  0  0  0
    1.6348   -6.4079    5.6064 C   0  0  1  0  0  0  0  0  0  0  0  0
    2.1655   -7.5453    6.5419 C   0  0  0  0  0  0  0  0  0  0  0  0
    2.4991   -6.3680    4.3202 C   0  0  1  0  0  0  0  0  0  0  0  0
    3.9509   -6.1069    4.7464 C   0  0  0  0  0  0  0  0  0  0  0  0
    4.1213   -4.7068    5.3146 C   0  0  0  0  0  0  0  0  0  0  0  0
    3.0547   -4.1583    6.3487 C   0  0  1  0  0  0  0  0  0  0  0  0
    3.8343   -4.3637    7.6887 C   0  0  0  0  0  0  0  0  0  0  0  0
    2.8895   -2.5703    6.0647 C   0  0  1  0  0  0  0  0  0  0  0  0
    2.8540   -2.2016    4.5354 C   0  0  0  0  0  0  0  0  0  0  0  0
    2.1191   -0.9669    4.0970 C   0  0  0  0  0  0  0  0  0  0  0  0
    1.5691   -0.0510    4.9046 C   0  0  0  0  0  0  0  0  0  0  0  0
    0.9281    1.2056    4.2897 C   0  0  2  0  0  0  0  0  0  0  0  0
    1.9662    2.3445    4.1841 C   0  0  0  0  0  0  0  0  0  0  0  0
    1.4027    3.5798    3.4964 C   0  0  0  0  0  0  0  0  0  0  0  0
    0.1746    4.0829    4.2584 C   0  0  1  0  0  0  0  0  0  0  0  0
   -0.2777    5.2866    3.6695 O   0  0  0  0  0  0  0  0  0  0  0  0
   -0.9602    3.0154    4.3353 C   0  0  0  0  0  0  0  0  0  0  0  0
   -2.0895    3.6184    5.2073 C   0  0  0  0  0  0  0  0  0  0  0  0
   -1.5579    2.8025    2.9127 C   0  0  0  0  0  0  0  0  0  0  0  0
   -0.4221    1.6373    4.9516 C   0  0  1  0  0  0  0  0  0  0  0  0
   -1.4897    0.5362    4.7090 C   0  0  0  0  0  0  0  0  0  0  0  0
   -0.1321    1.7345    6.4747 C   0  0  0  0  0  0  0  0  0  0  0  0
    0.3820    0.4224    7.1077 C   0  0  0  0  0  0  0  0  0  0  0  0
    1.6288   -0.2544    6.4358 C   0  0  2  0  0  0  0  0  0  0  0  0
    2.8900    0.5054    6.9267 C   0  0  0  0  0  0  0  0  0  0  0  0
    1.7317   -1.8225    6.8130 C   0  0  2  0  0  0  0  0  0  0  0  0
    1.9705   -1.8791    8.3587 C   0  0  0  0  0  0  0  0  0  0  0  0
    0.4283   -2.5991    6.4380 C   0  0  0  0  0  0  0  0  0  0  0  0
    0.5543   -4.0065    5.7876 C   0  0  0  0  0  0  0  0  0  0  0  0
    1.6359   -4.9710    6.3723 C   0  0  1  0  0  0  0  0  0  0  0  0
    1.0896   -5.2921    7.8063 C   0  0  0  0  0  0  0  0  0  0  0  0
    2.4076   -7.5800    3.3157 C   0  0  2  0  0  0  0  0  0  0  0  0
    5.7633   -5.9727    0.7929 H   0  0  0  0  0  0  0  0  0  0  0  0
    5.1901   -7.7191    0.9541 H   0  0  0  0  0  0  0  0  0  0  0  0
    2.6617   -4.4068    0.9444 H   0  0  0  0  0  0  0  0  0  0  0  0
    4.3671   -4.1449    1.1529 H   0  0  0  0  0  0  0  0  0  0  0  0
    3.3440   -4.4162    2.5476 H   0  0  0  0  0  0  0  0  0  0  0  0
    2.8948   -8.1159    1.3027 H   0  0  0  0  0  0  0  0  0  0  0  0
    1.0275   -5.7604    1.6393 H   0  0  0  0  0  0  0  0  0  0  0  0
    1.1712   -6.8034    0.2295 H   0  0  0  0  0  0  0  0  0  0  0  0
   -0.6134   -7.1723    2.2975 H   0  0  0  0  0  0  0  0  0  0  0  0
   -0.0474   -8.4389    1.2852 H   0  0  0  0  0  0  0  0  0  0  0  0
    2.1285  -10.0025    2.2650 H   0  0  0  0  0  0  0  0  0  0  0  0
    1.6665  -10.3190    3.9131 H   0  0  0  0  0  0  0  0  0  0  0  0
    0.0845  -10.3500    1.5944 H   0  0  0  0  0  0  0  0  0  0  0  0
   -0.8678   -8.4535    4.2401 H   0  0  0  0  0  0  0  0  0  0  0  0
    0.4408   -8.9769    5.2314 H   0  0  0  0  0  0  0  0  0  0  0  0
   -0.1561   -6.1207    4.3907 H   0  0  0  0  0  0  0  0  0  0  0  0
   -0.5174   -6.7962    5.9479 H   0  0  0  0  0  0  0  0  0  0  0  0
    3.0159   -7.2307    7.1440 H   0  0  0  0  0  0  0  0  0  0  0  0
    2.4986   -8.4140    5.9736 H   0  0  0  0  0  0  0  0  0  0  0  0
    1.3985   -7.9053    7.2324 H   0  0  0  0  0  0  0  0  0  0  0  0
    2.1025   -5.5092    3.7832 H   0  0  0  0  0  0  0  0  0  0  0  0
    4.3372   -6.8470    5.4459 H   0  0  0  0  0  0  0  0  0  0  0  0
    4.6264   -6.2182    3.9009 H   0  0  0  0  0  0  0  0  0  0  0  0
    5.1235   -4.6465    5.7248 H   0  0  0  0  0  0  0  0  0  0  0  0
    4.2411   -4.0970    4.4305 H   0  0  0  0  0  0  0  0  0  0  0  0
    3.2910   -4.1194    8.5885 H   0  0  0  0  0  0  0  0  0  0  0  0
    4.7337   -3.7514    7.7207 H   0  0  0  0  0  0  0  0  0  0  0  0
    4.1641   -5.3936    7.8101 H   0  0  0  0  0  0  0  0  0  0  0  0
    3.8159   -2.1154    6.4090 H   0  0  0  0  0  0  0  0  0  0  0  0
    3.8746   -2.0525    4.1803 H   0  0  0  0  0  0  0  0  0  0  0  0
    2.4144   -2.9970    3.9435 H   0  0  0  0  0  0  0  0  0  0  0  0
    2.1020   -0.8097    3.0256 H   0  0  0  0  0  0  0  0  0  0  0  0
    0.6900    0.9333    3.2593 H   0  0  0  0  0  0  0  0  0  0  0  0
    2.3186    2.6687    5.1566 H   0  0  0  0  0  0  0  0  0  0  0  0
    2.8464    2.0004    3.6406 H   0  0  0  0  0  0  0  0  0  0  0  0
    2.1630    4.3595    3.4425 H   0  0  0  0  0  0  0  0  0  0  0  0
    1.1514    3.3299    2.4694 H   0  0  0  0  0  0  0  0  0  0  0  0
    0.4914    4.3434    5.2690 H   0  0  0  0  0  0  0  0  0  0  0  0
   -0.1882    5.1945    2.7171 H   0  0  0  0  0  0  0  0  0  0  0  0
   -2.8882    2.9097    5.4232 H   0  0  0  0  0  0  0  0  0  0  0  0
   -2.5541    4.4641    4.7007 H   0  0  0  0  0  0  0  0  0  0  0  0
   -1.7082    3.9944    6.1563 H   0  0  0  0  0  0  0  0  0  0  0  0
   -2.4954    2.2451    2.9385 H   0  0  0  0  0  0  0  0  0  0  0  0
   -0.8782    2.2709    2.2505 H   0  0  0  0  0  0  0  0  0  0  0  0
   -1.7998    3.7443    2.4226 H   0  0  0  0  0  0  0  0  0  0  0  0
   -2.4519    0.7950    5.1402 H   0  0  0  0  0  0  0  0  0  0  0  0
   -1.2234   -0.4116    5.1449 H   0  0  0  0  0  0  0  0  0  0  0  0
   -1.6374    0.3205    3.6523 H   0  0  0  0  0  0  0  0  0  0  0  0
    0.5914    2.5212    6.6700 H   0  0  0  0  0  0  0  0  0  0  0  0
   -1.0326    2.0245    7.0187 H   0  0  0  0  0  0  0  0  0  0  0  0
    0.6103    0.6593    8.1467 H   0  0  0  0  0  0  0  0  0  0  0  0
   -0.4500   -0.2723    7.1667 H   0  0  0  0  0  0  0  0  0  0  0  0
    3.0949    0.3708    7.9857 H   0  0  0  0  0  0  0  0  0  0  0  0
    2.7881    1.5770    6.8198 H   0  0  0  0  0  0  0  0  0  0  0  0
    3.7793    0.2070    6.3745 H   0  0  0  0  0  0  0  0  0  0  0  0
    1.4123   -1.1360    8.9176 H   0  0  0  0  0  0  0  0  0  0  0  0
    3.0198   -1.7268    8.6051 H   0  0  0  0  0  0  0  0  0  0  0  0
    1.6885   -2.7996    8.8298 H   0  0  0  0  0  0  0  0  0  0  0  0
   -0.2128   -2.6592    7.3069 H   0  0  0  0  0  0  0  0  0  0  0  0
   -0.1291   -2.0253    5.7029 H   0  0  0  0  0  0  0  0  0  0  0  0
   -0.4381   -4.4493    5.8774 H   0  0  0  0  0  0  0  0  0  0  0  0
    0.7087   -3.9000    4.7230 H   0  0  0  0  0  0  0  0  0  0  0  0
    0.6867   -4.4407    8.3333 H   0  0  0  0  0  0  0  0  0  0  0  0
    1.8144   -5.7749    8.4632 H   0  0  0  0  0  0  0  0  0  0  0  0
    0.2383   -5.9692    7.7691 H   0  0  0  0  0  0  0  0  0  0  0  0
    3.1694   -8.3029    3.6207 H   0  0  0  0  0  0  0  0  0  0  0  0
  1  2  2  0
  1 44  1  0
  1 45  1  0
  2  3  1  0
  2  4  1  0
  3 46  1  0
  3 47  1  0
  3 48  1  0
  4 43  1  0
  4  5  1  0
  4 49  1  6
  5  6  1  0
  5 50  1  0
  5 51  1  0
  6  7  1  0
  6 52  1  0
  6 53  1  0
  7 43  1  0
  7  8  1  6
  7 10  1  0
  8  9  1  0
  8 54  1  0
  8 55  1  0
  9 56  1  0
 10 11  1  0
 10 57  1  0
 10 58  1  0
 11 12  1  0
 11 59  1  0
 11 60  1  0
 12 41  1  0
 12 13  1  1
 12 14  1  0
 13 61  1  0
 13 62  1  0
 13 63  1  0
 14 15  1  0
 14 43  1  0
 14 64  1  6
 15 16  1  0
 15 65  1  0
 15 66  1  0
 16 17  1  0
 16 67  1  0
 16 68  1  0
 17 41  1  0
 17 18  1  1
 17 19  1  0
 18 69  1  0
 18 70  1  0
 18 71  1  0
 19 37  1  0
 19 20  1  0
 19 72  1  1
 20 21  1  0
 20 73  1  0
 20 74  1  0
 21 22  2  0
 21 75  1  0
 22 35  1  0
 22 23  1  0
 23 31  1  0
 23 24  1  0
 23 76  1  6
 24 25  1  0
 24 77  1  0
 24 78  1  0
 25 26  1  0
 25 79  1  0
 25 80  1  0
 26 27  1  0
 26 28  1  0
 26 81  1  1
 27 82  1  0
 28 29  1  0
 28 30  1  0
 28 31  1  0
 29 83  1  0
 29 84  1  0
 29 85  1  0
 30 86  1  0
 30 87  1  0
 30 88  1  0
 31 32  1  1
 31 33  1  0
 32 89  1  0
 32 90  1  0
 32 91  1  0
 33 34  1  0
 33 92  1  0
 33 93  1  0
 34 35  1  0
 34 94  1  0
 34 95  1  0
 35 36  1  1
 35 37  1  0
 36 96  1  0
 36 97  1  0
 36 98  1  0
 37 38  1  1
 37 39  1  0
 38 99  1  0
 38100  1  0
 38101  1  0
 39 40  1  0
 39102  1  0
 39103  1  0
 40 41  1  0
 40104  1  0
 40105  1  0
 41 42  1  1
 42106  1  0
 42107  1  0
 42108  1  0
 43109  1  1
M  END
>  <i_m_ct_stereo_status>  (216) 
1

>  <s_m_source_file>  (216) 
/var/tmp/pbs.5076255.sched01/tmpt7uccrld/92zpefy4ut.sdf

>  <i_m_source_file_index>  (216) 
3

>  <i_lp_mmshare_version>  (216) 
48012

>  <i_f3d_flags>  (216) 
0

>  <s_epik_input>  (216) 
W0NIMl09QyhbQ0gzXSlbQ0BIXShbQ0gyXVtDSDJdMSlbQ0BIXShbQ0BdMTJbQ0gyXVtPSF0pW0NASF0zW0NAXShbQ0gzXSkoW0NIMl1bQ0gyXTIpW0NAQF00KFtDSDNdKVtDQEBdKFtDSDNdKShbQ0gyXVtDSDJdMylbQ0BASF01W0NAXShbQ0gzXSkoW0NIMl1bQ0gyXTQpW0NAQF02KFtDSDNdKUMoPVtDSF1bQ0gyXTUpW0NASF03W0NAQF0oW0NIM10pKFtDSDJdW0NIMl02KUMoW0NIM10pKFtDSDNdKVtDQEhdKFtPSF0pW0NIMl1bQ0gyXTc=

>  <s_epik_cmdline>  (216) 
J2VwaWtfcHl0aG9uJywgJy1waHQnLCAnMi4wJywgJy1waCcsICc3LjAnLCAnLXRuJywgJzgnLCAnLW1hJywgJzIwMCcsICctaW1hZScsICc8aW5maWxlLm1hZT4nLCAnLW9tYWUnLCAnPG91dGZpbGUubWFlPic=

>  <r_lp_tautomer_probability>  (216) 
1

>  <r_epik_Ionization_Penalty>  (216) 
3.09023e-06

>  <r_epik_Ionization_Penalty_Charging>  (216) 
0

>  <r_epik_Ionization_Penalty_Neutral>  (216) 
3.09023e-06

>  <r_epik_State_Penalty>  (216) 
-0

>  <r_epik_Charging_Adjusted_Penalty>  (216) 
0

>  <i_epik_Tot_Q>  (216) 
0

>  <i_epik_Tot_abs_Q>  (216) 
0

>  <s_lp_Force_Field>  (216) 
OPLS3e

>  <r_lp_Energy>  (216) 
156.891

>  <b_lp_Chiralities_Consistent>  (216) 
1

>  <s_lp_Variant>  (216) 
67:0-1

>  <s_i_glide_gridfile>  (216) 
pfpi4k_grid

>  <i_i_glide_lignum>  (216) 
3

>  <i_i_glide_rotatable_bonds>  (216) 
4

>  <r_i_docking_score>  (216) 
-2.7518

>  <r_i_glide_ligand_efficiency>  (216) 
-0.0639953

>  <r_i_glide_ligand_efficiency_sa>  (216) 
-0.224201

>  <r_i_glide_ligand_efficiency_ln>  (216) 
-0.577963

>  <r_i_glide_gscore>  (216) 
-2.7518

>  <r_i_glide_lipo>  (216) 
-0.231066

>  <r_i_glide_hbond>  (216) 
-0.429001

>  <r_i_glide_metal>  (216) 
-0

>  <r_i_glide_rewards>  (216) 
0

>  <r_i_glide_evdw>  (216) 
-24.5861

>  <r_i_glide_ecoul>  (216) 
-5.82181

>  <r_i_glide_erotb>  (216) 
0.0108462

>  <r_i_glide_esite>  (216) 
0

>  <r_i_glide_emodel>  (216) 
-33.1476

>  <r_i_glide_energy>  (216) 
-30.4079

>  <r_i_glide_einternal>  (216) 
4.19564

>  <r_i_glide_intrahb_reward>  (216) 
-0

>  <i_i_glide_confnum>  (216) 
2

>  <i_i_glide_posenum>  (216) 
22

>  <r_i_glide_eff_state_penalty>  (216) 
0

>  <ligand_id>  (216) 
67

>  <original_smiles>  (216) 
C=C(C)C1CCC2(CO)CCC3(C)C(CCC4(C)C5CC=C6C7CCC(O)C(C)(C)C7(C)CCC6(C)C5(C)CCC34C)C12

>  <smiles>  (216) 
[H]OC([H])([H])C12C([H])([H])C([H])([H])C([H])(C(=C([H])[H])C([H])([H])[H])C1([H])C1([H])C([H])([H])C([H])([H])C3(C([H])([H])[H])C4([H])C([H])([H])C([H])=C5C6([H])C([H])([H])C([H])([H])C([H])(O[H])C(C([H])([H])[H])(C([H])([H])[H])C6(C([H])([H])[H])C([H])([H])C([H])([H])C5(C([H])([H])[H])C4(C([H])([H])[H])C([H])([H])C([H])([H])C3(C([H])([H])[H])C1(C([H])([H])[H])C([H])([H])C2([H])[H]

$$$$
67:0:1
     RDKit          3D

109115  0  0  1  0  0  0  0  0999 V2000
    5.8146   -4.3945    0.9414 C   0  0  0  0  0  0  0  0  0  0  0  0
    6.1935   -5.5917    1.4433 C   0  0  0  0  0  0  0  0  0  0  0  0
    7.6553   -5.8951    1.7504 C   0  0  0  0  0  0  0  0  0  0  0  0
    5.2202   -6.7405    1.6864 C   0  0  2  0  0  0  0  0  0  0  0  0
    3.8195   -6.5908    1.0763 C   0  0  0  0  0  0  0  0  0  0  0  0
    3.0228   -7.7537    1.6649 C   0  0  0  0  0  0  0  0  0  0  0  0
    3.7821   -8.2249    2.9422 C   0  0  2  0  0  0  0  0  0  0  0  0
    4.3968   -9.6305    2.6965 C   0  0  0  0  0  0  0  0  0  0  0  0
    3.4134  -10.6298    2.4782 O   0  0  0  0  0  0  0  0  0  0  0  0
    2.8096   -8.3301    4.1377 C   0  0  0  0  0  0  0  0  0  0  0  0
    2.5068   -6.9812    4.7934 C   0  0  0  0  0  0  0  0  0  0  0  0
    3.7669   -6.2942    5.3843 C   0  0  1  0  0  0  0  0  0  0  0  0
    4.4473   -7.3339    6.3335 C   0  0  0  0  0  0  0  0  0  0  0  0
    4.7063   -6.0197    4.1740 C   0  0  1  0  0  0  0  0  0  0  0  0
    6.0281   -5.4867    4.7485 C   0  0  0  0  0  0  0  0  0  0  0  0
    5.8185   -4.1111    5.3410 C   0  0  0  0  0  0  0  0  0  0  0  0
    4.6085   -3.8378    6.2996 C   0  0  1  0  0  0  0  0  0  0  0  0
    5.3232   -3.9258    7.6932 C   0  0  0  0  0  0  0  0  0  0  0  0
    4.1514   -2.3085    6.0217 C   0  0  1  0  0  0  0  0  0  0  0  0
    4.1593   -1.9055    4.4997 C   0  0  0  0  0  0  0  0  0  0  0  0
    3.2261   -0.8337    4.0245 C   0  0  0  0  0  0  0  0  0  0  0  0
    2.4310   -0.0840    4.8017 C   0  0  0  0  0  0  0  0  0  0  0  0
    1.5930    1.0358    4.1587 C   0  0  2  0  0  0  0  0  0  0  0  0
    2.3727    2.3680    4.1516 C   0  0  0  0  0  0  0  0  0  0  0  0
    1.6185    3.4836    3.4354 C   0  0  0  0  0  0  0  0  0  0  0  0
    0.2619    3.6969    4.1188 C   0  0  1  0  0  0  0  0  0  0  0  0
   -0.3753    4.8125    3.5238 O   0  0  0  0  0  0  0  0  0  0  0  0
   -0.6304    2.4160    4.0840 C   0  0  0  0  0  0  0  0  0  0  0  0
   -1.9235    2.7466    4.8690 C   0  0  0  0  0  0  0  0  0  0  0  0
   -1.0508    2.1324    2.6121 C   0  0  0  0  0  0  0  0  0  0  0  0
    0.1350    1.1551    4.7196 C   0  0  1  0  0  0  0  0  0  0  0  0
   -0.6633   -0.1286    4.3702 C   0  0  0  0  0  0  0  0  0  0  0  0
    0.2799    1.2553    6.2618 C   0  0  0  0  0  0  0  0  0  0  0  0
    1.0057    0.0583    6.9089 C   0  0  0  0  0  0  0  0  0  0  0  0
    2.4138   -0.3172    6.3296 C   0  0  2  0  0  0  0  0  0  0  0  0
    3.4512    0.6630    6.9390 C   0  0  0  0  0  0  0  0  0  0  0  0
    2.8114   -1.8407    6.6851 C   0  0  2  0  0  0  0  0  0  0  0  0
    2.9425   -1.9083    8.2468 C   0  0  0  0  0  0  0  0  0  0  0  0
    1.7308   -2.8545    6.1869 C   0  0  0  0  0  0  0  0  0  0  0  0
    2.1946   -4.1856    5.5299 C   0  0  0  0  0  0  0  0  0  0  0  0
    3.4018   -4.9279    6.1868 C   0  0  1  0  0  0  0  0  0  0  0  0
    2.8338   -5.4112    7.5619 C   0  0  0  0  0  0  0  0  0  0  0  0
    4.9534   -7.2016    3.1524 C   0  0  2  0  0  0  0  0  0  0  0  0
    6.5281   -3.6053    0.7832 H   0  0  0  0  0  0  0  0  0  0  0  0
    4.7965   -4.1730    0.6695 H   0  0  0  0  0  0  0  0  0  0  0  0
    7.7882   -6.3477    2.7377 H   0  0  0  0  0  0  0  0  0  0  0  0
    8.2447   -4.9764    1.7267 H   0  0  0  0  0  0  0  0  0  0  0  0
    8.0667   -6.5696    0.9872 H   0  0  0  0  0  0  0  0  0  0  0  0
    5.6825   -7.5712    1.1544 H   0  0  0  0  0  0  0  0  0  0  0  0
    3.3447   -5.6583    1.3924 H   0  0  0  0  0  0  0  0  0  0  0  0
    3.8237   -6.6090   -0.0163 H   0  0  0  0  0  0  0  0  0  0  0  0
    1.9962   -7.4487    1.8686 H   0  0  0  0  0  0  0  0  0  0  0  0
    2.9381   -8.5607    0.9350 H   0  0  0  0  0  0  0  0  0  0  0  0
    5.0598   -9.6369    1.8323 H   0  0  0  0  0  0  0  0  0  0  0  0
    5.0012   -9.9379    3.5508 H   0  0  0  0  0  0  0  0  0  0  0  0
    3.7444  -11.2419    1.8368 H   0  0  0  0  0  0  0  0  0  0  0  0
    1.8761   -8.7636    3.7889 H   0  0  0  0  0  0  0  0  0  0  0  0
    3.1869   -9.0545    4.8656 H   0  0  0  0  0  0  0  0  0  0  0  0
    2.0502   -6.3586    4.0249 H   0  0  0  0  0  0  0  0  0  0  0  0
    1.7295   -7.1457    5.5435 H   0  0  0  0  0  0  0  0  0  0  0  0
    5.1605   -6.8773    7.0140 H   0  0  0  0  0  0  0  0  0  0  0  0
    4.9967   -8.0917    5.7776 H   0  0  0  0  0  0  0  0  0  0  0  0
    3.7211   -7.8697    6.9478 H   0  0  0  0  0  0  0  0  0  0  0  0
    4.2449   -5.2235    3.6040 H   0  0  0  0  0  0  0  0  0  0  0  0
    6.4968   -6.1570    5.4772 H   0  0  0  0  0  0  0  0  0  0  0  0
    6.7817   -5.3430    3.9794 H   0  0  0  0  0  0  0  0  0  0  0  0
    6.7467   -3.8312    5.8143 H   0  0  0  0  0  0  0  0  0  0  0  0
    5.8183   -3.5164    4.4446 H   0  0  0  0  0  0  0  0  0  0  0  0
    4.6800   -3.8346    8.5585 H   0  0  0  0  0  0  0  0  0  0  0  0
    6.0767   -3.1439    7.8073 H   0  0  0  0  0  0  0  0  0  0  0  0
    5.8526   -4.8717    7.8119 H   0  0  0  0  0  0  0  0  0  0  0  0
    4.9377   -1.6857    6.4488 H   0  0  0  0  0  0  0  0  0  0  0  0
    5.1498   -1.5383    4.2433 H   0  0  0  0  0  0  0  0  0  0  0  0
    3.9590   -2.7498    3.8481 H   0  0  0  0  0  0  0  0  0  0  0  0
    3.2570   -0.6519    2.9586 H   0  0  0  0  0  0  0  0  0  0  0  0
    1.4967    0.7486    3.1113 H   0  0  0  0  0  0  0  0  0  0  0  0
    2.5728    2.7205    5.1566 H   0  0  0  0  0  0  0  0  0  0  0  0
    3.3457    2.2280    3.6853 H   0  0  0  0  0  0  0  0  0  0  0  0
    2.2047    4.4019    3.4721 H   0  0  0  0  0  0  0  0  0  0  0  0
    1.5035    3.2428    2.3764 H   0  0  0  0  0  0  0  0  0  0  0  0
    0.4485    3.9745    5.1592 H   0  0  0  0  0  0  0  0  0  0  0  0
   -0.2182    4.7517    2.5760 H   0  0  0  0  0  0  0  0  0  0  0  0
   -2.5610    1.8771    5.0032 H   0  0  0  0  0  0  0  0  0  0  0  0
   -2.5238    3.4971    4.3517 H   0  0  0  0  0  0  0  0  0  0  0  0
   -1.7014    3.1522    5.8538 H   0  0  0  0  0  0  0  0  0  0  0  0
   -1.8457    1.3903    2.5508 H   0  0  0  0  0  0  0  0  0  0  0  0
   -0.2264    1.7745    2.0005 H   0  0  0  0  0  0  0  0  0  0  0  0
   -1.4452    3.0192    2.1185 H   0  0  0  0  0  0  0  0  0  0  0  0
   -1.6934   -0.0912    4.7181 H   0  0  0  0  0  0  0  0  0  0  0  0
   -0.2394   -1.0149    4.8086 H   0  0  0  0  0  0  0  0  0  0  0  0
   -0.6674   -0.3317    3.3020 H   0  0  0  0  0  0  0  0  0  0  0  0
    0.8092    2.1633    6.5287 H   0  0  0  0  0  0  0  0  0  0  0  0
   -0.6999    1.3352    6.7349 H   0  0  0  0  0  0  0  0  0  0  0  0
    1.1031    0.2956    7.9662 H   0  0  0  0  0  0  0  0  0  0  0  0
    0.3394   -0.7973    6.8863 H   0  0  0  0  0  0  0  0  0  0  0  0
    3.5969    0.5334    8.0094 H   0  0  0  0  0  0  0  0  0  0  0  0
    3.1336    1.6908    6.8387 H   0  0  0  0  0  0  0  0  0  0  0  0
    4.4212    0.5723    6.4532 H   0  0  0  0  0  0  0  0  0  0  0  0
    2.2005   -1.3165    8.7725 H   0  0  0  0  0  0  0  0  0  0  0  0
    3.9172   -1.5527    8.5810 H   0  0  0  0  0  0  0  0  0  0  0  0
    2.8230   -2.8856    8.6736 H   0  0  0  0  0  0  0  0  0  0  0  0
    1.0620   -3.0874    6.9997 H   0  0  0  0  0  0  0  0  0  0  0  0
    1.1205   -2.3828    5.4191 H   0  0  0  0  0  0  0  0  0  0  0  0
    1.3150   -4.8337    5.5268 H   0  0  0  0  0  0  0  0  0  0  0  0
    2.4203   -4.0125    4.4879 H   0  0  0  0  0  0  0  0  0  0  0  0
    2.2245   -4.6788    8.0688 H   0  0  0  0  0  0  0  0  0  0  0  0
    3.5971   -5.7545    8.2608 H   0  0  0  0  0  0  0  0  0  0  0  0
    2.1523   -6.2493    7.4359 H   0  0  0  0  0  0  0  0  0  0  0  0
    5.8232   -7.7563    3.5113 H   0  0  0  0  0  0  0  0  0  0  0  0
  1  2  2  0
  1 44  1  0
  1 45  1  0
  2  3  1  0
  2  4  1  0
  3 46  1  0
  3 47  1  0
  3 48  1  0
  4 43  1  0
  4  5  1  0
  4 49  1  6
  5  6  1  0
  5 50  1  0
  5 51  1  0
  6  7  1  0
  6 52  1  0
  6 53  1  0
  7 43  1  0
  7  8  1  6
  7 10  1  0
  8  9  1  0
  8 54  1  0
  8 55  1  0
  9 56  1  0
 10 11  1  0
 10 57  1  0
 10 58  1  0
 11 12  1  0
 11 59  1  0
 11 60  1  0
 12 41  1  0
 12 13  1  1
 12 14  1  0
 13 61  1  0
 13 62  1  0
 13 63  1  0
 14 15  1  0
 14 43  1  0
 14 64  1  6
 15 16  1  0
 15 65  1  0
 15 66  1  0
 16 17  1  0
 16 67  1  0
 16 68  1  0
 17 41  1  0
 17 18  1  1
 17 19  1  0
 18 69  1  0
 18 70  1  0
 18 71  1  0
 19 37  1  0
 19 20  1  0
 19 72  1  1
 20 21  1  0
 20 73  1  0
 20 74  1  0
 21 22  2  0
 21 75  1  0
 22 35  1  0
 22 23  1  0
 23 31  1  0
 23 24  1  0
 23 76  1  6
 24 25  1  0
 24 77  1  0
 24 78  1  0
 25 26  1  0
 25 79  1  0
 25 80  1  0
 26 27  1  0
 26 28  1  0
 26 81  1  1
 27 82  1  0
 28 29  1  0
 28 30  1  0
 28 31  1  0
 29 83  1  0
 29 84  1  0
 29 85  1  0
 30 86  1  0
 30 87  1  0
 30 88  1  0
 31 32  1  1
 31 33  1  0
 32 89  1  0
 32 90  1  0
 32 91  1  0
 33 34  1  0
 33 92  1  0
 33 93  1  0
 34 35  1  0
 34 94  1  0
 34 95  1  0
 35 36  1  1
 35 37  1  0
 36 96  1  0
 36 97  1  0
 36 98  1  0
 37 38  1  1
 37 39  1  0
 38 99  1  0
 38100  1  0
 38101  1  0
 39 40  1  0
 39102  1  0
 39103  1  0
 40 41  1  0
 40104  1  0
 40105  1  0
 41 42  1  1
 42106  1  0
 42107  1  0
 42108  1  0
 43109  1  1
M  END
>  <i_m_ct_stereo_status>  (217) 
1

>  <s_m_source_file>  (217) 
/var/tmp/pbs.5076255.sched01/tmpt7uccrld/92zpefy4ut.sdf

>  <i_m_source_file_index>  (217) 
3

>  <i_lp_mmshare_version>  (217) 
48012

>  <i_f3d_flags>  (217) 
0

>  <s_epik_input>  (217) 
W0NIMl09QyhbQ0gzXSlbQ0BIXShbQ0gyXVtDSDJdMSlbQ0BIXShbQ0BdMTJbQ0gyXVtPSF0pW0NASF0zW0NAXShbQ0gzXSkoW0NIMl1bQ0gyXTIpW0NAQF00KFtDSDNdKVtDQEBdKFtDSDNdKShbQ0gyXVtDSDJdMylbQ0BASF01W0NAXShbQ0gzXSkoW0NIMl1bQ0gyXTQpW0NAQF02KFtDSDNdKUMoPVtDSF1bQ0gyXTUpW0NASF03W0NAQF0oW0NIM10pKFtDSDJdW0NIMl02KUMoW0NIM10pKFtDSDNdKVtDQEhdKFtPSF0pW0NIMl1bQ0gyXTc=

>  <s_epik_cmdline>  (217) 
J2VwaWtfcHl0aG9uJywgJy1waHQnLCAnMi4wJywgJy1waCcsICc3LjAnLCAnLXRuJywgJzgnLCAnLW1hJywgJzIwMCcsICctaW1hZScsICc8aW5maWxlLm1hZT4nLCAnLW9tYWUnLCAnPG91dGZpbGUubWFlPic=

>  <r_lp_tautomer_probability>  (217) 
1

>  <r_epik_Ionization_Penalty>  (217) 
3.09023e-06

>  <r_epik_Ionization_Penalty_Charging>  (217) 
0

>  <r_epik_Ionization_Penalty_Neutral>  (217) 
3.09023e-06

>  <r_epik_State_Penalty>  (217) 
-0

>  <r_epik_Charging_Adjusted_Penalty>  (217) 
0

>  <i_epik_Tot_Q>  (217) 
0

>  <i_epik_Tot_abs_Q>  (217) 
0

>  <s_lp_Force_Field>  (217) 
OPLS3e

>  <r_lp_Energy>  (217) 
156.891

>  <b_lp_Chiralities_Consistent>  (217) 
1

>  <s_lp_Variant>  (217) 
67:0-1

>  <s_i_glide_gridfile>  (217) 
pfpi4k_grid

>  <i_i_glide_lignum>  (217) 
3

>  <i_i_glide_rotatable_bonds>  (217) 
4

>  <r_i_docking_score>  (217) 
-2.72703

>  <r_i_glide_ligand_efficiency>  (217) 
-0.0634193

>  <r_i_glide_ligand_efficiency_sa>  (217) 
-0.222183

>  <r_i_glide_ligand_efficiency_ln>  (217) 
-0.572761

>  <r_i_glide_gscore>  (217) 
-2.72703

>  <r_i_glide_lipo>  (217) 
-0.33116

>  <r_i_glide_hbond>  (217) 
-0.304

>  <r_i_glide_metal>  (217) 
-0

>  <r_i_glide_rewards>  (217) 
0

>  <r_i_glide_evdw>  (217) 
-20.5085

>  <r_i_glide_ecoul>  (217) 
-7.18196

>  <r_i_glide_erotb>  (217) 
0.0108462

>  <r_i_glide_esite>  (217) 
0

>  <r_i_glide_emodel>  (217) 
-31.4955

>  <r_i_glide_energy>  (217) 
-27.6904

>  <r_i_glide_einternal>  (217) 
1.47221

>  <r_i_glide_intrahb_reward>  (217) 
-0

>  <i_i_glide_confnum>  (217) 
1

>  <i_i_glide_posenum>  (217) 
13

>  <r_i_glide_eff_state_penalty>  (217) 
0

>  <ligand_id>  (217) 
67

>  <original_smiles>  (217) 
C=C(C)C1CCC2(CO)CCC3(C)C(CCC4(C)C5CC=C6C7CCC(O)C(C)(C)C7(C)CCC6(C)C5(C)CCC34C)C12

>  <smiles>  (217) 
[H]OC([H])([H])C12C([H])([H])C([H])([H])C([H])(C(=C([H])[H])C([H])([H])[H])C1([H])C1([H])C([H])([H])C([H])([H])C3(C([H])([H])[H])C4([H])C([H])([H])C([H])=C5C6([H])C([H])([H])C([H])([H])C([H])(O[H])C(C([H])([H])[H])(C([H])([H])[H])C6(C([H])([H])[H])C([H])([H])C([H])([H])C5(C([H])([H])[H])C4(C([H])([H])[H])C([H])([H])C([H])([H])C3(C([H])([H])[H])C1(C([H])([H])[H])C([H])([H])C2([H])[H]

$$$$
67:0:2
     RDKit          3D

109115  0  0  1  0  0  0  0  0999 V2000
    3.7517   -5.5767    0.7958 C   0  0  0  0  0  0  0  0  0  0  0  0
    3.9962   -6.7580    1.3975 C   0  0  0  0  0  0  0  0  0  0  0  0
    5.4212   -7.3015    1.5201 C   0  0  0  0  0  0  0  0  0  0  0  0
    2.9003   -7.6719    1.9414 C   0  0  2  0  0  0  0  0  0  0  0  0
    1.4635   -7.2946    1.5667 C   0  0  0  0  0  0  0  0  0  0  0  0
    0.5946   -8.2194    2.4077 C   0  0  0  0  0  0  0  0  0  0  0  0
    1.4813   -8.7262    3.5803 C   0  0  2  0  0  0  0  0  0  0  0  0
    1.7783  -10.2471    3.4075 C   0  0  0  0  0  0  0  0  0  0  0  0
    0.6148  -11.0529    3.3395 O   0  0  0  0  0  0  0  0  0  0  0  0
    0.7424   -8.5420    4.9296 C   0  0  0  0  0  0  0  0  0  0  0  0
    0.8161   -7.0989    5.4612 C   0  0  0  0  0  0  0  0  0  0  0  0
    2.2619   -6.6192    5.7469 C   0  0  1  0  0  0  0  0  0  0  0  0
    2.9118   -7.6893    6.6855 C   0  0  0  0  0  0  0  0  0  0  0  0
    2.9816   -6.6478    4.3764 C   0  0  1  0  0  0  0  0  0  0  0  0
    4.4620   -6.3158    4.6768 C   0  0  0  0  0  0  0  0  0  0  0  0
    4.6366   -4.8801    5.1177 C   0  0  0  0  0  0  0  0  0  0  0  0
    3.6846   -4.3131    6.2195 C   0  0  1  0  0  0  0  0  0  0  0  0
    4.6168   -4.4123    7.4616 C   0  0  0  0  0  0  0  0  0  0  0  0
    3.4632   -2.7569    5.8320 C   0  0  1  0  0  0  0  0  0  0  0  0
    3.2579   -2.4924    4.2905 C   0  0  0  0  0  0  0  0  0  0  0  0
    2.4457   -1.2998    3.8506 C   0  0  0  0  0  0  0  0  0  0  0  0
    1.9703   -0.3474    4.6556 C   0  0  0  0  0  0  0  0  0  0  0  0
    1.2272    0.8474    4.0320 C   0  0  2  0  0  0  0  0  0  0  0  0
    2.2217    1.9963    3.7398 C   0  0  0  0  0  0  0  0  0  0  0  0
    1.5565    3.1793    3.0330 C   0  0  0  0  0  0  0  0  0  0  0  0
    0.4119    3.7125    3.8937 C   0  0  1  0  0  0  0  0  0  0  0  0
   -0.1196    4.8687    3.2856 O   0  0  0  0  0  0  0  0  0  0  0  0
   -0.6774    2.6339    4.1585 C   0  0  0  0  0  0  0  0  0  0  0  0
   -1.7317    3.2678    5.1084 C   0  0  0  0  0  0  0  0  0  0  0  0
   -1.4119    2.3188    2.8278 C   0  0  0  0  0  0  0  0  0  0  0  0
   -0.0492    1.3070    4.8020 C   0  0  1  0  0  0  0  0  0  0  0  0
   -1.1150    0.1726    4.7508 C   0  0  0  0  0  0  0  0  0  0  0  0
    0.3929    1.5071    6.2744 C   0  0  0  0  0  0  0  0  0  0  0  0
    1.0083    0.2491    6.9350 C   0  0  0  0  0  0  0  0  0  0  0  0
    2.1879   -0.4435    6.1735 C   0  0  2  0  0  0  0  0  0  0  0  0
    3.4762    0.3662    6.4827 C   0  0  0  0  0  0  0  0  0  0  0  0
    2.3739   -1.9760    6.6516 C   0  0  2  0  0  0  0  0  0  0  0  0
    2.7780   -1.9280    8.1579 C   0  0  0  0  0  0  0  0  0  0  0  0
    1.0574   -2.7968    6.4628 C   0  0  0  0  0  0  0  0  0  0  0  0
    1.1506   -4.2478    5.9020 C   0  0  0  0  0  0  0  0  0  0  0  0
    2.3134   -5.1506    6.4180 C   0  0  1  0  0  0  0  0  0  0  0  0
    1.9251   -5.3885    7.9302 C   0  0  0  0  0  0  0  0  0  0  0  0
    2.8327   -7.9383    3.4817 C   0  0  2  0  0  0  0  0  0  0  0  0
    4.5502   -4.9638    0.4152 H   0  0  0  0  0  0  0  0  0  0  0  0
    2.7610   -5.2069    0.6327 H   0  0  0  0  0  0  0  0  0  0  0  0
    5.6802   -7.7294    2.4844 H   0  0  0  0  0  0  0  0  0  0  0  0
    6.1512   -6.5094    1.3091 H   0  0  0  0  0  0  0  0  0  0  0  0
    5.5824   -8.1040    0.7955 H   0  0  0  0  0  0  0  0  0  0  0  0
    3.0992   -8.6138    1.4431 H   0  0  0  0  0  0  0  0  0  0  0  0
    1.2321   -6.2636    1.8382 H   0  0  0  0  0  0  0  0  0  0  0  0
    1.2428   -7.4093    0.5003 H   0  0  0  0  0  0  0  0  0  0  0  0
   -0.3049   -7.7044    2.7464 H   0  0  0  0  0  0  0  0  0  0  0  0
    0.2334   -9.0485    1.8000 H   0  0  0  0  0  0  0  0  0  0  0  0
    2.3467  -10.4451    2.5001 H   0  0  0  0  0  0  0  0  0  0  0  0
    2.3931  -10.6110    4.2354 H   0  0  0  0  0  0  0  0  0  0  0  0
    0.8874  -11.9516    3.2071 H   0  0  0  0  0  0  0  0  0  0  0  0
   -0.3086   -8.8240    4.8035 H   0  0  0  0  0  0  0  0  0  0  0  0
    1.1162   -9.2515    5.6738 H   0  0  0  0  0  0  0  0  0  0  0  0
    0.3377   -6.4685    4.7134 H   0  0  0  0  0  0  0  0  0  0  0  0
    0.1735   -7.0468    6.3461 H   0  0  0  0  0  0  0  0  0  0  0  0
    3.8139   -7.3274    7.1865 H   0  0  0  0  0  0  0  0  0  0  0  0
    3.2108   -8.5925    6.1477 H   0  0  0  0  0  0  0  0  0  0  0  0
    2.2314   -8.0260    7.4837 H   0  0  0  0  0  0  0  0  0  0  0  0
    2.5883   -5.8238    3.8020 H   0  0  0  0  0  0  0  0  0  0  0  0
    4.9507   -7.0265    5.3715 H   0  0  0  0  0  0  0  0  0  0  0  0
    5.0747   -6.3452    3.7994 H   0  0  0  0  0  0  0  0  0  0  0  0
    5.6737   -4.7533    5.3779 H   0  0  0  0  0  0  0  0  0  0  0  0
    4.5867   -4.3941    4.1650 H   0  0  0  0  0  0  0  0  0  0  0  0
    4.1743   -4.1232    8.4097 H   0  0  0  0  0  0  0  0  0  0  0  0
    5.5069   -3.7866    7.3605 H   0  0  0  0  0  0  0  0  0  0  0  0
    4.9839   -5.4267    7.6082 H   0  0  0  0  0  0  0  0  0  0  0  0
    4.4094   -2.2538    6.0413 H   0  0  0  0  0  0  0  0  0  0  0  0
    4.2383   -2.3507    3.8237 H   0  0  0  0  0  0  0  0  0  0  0  0
    2.7978   -3.3410    3.7844 H   0  0  0  0  0  0  0  0  0  0  0  0
    2.3199   -1.2224    2.7774 H   0  0  0  0  0  0  0  0  0  0  0  0
    0.8956    0.5060    3.0518 H   0  0  0  0  0  0  0  0  0  0  0  0
    2.6683    2.3977    4.6457 H   0  0  0  0  0  0  0  0  0  0  0  0
    3.0581    1.6358    3.1303 H   0  0  0  0  0  0  0  0  0  0  0  0
    2.2943    3.9634    2.8515 H   0  0  0  0  0  0  0  0  0  0  0  0
    1.2131    2.8596    2.0535 H   0  0  0  0  0  0  0  0  0  0  0  0
    0.8337    4.0267    4.8519 H   0  0  0  0  0  0  0  0  0  0  0  0
   -0.1385    4.7284    2.3157 H   0  0  0  0  0  0  0  0  0  0  0  0
   -2.4844    2.5570    5.4562 H   0  0  0  0  0  0  0  0  0  0  0  0
   -2.2755    4.0766    4.6115 H   0  0  0  0  0  0  0  0  0  0  0  0
   -1.2628    3.7117    5.9876 H   0  0  0  0  0  0  0  0  0  0  0  0
   -2.3348    1.7662    2.9931 H   0  0  0  0  0  0  0  0  0  0  0  0
   -0.8027    1.7413    2.1351 H   0  0  0  0  0  0  0  0  0  0  0  0
   -1.7161    3.2218    2.2987 H   0  0  0  0  0  0  0  0  0  0  0  0
   -2.0404    0.4397    5.2607 H   0  0  0  0  0  0  0  0  0  0  0  0
   -0.7806   -0.7440    5.2174 H   0  0  0  0  0  0  0  0  0  0  0  0
   -1.3659   -0.1201    3.7299 H   0  0  0  0  0  0  0  0  0  0  0  0
    1.1176    2.3163    6.3435 H   0  0  0  0  0  0  0  0  0  0  0  0
   -0.4488    1.8185    6.8972 H   0  0  0  0  0  0  0  0  0  0  0  0
    1.3350    0.5594    7.9310 H   0  0  0  0  0  0  0  0  0  0  0  0
    0.2008   -0.4533    7.1293 H   0  0  0  0  0  0  0  0  0  0  0  0
    3.7997    0.3082    7.5227 H   0  0  0  0  0  0  0  0  0  0  0  0
    3.3391    1.4297    6.3159 H   0  0  0  0  0  0  0  0  0  0  0  0
    4.3136    0.0492    5.8577 H   0  0  0  0  0  0  0  0  0  0  0  0
    2.2644   -1.1626    8.7263 H   0  0  0  0  0  0  0  0  0  0  0  0
    3.8443   -1.7453    8.2817 H   0  0  0  0  0  0  0  0  0  0  0  0
    2.5686   -2.8239    8.7161 H   0  0  0  0  0  0  0  0  0  0  0  0
    0.5065   -2.8172    7.3987 H   0  0  0  0  0  0  0  0  0  0  0  0
    0.4097   -2.2900    5.7534 H   0  0  0  0  0  0  0  0  0  0  0  0
    0.1779   -4.7063    6.1152 H   0  0  0  0  0  0  0  0  0  0  0  0
    1.1999   -4.2072    4.8182 H   0  0  0  0  0  0  0  0  0  0  0  0
    1.5569   -4.5087    8.4457 H   0  0  0  0  0  0  0  0  0  0  0  0
    2.7322   -5.8129    8.5309 H   0  0  0  0  0  0  0  0  0  0  0  0
    1.0916   -6.0889    8.0251 H   0  0  0  0  0  0  0  0  0  0  0  0
    3.6436   -8.6171    3.7506 H   0  0  0  0  0  0  0  0  0  0  0  0
  1  2  2  0
  1 44  1  0
  1 45  1  0
  2  3  1  0
  2  4  1  0
  3 46  1  0
  3 47  1  0
  3 48  1  0
  4 43  1  0
  4  5  1  0
  4 49  1  6
  5  6  1  0
  5 50  1  0
  5 51  1  0
  6  7  1  0
  6 52  1  0
  6 53  1  0
  7 43  1  0
  7  8  1  6
  7 10  1  0
  8  9  1  0
  8 54  1  0
  8 55  1  0
  9 56  1  0
 10 11  1  0
 10 57  1  0
 10 58  1  0
 11 12  1  0
 11 59  1  0
 11 60  1  0
 12 41  1  0
 12 13  1  1
 12 14  1  0
 13 61  1  0
 13 62  1  0
 13 63  1  0
 14 15  1  0
 14 43  1  0
 14 64  1  6
 15 16  1  0
 15 65  1  0
 15 66  1  0
 16 17  1  0
 16 67  1  0
 16 68  1  0
 17 41  1  0
 17 18  1  1
 17 19  1  0
 18 69  1  0
 18 70  1  0
 18 71  1  0
 19 37  1  0
 19 20  1  0
 19 72  1  1
 20 21  1  0
 20 73  1  0
 20 74  1  0
 21 22  2  0
 21 75  1  0
 22 35  1  0
 22 23  1  0
 23 31  1  0
 23 24  1  0
 23 76  1  6
 24 25  1  0
 24 77  1  0
 24 78  1  0
 25 26  1  0
 25 79  1  0
 25 80  1  0
 26 27  1  0
 26 28  1  0
 26 81  1  1
 27 82  1  0
 28 29  1  0
 28 30  1  0
 28 31  1  0
 29 83  1  0
 29 84  1  0
 29 85  1  0
 30 86  1  0
 30 87  1  0
 30 88  1  0
 31 32  1  1
 31 33  1  0
 32 89  1  0
 32 90  1  0
 32 91  1  0
 33 34  1  0
 33 92  1  0
 33 93  1  0
 34 35  1  0
 34 94  1  0
 34 95  1  0
 35 36  1  6
 35 37  1  0
 36 96  1  0
 36 97  1  0
 36 98  1  0
 37 38  1  1
 37 39  1  0
 38 99  1  0
 38100  1  0
 38101  1  0
 39 40  1  0
 39102  1  0
 39103  1  0
 40 41  1  0
 40104  1  0
 40105  1  0
 41 42  1  1
 42106  1  0
 42107  1  0
 42108  1  0
 43109  1  1
M  END
>  <i_m_ct_stereo_status>  (218) 
1

>  <s_m_source_file>  (218) 
/var/tmp/pbs.5076255.sched01/tmpt7uccrld/92zpefy4ut.sdf

>  <i_m_source_file_index>  (218) 
3

>  <i_lp_mmshare_version>  (218) 
48012

>  <i_f3d_flags>  (218) 
0

>  <s_epik_input>  (218) 
W0NIMl09QyhbQ0gzXSlbQ0BIXShbQ0gyXVtDSDJdMSlbQ0BIXShbQ0BdMTJbQ0gyXVtPSF0pW0NASF0zW0NAXShbQ0gzXSkoW0NIMl1bQ0gyXTIpW0NAQF00KFtDSDNdKVtDQEBdKFtDSDNdKShbQ0gyXVtDSDJdMylbQ0BASF01W0NAXShbQ0gzXSkoW0NIMl1bQ0gyXTQpW0NAQF02KFtDSDNdKUMoPVtDSF1bQ0gyXTUpW0NASF03W0NAQF0oW0NIM10pKFtDSDJdW0NIMl02KUMoW0NIM10pKFtDSDNdKVtDQEhdKFtPSF0pW0NIMl1bQ0gyXTc=

>  <s_epik_cmdline>  (218) 
J2VwaWtfcHl0aG9uJywgJy1waHQnLCAnMi4wJywgJy1waCcsICc3LjAnLCAnLXRuJywgJzgnLCAnLW1hJywgJzIwMCcsICctaW1hZScsICc8aW5maWxlLm1hZT4nLCAnLW9tYWUnLCAnPG91dGZpbGUubWFlPic=

>  <r_lp_tautomer_probability>  (218) 
1

>  <r_epik_Ionization_Penalty>  (218) 
3.09023e-06

>  <r_epik_Ionization_Penalty_Charging>  (218) 
0

>  <r_epik_Ionization_Penalty_Neutral>  (218) 
3.09023e-06

>  <r_epik_State_Penalty>  (218) 
-0

>  <r_epik_Charging_Adjusted_Penalty>  (218) 
0

>  <i_epik_Tot_Q>  (218) 
0

>  <i_epik_Tot_abs_Q>  (218) 
0

>  <s_lp_Force_Field>  (218) 
OPLS3e

>  <r_lp_Energy>  (218) 
156.891

>  <b_lp_Chiralities_Consistent>  (218) 
1

>  <s_lp_Variant>  (218) 
67:0-1

>  <s_i_glide_gridfile>  (218) 
pfpi4k_grid

>  <i_i_glide_lignum>  (218) 
3

>  <i_i_glide_rotatable_bonds>  (218) 
4

>  <r_i_docking_score>  (218) 
-2.48997

>  <r_i_glide_ligand_efficiency>  (218) 
-0.0579063

>  <r_i_glide_ligand_efficiency_sa>  (218) 
-0.202869

>  <r_i_glide_ligand_efficiency_ln>  (218) 
-0.522971

>  <r_i_glide_gscore>  (218) 
-2.48997

>  <r_i_glide_lipo>  (218) 
-0.235951

>  <r_i_glide_hbond>  (218) 
-0.16

>  <r_i_glide_metal>  (218) 
-0

>  <r_i_glide_rewards>  (218) 
0

>  <r_i_glide_evdw>  (218) 
-22.7704

>  <r_i_glide_ecoul>  (218) 
-6.4423

>  <r_i_glide_erotb>  (218) 
0.0108462

>  <r_i_glide_esite>  (218) 
0

>  <r_i_glide_emodel>  (218) 
-33.1887

>  <r_i_glide_energy>  (218) 
-29.2127

>  <r_i_glide_einternal>  (218) 
0.796866

>  <r_i_glide_intrahb_reward>  (218) 
-0

>  <i_i_glide_confnum>  (218) 
1

>  <i_i_glide_posenum>  (218) 
31

>  <r_i_glide_eff_state_penalty>  (218) 
0

>  <ligand_id>  (218) 
67

>  <original_smiles>  (218) 
C=C(C)C1CCC2(CO)CCC3(C)C(CCC4(C)C5CC=C6C7CCC(O)C(C)(C)C7(C)CCC6(C)C5(C)CCC34C)C12

>  <smiles>  (218) 
[H]OC([H])([H])C12C([H])([H])C([H])([H])C([H])(C(=C([H])[H])C([H])([H])[H])C1([H])C1([H])C([H])([H])C([H])([H])C3(C([H])([H])[H])C4([H])C([H])([H])C([H])=C5C6([H])C([H])([H])C([H])([H])C([H])(O[H])C(C([H])([H])[H])(C([H])([H])[H])C6(C([H])([H])[H])C([H])([H])C([H])([H])C5(C([H])([H])[H])C4(C([H])([H])[H])C([H])([H])C([H])([H])C3(C([H])([H])[H])C1(C([H])([H])[H])C([H])([H])C2([H])[H]

$$$$
68:0:0
     RDKit          3D

 31 33  0  0  1  0  0  0  0  0999 V2000
    7.1770   -3.2216   -0.8674 C   0  0  0  0  0  0  0  0  0  0  0  0
    6.2193   -2.3074   -0.6027 C   0  0  0  0  0  0  0  0  0  0  0  0
    4.9808   -2.0551   -1.4890 C   0  0  1  0  0  0  0  0  0  0  0  0
    4.9767   -2.8482   -2.8351 C   0  0  0  0  0  0  0  0  0  0  0  0
    4.1183   -2.2536   -3.8168 O   0  0  0  0  0  0  0  0  0  0  0  0
    2.7224   -2.5965   -3.7032 C   0  0  0  0  0  0  0  0  0  0  0  0
    3.6844   -2.2400   -0.6280 C   0  0  1  0  0  0  0  0  0  0  0  0
    3.4640   -3.6436   -0.2409 N   0  0  0  0  0  0  0  0  0  0  0  0
    4.4159   -4.4639    0.2638 N   0  0  0  0  0  0  0  0  0  0  0  0
    3.7200   -5.5381    0.4990 C   0  0  0  0  0  0  0  0  0  0  0  0
    2.3876   -5.4257    0.1908 N   0  0  0  0  0  0  0  0  0  0  0  0
    2.2522   -4.2406   -0.3147 N   0  0  0  0  0  0  0  0  0  0  0  0
    3.5771   -1.2318    0.5112 C   0  0  1  0  0  0  0  0  0  0  0  0
    2.4284   -1.4455    1.3128 O   0  0  0  0  0  0  0  0  0  0  0  0
    4.8520   -1.1371    1.2877 C   0  0  2  0  0  0  0  0  0  0  0  0
    5.8082   -0.2573    0.6791 O   0  0  0  0  0  0  0  0  0  0  0  0
    6.1691   -1.6260    0.7168 C   0  0  2  0  0  0  0  0  0  0  0  0
    7.9380   -3.4463   -0.1406 H   0  0  0  0  0  0  0  0  0  0  0  0
    7.1512   -3.8369   -1.7531 H   0  0  0  0  0  0  0  0  0  0  0  0
    5.0528   -1.0083   -1.7809 H   0  0  0  0  0  0  0  0  0  0  0  0
    5.9649   -2.8160   -3.2942 H   0  0  0  0  0  0  0  0  0  0  0  0
    4.7525   -3.9141   -2.7189 H   0  0  0  0  0  0  0  0  0  0  0  0
    2.1230   -2.0866   -4.4723 H   0  0  0  0  0  0  0  0  0  0  0  0
    2.1870   -2.1986   -2.8914 H   0  0  0  0  0  0  0  0  0  0  0  0
    2.5562   -3.6930   -3.6804 H   0  0  0  0  0  0  0  0  0  0  0  0
    2.8000   -1.8815   -1.0749 H   0  0  0  0  0  0  0  0  0  0  0  0
    4.2196   -6.3841    0.9491 H   0  0  0  0  0  0  0  0  0  0  0  0
    3.4240   -0.2618    0.0361 H   0  0  0  0  0  0  0  0  0  0  0  0
    1.6858   -1.2640    0.7385 H   0  0  0  0  0  0  0  0  0  0  0  0
    4.7312   -1.0044    2.3604 H   0  0  0  0  0  0  0  0  0  0  0  0
    6.9537   -1.8761    1.4101 H   0  0  0  0  0  0  0  0  0  0  0  0
  1  2  2  0
  1 18  1  0
  1 19  1  0
  2 17  1  0
  2  3  1  0
  3  4  1  0
  3  7  1  0
  3 20  1  6
  4  5  1  0
  4 21  1  0
  4 22  1  0
  5  6  1  0
  6 23  1  0
  6 24  1  0
  6 25  1  0
  7  8  1  0
  7 13  1  0
  7 26  1  6
  8 12  1  0
  8  9  1  0
  9 10  2  0
 10 11  1  0
 10 27  1  0
 11 12  2  0
 13 14  1  0
 13 15  1  0
 13 28  1  6
 14 29  1  0
 15 17  1  0
 15 16  1  0
 15 30  1  1
 16 17  1  0
 17 31  1  1
M  END
>  <i_m_ct_stereo_status>  (219) 
1

>  <s_m_source_file>  (219) 
/var/tmp/pbs.5076255.sched01/tmpt7uccrld/92zpefy4ut.sdf

>  <i_m_source_file_index>  (219) 
4

>  <i_lp_mmshare_version>  (219) 
48012

>  <i_f3d_flags>  (219) 
0

>  <s_epik_input>  (219) 
W0NIM11PW0NIMl1bQ0BIXShDKD1bQ0gyXSlbQ0BASF0oTzEpW0NAQEhdMTIpW0NASF0oW0NASF0yW09IXSluM25bY0hdbm4z

>  <s_epik_cmdline>  (219) 
J2VwaWtfcHl0aG9uJywgJy1waHQnLCAnMi4wJywgJy1waCcsICc3LjAnLCAnLXRuJywgJzgnLCAnLW1hJywgJzIwMCcsICctaW1hZScsICc8aW5maWxlLm1hZT4nLCAnLW9tYWUnLCAnPG91dGZpbGUubWFlPic=

>  <r_lp_tautomer_probability>  (219) 
1

>  <r_epik_Ionization_Penalty>  (219) 
9.7515e-06

>  <r_epik_Ionization_Penalty_Charging>  (219) 
0

>  <r_epik_Ionization_Penalty_Neutral>  (219) 
9.7515e-06

>  <r_epik_State_Penalty>  (219) 
-0

>  <r_epik_Charging_Adjusted_Penalty>  (219) 
0

>  <i_epik_Tot_Q>  (219) 
0

>  <i_epik_Tot_abs_Q>  (219) 
0

>  <s_lp_Force_Field>  (219) 
OPLS3e

>  <r_lp_Energy>  (219) 
13.3048

>  <b_lp_Chiralities_Consistent>  (219) 
1

>  <s_lp_Variant>  (219) 
68:0-1

>  <s_i_glide_gridfile>  (219) 
pfpi4k_grid

>  <i_i_glide_lignum>  (219) 
4

>  <i_i_glide_rotatable_bonds>  (219) 
4

>  <r_i_docking_score>  (219) 
-4.16589

>  <r_i_glide_ligand_efficiency>  (219) 
-0.245052

>  <r_i_glide_ligand_efficiency_sa>  (219) 
-0.630099

>  <r_i_glide_ligand_efficiency_ln>  (219) 
-1.08679

>  <r_i_glide_gscore>  (219) 
-4.16589

>  <r_i_glide_lipo>  (219) 
-0.701859

>  <r_i_glide_hbond>  (219) 
-0.293945

>  <r_i_glide_metal>  (219) 
-0

>  <r_i_glide_rewards>  (219) 
-1.79451

>  <r_i_glide_evdw>  (219) 
-19.8042

>  <r_i_glide_ecoul>  (219) 
-5.78323

>  <r_i_glide_erotb>  (219) 
0.60806

>  <r_i_glide_esite>  (219) 
-0.125944

>  <r_i_glide_emodel>  (219) 
-29.9344

>  <r_i_glide_energy>  (219) 
-25.5875

>  <r_i_glide_einternal>  (219) 
3.15977

>  <r_i_glide_intrahb_reward>  (219) 
-0

>  <i_i_glide_confnum>  (219) 
2

>  <i_i_glide_posenum>  (219) 
11

>  <r_i_glide_eff_state_penalty>  (219) 
0

>  <ligand_id>  (219) 
68

>  <original_smiles>  (219) 
C=C1C(COC)C(n2ncnn2)C(O)C2OC12

>  <smiles>  (219) 
[H]OC1([H])C2([H])OC2([H])C(=C([H])[H])C([H])(C([H])([H])OC([H])([H])[H])C1([H])n1nnc([H])n1

$$$$
68:0:1
     RDKit          3D

 31 33  0  0  1  0  0  0  0  0999 V2000
    7.0719   -3.1595   -1.1494 C   0  0  0  0  0  0  0  0  0  0  0  0
    6.1078   -2.3149   -0.7745 C   0  0  0  0  0  0  0  0  0  0  0  0
    4.8255   -2.0311   -1.5684 C   0  0  1  0  0  0  0  0  0  0  0  0
    4.7143   -2.7639   -2.9335 C   0  0  0  0  0  0  0  0  0  0  0  0
    3.6097   -2.2924   -3.7055 O   0  0  0  0  0  0  0  0  0  0  0  0
    3.6965   -0.9425   -4.1466 C   0  0  0  0  0  0  0  0  0  0  0  0
    3.5701   -2.2601   -0.6775 C   0  0  1  0  0  0  0  0  0  0  0  0
    3.4059   -3.6481   -0.2311 N   0  0  0  0  0  0  0  0  0  0  0  0
    4.3876   -4.3571    0.3693 N   0  0  0  0  0  0  0  0  0  0  0  0
    3.7304   -5.4858    0.5962 C   0  0  0  0  0  0  0  0  0  0  0  0
    2.4187   -5.4429    0.2445 N   0  0  0  0  0  0  0  0  0  0  0  0
    2.2291   -4.2925   -0.3076 N   0  0  0  0  0  0  0  0  0  0  0  0
    3.5447   -1.2534    0.4969 C   0  0  1  0  0  0  0  0  0  0  0  0
    2.4974   -1.4941    1.4157 O   0  0  0  0  0  0  0  0  0  0  0  0
    4.8889   -1.1517    1.1931 C   0  0  2  0  0  0  0  0  0  0  0  0
    5.7923   -0.2567    0.5164 O   0  0  0  0  0  0  0  0  0  0  0  0
    6.1658   -1.6226    0.5330 C   0  0  2  0  0  0  0  0  0  0  0  0
    7.9333   -3.3475   -0.5210 H   0  0  0  0  0  0  0  0  0  0  0  0
    6.9948   -3.7167   -2.0718 H   0  0  0  0  0  0  0  0  0  0  0  0
    4.9161   -0.9593   -1.7507 H   0  0  0  0  0  0  0  0  0  0  0  0
    5.6266   -2.6513   -3.5192 H   0  0  0  0  0  0  0  0  0  0  0  0
    4.5853   -3.8388   -2.7794 H   0  0  0  0  0  0  0  0  0  0  0  0
    2.8318   -0.7138   -4.7737 H   0  0  0  0  0  0  0  0  0  0  0  0
    4.5998   -0.7842   -4.7345 H   0  0  0  0  0  0  0  0  0  0  0  0
    3.6851   -0.2349   -3.3181 H   0  0  0  0  0  0  0  0  0  0  0  0
    2.6991   -2.0499   -1.2934 H   0  0  0  0  0  0  0  0  0  0  0  0
    4.2209   -6.3391    1.0541 H   0  0  0  0  0  0  0  0  0  0  0  0
    3.3413   -0.2666    0.0811 H   0  0  0  0  0  0  0  0  0  0  0  0
    1.6876   -1.2640    0.9711 H   0  0  0  0  0  0  0  0  0  0  0  0
    4.8694   -1.0045    2.2692 H   0  0  0  0  0  0  0  0  0  0  0  0
    7.0338   -1.8432    1.1462 H   0  0  0  0  0  0  0  0  0  0  0  0
  1  2  2  0
  1 18  1  0
  1 19  1  0
  2 17  1  0
  2  3  1  0
  3  4  1  0
  3  7  1  0
  3 20  1  6
  4  5  1  0
  4 21  1  0
  4 22  1  0
  5  6  1  0
  6 23  1  0
  6 24  1  0
  6 25  1  0
  7  8  1  0
  7 13  1  0
  7 26  1  6
  8 12  1  0
  8  9  1  0
  9 10  2  0
 10 11  1  0
 10 27  1  0
 11 12  2  0
 13 14  1  0
 13 15  1  0
 13 28  1  6
 14 29  1  0
 15 17  1  0
 15 16  1  0
 15 30  1  1
 16 17  1  0
 17 31  1  1
M  END
>  <i_m_ct_stereo_status>  (220) 
1

>  <s_m_source_file>  (220) 
/var/tmp/pbs.5076255.sched01/tmpt7uccrld/92zpefy4ut.sdf

>  <i_m_source_file_index>  (220) 
4

>  <i_lp_mmshare_version>  (220) 
48012

>  <i_f3d_flags>  (220) 
0

>  <s_epik_input>  (220) 
W0NIM11PW0NIMl1bQ0BIXShDKD1bQ0gyXSlbQ0BASF0oTzEpW0NAQEhdMTIpW0NASF0oW0NASF0yW09IXSluM25bY0hdbm4z

>  <s_epik_cmdline>  (220) 
J2VwaWtfcHl0aG9uJywgJy1waHQnLCAnMi4wJywgJy1waCcsICc3LjAnLCAnLXRuJywgJzgnLCAnLW1hJywgJzIwMCcsICctaW1hZScsICc8aW5maWxlLm1hZT4nLCAnLW9tYWUnLCAnPG91dGZpbGUubWFlPic=

>  <r_lp_tautomer_probability>  (220) 
1

>  <r_epik_Ionization_Penalty>  (220) 
9.7515e-06

>  <r_epik_Ionization_Penalty_Charging>  (220) 
0

>  <r_epik_Ionization_Penalty_Neutral>  (220) 
9.7515e-06

>  <r_epik_State_Penalty>  (220) 
-0

>  <r_epik_Charging_Adjusted_Penalty>  (220) 
0

>  <i_epik_Tot_Q>  (220) 
0

>  <i_epik_Tot_abs_Q>  (220) 
0

>  <s_lp_Force_Field>  (220) 
OPLS3e

>  <r_lp_Energy>  (220) 
13.3048

>  <b_lp_Chiralities_Consistent>  (220) 
1

>  <s_lp_Variant>  (220) 
68:0-1

>  <s_i_glide_gridfile>  (220) 
pfpi4k_grid

>  <i_i_glide_lignum>  (220) 
4

>  <i_i_glide_rotatable_bonds>  (220) 
4

>  <r_i_docking_score>  (220) 
-3.45308

>  <r_i_glide_ligand_efficiency>  (220) 
-0.203122

>  <r_i_glide_ligand_efficiency_sa>  (220) 
-0.522285

>  <r_i_glide_ligand_efficiency_ln>  (220) 
-0.900832

>  <r_i_glide_gscore>  (220) 
-3.45308

>  <r_i_glide_lipo>  (220) 
-0.502495

>  <r_i_glide_hbond>  (220) 
-0.155198

>  <r_i_glide_metal>  (220) 
-0

>  <r_i_glide_rewards>  (220) 
-1.7939

>  <r_i_glide_evdw>  (220) 
-21.5307

>  <r_i_glide_ecoul>  (220) 
-2.7257

>  <r_i_glide_erotb>  (220) 
0.60806

>  <r_i_glide_esite>  (220) 
-0.124159

>  <r_i_glide_emodel>  (220) 
-28.9987

>  <r_i_glide_energy>  (220) 
-24.2564

>  <r_i_glide_einternal>  (220) 
2.49266

>  <r_i_glide_intrahb_reward>  (220) 
-0

>  <i_i_glide_confnum>  (220) 
6

>  <i_i_glide_posenum>  (220) 
17

>  <r_i_glide_eff_state_penalty>  (220) 
0

>  <ligand_id>  (220) 
68

>  <original_smiles>  (220) 
C=C1C(COC)C(n2ncnn2)C(O)C2OC12

>  <smiles>  (220) 
[H]OC1([H])C2([H])OC2([H])C(=C([H])[H])C([H])(C([H])([H])OC([H])([H])[H])C1([H])n1nnc([H])n1

$$$$
68:0:2
     RDKit          3D

 31 33  0  0  1  0  0  0  0  0999 V2000
    6.2608   -3.0727   -2.3343 C   0  0  0  0  0  0  0  0  0  0  0  0
    5.7594   -2.2991   -1.3579 C   0  0  0  0  0  0  0  0  0  0  0  0
    4.3169   -1.7814   -1.3055 C   0  0  1  0  0  0  0  0  0  0  0  0
    3.4574   -2.1495   -2.5451 C   0  0  0  0  0  0  0  0  0  0  0  0
    3.9759   -1.5514   -3.7364 O   0  0  0  0  0  0  0  0  0  0  0  0
    3.7596   -0.1485   -3.8413 C   0  0  0  0  0  0  0  0  0  0  0  0
    3.6602   -2.1658    0.0427 C   0  0  1  0  0  0  0  0  0  0  0  0
    3.5363   -3.6159    0.2202 N   0  0  0  0  0  0  0  0  0  0  0  0
    4.5892   -4.4374    0.4380 N   0  0  0  0  0  0  0  0  0  0  0  0
    3.9408   -5.5865    0.5727 C   0  0  0  0  0  0  0  0  0  0  0  0
    2.5876   -5.4790    0.4700 N   0  0  0  0  0  0  0  0  0  0  0  0
    2.3456   -4.2400    0.2091 N   0  0  0  0  0  0  0  0  0  0  0  0
    4.3894   -1.4668    1.2206 C   0  0  1  0  0  0  0  0  0  0  0  0
    3.9361   -1.9091    2.4881 O   0  0  0  0  0  0  0  0  0  0  0  0
    5.8996   -1.6021    1.1235 C   0  0  2  0  0  0  0  0  0  0  0  0
    6.4859   -0.6092    0.2628 O   0  0  0  0  0  0  0  0  0  0  0  0
    6.5832   -1.9533   -0.1792 C   0  0  2  0  0  0  0  0  0  0  0  0
    7.2814   -3.4283   -2.2985 H   0  0  0  0  0  0  0  0  0  0  0  0
    5.6684   -3.3850   -3.1802 H   0  0  0  0  0  0  0  0  0  0  0  0
    4.3882   -0.6961   -1.2511 H   0  0  0  0  0  0  0  0  0  0  0  0
    3.4289   -3.2347   -2.6773 H   0  0  0  0  0  0  0  0  0  0  0  0
    2.4183   -1.8502   -2.4064 H   0  0  0  0  0  0  0  0  0  0  0  0
    4.1813    0.2127   -4.7796 H   0  0  0  0  0  0  0  0  0  0  0  0
    4.2430    0.4150   -3.0452 H   0  0  0  0  0  0  0  0  0  0  0  0
    2.6949    0.0874   -3.8318 H   0  0  0  0  0  0  0  0  0  0  0  0
    2.6429   -1.7752    0.0357 H   0  0  0  0  0  0  0  0  0  0  0  0
    4.4609   -6.5136    0.7689 H   0  0  0  0  0  0  0  0  0  0  0  0
    4.1727   -0.3959    1.1711 H   0  0  0  0  0  0  0  0  0  0  0  0
    3.0170   -1.7007    2.5666 H   0  0  0  0  0  0  0  0  0  0  0  0
    6.4431   -1.7418    2.0533 H   0  0  0  0  0  0  0  0  0  0  0  0
    7.5917   -2.3568   -0.1687 H   0  0  0  0  0  0  0  0  0  0  0  0
  1  2  2  0
  1 18  1  0
  1 19  1  0
  2 17  1  0
  2  3  1  0
  3  4  1  0
  3  7  1  0
  3 20  1  1
  4  5  1  0
  4 21  1  0
  4 22  1  0
  5  6  1  0
  6 23  1  0
  6 24  1  0
  6 25  1  0
  7  8  1  0
  7 13  1  0
  7 26  1  6
  8 12  1  0
  8  9  1  0
  9 10  2  0
 10 11  1  0
 10 27  1  0
 11 12  2  0
 13 14  1  0
 13 15  1  0
 13 28  1  1
 14 29  1  0
 15 17  1  0
 15 16  1  0
 15 30  1  1
 16 17  1  0
 17 31  1  1
M  END
>  <i_m_ct_stereo_status>  (221) 
1

>  <s_m_source_file>  (221) 
/var/tmp/pbs.5076255.sched01/tmpt7uccrld/92zpefy4ut.sdf

>  <i_m_source_file_index>  (221) 
4

>  <i_lp_mmshare_version>  (221) 
48012

>  <i_f3d_flags>  (221) 
0

>  <s_epik_input>  (221) 
W0NIM11PW0NIMl1bQ0BIXShDKD1bQ0gyXSlbQ0BASF0oTzEpW0NAQEhdMTIpW0NASF0oW0NASF0yW09IXSluM25bY0hdbm4z

>  <s_epik_cmdline>  (221) 
J2VwaWtfcHl0aG9uJywgJy1waHQnLCAnMi4wJywgJy1waCcsICc3LjAnLCAnLXRuJywgJzgnLCAnLW1hJywgJzIwMCcsICctaW1hZScsICc8aW5maWxlLm1hZT4nLCAnLW9tYWUnLCAnPG91dGZpbGUubWFlPic=

>  <r_lp_tautomer_probability>  (221) 
1

>  <r_epik_Ionization_Penalty>  (221) 
9.7515e-06

>  <r_epik_Ionization_Penalty_Charging>  (221) 
0

>  <r_epik_Ionization_Penalty_Neutral>  (221) 
9.7515e-06

>  <r_epik_State_Penalty>  (221) 
-0

>  <r_epik_Charging_Adjusted_Penalty>  (221) 
0

>  <i_epik_Tot_Q>  (221) 
0

>  <i_epik_Tot_abs_Q>  (221) 
0

>  <s_lp_Force_Field>  (221) 
OPLS3e

>  <r_lp_Energy>  (221) 
13.3048

>  <b_lp_Chiralities_Consistent>  (221) 
1

>  <s_lp_Variant>  (221) 
68:0-1

>  <s_i_glide_gridfile>  (221) 
pfpi4k_grid

>  <i_i_glide_lignum>  (221) 
4

>  <i_i_glide_rotatable_bonds>  (221) 
4

>  <r_i_docking_score>  (221) 
-3.34646

>  <r_i_glide_ligand_efficiency>  (221) 
-0.196851

>  <r_i_glide_ligand_efficiency_sa>  (221) 
-0.506159

>  <r_i_glide_ligand_efficiency_ln>  (221) 
-0.873018

>  <r_i_glide_gscore>  (221) 
-3.34646

>  <r_i_glide_lipo>  (221) 
-0.470717

>  <r_i_glide_hbond>  (221) 
-0.0107272

>  <r_i_glide_metal>  (221) 
-0

>  <r_i_glide_rewards>  (221) 
-1.83961

>  <r_i_glide_evdw>  (221) 
-20.7973

>  <r_i_glide_ecoul>  (221) 
-3.31544

>  <r_i_glide_erotb>  (221) 
0.60806

>  <r_i_glide_esite>  (221) 
-0.0962936

>  <r_i_glide_emodel>  (221) 
-29.3124

>  <r_i_glide_energy>  (221) 
-24.1127

>  <r_i_glide_einternal>  (221) 
1.83575

>  <r_i_glide_intrahb_reward>  (221) 
-0

>  <i_i_glide_confnum>  (221) 
5

>  <i_i_glide_posenum>  (221) 
26

>  <r_i_glide_eff_state_penalty>  (221) 
0

>  <ligand_id>  (221) 
68

>  <original_smiles>  (221) 
C=C1C(COC)C(n2ncnn2)C(O)C2OC12

>  <smiles>  (221) 
[H]OC1([H])C2([H])OC2([H])C(=C([H])[H])C([H])(C([H])([H])OC([H])([H])[H])C1([H])n1nnc([H])n1

$$$$
69:0:0
     RDKit          3D

 78 84  0  0  1  0  0  0  0  0999 V2000
   -0.1366    4.3586    3.7372 C   0  0  0  0  0  0  0  0  0  0  0  0
   -0.2104    3.2784    4.8232 C   0  0  2  0  0  0  0  0  0  0  0  0
    1.0456    2.8815    5.5757 C   0  0  1  0  0  0  0  0  0  0  0  0
    0.5435    2.4148    7.0220 C   0  0  0  0  0  0  0  0  0  0  0  0
   -0.9648    2.0051    7.1742 C   0  0  0  0  0  0  0  0  0  0  0  0
   -1.5689    1.4852    5.8870 C   0  0  2  0  0  0  0  0  0  0  0  0
   -0.8113    0.5318    5.1639 C   0  0  0  0  0  0  0  0  0  0  0  0
   -0.9863    1.9914    4.5703 C   0  0  1  0  0  0  0  0  0  0  0  0
   -0.8955    1.4249    3.2801 O   0  0  0  0  0  0  0  0  0  0  0  0
    0.4167    1.3746    2.6975 C   0  0  0  0  0  0  0  0  0  0  0  0
    1.5639    0.9848    3.6603 C   0  0  0  0  0  0  0  0  0  0  0  0
    2.1783   -0.2296    3.5181 C   0  0  0  0  0  0  0  0  0  0  0  0
    1.8569   -1.2978    2.4922 C   0  0  0  0  0  0  0  0  0  0  0  0
    3.0769   -2.2595    2.4766 C   0  0  1  0  0  0  0  0  0  0  0  0
    3.4232   -2.8229    1.0652 C   0  0  2  0  0  0  0  0  0  0  0  0
    4.2205   -4.1575    1.1025 C   0  0  0  0  0  0  0  0  0  0  0  0
    4.5120   -4.7122   -0.2969 C   0  0  0  0  0  0  0  0  0  0  0  0
    5.1172   -3.6593   -1.2382 C   0  0  1  0  0  0  0  0  0  0  0  0
    5.1951   -4.2052   -2.5350 O   0  0  0  0  0  0  0  0  0  0  0  0
    4.2908   -2.3547   -1.3057 C   0  0  0  0  0  0  0  0  0  0  0  0
    4.9867   -1.3512   -2.2455 C   0  0  0  0  0  0  0  0  0  0  0  0
    2.9203   -2.6320   -1.9740 C   0  0  0  0  0  0  0  0  0  0  0  0
    4.1168   -1.7753    0.1468 C   0  0  2  0  0  0  0  0  0  0  0  0
    5.3771   -1.2601    0.9083 C   0  0  1  0  0  0  0  0  0  0  0  0
    6.1281   -0.3123    0.1858 O   0  0  0  0  0  0  0  0  0  0  0  0
    4.9728   -0.5782    2.2355 C   0  0  0  0  0  0  0  0  0  0  0  0
    4.2116   -1.5085    3.2260 C   0  0  2  0  0  0  0  0  0  0  0  0
    5.1693   -2.4592    3.9598 C   0  0  0  0  0  0  0  0  0  0  0  0
    3.3849   -0.7252    4.2767 C   0  0  1  0  0  0  0  0  0  0  0  0
    4.0461    0.4027    5.0635 C   0  0  0  0  0  0  0  0  0  0  0  0
    5.2532    0.5253    5.2141 O   0  0  0  0  0  0  0  0  0  0  0  0
    3.0443    1.3289    5.7308 C   0  0  0  0  0  0  0  0  0  0  0  0
    2.0968    2.0228    4.7183 C   0  0  2  0  0  0  0  0  0  0  0  0
    2.9850    3.0149    3.9264 C   0  0  0  0  0  0  0  0  0  0  0  0
    0.4718    4.1108    2.8763 H   0  0  0  0  0  0  0  0  0  0  0  0
    0.3044    5.2590    4.1530 H   0  0  0  0  0  0  0  0  0  0  0  0
   -1.1223    4.6093    3.3622 H   0  0  0  0  0  0  0  0  0  0  0  0
   -0.8160    3.8456    5.5309 H   0  0  0  0  0  0  0  0  0  0  0  0
    1.5628    3.8141    5.8059 H   0  0  0  0  0  0  0  0  0  0  0  0
    1.1317    1.6107    7.4548 H   0  0  0  0  0  0  0  0  0  0  0  0
    0.6802    3.2565    7.7111 H   0  0  0  0  0  0  0  0  0  0  0  0
   -1.1103    1.2632    7.9638 H   0  0  0  0  0  0  0  0  0  0  0  0
   -1.5662    2.8711    7.4604 H   0  0  0  0  0  0  0  0  0  0  0  0
   -2.6269    1.3679    5.9200 H   0  0  0  0  0  0  0  0  0  0  0  0
    0.1108    0.2013    5.6398 H   0  0  0  0  0  0  0  0  0  0  0  0
   -1.3862   -0.2784    4.7046 H   0  0  0  0  0  0  0  0  0  0  0  0
    0.2886    0.6281    1.9161 H   0  0  0  0  0  0  0  0  0  0  0  0
    0.6733    2.2607    2.1224 H   0  0  0  0  0  0  0  0  0  0  0  0
    0.9562   -1.8484    2.7824 H   0  0  0  0  0  0  0  0  0  0  0  0
    1.6951   -0.8706    1.4993 H   0  0  0  0  0  0  0  0  0  0  0  0
    2.7913   -3.1112    3.1001 H   0  0  0  0  0  0  0  0  0  0  0  0
    2.4529   -3.0671    0.6417 H   0  0  0  0  0  0  0  0  0  0  0  0
    5.1727   -4.0398    1.6098 H   0  0  0  0  0  0  0  0  0  0  0  0
    3.6681   -4.8982    1.6836 H   0  0  0  0  0  0  0  0  0  0  0  0
    5.1816   -5.5675   -0.2130 H   0  0  0  0  0  0  0  0  0  0  0  0
    3.5878   -5.1020   -0.7134 H   0  0  0  0  0  0  0  0  0  0  0  0
    6.1291   -3.4338   -0.8979 H   0  0  0  0  0  0  0  0  0  0  0  0
    4.4539   -4.7879   -2.6676 H   0  0  0  0  0  0  0  0  0  0  0  0
    4.5903   -0.3418   -2.1176 H   0  0  0  0  0  0  0  0  0  0  0  0
    4.8543   -1.6182   -3.2954 H   0  0  0  0  0  0  0  0  0  0  0  0
    6.0609   -1.3338   -2.0756 H   0  0  0  0  0  0  0  0  0  0  0  0
    2.2838   -1.7442   -1.9709 H   0  0  0  0  0  0  0  0  0  0  0  0
    2.3481   -3.4108   -1.4816 H   0  0  0  0  0  0  0  0  0  0  0  0
    3.0192   -2.9375   -3.0155 H   0  0  0  0  0  0  0  0  0  0  0  0
    3.4521   -0.9176    0.0423 H   0  0  0  0  0  0  0  0  0  0  0  0
    6.0686   -2.0746    1.1219 H   0  0  0  0  0  0  0  0  0  0  0  0
    5.5632    0.4090   -0.0732 H   0  0  0  0  0  0  0  0  0  0  0  0
    5.8624   -0.1765    2.7203 H   0  0  0  0  0  0  0  0  0  0  0  0
    4.3524    0.2881    1.9923 H   0  0  0  0  0  0  0  0  0  0  0  0
    5.7985   -1.9292    4.6705 H   0  0  0  0  0  0  0  0  0  0  0  0
    5.8385   -2.9532    3.2725 H   0  0  0  0  0  0  0  0  0  0  0  0
    4.6382   -3.2277    4.5160 H   0  0  0  0  0  0  0  0  0  0  0  0
    3.0011   -1.4380    5.0084 H   0  0  0  0  0  0  0  0  0  0  0  0
    2.4751    0.6613    6.3723 H   0  0  0  0  0  0  0  0  0  0  0  0
    3.5503    2.0564    6.3698 H   0  0  0  0  0  0  0  0  0  0  0  0
    3.5074    3.7173    4.5793 H   0  0  0  0  0  0  0  0  0  0  0  0
    2.4564    3.5948    3.1787 H   0  0  0  0  0  0  0  0  0  0  0  0
    3.7556    2.4762    3.3749 H   0  0  0  0  0  0  0  0  0  0  0  0
  1  2  1  0
  1 35  1  0
  1 36  1  0
  1 37  1  0
  2  8  1  0
  2  3  1  0
  2 38  1  1
  3 33  1  0
  3  4  1  0
  3 39  1  1
  4  5  1  0
  4 40  1  0
  4 41  1  0
  5  6  1  0
  5 42  1  0
  5 43  1  0
  6  8  1  0
  6  7  1  0
  6 44  1  1
  7  8  1  0
  7 45  1  0
  7 46  1  0
  8  9  1  6
  9 10  1  0
 10 11  1  0
 10 47  1  0
 10 48  1  0
 11 33  1  0
 11 12  2  0
 12 29  1  0
 12 13  1  0
 13 14  1  0
 13 49  1  0
 13 50  1  0
 14 27  1  0
 14 15  1  0
 14 51  1  1
 15 23  1  0
 15 16  1  0
 15 52  1  6
 16 17  1  0
 16 53  1  0
 16 54  1  0
 17 18  1  0
 17 55  1  0
 17 56  1  0
 18 19  1  0
 18 20  1  0
 18 57  1  1
 19 58  1  0
 20 21  1  0
 20 22  1  0
 20 23  1  0
 21 59  1  0
 21 60  1  0
 21 61  1  0
 22 62  1  0
 22 63  1  0
 22 64  1  0
 23 24  1  0
 23 65  1  6
 24 25  1  0
 24 26  1  0
 24 66  1  1
 25 67  1  0
 26 27  1  0
 26 68  1  0
 26 69  1  0
 27 28  1  1
 27 29  1  0
 28 70  1  0
 28 71  1  0
 28 72  1  0
 29 30  1  0
 29 73  1  1
 30 31  2  0
 30 32  1  0
 32 33  1  0
 32 74  1  0
 32 75  1  0
 33 34  1  6
 34 76  1  0
 34 77  1  0
 34 78  1  0
M  END
>  <i_m_ct_stereo_status>  (222) 
1

>  <s_m_source_file>  (222) 
/var/tmp/pbs.5076255.sched01/tmpt7uccrld/92zpefy4ut.sdf

>  <i_m_source_file_index>  (222) 
5

>  <i_lp_mmshare_version>  (222) 
48012

>  <i_f3d_flags>  (222) 
0

>  <s_epik_input>  (222) 
W0NIMl0xW0NASF0oW0NAXTEyMylbQ0gyXVtDSDJdW0NASF0oW0NASF0yW0NIM10pW0NAXTQoW0NIM10pQyhbQ0gyXU8zKT1DNVtDQEhdKEMoPU8pW0NIMl00KVtDQEBdNihbQ0gzXSlbQ0BASF0oW0NIMl01KVtDQEhdN1tDQEBIXShbQ0BASF0oW09IXSlbQ0gyXTYpQyhbQ0gzXSkoW0NIM10pW0NASF0oW09IXSlbQ0gyXVtDSDJdNw==

>  <s_epik_cmdline>  (222) 
J2VwaWtfcHl0aG9uJywgJy1waHQnLCAnMi4wJywgJy1waCcsICc3LjAnLCAnLXRuJywgJzgnLCAnLW1hJywgJzIwMCcsICctaW1hZScsICc8aW5maWxlLm1hZT4nLCAnLW9tYWUnLCAnPG91dGZpbGUubWFlPic=

>  <r_lp_tautomer_probability>  (222) 
1

>  <r_epik_Ionization_Penalty>  (222) 
2.96872e-06

>  <r_epik_Ionization_Penalty_Charging>  (222) 
0

>  <r_epik_Ionization_Penalty_Neutral>  (222) 
2.96872e-06

>  <r_epik_State_Penalty>  (222) 
-0

>  <r_epik_Charging_Adjusted_Penalty>  (222) 
0

>  <i_epik_Tot_Q>  (222) 
0

>  <i_epik_Tot_abs_Q>  (222) 
0

>  <s_lp_Force_Field>  (222) 
OPLS3e

>  <r_lp_Energy>  (222) 
117.881

>  <b_lp_Chiralities_Consistent>  (222) 
1

>  <s_lp_Variant>  (222) 
69:0-1

>  <s_i_glide_gridfile>  (222) 
pfpi4k_grid

>  <i_i_glide_lignum>  (222) 
5

>  <i_i_glide_rotatable_bonds>  (222) 
2

>  <r_i_docking_score>  (222) 
-3.45623

>  <r_i_glide_ligand_efficiency>  (222) 
-0.101654

>  <r_i_glide_ligand_efficiency_sa>  (222) 
-0.329319

>  <r_i_glide_ligand_efficiency_ln>  (222) 
-0.763579

>  <r_i_glide_gscore>  (222) 
-3.45623

>  <r_i_glide_lipo>  (222) 
-0.352855

>  <r_i_glide_hbond>  (222) 
-0.56439

>  <r_i_glide_metal>  (222) 
-0

>  <r_i_glide_rewards>  (222) 
-0.216373

>  <r_i_glide_evdw>  (222) 
-28.0307

>  <r_i_glide_ecoul>  (222) 
-6.14054

>  <r_i_glide_erotb>  (222) 
0

>  <r_i_glide_esite>  (222) 
0

>  <r_i_glide_emodel>  (222) 
-39.5271

>  <r_i_glide_energy>  (222) 
-34.1712

>  <r_i_glide_einternal>  (222) 
0.538679

>  <r_i_glide_intrahb_reward>  (222) 
-0

>  <i_i_glide_confnum>  (222) 
1

>  <i_i_glide_posenum>  (222) 
23

>  <r_i_glide_eff_state_penalty>  (222) 
0

>  <ligand_id>  (222) 
69

>  <original_smiles>  (222) 
CC1C2CCC3CC31OCC1=C3CC4C5CCC(O)C(C)(C)C5C(O)CC4(C)C3C(=O)CC12C

>  <smiles>  (222) 
[H]OC1([H])C([H])([H])C2(C([H])([H])[H])C3([H])C(=O)C([H])([H])C4(C([H])([H])[H])C(=C3C([H])([H])C2([H])C2([H])C([H])([H])C([H])([H])C([H])(O[H])C(C([H])([H])[H])(C([H])([H])[H])C12[H])C([H])([H])OC12C([H])([H])C1([H])C([H])([H])C([H])([H])C4([H])C2([H])C([H])([H])[H]

$$$$
69:0:1
     RDKit          3D

 78 84  0  0  1  0  0  0  0  0999 V2000
    0.8445    5.0579    3.8325 C   0  0  0  0  0  0  0  0  0  0  0  0
    0.2498    4.0018    4.7857 C   0  0  2  0  0  0  0  0  0  0  0  0
    1.1565    3.2387    5.7274 C   0  0  1  0  0  0  0  0  0  0  0  0
    0.2378    2.8931    6.9895 C   0  0  0  0  0  0  0  0  0  0  0  0
   -1.3305    2.9174    6.8036 C   0  0  0  0  0  0  0  0  0  0  0  0
   -1.7705    2.6451    5.3746 C   0  0  2  0  0  0  0  0  0  0  0  0
   -1.1353    1.5399    4.7372 C   0  0  0  0  0  0  0  0  0  0  0  0
   -0.7832    3.0077    4.2705 C   0  0  1  0  0  0  0  0  0  0  0  0
   -0.5519    2.4502    2.9883 O   0  0  0  0  0  0  0  0  0  0  0  0
    0.7921    2.0854    2.6685 C   0  0  0  0  0  0  0  0  0  0  0  0
    1.5581    1.3436    3.7975 C   0  0  0  0  0  0  0  0  0  0  0  0
    1.8501    0.0293    3.6604 C   0  0  0  0  0  0  0  0  0  0  0  0
    1.4927   -0.8725    2.4927 C   0  0  0  0  0  0  0  0  0  0  0  0
    2.3827   -2.1375    2.6241 C   0  0  1  0  0  0  0  0  0  0  0  0
    2.8580   -2.7088    1.2585 C   0  0  2  0  0  0  0  0  0  0  0  0
    3.2380   -4.2176    1.3275 C   0  0  0  0  0  0  0  0  0  0  0  0
    3.6633   -4.7724   -0.0332 C   0  0  0  0  0  0  0  0  0  0  0  0
    4.7232   -3.8931   -0.7239 C   0  0  1  0  0  0  0  0  0  0  0  0
    4.9647   -4.3533   -2.0247 O   0  0  0  0  0  0  0  0  0  0  0  0
    4.3078   -2.4157   -0.8238 C   0  0  0  0  0  0  0  0  0  0  0  0
    5.4149   -1.6093   -1.5288 C   0  0  0  0  0  0  0  0  0  0  0  0
    3.0766   -2.2569   -1.7728 C   0  0  0  0  0  0  0  0  0  0  0  0
    3.9804   -1.8626    0.6030 C   0  0  2  0  0  0  0  0  0  0  0  0
    5.1418   -1.7630    1.6384 C   0  0  1  0  0  0  0  0  0  0  0  0
    6.2536   -1.0515    1.1729 O   0  0  0  0  0  0  0  0  0  0  0  0
    4.6601   -1.0378    2.9134 C   0  0  0  0  0  0  0  0  0  0  0  0
    3.4934   -1.7622    3.6497 C   0  0  2  0  0  0  0  0  0  0  0  0
    4.0085   -2.9701    4.4624 C   0  0  0  0  0  0  0  0  0  0  0  0
    2.6906   -0.8244    4.5844 C   0  0  1  0  0  0  0  0  0  0  0  0
    3.4395    0.0509    5.5879 C   0  0  0  0  0  0  0  0  0  0  0  0
    4.5650   -0.1765    5.9927 O   0  0  0  0  0  0  0  0  0  0  0  0
    2.5982    1.1909    6.1344 C   0  0  0  0  0  0  0  0  0  0  0  0
    2.1073    2.1574    5.0265 C   0  0  2  0  0  0  0  0  0  0  0  0
    3.3812    2.8934    4.5239 C   0  0  0  0  0  0  0  0  0  0  0  0
    1.5221    4.7004    3.0792 H   0  0  0  0  0  0  0  0  0  0  0  0
    1.4076    5.7844    4.4215 H   0  0  0  0  0  0  0  0  0  0  0  0
    0.0568    5.6044    3.3176 H   0  0  0  0  0  0  0  0  0  0  0  0
   -0.3146    4.6905    5.4179 H   0  0  0  0  0  0  0  0  0  0  0  0
    1.8414    3.9812    6.1476 H   0  0  0  0  0  0  0  0  0  0  0  0
    0.4853    1.9403    7.4518 H   0  0  0  0  0  0  0  0  0  0  0  0
    0.4462    3.6264    7.7718 H   0  0  0  0  0  0  0  0  0  0  0  0
   -1.8288    2.2102    7.4703 H   0  0  0  0  0  0  0  0  0  0  0  0
   -1.7209    3.9059    7.0604 H   0  0  0  0  0  0  0  0  0  0  0  0
   -2.8222    2.8154    5.1463 H   0  0  0  0  0  0  0  0  0  0  0  0
   -0.4616    0.9616    5.3679 H   0  0  0  0  0  0  0  0  0  0  0  0
   -1.7842    0.9251    4.1007 H   0  0  0  0  0  0  0  0  0  0  0  0
    0.6394    1.4362    1.8099 H   0  0  0  0  0  0  0  0  0  0  0  0
    1.3868    2.8831    2.2470 H   0  0  0  0  0  0  0  0  0  0  0  0
    0.4324   -1.1509    2.5524 H   0  0  0  0  0  0  0  0  0  0  0  0
    1.6535   -0.3770    1.5282 H   0  0  0  0  0  0  0  0  0  0  0  0
    1.7482   -2.8938    3.0921 H   0  0  0  0  0  0  0  0  0  0  0  0
    1.9679   -2.6561    0.6349 H   0  0  0  0  0  0  0  0  0  0  0  0
    4.0571   -4.3933    2.0186 H   0  0  0  0  0  0  0  0  0  0  0  0
    2.3939   -4.7983    1.7125 H   0  0  0  0  0  0  0  0  0  0  0  0
    4.0532   -5.7829    0.0955 H   0  0  0  0  0  0  0  0  0  0  0  0
    2.7781   -4.8783   -0.6553 H   0  0  0  0  0  0  0  0  0  0  0  0
    5.6525   -3.9657   -0.1623 H   0  0  0  0  0  0  0  0  0  0  0  0
    4.2838   -4.9488   -2.2656 H   0  0  0  0  0  0  0  0  0  0  0  0
    5.2845   -0.5316   -1.3851 H   0  0  0  0  0  0  0  0  0  0  0  0
    5.4328   -1.7941   -2.6041 H   0  0  0  0  0  0  0  0  0  0  0  0
    6.4024   -1.8949   -1.1635 H   0  0  0  0  0  0  0  0  0  0  0  0
    2.7080   -1.2307   -1.7625 H   0  0  0  0  0  0  0  0  0  0  0  0
    2.2428   -2.8970   -1.4997 H   0  0  0  0  0  0  0  0  0  0  0  0
    3.3029   -2.4947   -2.8166 H   0  0  0  0  0  0  0  0  0  0  0  0
    3.6074   -0.8508    0.4529 H   0  0  0  0  0  0  0  0  0  0  0  0
    5.5212   -2.7510    1.9003 H   0  0  0  0  0  0  0  0  0  0  0  0
    5.9937   -0.1664    0.9587 H   0  0  0  0  0  0  0  0  0  0  0  0
    5.5000   -0.9203    3.5986 H   0  0  0  0  0  0  0  0  0  0  0  0
    4.3591   -0.0208    2.6447 H   0  0  0  0  0  0  0  0  0  0  0  0
    4.5762   -2.6569    5.3328 H   0  0  0  0  0  0  0  0  0  0  0  0
    4.6667   -3.6119    3.8901 H   0  0  0  0  0  0  0  0  0  0  0  0
    3.1802   -3.5821    4.8234 H   0  0  0  0  0  0  0  0  0  0  0  0
    1.9766   -1.4275    5.1519 H   0  0  0  0  0  0  0  0  0  0  0  0
    1.7473    0.6913    6.5839 H   0  0  0  0  0  0  0  0  0  0  0  0
    3.1281    1.7246    6.9257 H   0  0  0  0  0  0  0  0  0  0  0  0
    3.9148    3.4007    5.3349 H   0  0  0  0  0  0  0  0  0  0  0  0
    3.1994    3.6227    3.7398 H   0  0  0  0  0  0  0  0  0  0  0  0
    4.0951    2.1920    4.0836 H   0  0  0  0  0  0  0  0  0  0  0  0
  1  2  1  0
  1 35  1  0
  1 36  1  0
  1 37  1  0
  2  8  1  0
  2  3  1  0
  2 38  1  1
  3 33  1  0
  3  4  1  0
  3 39  1  1
  4  5  1  0
  4 40  1  0
  4 41  1  0
  5  6  1  0
  5 42  1  0
  5 43  1  0
  6  8  1  0
  6  7  1  0
  6 44  1  6
  7  8  1  0
  7 45  1  0
  7 46  1  0
  8  9  1  6
  9 10  1  0
 10 11  1  0
 10 47  1  0
 10 48  1  0
 11 33  1  0
 11 12  2  0
 12 29  1  0
 12 13  1  0
 13 14  1  0
 13 49  1  0
 13 50  1  0
 14 27  1  0
 14 15  1  0
 14 51  1  1
 15 23  1  0
 15 16  1  0
 15 52  1  6
 16 17  1  0
 16 53  1  0
 16 54  1  0
 17 18  1  0
 17 55  1  0
 17 56  1  0
 18 19  1  0
 18 20  1  0
 18 57  1  1
 19 58  1  0
 20 21  1  0
 20 22  1  0
 20 23  1  0
 21 59  1  0
 21 60  1  0
 21 61  1  0
 22 62  1  0
 22 63  1  0
 22 64  1  0
 23 24  1  0
 23 65  1  6
 24 25  1  0
 24 26  1  0
 24 66  1  1
 25 67  1  0
 26 27  1  0
 26 68  1  0
 26 69  1  0
 27 28  1  1
 27 29  1  0
 28 70  1  0
 28 71  1  0
 28 72  1  0
 29 30  1  0
 29 73  1  1
 30 31  2  0
 30 32  1  0
 32 33  1  0
 32 74  1  0
 32 75  1  0
 33 34  1  6
 34 76  1  0
 34 77  1  0
 34 78  1  0
M  END
>  <i_m_ct_stereo_status>  (223) 
1

>  <s_m_source_file>  (223) 
/var/tmp/pbs.5076255.sched01/tmpt7uccrld/92zpefy4ut.sdf

>  <i_m_source_file_index>  (223) 
5

>  <i_lp_mmshare_version>  (223) 
48012

>  <i_f3d_flags>  (223) 
0

>  <s_epik_input>  (223) 
W0NIMl0xW0NASF0oW0NAXTEyMylbQ0gyXVtDSDJdW0NASF0oW0NASF0yW0NIM10pW0NAXTQoW0NIM10pQyhbQ0gyXU8zKT1DNVtDQEhdKEMoPU8pW0NIMl00KVtDQEBdNihbQ0gzXSlbQ0BASF0oW0NIMl01KVtDQEhdN1tDQEBIXShbQ0BASF0oW09IXSlbQ0gyXTYpQyhbQ0gzXSkoW0NIM10pW0NASF0oW09IXSlbQ0gyXVtDSDJdNw==

>  <s_epik_cmdline>  (223) 
J2VwaWtfcHl0aG9uJywgJy1waHQnLCAnMi4wJywgJy1waCcsICc3LjAnLCAnLXRuJywgJzgnLCAnLW1hJywgJzIwMCcsICctaW1hZScsICc8aW5maWxlLm1hZT4nLCAnLW9tYWUnLCAnPG91dGZpbGUubWFlPic=

>  <r_lp_tautomer_probability>  (223) 
1

>  <r_epik_Ionization_Penalty>  (223) 
2.96872e-06

>  <r_epik_Ionization_Penalty_Charging>  (223) 
0

>  <r_epik_Ionization_Penalty_Neutral>  (223) 
2.96872e-06

>  <r_epik_State_Penalty>  (223) 
-0

>  <r_epik_Charging_Adjusted_Penalty>  (223) 
0

>  <i_epik_Tot_Q>  (223) 
0

>  <i_epik_Tot_abs_Q>  (223) 
0

>  <s_lp_Force_Field>  (223) 
OPLS3e

>  <r_lp_Energy>  (223) 
117.881

>  <b_lp_Chiralities_Consistent>  (223) 
1

>  <s_lp_Variant>  (223) 
69:0-1

>  <s_i_glide_gridfile>  (223) 
pfpi4k_grid

>  <i_i_glide_lignum>  (223) 
5

>  <i_i_glide_rotatable_bonds>  (223) 
2

>  <r_i_docking_score>  (223) 
-2.94942

>  <r_i_glide_ligand_efficiency>  (223) 
-0.0867478

>  <r_i_glide_ligand_efficiency_sa>  (223) 
-0.281029

>  <r_i_glide_ligand_efficiency_ln>  (223) 
-0.651611

>  <r_i_glide_gscore>  (223) 
-2.94942

>  <r_i_glide_lipo>  (223) 
-0.235033

>  <r_i_glide_hbond>  (223) 
-0.32

>  <r_i_glide_metal>  (223) 
-0

>  <r_i_glide_rewards>  (223) 
-0.213628

>  <r_i_glide_evdw>  (223) 
-30.6123

>  <r_i_glide_ecoul>  (223) 
-4.33434

>  <r_i_glide_erotb>  (223) 
0

>  <r_i_glide_esite>  (223) 
0

>  <r_i_glide_emodel>  (223) 
-38.9302

>  <r_i_glide_energy>  (223) 
-34.9466

>  <r_i_glide_einternal>  (223) 
0.977497

>  <r_i_glide_intrahb_reward>  (223) 
-0

>  <i_i_glide_confnum>  (223) 
2

>  <i_i_glide_posenum>  (223) 
18

>  <r_i_glide_eff_state_penalty>  (223) 
0

>  <ligand_id>  (223) 
69

>  <original_smiles>  (223) 
CC1C2CCC3CC31OCC1=C3CC4C5CCC(O)C(C)(C)C5C(O)CC4(C)C3C(=O)CC12C

>  <smiles>  (223) 
[H]OC1([H])C([H])([H])C2(C([H])([H])[H])C3([H])C(=O)C([H])([H])C4(C([H])([H])[H])C(=C3C([H])([H])C2([H])C2([H])C([H])([H])C([H])([H])C([H])(O[H])C(C([H])([H])[H])(C([H])([H])[H])C12[H])C([H])([H])OC12C([H])([H])C1([H])C([H])([H])C([H])([H])C4([H])C2([H])C([H])([H])[H]

$$$$
69:0:2
     RDKit          3D

 78 84  0  0  1  0  0  0  0  0999 V2000
    5.4205   -0.4656    4.6622 C   0  0  0  0  0  0  0  0  0  0  0  0
    4.1898   -0.3972    3.7544 C   0  0  2  0  0  0  0  0  0  0  0  0
    2.8215   -0.6588    4.3422 C   0  0  1  0  0  0  0  0  0  0  0  0
    1.8203    0.2041    3.4441 C   0  0  0  0  0  0  0  0  0  0  0  0
    2.3090    0.6627    2.0130 C   0  0  0  0  0  0  0  0  0  0  0  0
    3.3537   -0.2629    1.3999 C   0  0  2  0  0  0  0  0  0  0  0  0
    3.0521   -1.6528    1.4966 C   0  0  0  0  0  0  0  0  0  0  0  0
    4.2176   -1.0564    2.3792 C   0  0  1  0  0  0  0  0  0  0  0  0
    4.8826   -2.3017    2.2868 O   0  0  0  0  0  0  0  0  0  0  0  0
    4.5988   -3.2496    3.3273 C   0  0  0  0  0  0  0  0  0  0  0  0
    3.1268   -3.3300    3.8076 C   0  0  0  0  0  0  0  0  0  0  0  0
    2.3902   -4.4410    3.5298 C   0  0  0  0  0  0  0  0  0  0  0  0
    2.8259   -5.6668    2.7482 C   0  0  0  0  0  0  0  0  0  0  0  0
    1.7876   -6.7795    3.0680 C   0  0  1  0  0  0  0  0  0  0  0  0
    2.4062   -8.2022    3.1717 C   0  0  2  0  0  0  0  0  0  0  0  0
    1.3841   -9.3439    2.9186 C   0  0  0  0  0  0  0  0  0  0  0  0
    2.0241  -10.7331    2.9800 C   0  0  0  0  0  0  0  0  0  0  0  0
    2.8589  -10.9506    4.2483 C   0  0  1  0  0  0  0  0  0  0  0  0
    3.4947  -12.2064    4.1395 O   0  0  0  0  0  0  0  0  0  0  0  0
    3.9122   -9.8287    4.4714 C   0  0  0  0  0  0  0  0  0  0  0  0
    4.7060  -10.1007    5.7740 C   0  0  0  0  0  0  0  0  0  0  0  0
    4.9857   -9.8316    3.3412 C   0  0  0  0  0  0  0  0  0  0  0  0
    3.1853   -8.4308    4.5001 C   0  0  2  0  0  0  0  0  0  0  0  0
    2.2042   -8.1172    5.6718 C   0  0  1  0  0  0  0  0  0  0  0  0
    2.7871   -8.2579    6.9453 O   0  0  0  0  0  0  0  0  0  0  0  0
    1.7461   -6.6438    5.6093 C   0  0  0  0  0  0  0  0  0  0  0  0
    0.9887   -6.2734    4.3052 C   0  0  2  0  0  0  0  0  0  0  0  0
   -0.4674   -6.7870    4.3438 C   0  0  0  0  0  0  0  0  0  0  0  0
    0.9975   -4.7486    4.0306 C   0  0  1  0  0  0  0  0  0  0  0  0
    0.5725   -3.7757    5.1292 C   0  0  0  0  0  0  0  0  0  0  0  0
   -0.1344   -4.0726    6.0800 O   0  0  0  0  0  0  0  0  0  0  0  0
    1.0038   -2.3451    4.8547 C   0  0  0  0  0  0  0  0  0  0  0  0
    2.5401   -2.1923    4.7263 C   0  0  2  0  0  0  0  0  0  0  0  0
    3.1056   -2.4580    6.1537 C   0  0  0  0  0  0  0  0  0  0  0  0
    5.6587   -1.4283    5.0809 H   0  0  0  0  0  0  0  0  0  0  0  0
    5.2847    0.2075    5.5075 H   0  0  0  0  0  0  0  0  0  0  0  0
    6.2992   -0.1250    4.1207 H   0  0  0  0  0  0  0  0  0  0  0  0
    4.2281    0.6777    3.5594 H   0  0  0  0  0  0  0  0  0  0  0  0
    2.7984   -0.1270    5.2967 H   0  0  0  0  0  0  0  0  0  0  0  0
    0.8420   -0.2512    3.3204 H   0  0  0  0  0  0  0  0  0  0  0  0
    1.6136    1.1312    3.9849 H   0  0  0  0  0  0  0  0  0  0  0  0
    1.4713    0.7632    1.3169 H   0  0  0  0  0  0  0  0  0  0  0  0
    2.7735    1.6498    2.0755 H   0  0  0  0  0  0  0  0  0  0  0  0
    3.8416    0.0854    0.4919 H   0  0  0  0  0  0  0  0  0  0  0  0
    2.0772   -1.8956    1.9136 H   0  0  0  0  0  0  0  0  0  0  0  0
    3.3110   -2.2473    0.6154 H   0  0  0  0  0  0  0  0  0  0  0  0
    4.9023   -4.1819    2.8620 H   0  0  0  0  0  0  0  0  0  0  0  0
    5.2783   -3.1819    4.1696 H   0  0  0  0  0  0  0  0  0  0  0  0
    2.8294   -5.4531    1.6738 H   0  0  0  0  0  0  0  0  0  0  0  0
    3.8307   -5.9841    3.0359 H   0  0  0  0  0  0  0  0  0  0  0  0
    1.0999   -6.7921    2.2206 H   0  0  0  0  0  0  0  0  0  0  0  0
    3.1043   -8.2454    2.3385 H   0  0  0  0  0  0  0  0  0  0  0  0
    0.5765   -9.3270    3.6431 H   0  0  0  0  0  0  0  0  0  0  0  0
    0.9165   -9.2110    1.9440 H   0  0  0  0  0  0  0  0  0  0  0  0
    1.2417  -11.4896    2.9352 H   0  0  0  0  0  0  0  0  0  0  0  0
    2.6357  -10.8890    2.0943 H   0  0  0  0  0  0  0  0  0  0  0  0
    2.1904  -10.9854    5.1104 H   0  0  0  0  0  0  0  0  0  0  0  0
    2.8319  -12.8629    3.9530 H   0  0  0  0  0  0  0  0  0  0  0  0
    5.2584   -9.2154    6.1005 H   0  0  0  0  0  0  0  0  0  0  0  0
    5.4326  -10.9049    5.6455 H   0  0  0  0  0  0  0  0  0  0  0  0
    4.0537  -10.4222    6.5858 H   0  0  0  0  0  0  0  0  0  0  0  0
    5.6503   -8.9665    3.4120 H   0  0  0  0  0  0  0  0  0  0  0  0
    4.5588   -9.8241    2.3374 H   0  0  0  0  0  0  0  0  0  0  0  0
    5.6143  -10.7235    3.3807 H   0  0  0  0  0  0  0  0  0  0  0  0
    3.9795   -7.6860    4.5663 H   0  0  0  0  0  0  0  0  0  0  0  0
    1.3388   -8.7765    5.6508 H   0  0  0  0  0  0  0  0  0  0  0  0
    2.8927   -9.1872    7.1125 H   0  0  0  0  0  0  0  0  0  0  0  0
    1.1199   -6.4264    6.4738 H   0  0  0  0  0  0  0  0  0  0  0  0
    2.6295   -6.0126    5.7263 H   0  0  0  0  0  0  0  0  0  0  0  0
   -1.0744   -6.2291    5.0512 H   0  0  0  0  0  0  0  0  0  0  0  0
   -0.5388   -7.8242    4.6488 H   0  0  0  0  0  0  0  0  0  0  0  0
   -0.9415   -6.6970    3.3702 H   0  0  0  0  0  0  0  0  0  0  0  0
    0.3468   -4.5543    3.1829 H   0  0  0  0  0  0  0  0  0  0  0  0
    0.5285   -2.1149    3.9043 H   0  0  0  0  0  0  0  0  0  0  0  0
    0.5957   -1.6680    5.6065 H   0  0  0  0  0  0  0  0  0  0  0  0
    2.6683   -1.7875    6.8979 H   0  0  0  0  0  0  0  0  0  0  0  0
    4.1848   -2.3683    6.2248 H   0  0  0  0  0  0  0  0  0  0  0  0
    2.8890   -3.4752    6.4887 H   0  0  0  0  0  0  0  0  0  0  0  0
  1  2  1  0
  1 35  1  0
  1 36  1  0
  1 37  1  0
  2  8  1  0
  2  3  1  0
  2 38  1  6
  3 33  1  0
  3  4  1  0
  3 39  1  1
  4  5  1  0
  4 40  1  0
  4 41  1  0
  5  6  1  0
  5 42  1  0
  5 43  1  0
  6  8  1  0
  6  7  1  0
  6 44  1  6
  7  8  1  0
  7 45  1  0
  7 46  1  0
  8  9  1  6
  9 10  1  0
 10 11  1  0
 10 47  1  0
 10 48  1  0
 11 33  1  0
 11 12  2  0
 12 29  1  0
 12 13  1  0
 13 14  1  0
 13 49  1  0
 13 50  1  0
 14 27  1  0
 14 15  1  0
 14 51  1  6
 15 23  1  0
 15 16  1  0
 15 52  1  6
 16 17  1  0
 16 53  1  0
 16 54  1  0
 17 18  1  0
 17 55  1  0
 17 56  1  0
 18 19  1  0
 18 20  1  0
 18 57  1  1
 19 58  1  0
 20 21  1  0
 20 22  1  0
 20 23  1  0
 21 59  1  0
 21 60  1  0
 21 61  1  0
 22 62  1  0
 22 63  1  0
 22 64  1  0
 23 24  1  0
 23 65  1  6
 24 25  1  0
 24 26  1  0
 24 66  1  1
 25 67  1  0
 26 27  1  0
 26 68  1  0
 26 69  1  0
 27 28  1  1
 27 29  1  0
 28 70  1  0
 28 71  1  0
 28 72  1  0
 29 30  1  0
 29 73  1  6
 30 31  2  0
 30 32  1  0
 32 33  1  0
 32 74  1  0
 32 75  1  0
 33 34  1  1
 34 76  1  0
 34 77  1  0
 34 78  1  0
M  END
>  <i_m_ct_stereo_status>  (224) 
1

>  <s_m_source_file>  (224) 
/var/tmp/pbs.5076255.sched01/tmpt7uccrld/92zpefy4ut.sdf

>  <i_m_source_file_index>  (224) 
5

>  <i_lp_mmshare_version>  (224) 
48012

>  <i_f3d_flags>  (224) 
0

>  <s_epik_input>  (224) 
W0NIMl0xW0NASF0oW0NAXTEyMylbQ0gyXVtDSDJdW0NASF0oW0NASF0yW0NIM10pW0NAXTQoW0NIM10pQyhbQ0gyXU8zKT1DNVtDQEhdKEMoPU8pW0NIMl00KVtDQEBdNihbQ0gzXSlbQ0BASF0oW0NIMl01KVtDQEhdN1tDQEBIXShbQ0BASF0oW09IXSlbQ0gyXTYpQyhbQ0gzXSkoW0NIM10pW0NASF0oW09IXSlbQ0gyXVtDSDJdNw==

>  <s_epik_cmdline>  (224) 
J2VwaWtfcHl0aG9uJywgJy1waHQnLCAnMi4wJywgJy1waCcsICc3LjAnLCAnLXRuJywgJzgnLCAnLW1hJywgJzIwMCcsICctaW1hZScsICc8aW5maWxlLm1hZT4nLCAnLW9tYWUnLCAnPG91dGZpbGUubWFlPic=

>  <r_lp_tautomer_probability>  (224) 
1

>  <r_epik_Ionization_Penalty>  (224) 
2.96872e-06

>  <r_epik_Ionization_Penalty_Charging>  (224) 
0

>  <r_epik_Ionization_Penalty_Neutral>  (224) 
2.96872e-06

>  <r_epik_State_Penalty>  (224) 
-0

>  <r_epik_Charging_Adjusted_Penalty>  (224) 
0

>  <i_epik_Tot_Q>  (224) 
0

>  <i_epik_Tot_abs_Q>  (224) 
0

>  <s_lp_Force_Field>  (224) 
OPLS3e

>  <r_lp_Energy>  (224) 
117.881

>  <b_lp_Chiralities_Consistent>  (224) 
1

>  <s_lp_Variant>  (224) 
69:0-1

>  <s_i_glide_gridfile>  (224) 
pfpi4k_grid

>  <i_i_glide_lignum>  (224) 
5

>  <i_i_glide_rotatable_bonds>  (224) 
2

>  <r_i_docking_score>  (224) 
-2.68862

>  <r_i_glide_ligand_efficiency>  (224) 
-0.079077

>  <r_i_glide_ligand_efficiency_sa>  (224) 
-0.256179

>  <r_i_glide_ligand_efficiency_ln>  (224) 
-0.593991

>  <r_i_glide_gscore>  (224) 
-2.68862

>  <r_i_glide_lipo>  (224) 
-0.224211

>  <r_i_glide_hbond>  (224) 
-0.264844

>  <r_i_glide_metal>  (224) 
-0

>  <r_i_glide_rewards>  (224) 
-0.213628

>  <r_i_glide_evdw>  (224) 
-28.3223

>  <r_i_glide_ecoul>  (224) 
-3.78695

>  <r_i_glide_erotb>  (224) 
0

>  <r_i_glide_esite>  (224) 
-0.00177849

>  <r_i_glide_emodel>  (224) 
-36.8958

>  <r_i_glide_energy>  (224) 
-32.1093

>  <r_i_glide_einternal>  (224) 
0.799898

>  <r_i_glide_intrahb_reward>  (224) 
-0

>  <i_i_glide_confnum>  (224) 
1

>  <i_i_glide_posenum>  (224) 
40

>  <r_i_glide_eff_state_penalty>  (224) 
0

>  <ligand_id>  (224) 
69

>  <original_smiles>  (224) 
CC1C2CCC3CC31OCC1=C3CC4C5CCC(O)C(C)(C)C5C(O)CC4(C)C3C(=O)CC12C

>  <smiles>  (224) 
[H]OC1([H])C([H])([H])C2(C([H])([H])[H])C3([H])C(=O)C([H])([H])C4(C([H])([H])[H])C(=C3C([H])([H])C2([H])C2([H])C([H])([H])C([H])([H])C([H])(O[H])C(C([H])([H])[H])(C([H])([H])[H])C12[H])C([H])([H])OC12C([H])([H])C1([H])C([H])([H])C([H])([H])C4([H])C2([H])C([H])([H])[H]

$$$$
69:1:0
     RDKit          3D

 78 84  0  0  1  0  0  0  0  0999 V2000
   -1.3807    2.6072    6.3620 C   0  0  0  0  0  0  0  0  0  0  0  0
   -0.6299    2.2536    5.0562 C   0  0  2  0  0  0  0  0  0  0  0  0
    0.6740    3.0723    4.8499 C   0  0  2  0  0  0  0  0  0  0  0  0
    0.4520    4.4223    4.0957 C   0  0  0  0  0  0  0  0  0  0  0  0
   -0.9916    4.8342    3.8984 C   0  0  0  0  0  0  0  0  0  0  0  0
   -1.7532    3.7441    3.2179 C   0  0  2  0  0  0  0  0  0  0  0  0
   -2.8973    2.9487    3.7663 C   0  0  0  0  0  0  0  0  0  0  0  0
   -1.5003    2.3700    3.8162 C   0  0  2  0  0  0  0  0  0  0  0  0
   -1.1424    1.4355    2.7997 O   0  0  0  0  0  0  0  0  0  0  0  0
    0.2044    1.5164    2.2854 C   0  0  0  0  0  0  0  0  0  0  0  0
    1.2704    1.0605    3.2981 C   0  0  0  0  0  0  0  0  0  0  0  0
    1.7839   -0.2014    3.3477 C   0  0  0  0  0  0  0  0  0  0  0  0
    1.4889   -1.3295    2.3975 C   0  0  0  0  0  0  0  0  0  0  0  0
    2.7015   -2.3072    2.4852 C   0  0  1  0  0  0  0  0  0  0  0  0
    3.1562   -2.8490    1.1065 C   0  0  2  0  0  0  0  0  0  0  0  0
    3.9049   -4.2095    1.1837 C   0  0  0  0  0  0  0  0  0  0  0  0
    4.2994   -4.7348   -0.2008 C   0  0  0  0  0  0  0  0  0  0  0  0
    5.0081   -3.6771   -1.0671 C   0  0  1  0  0  0  0  0  0  0  0  0
    5.1793   -4.1296   -2.3923 O   0  0  0  0  0  0  0  0  0  0  0  0
    4.2343   -2.3597   -1.1623 C   0  0  0  0  0  0  0  0  0  0  0  0
    5.0137   -1.3386   -2.0233 C   0  0  0  0  0  0  0  0  0  0  0  0
    2.9175   -2.5902   -1.9619 C   0  0  0  0  0  0  0  0  0  0  0  0
    3.9619   -1.8088    0.2879 C   0  0  2  0  0  0  0  0  0  0  0  0
    5.1867   -1.3948    1.1676 C   0  0  1  0  0  0  0  0  0  0  0  0
    6.0480   -0.4626    0.5392 O   0  0  0  0  0  0  0  0  0  0  0  0
    4.6901   -0.6985    2.4535 C   0  0  0  0  0  0  0  0  0  0  0  0
    3.7756   -1.5839    3.3530 C   0  0  2  0  0  0  0  0  0  0  0  0
    4.6092   -2.5568    4.2126 C   0  0  0  0  0  0  0  0  0  0  0  0
    2.8587   -0.7219    4.2661 C   0  0  1  0  0  0  0  0  0  0  0  0
    3.4715    0.4078    5.1006 C   0  0  0  0  0  0  0  0  0  0  0  0
    4.6227    0.4005    5.4957 O   0  0  0  0  0  0  0  0  0  0  0  0
    2.4839    1.5006    5.5004 C   0  0  0  0  0  0  0  0  0  0  0  0
    1.7951    2.1525    4.2726 C   0  0  2  0  0  0  0  0  0  0  0  0
    2.8731    2.9811    3.5514 C   0  0  0  0  0  0  0  0  0  0  0  0
   -1.6619    3.6564    6.4377 H   0  0  0  0  0  0  0  0  0  0  0  0
   -0.7389    2.3919    7.2260 H   0  0  0  0  0  0  0  0  0  0  0  0
   -2.2894    2.0079    6.4805 H   0  0  0  0  0  0  0  0  0  0  0  0
   -0.4168    1.1886    5.1817 H   0  0  0  0  0  0  0  0  0  0  0  0
    0.9912    3.3716    5.8559 H   0  0  0  0  0  0  0  0  0  0  0  0
    0.9717    5.2148    4.6304 H   0  0  0  0  0  0  0  0  0  0  0  0
    0.8821    4.4262    3.1021 H   0  0  0  0  0  0  0  0  0  0  0  0
   -1.4582    5.0471    4.8572 H   0  0  0  0  0  0  0  0  0  0  0  0
   -1.0393    5.7332    3.2848 H   0  0  0  0  0  0  0  0  0  0  0  0
   -1.7465    3.8089    2.1305 H   0  0  0  0  0  0  0  0  0  0  0  0
   -3.3573    3.2890    4.6797 H   0  0  0  0  0  0  0  0  0  0  0  0
   -3.5762    2.5420    3.0227 H   0  0  0  0  0  0  0  0  0  0  0  0
    0.2436    0.8822    1.4017 H   0  0  0  0  0  0  0  0  0  0  0  0
    0.4379    2.5124    1.9242 H   0  0  0  0  0  0  0  0  0  0  0  0
    0.5913   -1.8568    2.7436 H   0  0  0  0  0  0  0  0  0  0  0  0
    1.3163   -0.9909    1.3756 H   0  0  0  0  0  0  0  0  0  0  0  0
    2.3422   -3.1617    3.0636 H   0  0  0  0  0  0  0  0  0  0  0  0
    2.2238   -3.0571    0.5849 H   0  0  0  0  0  0  0  0  0  0  0  0
    4.8045   -4.1460    1.7827 H   0  0  0  0  0  0  0  0  0  0  0  0
    3.2710   -4.9524    1.6770 H   0  0  0  0  0  0  0  0  0  0  0  0
    4.9422   -5.6115   -0.0957 H   0  0  0  0  0  0  0  0  0  0  0  0
    3.3891   -5.0945   -0.6674 H   0  0  0  0  0  0  0  0  0  0  0  0
    5.9918   -3.4803   -0.6472 H   0  0  0  0  0  0  0  0  0  0  0  0
    4.4675   -4.7203   -2.6007 H   0  0  0  0  0  0  0  0  0  0  0  0
    4.6558   -0.3135   -1.8824 H   0  0  0  0  0  0  0  0  0  0  0  0
    4.9562   -1.5665   -3.0862 H   0  0  0  0  0  0  0  0  0  0  0  0
    6.0746   -1.3736   -1.7780 H   0  0  0  0  0  0  0  0  0  0  0  0
    2.3187   -1.6845   -2.0262 H   0  0  0  0  0  0  0  0  0  0  0  0
    2.2831   -3.3755   -1.5471 H   0  0  0  0  0  0  0  0  0  0  0  0
    3.0828   -2.8533   -3.0101 H   0  0  0  0  0  0  0  0  0  0  0  0
    3.3489   -0.9140    0.1591 H   0  0  0  0  0  0  0  0  0  0  0  0
    5.8093   -2.2484    1.4280 H   0  0  0  0  0  0  0  0  0  0  0  0
    6.7191   -0.1884    1.1534 H   0  0  0  0  0  0  0  0  0  0  0  0
    5.5510   -0.3676    3.0402 H   0  0  0  0  0  0  0  0  0  0  0  0
    4.1673    0.2131    2.1611 H   0  0  0  0  0  0  0  0  0  0  0  0
    5.2294   -2.0355    4.9309 H   0  0  0  0  0  0  0  0  0  0  0  0
    5.2800   -3.1690    3.6182 H   0  0  0  0  0  0  0  0  0  0  0  0
    3.9624   -3.2263    4.7712 H   0  0  0  0  0  0  0  0  0  0  0  0
    2.3513   -1.3897    4.9544 H   0  0  0  0  0  0  0  0  0  0  0  0
    1.7303    1.0380    6.1372 H   0  0  0  0  0  0  0  0  0  0  0  0
    2.9977    2.2476    6.1047 H   0  0  0  0  0  0  0  0  0  0  0  0
    3.2775    3.7937    4.1641 H   0  0  0  0  0  0  0  0  0  0  0  0
    2.5733    3.3908    2.5868 H   0  0  0  0  0  0  0  0  0  0  0  0
    3.7049    2.3305    3.2948 H   0  0  0  0  0  0  0  0  0  0  0  0
  1  2  1  0
  1 35  1  0
  1 36  1  0
  1 37  1  0
  2  8  1  0
  2  3  1  0
  2 38  1  1
  3 33  1  0
  3  4  1  0
  3 39  1  1
  4  5  1  0
  4 40  1  0
  4 41  1  0
  5  6  1  0
  5 42  1  0
  5 43  1  0
  6  8  1  0
  6  7  1  0
  6 44  1  6
  7  8  1  0
  7 45  1  0
  7 46  1  0
  8  9  1  6
  9 10  1  0
 10 11  1  0
 10 47  1  0
 10 48  1  0
 11 33  1  0
 11 12  2  0
 12 29  1  0
 12 13  1  0
 13 14  1  0
 13 49  1  0
 13 50  1  0
 14 27  1  0
 14 15  1  0
 14 51  1  1
 15 23  1  0
 15 16  1  0
 15 52  1  6
 16 17  1  0
 16 53  1  0
 16 54  1  0
 17 18  1  0
 17 55  1  0
 17 56  1  0
 18 19  1  0
 18 20  1  0
 18 57  1  1
 19 58  1  0
 20 21  1  0
 20 22  1  0
 20 23  1  0
 21 59  1  0
 21 60  1  0
 21 61  1  0
 22 62  1  0
 22 63  1  0
 22 64  1  0
 23 24  1  0
 23 65  1  6
 24 25  1  0
 24 26  1  0
 24 66  1  1
 25 67  1  0
 26 27  1  0
 26 68  1  0
 26 69  1  0
 27 28  1  1
 27 29  1  0
 28 70  1  0
 28 71  1  0
 28 72  1  0
 29 30  1  0
 29 73  1  1
 30 31  2  0
 30 32  1  0
 32 33  1  0
 32 74  1  0
 32 75  1  0
 33 34  1  6
 34 76  1  0
 34 77  1  0
 34 78  1  0
M  END
>  <i_m_ct_stereo_status>  (225) 
1

>  <s_m_source_file>  (225) 
/var/tmp/pbs.5076255.sched01/tmpt7uccrld/92zpefy4ut.sdf

>  <i_m_source_file_index>  (225) 
6

>  <i_lp_mmshare_version>  (225) 
48012

>  <i_f3d_flags>  (225) 
0

>  <s_epik_input>  (225) 
W0NIMl0xW0NASF0oW0NAXTEyMylbQ0gyXVtDSDJdW0NASF0oW0NASF0yW0NIM10pW0NAXTQoW0NIM10pQyhbQ0gyXU8zKT1DNVtDQEhdKEMoPU8pW0NIMl00KVtDQEBdNihbQ0gzXSlbQ0BASF0oW0NIMl01KVtDQEhdN1tDQEBIXShbQ0BASF0oW09IXSlbQ0gyXTYpQyhbQ0gzXSkoW0NIM10pW0NASF0oW09IXSlbQ0gyXVtDSDJdNw==

>  <s_epik_cmdline>  (225) 
J2VwaWtfcHl0aG9uJywgJy1waHQnLCAnMi4wJywgJy1waCcsICc3LjAnLCAnLXRuJywgJzgnLCAnLW1hJywgJzIwMCcsICctaW1hZScsICc8aW5maWxlLm1hZT4nLCAnLW9tYWUnLCAnPG91dGZpbGUubWFlPic=

>  <r_lp_tautomer_probability>  (225) 
1

>  <r_epik_Ionization_Penalty>  (225) 
2.96872e-06

>  <r_epik_Ionization_Penalty_Charging>  (225) 
0

>  <r_epik_Ionization_Penalty_Neutral>  (225) 
2.96872e-06

>  <r_epik_State_Penalty>  (225) 
-0

>  <r_epik_Charging_Adjusted_Penalty>  (225) 
0

>  <i_epik_Tot_Q>  (225) 
0

>  <i_epik_Tot_abs_Q>  (225) 
0

>  <s_lp_Force_Field>  (225) 
OPLS3e

>  <r_lp_Energy>  (225) 
70.3416

>  <b_lp_Chiralities_Consistent>  (225) 
1

>  <s_lp_Variant>  (225) 
69:0-2

>  <s_i_glide_gridfile>  (225) 
pfpi4k_grid

>  <i_i_glide_lignum>  (225) 
6

>  <i_i_glide_rotatable_bonds>  (225) 
2

>  <r_i_docking_score>  (225) 
-3.44174

>  <r_i_glide_ligand_efficiency>  (225) 
-0.101228

>  <r_i_glide_ligand_efficiency_sa>  (225) 
-0.327938

>  <r_i_glide_ligand_efficiency_ln>  (225) 
-0.760377

>  <r_i_glide_gscore>  (225) 
-3.44174

>  <r_i_glide_lipo>  (225) 
-0.281387

>  <r_i_glide_hbond>  (225) 
-0.587607

>  <r_i_glide_metal>  (225) 
-0

>  <r_i_glide_rewards>  (225) 
-0.214562

>  <r_i_glide_evdw>  (225) 
-33.002

>  <r_i_glide_ecoul>  (225) 
-4.72055

>  <r_i_glide_erotb>  (225) 
0

>  <r_i_glide_esite>  (225) 
0

>  <r_i_glide_emodel>  (225) 
-43.5246

>  <r_i_glide_energy>  (225) 
-37.7226

>  <r_i_glide_einternal>  (225) 
0.742836

>  <r_i_glide_intrahb_reward>  (225) 
-0

>  <i_i_glide_confnum>  (225) 
2

>  <i_i_glide_posenum>  (225) 
33

>  <r_i_glide_eff_state_penalty>  (225) 
0

>  <ligand_id>  (225) 
69

>  <original_smiles>  (225) 
CC1C2CCC3CC31OCC1=C3CC4C5CCC(O)C(C)(C)C5C(O)CC4(C)C3C(=O)CC12C

>  <smiles>  (225) 
[H]OC1([H])C([H])([H])C2(C([H])([H])[H])C3([H])C(=O)C([H])([H])C4(C([H])([H])[H])C(=C3C([H])([H])C2([H])C2([H])C([H])([H])C([H])([H])C([H])(O[H])C(C([H])([H])[H])(C([H])([H])[H])C12[H])C([H])([H])OC12C([H])([H])C1([H])C([H])([H])C([H])([H])C4([H])C2([H])C([H])([H])[H]

$$$$
69:1:1
     RDKit          3D

 78 84  0  0  1  0  0  0  0  0999 V2000
   -1.3743    2.6147    6.3654 C   0  0  0  0  0  0  0  0  0  0  0  0
   -0.6285    2.2622    5.0606 C   0  0  2  0  0  0  0  0  0  0  0  0
    0.6760    3.0814    4.8479 C   0  0  2  0  0  0  0  0  0  0  0  0
    0.4516    4.4317    4.0863 C   0  0  0  0  0  0  0  0  0  0  0  0
   -0.9971    4.8368    3.8927 C   0  0  0  0  0  0  0  0  0  0  0  0
   -1.7554    3.7382    3.2145 C   0  0  2  0  0  0  0  0  0  0  0  0
   -2.8978    2.9487    3.7747 C   0  0  0  0  0  0  0  0  0  0  0  0
   -1.4965    2.3715    3.8157 C   0  0  2  0  0  0  0  0  0  0  0  0
   -1.1439    1.4336    2.8030 O   0  0  0  0  0  0  0  0  0  0  0  0
    0.2008    1.5214    2.2866 C   0  0  0  0  0  0  0  0  0  0  0  0
    1.2737    1.0673    3.2964 C   0  0  0  0  0  0  0  0  0  0  0  0
    1.7840   -0.1882    3.3442 C   0  0  0  0  0  0  0  0  0  0  0  0
    1.4866   -1.3246    2.3992 C   0  0  0  0  0  0  0  0  0  0  0  0
    2.6992   -2.2965    2.4848 C   0  0  1  0  0  0  0  0  0  0  0  0
    3.1527   -2.8453    1.1015 C   0  0  2  0  0  0  0  0  0  0  0  0
    3.9065   -4.2051    1.1809 C   0  0  0  0  0  0  0  0  0  0  0  0
    4.2988   -4.7317   -0.2037 C   0  0  0  0  0  0  0  0  0  0  0  0
    5.0021   -3.6737   -1.0753 C   0  0  1  0  0  0  0  0  0  0  0  0
    5.1694   -4.1399   -2.3941 O   0  0  0  0  0  0  0  0  0  0  0  0
    4.2234   -2.3544   -1.1752 C   0  0  0  0  0  0  0  0  0  0  0  0
    5.0056   -1.3376   -2.0380 C   0  0  0  0  0  0  0  0  0  0  0  0
    2.9071   -2.5885   -1.9697 C   0  0  0  0  0  0  0  0  0  0  0  0
    3.9502   -1.8020    0.2728 C   0  0  2  0  0  0  0  0  0  0  0  0
    5.1736   -1.3746    1.1425 C   0  0  1  0  0  0  0  0  0  0  0  0
    6.0258   -0.4652    0.4852 O   0  0  0  0  0  0  0  0  0  0  0  0
    4.6897   -0.6821    2.4375 C   0  0  0  0  0  0  0  0  0  0  0  0
    3.7819   -1.5676    3.3452 C   0  0  2  0  0  0  0  0  0  0  0  0
    4.6170   -2.5424    4.2006 C   0  0  0  0  0  0  0  0  0  0  0  0
    2.8688   -0.7111    4.2611 C   0  0  1  0  0  0  0  0  0  0  0  0
    3.4732    0.4168    5.0956 C   0  0  0  0  0  0  0  0  0  0  0  0
    4.6301    0.4126    5.4867 O   0  0  0  0  0  0  0  0  0  0  0  0
    2.4891    1.5119    5.4946 C   0  0  0  0  0  0  0  0  0  0  0  0
    1.7959    2.1603    4.2673 C   0  0  2  0  0  0  0  0  0  0  0  0
    2.8747    2.9922    3.5479 C   0  0  0  0  0  0  0  0  0  0  0  0
   -1.6555    3.6655    6.4381 H   0  0  0  0  0  0  0  0  0  0  0  0
   -0.7298    2.4038    7.2259 H   0  0  0  0  0  0  0  0  0  0  0  0
   -2.2809    2.0172    6.4848 H   0  0  0  0  0  0  0  0  0  0  0  0
   -0.4111    1.1994    5.1853 H   0  0  0  0  0  0  0  0  0  0  0  0
    0.9947    3.3846    5.8480 H   0  0  0  0  0  0  0  0  0  0  0  0
    0.9722    5.2262    4.6184 H   0  0  0  0  0  0  0  0  0  0  0  0
    0.8788    4.4338    3.0934 H   0  0  0  0  0  0  0  0  0  0  0  0
   -1.4556    5.0533    4.8539 H   0  0  0  0  0  0  0  0  0  0  0  0
   -1.0448    5.7366    3.2774 H   0  0  0  0  0  0  0  0  0  0  0  0
   -1.7502    3.8062    2.1294 H   0  0  0  0  0  0  0  0  0  0  0  0
   -3.3565    3.2932    4.6864 H   0  0  0  0  0  0  0  0  0  0  0  0
   -3.5807    2.5442    3.0275 H   0  0  0  0  0  0  0  0  0  0  0  0
    0.2366    0.8833    1.4059 H   0  0  0  0  0  0  0  0  0  0  0  0
    0.4336    2.5163    1.9236 H   0  0  0  0  0  0  0  0  0  0  0  0
    0.5946   -1.8502    2.7448 H   0  0  0  0  0  0  0  0  0  0  0  0
    1.3183   -0.9837    1.3762 H   0  0  0  0  0  0  0  0  0  0  0  0
    2.3494   -3.1540    3.0653 H   0  0  0  0  0  0  0  0  0  0  0  0
    2.2170   -3.0554    0.5900 H   0  0  0  0  0  0  0  0  0  0  0  0
    4.8082   -4.1342    1.7800 H   0  0  0  0  0  0  0  0  0  0  0  0
    3.2771   -4.9435    1.6795 H   0  0  0  0  0  0  0  0  0  0  0  0
    4.9400   -5.6034   -0.0976 H   0  0  0  0  0  0  0  0  0  0  0  0
    3.3896   -5.0892   -0.6717 H   0  0  0  0  0  0  0  0  0  0  0  0
    5.9878   -3.4755   -0.6563 H   0  0  0  0  0  0  0  0  0  0  0  0
    4.4468   -4.7137   -2.6034 H   0  0  0  0  0  0  0  0  0  0  0  0
    4.6433   -0.3156   -1.9021 H   0  0  0  0  0  0  0  0  0  0  0  0
    4.9393   -1.5682   -3.1006 H   0  0  0  0  0  0  0  0  0  0  0  0
    6.0715   -1.3728   -1.8029 H   0  0  0  0  0  0  0  0  0  0  0  0
    2.3117   -1.6828   -2.0278 H   0  0  0  0  0  0  0  0  0  0  0  0
    2.2760   -3.3735   -1.5469 H   0  0  0  0  0  0  0  0  0  0  0  0
    3.0751   -2.8579   -3.0111 H   0  0  0  0  0  0  0  0  0  0  0  0
    3.3285   -0.9144    0.1484 H   0  0  0  0  0  0  0  0  0  0  0  0
    5.7982   -2.2266    1.4048 H   0  0  0  0  0  0  0  0  0  0  0  0
    5.5310    0.2996    0.2218 H   0  0  0  0  0  0  0  0  0  0  0  0
    5.5594   -0.3552    3.0115 H   0  0  0  0  0  0  0  0  0  0  0  0
    4.1652    0.2300    2.1560 H   0  0  0  0  0  0  0  0  0  0  0  0
    5.2405   -2.0199    4.9211 H   0  0  0  0  0  0  0  0  0  0  0  0
    5.2884   -3.1540    3.6092 H   0  0  0  0  0  0  0  0  0  0  0  0
    3.9758   -3.2152    4.7672 H   0  0  0  0  0  0  0  0  0  0  0  0
    2.3595   -1.3795    4.9544 H   0  0  0  0  0  0  0  0  0  0  0  0
    1.7385    1.0528    6.1369 H   0  0  0  0  0  0  0  0  0  0  0  0
    3.0069    2.2660    6.0933 H   0  0  0  0  0  0  0  0  0  0  0  0
    3.2630    3.8123    4.1559 H   0  0  0  0  0  0  0  0  0  0  0  0
    2.5731    3.3901    2.5781 H   0  0  0  0  0  0  0  0  0  0  0  0
    3.7110    2.3451    3.3126 H   0  0  0  0  0  0  0  0  0  0  0  0
  1  2  1  0
  1 35  1  0
  1 36  1  0
  1 37  1  0
  2  8  1  0
  2  3  1  0
  2 38  1  1
  3 33  1  0
  3  4  1  0
  3 39  1  1
  4  5  1  0
  4 40  1  0
  4 41  1  0
  5  6  1  0
  5 42  1  0
  5 43  1  0
  6  8  1  0
  6  7  1  0
  6 44  1  6
  7  8  1  0
  7 45  1  0
  7 46  1  0
  8  9  1  6
  9 10  1  0
 10 11  1  0
 10 47  1  0
 10 48  1  0
 11 33  1  0
 11 12  2  0
 12 29  1  0
 12 13  1  0
 13 14  1  0
 13 49  1  0
 13 50  1  0
 14 27  1  0
 14 15  1  0
 14 51  1  1
 15 23  1  0
 15 16  1  0
 15 52  1  6
 16 17  1  0
 16 53  1  0
 16 54  1  0
 17 18  1  0
 17 55  1  0
 17 56  1  0
 18 19  1  0
 18 20  1  0
 18 57  1  1
 19 58  1  0
 20 21  1  0
 20 22  1  0
 20 23  1  0
 21 59  1  0
 21 60  1  0
 21 61  1  0
 22 62  1  0
 22 63  1  0
 22 64  1  0
 23 24  1  0
 23 65  1  6
 24 25  1  0
 24 26  1  0
 24 66  1  1
 25 67  1  0
 26 27  1  0
 26 68  1  0
 26 69  1  0
 27 28  1  1
 27 29  1  0
 28 70  1  0
 28 71  1  0
 28 72  1  0
 29 30  1  0
 29 73  1  1
 30 31  2  0
 30 32  1  0
 32 33  1  0
 32 74  1  0
 32 75  1  0
 33 34  1  6
 34 76  1  0
 34 77  1  0
 34 78  1  0
M  END
>  <i_m_ct_stereo_status>  (226) 
1

>  <s_m_source_file>  (226) 
/var/tmp/pbs.5076255.sched01/tmpt7uccrld/92zpefy4ut.sdf

>  <i_m_source_file_index>  (226) 
6

>  <i_lp_mmshare_version>  (226) 
48012

>  <i_f3d_flags>  (226) 
0

>  <s_epik_input>  (226) 
W0NIMl0xW0NASF0oW0NAXTEyMylbQ0gyXVtDSDJdW0NASF0oW0NASF0yW0NIM10pW0NAXTQoW0NIM10pQyhbQ0gyXU8zKT1DNVtDQEhdKEMoPU8pW0NIMl00KVtDQEBdNihbQ0gzXSlbQ0BASF0oW0NIMl01KVtDQEhdN1tDQEBIXShbQ0BASF0oW09IXSlbQ0gyXTYpQyhbQ0gzXSkoW0NIM10pW0NASF0oW09IXSlbQ0gyXVtDSDJdNw==

>  <s_epik_cmdline>  (226) 
J2VwaWtfcHl0aG9uJywgJy1waHQnLCAnMi4wJywgJy1waCcsICc3LjAnLCAnLXRuJywgJzgnLCAnLW1hJywgJzIwMCcsICctaW1hZScsICc8aW5maWxlLm1hZT4nLCAnLW9tYWUnLCAnPG91dGZpbGUubWFlPic=

>  <r_lp_tautomer_probability>  (226) 
1

>  <r_epik_Ionization_Penalty>  (226) 
2.96872e-06

>  <r_epik_Ionization_Penalty_Charging>  (226) 
0

>  <r_epik_Ionization_Penalty_Neutral>  (226) 
2.96872e-06

>  <r_epik_State_Penalty>  (226) 
-0

>  <r_epik_Charging_Adjusted_Penalty>  (226) 
0

>  <i_epik_Tot_Q>  (226) 
0

>  <i_epik_Tot_abs_Q>  (226) 
0

>  <s_lp_Force_Field>  (226) 
OPLS3e

>  <r_lp_Energy>  (226) 
70.3416

>  <b_lp_Chiralities_Consistent>  (226) 
1

>  <s_lp_Variant>  (226) 
69:0-2

>  <s_i_glide_gridfile>  (226) 
pfpi4k_grid

>  <i_i_glide_lignum>  (226) 
6

>  <i_i_glide_rotatable_bonds>  (226) 
2

>  <r_i_docking_score>  (226) 
-3.35012

>  <r_i_glide_ligand_efficiency>  (226) 
-0.098533

>  <r_i_glide_ligand_efficiency_sa>  (226) 
-0.319209

>  <r_i_glide_ligand_efficiency_ln>  (226) 
-0.740136

>  <r_i_glide_gscore>  (226) 
-3.35012

>  <r_i_glide_lipo>  (226) 
-0.281456

>  <r_i_glide_hbond>  (226) 
-0.504704

>  <r_i_glide_metal>  (226) 
-0

>  <r_i_glide_rewards>  (226) 
-0.214595

>  <r_i_glide_evdw>  (226) 
-33.1098

>  <r_i_glide_ecoul>  (226) 
-4.62583

>  <r_i_glide_erotb>  (226) 
0

>  <r_i_glide_esite>  (226) 
0

>  <r_i_glide_emodel>  (226) 
-42.9931

>  <r_i_glide_energy>  (226) 
-37.7357

>  <r_i_glide_einternal>  (226) 
0.348357

>  <r_i_glide_intrahb_reward>  (226) 
-0

>  <i_i_glide_confnum>  (226) 
1

>  <i_i_glide_posenum>  (226) 
12

>  <r_i_glide_eff_state_penalty>  (226) 
0

>  <ligand_id>  (226) 
69

>  <original_smiles>  (226) 
CC1C2CCC3CC31OCC1=C3CC4C5CCC(O)C(C)(C)C5C(O)CC4(C)C3C(=O)CC12C

>  <smiles>  (226) 
[H]OC1([H])C([H])([H])C2(C([H])([H])[H])C3([H])C(=O)C([H])([H])C4(C([H])([H])[H])C(=C3C([H])([H])C2([H])C2([H])C([H])([H])C([H])([H])C([H])(O[H])C(C([H])([H])[H])(C([H])([H])[H])C12[H])C([H])([H])OC12C([H])([H])C1([H])C([H])([H])C([H])([H])C4([H])C2([H])C([H])([H])[H]

$$$$
69:1:2
     RDKit          3D

 78 84  0  0  1  0  0  0  0  0999 V2000
    2.4582   -0.2337    1.7257 C   0  0  0  0  0  0  0  0  0  0  0  0
    3.0372   -1.5605    2.2975 C   0  0  2  0  0  0  0  0  0  0  0  0
    3.1654   -1.5433    3.8514 C   0  0  2  0  0  0  0  0  0  0  0  0
    4.5377   -0.9714    4.3506 C   0  0  0  0  0  0  0  0  0  0  0  0
    5.4121   -0.3101    3.2826 C   0  0  0  0  0  0  0  0  0  0  0  0
    5.6397   -1.2772    2.1596 C   0  0  2  0  0  0  0  0  0  0  0  0
    5.1806   -1.1244    0.7269 C   0  0  0  0  0  0  0  0  0  0  0  0
    4.3632   -1.9497    1.6969 C   0  0  2  0  0  0  0  0  0  0  0  0
    4.5600   -3.3779    1.6311 O   0  0  0  0  0  0  0  0  0  0  0  0
    4.5301   -4.0744    2.8899 C   0  0  0  0  0  0  0  0  0  0  0  0
    3.1361   -4.1384    3.5329 C   0  0  0  0  0  0  0  0  0  0  0  0
    2.2710   -5.1735    3.3636 C   0  0  0  0  0  0  0  0  0  0  0  0
    2.5274   -6.4690    2.6097 C   0  0  0  0  0  0  0  0  0  0  0  0
    1.5246   -7.5092    3.2009 C   0  0  1  0  0  0  0  0  0  0  0  0
    2.1591   -8.9084    3.4436 C   0  0  2  0  0  0  0  0  0  0  0  0
    1.1383  -10.0824    3.4304 C   0  0  0  0  0  0  0  0  0  0  0  0
    1.8146  -11.4535    3.6239 C   0  0  0  0  0  0  0  0  0  0  0  0
    2.7791  -11.4687    4.8216 C   0  0  1  0  0  0  0  0  0  0  0  0
    3.4409  -12.7175    4.8952 O   0  0  0  0  0  0  0  0  0  0  0  0
    3.8119  -10.3245    4.7972 C   0  0  0  0  0  0  0  0  0  0  0  0
    4.7313  -10.4098    6.0471 C   0  0  0  0  0  0  0  0  0  0  0  0
    4.7823  -10.4653    3.5811 C   0  0  0  0  0  0  0  0  0  0  0  0
    3.0509   -8.9491    4.7139 C   0  0  2  0  0  0  0  0  0  0  0  0
    2.1453   -8.5218    5.9171 C   0  0  1  0  0  0  0  0  0  0  0  0
    2.8186   -8.5324    7.1601 O   0  0  0  0  0  0  0  0  0  0  0  0
    1.6801   -7.0614    5.7208 C   0  0  0  0  0  0  0  0  0  0  0  0
    0.8443   -6.8189    4.4310 C   0  0  2  0  0  0  0  0  0  0  0  0
   -0.6184   -7.2607    4.6176 C   0  0  0  0  0  0  0  0  0  0  0  0
    0.9126   -5.3389    3.9875 C   0  0  1  0  0  0  0  0  0  0  0  0
    0.6146   -4.2202    4.9856 C   0  0  0  0  0  0  0  0  0  0  0  0
   -0.1347   -4.3634    5.9610 O   0  0  0  0  0  0  0  0  0  0  0  0
    1.2061   -2.8712    4.6329 C   0  0  0  0  0  0  0  0  0  0  0  0
    2.7477   -2.9440    4.4443 C   0  0  2  0  0  0  0  0  0  0  0  0
    3.3523   -3.1809    5.8625 C   0  0  0  0  0  0  0  0  0  0  0  0
    3.0357    0.6491    1.9802 H   0  0  0  0  0  0  0  0  0  0  0  0
    1.4432   -0.0790    2.1123 H   0  0  0  0  0  0  0  0  0  0  0  0
    2.3789   -0.2775    0.6412 H   0  0  0  0  0  0  0  0  0  0  0  0
    2.3128   -2.2948    1.9700 H   0  0  0  0  0  0  0  0  0  0  0  0
    2.4269   -0.8240    4.1964 H   0  0  0  0  0  0  0  0  0  0  0  0
    4.3406   -0.2513    5.1537 H   0  0  0  0  0  0  0  0  0  0  0  0
    5.1557   -1.7317    4.8062 H   0  0  0  0  0  0  0  0  0  0  0  0
    4.9296    0.5816    2.8980 H   0  0  0  0  0  0  0  0  0  0  0  0
    6.3707    0.0130    3.6960 H   0  0  0  0  0  0  0  0  0  0  0  0
    6.5022   -1.9211    2.2968 H   0  0  0  0  0  0  0  0  0  0  0  0
    4.8170   -0.1379    0.4332 H   0  0  0  0  0  0  0  0  0  0  0  0
    5.7658   -1.6439   -0.0118 H   0  0  0  0  0  0  0  0  0  0  0  0
    4.8654   -5.0871    2.6753 H   0  0  0  0  0  0  0  0  0  0  0  0
    5.2615   -3.6842    3.5864 H   0  0  0  0  0  0  0  0  0  0  0  0
    2.3049   -6.3167    1.5493 H   0  0  0  0  0  0  0  0  0  0  0  0
    3.5562   -6.8056    2.6975 H   0  0  0  0  0  0  0  0  0  0  0  0
    0.7550   -7.6408    2.4412 H   0  0  0  0  0  0  0  0  0  0  0  0
    2.7817   -9.0631    2.5664 H   0  0  0  0  0  0  0  0  0  0  0  0
    0.3901   -9.9715    4.2083 H   0  0  0  0  0  0  0  0  0  0  0  0
    0.5899  -10.0845    2.4895 H   0  0  0  0  0  0  0  0  0  0  0  0
    1.0448  -12.2128    3.7672 H   0  0  0  0  0  0  0  0  0  0  0  0
    2.3382  -11.7335    2.7129 H   0  0  0  0  0  0  0  0  0  0  0  0
    2.1879  -11.3809    5.7270 H   0  0  0  0  0  0  0  0  0  0  0  0
    2.9703  -13.2539    5.5244 H   0  0  0  0  0  0  0  0  0  0  0  0
    5.2729   -9.4783    6.2151 H   0  0  0  0  0  0  0  0  0  0  0  0
    5.4688  -11.2054    5.9576 H   0  0  0  0  0  0  0  0  0  0  0  0
    4.1599  -10.6446    6.9485 H   0  0  0  0  0  0  0  0  0  0  0  0
    5.4190   -9.5892    3.4654 H   0  0  0  0  0  0  0  0  0  0  0  0
    4.2589  -10.6103    2.6309 H   0  0  0  0  0  0  0  0  0  0  0  0
    5.4331  -11.3333    3.6797 H   0  0  0  0  0  0  0  0  0  0  0  0
    3.8192   -8.1868    4.6210 H   0  0  0  0  0  0  0  0  0  0  0  0
    1.2906   -9.1746    6.0327 H   0  0  0  0  0  0  0  0  0  0  0  0
    2.9264   -9.4264    7.4181 H   0  0  0  0  0  0  0  0  0  0  0  0
    1.0973   -6.7549    6.5959 H   0  0  0  0  0  0  0  0  0  0  0  0
    2.5591   -6.4265    5.7308 H   0  0  0  0  0  0  0  0  0  0  0  0
   -1.1325   -6.6490    5.3548 H   0  0  0  0  0  0  0  0  0  0  0  0
   -0.7097   -8.2887    4.9609 H   0  0  0  0  0  0  0  0  0  0  0  0
   -1.1837   -7.1779    3.6917 H   0  0  0  0  0  0  0  0  0  0  0  0
    0.2142   -5.2069    3.1642 H   0  0  0  0  0  0  0  0  0  0  0  0
    0.7399   -2.5487    3.6989 H   0  0  0  0  0  0  0  0  0  0  0  0
    0.9375   -2.1360    5.3887 H   0  0  0  0  0  0  0  0  0  0  0  0
    3.1652   -2.3418    6.5307 H   0  0  0  0  0  0  0  0  0  0  0  0
    4.4234   -3.3794    5.8471 H   0  0  0  0  0  0  0  0  0  0  0  0
    2.9247   -4.0655    6.3421 H   0  0  0  0  0  0  0  0  0  0  0  0
  1  2  1  0
  1 35  1  0
  1 36  1  0
  1 37  1  0
  2  8  1  0
  2  3  1  0
  2 38  1  1
  3 33  1  0
  3  4  1  0
  3 39  1  1
  4  5  1  0
  4 40  1  0
  4 41  1  0
  5  6  1  0
  5 42  1  0
  5 43  1  0
  6  8  1  0
  6  7  1  0
  6 44  1  6
  7  8  1  0
  7 45  1  0
  7 46  1  0
  8  9  1  6
  9 10  1  0
 10 11  1  0
 10 47  1  0
 10 48  1  0
 11 33  1  0
 11 12  2  0
 12 29  1  0
 12 13  1  0
 13 14  1  0
 13 49  1  0
 13 50  1  0
 14 27  1  0
 14 15  1  0
 14 51  1  6
 15 23  1  0
 15 16  1  0
 15 52  1  6
 16 17  1  0
 16 53  1  0
 16 54  1  0
 17 18  1  0
 17 55  1  0
 17 56  1  0
 18 19  1  0
 18 20  1  0
 18 57  1  1
 19 58  1  0
 20 21  1  0
 20 22  1  0
 20 23  1  0
 21 59  1  0
 21 60  1  0
 21 61  1  0
 22 62  1  0
 22 63  1  0
 22 64  1  0
 23 24  1  0
 23 65  1  6
 24 25  1  0
 24 26  1  0
 24 66  1  1
 25 67  1  0
 26 27  1  0
 26 68  1  0
 26 69  1  0
 27 28  1  1
 27 29  1  0
 28 70  1  0
 28 71  1  0
 28 72  1  0
 29 30  1  0
 29 73  1  6
 30 31  2  0
 30 32  1  0
 32 33  1  0
 32 74  1  0
 32 75  1  0
 33 34  1  1
 34 76  1  0
 34 77  1  0
 34 78  1  0
M  END
>  <i_m_ct_stereo_status>  (227) 
1

>  <s_m_source_file>  (227) 
/var/tmp/pbs.5076255.sched01/tmpt7uccrld/92zpefy4ut.sdf

>  <i_m_source_file_index>  (227) 
6

>  <i_lp_mmshare_version>  (227) 
48012

>  <i_f3d_flags>  (227) 
0

>  <s_epik_input>  (227) 
W0NIMl0xW0NASF0oW0NAXTEyMylbQ0gyXVtDSDJdW0NASF0oW0NASF0yW0NIM10pW0NAXTQoW0NIM10pQyhbQ0gyXU8zKT1DNVtDQEhdKEMoPU8pW0NIMl00KVtDQEBdNihbQ0gzXSlbQ0BASF0oW0NIMl01KVtDQEhdN1tDQEBIXShbQ0BASF0oW09IXSlbQ0gyXTYpQyhbQ0gzXSkoW0NIM10pW0NASF0oW09IXSlbQ0gyXVtDSDJdNw==

>  <s_epik_cmdline>  (227) 
J2VwaWtfcHl0aG9uJywgJy1waHQnLCAnMi4wJywgJy1waCcsICc3LjAnLCAnLXRuJywgJzgnLCAnLW1hJywgJzIwMCcsICctaW1hZScsICc8aW5maWxlLm1hZT4nLCAnLW9tYWUnLCAnPG91dGZpbGUubWFlPic=

>  <r_lp_tautomer_probability>  (227) 
1

>  <r_epik_Ionization_Penalty>  (227) 
2.96872e-06

>  <r_epik_Ionization_Penalty_Charging>  (227) 
0

>  <r_epik_Ionization_Penalty_Neutral>  (227) 
2.96872e-06

>  <r_epik_State_Penalty>  (227) 
-0

>  <r_epik_Charging_Adjusted_Penalty>  (227) 
0

>  <i_epik_Tot_Q>  (227) 
0

>  <i_epik_Tot_abs_Q>  (227) 
0

>  <s_lp_Force_Field>  (227) 
OPLS3e

>  <r_lp_Energy>  (227) 
70.3416

>  <b_lp_Chiralities_Consistent>  (227) 
1

>  <s_lp_Variant>  (227) 
69:0-2

>  <s_i_glide_gridfile>  (227) 
pfpi4k_grid

>  <i_i_glide_lignum>  (227) 
6

>  <i_i_glide_rotatable_bonds>  (227) 
2

>  <r_i_docking_score>  (227) 
-3.02017

>  <r_i_glide_ligand_efficiency>  (227) 
-0.0888284

>  <r_i_glide_ligand_efficiency_sa>  (227) 
-0.28777

>  <r_i_glide_ligand_efficiency_ln>  (227) 
-0.66724

>  <r_i_glide_gscore>  (227) 
-3.02017

>  <r_i_glide_lipo>  (227) 
-0.605081

>  <r_i_glide_hbond>  (227) 
-0.16

>  <r_i_glide_metal>  (227) 
-0

>  <r_i_glide_rewards>  (227) 
-0.213628

>  <r_i_glide_evdw>  (227) 
-28.7051

>  <r_i_glide_ecoul>  (227) 
-4.02863

>  <r_i_glide_erotb>  (227) 
0

>  <r_i_glide_esite>  (227) 
-0.00191027

>  <r_i_glide_emodel>  (227) 
-37.8049

>  <r_i_glide_energy>  (227) 
-32.7337

>  <r_i_glide_einternal>  (227) 
1.60482

>  <r_i_glide_intrahb_reward>  (227) 
-0

>  <i_i_glide_confnum>  (227) 
1

>  <i_i_glide_posenum>  (227) 
11

>  <r_i_glide_eff_state_penalty>  (227) 
0

>  <ligand_id>  (227) 
69

>  <original_smiles>  (227) 
CC1C2CCC3CC31OCC1=C3CC4C5CCC(O)C(C)(C)C5C(O)CC4(C)C3C(=O)CC12C

>  <smiles>  (227) 
[H]OC1([H])C([H])([H])C2(C([H])([H])[H])C3([H])C(=O)C([H])([H])C4(C([H])([H])[H])C(=C3C([H])([H])C2([H])C2([H])C([H])([H])C([H])([H])C([H])(O[H])C(C([H])([H])[H])(C([H])([H])[H])C12[H])C([H])([H])OC12C([H])([H])C1([H])C([H])([H])C([H])([H])C4([H])C2([H])C([H])([H])[H]

$$$$
70:0:0
     RDKit          3D

 13 14  0  0  1  0  0  0  0  0999 V2000
   -1.0686   -8.7263    3.1043 C   0  0  0  0  0  0  0  0  0  0  0  0
   -0.7138   -7.8425    2.0667 C   0  0  0  0  0  0  0  0  0  0  0  0
   -0.0762   -6.6617    2.2507 N   0  0  0  0  0  0  0  0  0  0  0  0
    0.2463   -6.3855    3.5514 C   0  0  0  0  0  0  0  0  0  0  0  0
    1.0858   -4.9197    4.0570 S   0  0  0  0  0  0  0  0  0  0  0  0
    0.9648   -5.5028    5.7190 C   0  0  0  0  0  0  0  0  0  0  0  0
    0.3508   -6.6720    5.9188 N   0  0  0  0  0  0  0  0  0  0  0  0
   -0.0522   -7.1891    4.6910 C   0  0  0  0  0  0  0  0  0  0  0  0
   -0.7329   -8.3939    4.4295 C   0  0  0  0  0  0  0  0  0  0  0  0
   -1.5822   -9.6535    2.8938 H   0  0  0  0  0  0  0  0  0  0  0  0
   -0.9627   -8.0897    1.0446 H   0  0  0  0  0  0  0  0  0  0  0  0
    1.3549   -4.9671    6.5721 H   0  0  0  0  0  0  0  0  0  0  0  0
   -0.9903   -9.0584    5.2418 H   0  0  0  0  0  0  0  0  0  0  0  0
  1  9  2  0
  1  2  1  0
  1 10  1  0
  2  3  2  0
  2 11  1  0
  3  4  1  0
  4  8  2  0
  4  5  1  0
  5  6  1  0
  6  7  2  0
  6 12  1  0
  7  8  1  0
  8  9  1  0
  9 13  1  0
M  END
>  <i_m_ct_stereo_status>  (228) 
1

>  <s_m_source_file>  (228) 
/var/tmp/pbs.5076255.sched01/tmpt7uccrld/92zpefy4ut.sdf

>  <i_m_source_file_index>  (228) 
7

>  <i_lp_mmshare_version>  (228) 
48012

>  <i_f3d_flags>  (228) 
0

>  <s_epik_input>  (228) 
bjFbY0hdW2NIXVtjSF1jKGMxMiluW2NIXXMy

>  <s_epik_cmdline>  (228) 
J2VwaWtfcHl0aG9uJywgJy1waHQnLCAnMi4wJywgJy1waCcsICc3LjAnLCAnLXRuJywgJzgnLCAnLW1hJywgJzIwMCcsICctaW1hZScsICc8aW5maWxlLm1hZT4nLCAnLW9tYWUnLCAnPG91dGZpbGUubWFlPic=

>  <r_lp_tautomer_probability>  (228) 
1

>  <r_epik_Ionization_Penalty>  (228) 
1.8642e-08

>  <r_epik_Ionization_Penalty_Charging>  (228) 
0

>  <r_epik_Ionization_Penalty_Neutral>  (228) 
1.8642e-08

>  <r_epik_State_Penalty>  (228) 
-0

>  <r_epik_Charging_Adjusted_Penalty>  (228) 
0

>  <i_epik_Tot_Q>  (228) 
0

>  <i_epik_Tot_abs_Q>  (228) 
0

>  <s_lp_Force_Field>  (228) 
OPLS3e

>  <r_lp_Energy>  (228) 
12.2077

>  <b_lp_Chiralities_Consistent>  (228) 
1

>  <s_lp_Variant>  (228) 
70:0-1

>  <s_i_glide_gridfile>  (228) 
pfpi4k_grid

>  <i_i_glide_lignum>  (228) 
7

>  <i_i_glide_rotatable_bonds>  (228) 
0

>  <r_i_docking_score>  (228) 
-3.45695

>  <r_i_glide_ligand_efficiency>  (228) 
-0.384106

>  <r_i_glide_ligand_efficiency_sa>  (228) 
-0.798973

>  <r_i_glide_ligand_efficiency_ln>  (228) 
-1.08124

>  <r_i_glide_gscore>  (228) 
-3.45695

>  <r_i_glide_lipo>  (228) 
0

>  <r_i_glide_hbond>  (228) 
-0.16

>  <r_i_glide_metal>  (228) 
-0

>  <r_i_glide_rewards>  (228) 
-2.25

>  <r_i_glide_evdw>  (228) 
-11.6416

>  <r_i_glide_ecoul>  (228) 
-3.09916

>  <r_i_glide_erotb>  (228) 
0

>  <r_i_glide_esite>  (228) 
0

>  <r_i_glide_emodel>  (228) 
-18.3663

>  <r_i_glide_energy>  (228) 
-14.7408

>  <r_i_glide_einternal>  (228) 
0

>  <r_i_glide_intrahb_reward>  (228) 
-0

>  <i_i_glide_confnum>  (228) 
1

>  <i_i_glide_posenum>  (228) 
11

>  <r_i_glide_eff_state_penalty>  (228) 
0

>  <ligand_id>  (228) 
70

>  <original_smiles>  (228) 
c1cnc2scnc2c1

>  <smiles>  (228) 
[H]c1nc2c([H])c([H])c([H])nc2s1

$$$$
70:0:1
     RDKit          3D

 13 14  0  0  1  0  0  0  0  0999 V2000
    1.6484   -5.0516    4.9457 C   0  0  0  0  0  0  0  0  0  0  0  0
    0.7803   -5.7269    5.8289 C   0  0  0  0  0  0  0  0  0  0  0  0
   -0.1476   -6.6304    5.4446 N   0  0  0  0  0  0  0  0  0  0  0  0
   -0.1952   -6.8780    4.1018 C   0  0  0  0  0  0  0  0  0  0  0  0
   -1.3214   -8.0042    3.3468 S   0  0  0  0  0  0  0  0  0  0  0  0
   -0.5880   -7.5883    1.7939 C   0  0  0  0  0  0  0  0  0  0  0  0
    0.3576   -6.6438    1.7873 N   0  0  0  0  0  0  0  0  0  0  0  0
    0.6192   -6.2651    3.1029 C   0  0  0  0  0  0  0  0  0  0  0  0
    1.5640   -5.3239    3.5653 C   0  0  0  0  0  0  0  0  0  0  0  0
    2.3667   -4.3379    5.3204 H   0  0  0  0  0  0  0  0  0  0  0  0
    0.8348   -5.5350    6.8908 H   0  0  0  0  0  0  0  0  0  0  0  0
   -0.9181   -8.0205    0.8602 H   0  0  0  0  0  0  0  0  0  0  0  0
    2.2128   -4.8179    2.8627 H   0  0  0  0  0  0  0  0  0  0  0  0
  1  9  2  0
  1  2  1  0
  1 10  1  0
  2  3  2  0
  2 11  1  0
  3  4  1  0
  4  8  2  0
  4  5  1  0
  5  6  1  0
  6  7  2  0
  6 12  1  0
  7  8  1  0
  8  9  1  0
  9 13  1  0
M  END
>  <i_m_ct_stereo_status>  (229) 
1

>  <s_m_source_file>  (229) 
/var/tmp/pbs.5076255.sched01/tmpt7uccrld/92zpefy4ut.sdf

>  <i_m_source_file_index>  (229) 
7

>  <i_lp_mmshare_version>  (229) 
48012

>  <i_f3d_flags>  (229) 
0

>  <s_epik_input>  (229) 
bjFbY0hdW2NIXVtjSF1jKGMxMiluW2NIXXMy

>  <s_epik_cmdline>  (229) 
J2VwaWtfcHl0aG9uJywgJy1waHQnLCAnMi4wJywgJy1waCcsICc3LjAnLCAnLXRuJywgJzgnLCAnLW1hJywgJzIwMCcsICctaW1hZScsICc8aW5maWxlLm1hZT4nLCAnLW9tYWUnLCAnPG91dGZpbGUubWFlPic=

>  <r_lp_tautomer_probability>  (229) 
1

>  <r_epik_Ionization_Penalty>  (229) 
1.8642e-08

>  <r_epik_Ionization_Penalty_Charging>  (229) 
0

>  <r_epik_Ionization_Penalty_Neutral>  (229) 
1.8642e-08

>  <r_epik_State_Penalty>  (229) 
-0

>  <r_epik_Charging_Adjusted_Penalty>  (229) 
0

>  <i_epik_Tot_Q>  (229) 
0

>  <i_epik_Tot_abs_Q>  (229) 
0

>  <s_lp_Force_Field>  (229) 
OPLS3e

>  <r_lp_Energy>  (229) 
12.2077

>  <b_lp_Chiralities_Consistent>  (229) 
1

>  <s_lp_Variant>  (229) 
70:0-1

>  <s_i_glide_gridfile>  (229) 
pfpi4k_grid

>  <i_i_glide_lignum>  (229) 
7

>  <i_i_glide_rotatable_bonds>  (229) 
0

>  <r_i_docking_score>  (229) 
-3.34731

>  <r_i_glide_ligand_efficiency>  (229) 
-0.371923

>  <r_i_glide_ligand_efficiency_sa>  (229) 
-0.773632

>  <r_i_glide_ligand_efficiency_ln>  (229) 
-1.04694

>  <r_i_glide_gscore>  (229) 
-3.34731

>  <r_i_glide_lipo>  (229) 
0

>  <r_i_glide_hbond>  (229) 
-0.0656092

>  <r_i_glide_metal>  (229) 
-0

>  <r_i_glide_rewards>  (229) 
-2.25

>  <r_i_glide_evdw>  (229) 
-12.6176

>  <r_i_glide_ecoul>  (229) 
-2.67214

>  <r_i_glide_erotb>  (229) 
0

>  <r_i_glide_esite>  (229) 
0

>  <r_i_glide_emodel>  (229) 
-18.7987

>  <r_i_glide_energy>  (229) 
-15.2897

>  <r_i_glide_einternal>  (229) 
0

>  <r_i_glide_intrahb_reward>  (229) 
-0

>  <i_i_glide_confnum>  (229) 
1

>  <i_i_glide_posenum>  (229) 
2

>  <r_i_glide_eff_state_penalty>  (229) 
0

>  <ligand_id>  (229) 
70

>  <original_smiles>  (229) 
c1cnc2scnc2c1

>  <smiles>  (229) 
[H]c1nc2c([H])c([H])c([H])nc2s1

$$$$
70:0:2
     RDKit          3D

 13 14  0  0  1  0  0  0  0  0999 V2000
   -0.3843   -9.4312    2.8626 C   0  0  0  0  0  0  0  0  0  0  0  0
   -0.9335   -8.2053    2.4350 C   0  0  0  0  0  0  0  0  0  0  0  0
   -0.9261   -7.0630    3.1623 N   0  0  0  0  0  0  0  0  0  0  0  0
   -0.3355   -7.1800    4.3919 C   0  0  0  0  0  0  0  0  0  0  0  0
   -0.1842   -5.8444    5.5336 S   0  0  0  0  0  0  0  0  0  0  0  0
    0.6228   -6.9613    6.6384 C   0  0  0  0  0  0  0  0  0  0  0  0
    0.7846   -8.2208    6.2273 N   0  0  0  0  0  0  0  0  0  0  0  0
    0.2498   -8.3577    4.9488 C   0  0  0  0  0  0  0  0  0  0  0  0
    0.2157   -9.5077    4.1335 C   0  0  0  0  0  0  0  0  0  0  0  0
   -0.4232  -10.2992    2.2212 H   0  0  0  0  0  0  0  0  0  0  0  0
   -1.3841   -8.1423    1.4551 H   0  0  0  0  0  0  0  0  0  0  0  0
    0.9886   -6.6802    7.6169 H   0  0  0  0  0  0  0  0  0  0  0  0
    0.6342  -10.4365    4.4936 H   0  0  0  0  0  0  0  0  0  0  0  0
  1  9  2  0
  1  2  1  0
  1 10  1  0
  2  3  2  0
  2 11  1  0
  3  4  1  0
  4  8  2  0
  4  5  1  0
  5  6  1  0
  6  7  2  0
  6 12  1  0
  7  8  1  0
  8  9  1  0
  9 13  1  0
M  END
>  <i_m_ct_stereo_status>  (230) 
1

>  <s_m_source_file>  (230) 
/var/tmp/pbs.5076255.sched01/tmpt7uccrld/92zpefy4ut.sdf

>  <i_m_source_file_index>  (230) 
7

>  <i_lp_mmshare_version>  (230) 
48012

>  <i_f3d_flags>  (230) 
0

>  <s_epik_input>  (230) 
bjFbY0hdW2NIXVtjSF1jKGMxMiluW2NIXXMy

>  <s_epik_cmdline>  (230) 
J2VwaWtfcHl0aG9uJywgJy1waHQnLCAnMi4wJywgJy1waCcsICc3LjAnLCAnLXRuJywgJzgnLCAnLW1hJywgJzIwMCcsICctaW1hZScsICc8aW5maWxlLm1hZT4nLCAnLW9tYWUnLCAnPG91dGZpbGUubWFlPic=

>  <r_lp_tautomer_probability>  (230) 
1

>  <r_epik_Ionization_Penalty>  (230) 
1.8642e-08

>  <r_epik_Ionization_Penalty_Charging>  (230) 
0

>  <r_epik_Ionization_Penalty_Neutral>  (230) 
1.8642e-08

>  <r_epik_State_Penalty>  (230) 
-0

>  <r_epik_Charging_Adjusted_Penalty>  (230) 
0

>  <i_epik_Tot_Q>  (230) 
0

>  <i_epik_Tot_abs_Q>  (230) 
0

>  <s_lp_Force_Field>  (230) 
OPLS3e

>  <r_lp_Energy>  (230) 
12.2077

>  <b_lp_Chiralities_Consistent>  (230) 
1

>  <s_lp_Variant>  (230) 
70:0-1

>  <s_i_glide_gridfile>  (230) 
pfpi4k_grid

>  <i_i_glide_lignum>  (230) 
7

>  <i_i_glide_rotatable_bonds>  (230) 
0

>  <r_i_docking_score>  (230) 
-3.31652

>  <r_i_glide_ligand_efficiency>  (230) 
-0.368502

>  <r_i_glide_ligand_efficiency_sa>  (230) 
-0.766515

>  <r_i_glide_ligand_efficiency_ln>  (230) 
-1.03731

>  <r_i_glide_gscore>  (230) 
-3.31652

>  <r_i_glide_lipo>  (230) 
0

>  <r_i_glide_hbond>  (230) 
-0.13671

>  <r_i_glide_metal>  (230) 
-0

>  <r_i_glide_rewards>  (230) 
-2.25

>  <r_i_glide_evdw>  (230) 
-13.121

>  <r_i_glide_ecoul>  (230) 
-1.82504

>  <r_i_glide_erotb>  (230) 
0

>  <r_i_glide_esite>  (230) 
0

>  <r_i_glide_emodel>  (230) 
-18.4241

>  <r_i_glide_energy>  (230) 
-14.9461

>  <r_i_glide_einternal>  (230) 
0

>  <r_i_glide_intrahb_reward>  (230) 
-0

>  <i_i_glide_confnum>  (230) 
1

>  <i_i_glide_posenum>  (230) 
6

>  <r_i_glide_eff_state_penalty>  (230) 
0

>  <ligand_id>  (230) 
70

>  <original_smiles>  (230) 
c1cnc2scnc2c1

>  <smiles>  (230) 
[H]c1nc2c([H])c([H])c([H])nc2s1

$$$$
71:0:0
     RDKit          3D

 68 73  0  0  1  0  0  0  0  0999 V2000
    5.0327   -3.6441    3.5737 C   0  0  0  0  0  0  0  0  0  0  0  0
    4.5353   -3.2526    2.1142 C   0  0  1  0  0  0  0  0  0  0  0  0
    5.7769   -2.3977    1.7417 C   0  0  0  0  0  0  0  0  0  0  0  0
    5.6211   -0.9088    2.2611 C   0  0  0  0  0  0  0  0  0  0  0  0
    4.1729   -0.2247    2.1500 C   0  0  1  0  0  0  0  0  0  0  0  0
    3.5088   -1.0410    1.0667 C   0  0  1  0  0  0  0  0  0  0  0  0
    4.2073   -1.1178   -0.3599 C   0  0  0  0  0  0  0  0  0  0  0  0
    3.9602   -2.3550   -1.2971 C   0  0  0  0  0  0  0  0  0  0  0  0
    4.5537   -3.7888   -1.0299 C   0  0  1  0  0  0  0  0  0  0  0  0
    5.9618   -3.8445   -1.0816 O   0  0  0  0  0  0  0  0  0  0  0  0
    3.9344   -4.7847    0.0156 C   0  0  0  0  0  0  0  0  0  0  0  0
    4.1060   -4.6252    1.5721 C   0  0  2  0  0  0  0  0  0  0  0  0
    2.8092   -5.0426    2.4472 C   0  0  0  0  0  0  0  0  0  0  0  0
    1.9152   -3.9121    3.2051 C   0  0  0  0  0  0  0  0  0  0  0  0
    2.4982   -2.4406    3.1517 C   0  0  1  0  0  0  0  0  0  0  0  0
    3.2431   -2.3802    1.8137 C   0  0  2  0  0  0  0  0  0  0  0  0
    2.2359   -2.7976    0.8827 O   0  0  0  0  0  0  0  0  0  0  0  0
    1.9070   -1.0386    3.4632 C   0  0  1  0  0  0  0  0  0  0  0  0
    0.9915   -0.7920    2.3994 O   0  0  0  0  0  0  0  0  0  0  0  0
    0.8853   -0.8055    4.6599 C   0  0  2  0  0  0  0  0  0  0  0  0
   -0.2960   -1.8061    4.6956 C   0  0  0  0  0  0  0  0  0  0  0  0
    0.3478    0.4963    4.3857 O   0  0  0  0  0  0  0  0  0  0  0  0
    1.3455    1.4567    4.6679 C   0  0  1  0  0  0  0  0  0  0  0  0
    1.5828    1.0072    6.1164 C   0  0  0  0  0  0  0  0  0  0  0  0
    1.4826   -0.5316    6.0629 C   0  0  1  0  0  0  0  0  0  0  0  0
    0.6916   -0.9771    7.1521 O   0  0  0  0  0  0  0  0  0  0  0  0
    2.4974    1.3792    3.5876 C   0  0  1  0  0  0  0  0  0  0  0  0
    3.4122    2.4243    3.8446 O   0  0  0  0  0  0  0  0  0  0  0  0
    3.1902   -0.0257    3.4532 C   0  0  2  0  0  0  0  0  0  0  0  0
    4.1922   -0.1064    4.6592 C   0  0  0  0  0  0  0  0  0  0  0  0
    5.4124   -2.8086    4.1519 H   0  0  0  0  0  0  0  0  0  0  0  0
    5.8705   -4.3366    3.5173 H   0  0  0  0  0  0  0  0  0  0  0  0
    4.3283   -4.1537    4.2248 H   0  0  0  0  0  0  0  0  0  0  0  0
    6.7059   -2.8369    2.0922 H   0  0  0  0  0  0  0  0  0  0  0  0
    5.9989   -2.3970    0.7008 H   0  0  0  0  0  0  0  0  0  0  0  0
    6.0969   -0.8428    3.2358 H   0  0  0  0  0  0  0  0  0  0  0  0
    6.2857   -0.3135    1.6375 H   0  0  0  0  0  0  0  0  0  0  0  0
    4.3158    0.7691    1.7385 H   0  0  0  0  0  0  0  0  0  0  0  0
    2.6126   -0.4875    0.8005 H   0  0  0  0  0  0  0  0  0  0  0  0
    3.8207   -0.2667   -0.9142 H   0  0  0  0  0  0  0  0  0  0  0  0
    5.2648   -0.8550   -0.3535 H   0  0  0  0  0  0  0  0  0  0  0  0
    2.8911   -2.4519   -1.4904 H   0  0  0  0  0  0  0  0  0  0  0  0
    4.3502   -2.0557   -2.2707 H   0  0  0  0  0  0  0  0  0  0  0  0
    4.3121   -4.2833   -1.9697 H   0  0  0  0  0  0  0  0  0  0  0  0
    6.2451   -3.5755   -1.9428 H   0  0  0  0  0  0  0  0  0  0  0  0
    2.8787   -4.8894   -0.2278 H   0  0  0  0  0  0  0  0  0  0  0  0
    4.3221   -5.7735   -0.2332 H   0  0  0  0  0  0  0  0  0  0  0  0
    4.9002   -5.3370    1.8040 H   0  0  0  0  0  0  0  0  0  0  0  0
    2.1511   -5.6507    1.8326 H   0  0  0  0  0  0  0  0  0  0  0  0
    3.1506   -5.7465    3.2096 H   0  0  0  0  0  0  0  0  0  0  0  0
    0.8986   -3.9273    2.8187 H   0  0  0  0  0  0  0  0  0  0  0  0
    1.8116   -4.2028    4.2497 H   0  0  0  0  0  0  0  0  0  0  0  0
    3.1266   -2.4371    4.0212 H   0  0  0  0  0  0  0  0  0  0  0  0
    1.9564   -2.0639    0.3380 H   0  0  0  0  0  0  0  0  0  0  0  0
    1.4466   -0.7628    1.5696 H   0  0  0  0  0  0  0  0  0  0  0  0
    0.0191   -2.7921    5.0331 H   0  0  0  0  0  0  0  0  0  0  0  0
   -0.7547   -1.9243    3.7187 H   0  0  0  0  0  0  0  0  0  0  0  0
   -1.0862   -1.4610    5.3606 H   0  0  0  0  0  0  0  0  0  0  0  0
    0.9001    2.4524    4.6466 H   0  0  0  0  0  0  0  0  0  0  0  0
    2.4688    1.4241    6.5906 H   0  0  0  0  0  0  0  0  0  0  0  0
    0.7492    1.3965    6.7045 H   0  0  0  0  0  0  0  0  0  0  0  0
    2.4219   -1.0597    6.1875 H   0  0  0  0  0  0  0  0  0  0  0  0
    1.1813   -0.8244    7.9464 H   0  0  0  0  0  0  0  0  0  0  0  0
    2.0386    1.6172    2.6271 H   0  0  0  0  0  0  0  0  0  0  0  0
    3.9942    2.5450    3.0944 H   0  0  0  0  0  0  0  0  0  0  0  0
    3.8774    0.3338    5.5869 H   0  0  0  0  0  0  0  0  0  0  0  0
    5.0820    0.4902    4.4656 H   0  0  0  0  0  0  0  0  0  0  0  0
    4.5092   -1.1066    4.9167 H   0  0  0  0  0  0  0  0  0  0  0  0
  2  1  1  1
  1 31  1  0
  1 32  1  0
  1 33  1  0
  2 12  1  0
  2 16  1  0
  2  3  1  0
  3  4  1  0
  3 34  1  0
  3 35  1  0
  4  5  1  0
  4 36  1  0
  4 37  1  0
  5 29  1  0
  5  6  1  0
  5 38  1  6
  6 16  1  0
  6  7  1  0
  6 39  1  6
  7  8  1  0
  7 40  1  0
  7 41  1  0
  8  9  1  0
  8 42  1  0
  8 43  1  0
  9 10  1  0
  9 11  1  0
  9 44  1  6
 10 45  1  0
 11 12  1  0
 11 46  1  0
 11 47  1  0
 12 13  1  0
 12 48  1  1
 13 14  1  0
 13 49  1  0
 13 50  1  0
 14 15  1  0
 14 51  1  0
 14 52  1  0
 15 16  1  0
 15 18  1  0
 15 53  1  1
 16 17  1  6
 17 54  1  0
 18 29  1  0
 18 19  1  6
 18 20  1  0
 19 55  1  0
 20 25  1  0
 20 21  1  1
 20 22  1  0
 21 56  1  0
 21 57  1  0
 21 58  1  0
 22 23  1  0
 23 24  1  0
 23 27  1  0
 23 59  1  1
 24 25  1  0
 24 60  1  0
 24 61  1  0
 25 26  1  0
 25 62  1  6
 26 63  1  0
 27 28  1  0
 27 29  1  0
 27 64  1  6
 28 65  1  0
 29 30  1  1
 30 66  1  0
 30 67  1  0
 30 68  1  0
M  END
>  <i_m_ct_stereo_status>  (231) 
1

>  <s_m_source_file>  (231) 
/var/tmp/pbs.5076255.sched01/tmpt7uccrld/92zpefy4ut.sdf

>  <i_m_source_file_index>  (231) 
8

>  <i_lp_mmshare_version>  (231) 
48012

>  <i_f3d_flags>  (231) 
0

>  <s_epik_input>  (231) 
W0NIM11bQ0BdMTJbQ0BASF0zW0NIMl1bQ0BIXShbT0hdKVtDSDJdW0NIMl1bQ0BASF00W0NASF0oW0NIMl1bQ0gyXTEpW0NAXTUoW0NIM10pW0NAQF0oW09IXSkoW0NAQEhdKFtDSDJdW0NIMl0zKVtDQF0yNFtPSF0pW0NAXTYoW0NIM10pT1tDQEhdKFtDQEhdNVtPSF0pW0NIMl1bQ0BIXTZbT0hd

>  <s_epik_cmdline>  (231) 
J2VwaWtfcHl0aG9uJywgJy1waHQnLCAnMi4wJywgJy1waCcsICc3LjAnLCAnLXRuJywgJzgnLCAnLW1hJywgJzIwMCcsICctaW1hZScsICc8aW5maWxlLm1hZT4nLCAnLW9tYWUnLCAnPG91dGZpbGUubWFlPic=

>  <r_lp_tautomer_probability>  (231) 
1

>  <r_epik_Ionization_Penalty>  (231) 
7.25791e-06

>  <r_epik_Ionization_Penalty_Charging>  (231) 
0

>  <r_epik_Ionization_Penalty_Neutral>  (231) 
7.25791e-06

>  <r_epik_State_Penalty>  (231) 
-0

>  <r_epik_Charging_Adjusted_Penalty>  (231) 
0

>  <i_epik_Tot_Q>  (231) 
0

>  <i_epik_Tot_abs_Q>  (231) 
0

>  <s_lp_Force_Field>  (231) 
OPLS3e

>  <r_lp_Energy>  (231) 
220.484

>  <b_lp_Chiralities_Consistent>  (231) 
1

>  <s_lp_Variant>  (231) 
71:0-1

>  <s_i_glide_gridfile>  (231) 
pfpi4k_grid

>  <i_i_glide_lignum>  (231) 
8

>  <i_i_glide_rotatable_bonds>  (231) 
5

>  <r_i_docking_score>  (231) 
-3.23691

>  <r_i_glide_ligand_efficiency>  (231) 
-0.107897

>  <r_i_glide_ligand_efficiency_sa>  (231) 
-0.335261

>  <r_i_glide_ligand_efficiency_ln>  (231) 
-0.735462

>  <r_i_glide_gscore>  (231) 
-3.23691

>  <r_i_glide_lipo>  (231) 
-0.302293

>  <r_i_glide_hbond>  (231) 
-0.304

>  <r_i_glide_metal>  (231) 
-0

>  <r_i_glide_rewards>  (231) 
-0.528035

>  <r_i_glide_evdw>  (231) 
-21.3516

>  <r_i_glide_ecoul>  (231) 
-6.90004

>  <r_i_glide_erotb>  (231) 
0

>  <r_i_glide_esite>  (231) 
0

>  <r_i_glide_emodel>  (231) 
-33.4583

>  <r_i_glide_energy>  (231) 
-28.2517

>  <r_i_glide_einternal>  (231) 
2.11417

>  <r_i_glide_intrahb_reward>  (231) 
-0

>  <i_i_glide_confnum>  (231) 
2

>  <i_i_glide_posenum>  (231) 
38

>  <r_i_glide_eff_state_penalty>  (231) 
0

>  <ligand_id>  (231) 
71

>  <original_smiles>  (231) 
CC12CCC3C4CCC(O)CC1CCC(C42O)C1(O)C2(C)OC(CC2O)C(O)C31C

>  <smiles>  (231) 
[H]OC1([H])C([H])([H])C([H])([H])C2([H])C3([H])C([H])([H])C([H])([H])C4(C([H])([H])[H])C([H])(C([H])([H])C([H])([H])C([H])(C24O[H])C2(O[H])C4(C([H])([H])[H])OC([H])(C([H])([H])C4([H])O[H])C([H])(O[H])C32C([H])([H])[H])C1([H])[H]

$$$$
71:0:1
     RDKit          3D

 68 73  0  0  1  0  0  0  0  0999 V2000
    5.6690   -5.7821    4.0852 C   0  0  0  0  0  0  0  0  0  0  0  0
    4.8434   -4.9054    3.0515 C   0  0  1  0  0  0  0  0  0  0  0  0
    4.6389   -3.6948    4.0021 C   0  0  0  0  0  0  0  0  0  0  0  0
    3.3669   -3.8911    4.9279 C   0  0  0  0  0  0  0  0  0  0  0  0
    2.0629   -4.5706    4.2819 C   0  0  1  0  0  0  0  0  0  0  0  0
    2.2745   -4.3183    2.8016 C   0  0  1  0  0  0  0  0  0  0  0  0
    2.4276   -2.8203    2.2960 C   0  0  0  0  0  0  0  0  0  0  0  0
    3.2172   -2.4904    0.9763 C   0  0  0  0  0  0  0  0  0  0  0  0
    4.7846   -2.5917    0.8325 C   0  0  1  0  0  0  0  0  0  0  0  0
    5.5110   -1.7015    1.6460 O   0  0  0  0  0  0  0  0  0  0  0  0
    5.5183   -3.9669    0.6300 C   0  0  0  0  0  0  0  0  0  0  0  0
    5.7198   -5.0147    1.7930 C   0  0  2  0  0  0  0  0  0  0  0  0
    5.6162   -6.5636    1.3393 C   0  0  0  0  0  0  0  0  0  0  0  0
    4.3324   -7.4718    1.7596 C   0  0  0  0  0  0  0  0  0  0  0  0
    3.3455   -6.8019    2.8057 C   0  0  1  0  0  0  0  0  0  0  0  0
    3.4298   -5.3115    2.4763 C   0  0  2  0  0  0  0  0  0  0  0  0
    3.1453   -5.3037    1.0734 O   0  0  0  0  0  0  0  0  0  0  0  0
    1.8969   -7.1334    3.2797 C   0  0  1  0  0  0  0  0  0  0  0  0
    1.0549   -6.8166    2.1672 O   0  0  0  0  0  0  0  0  0  0  0  0
    1.4164   -8.6311    3.5004 C   0  0  2  0  0  0  0  0  0  0  0  0
    1.7236   -9.5692    2.3079 C   0  0  0  0  0  0  0  0  0  0  0  0
   -0.0022   -8.4750    3.5954 O   0  0  0  0  0  0  0  0  0  0  0  0
   -0.3054   -7.9240    4.8565 C   0  0  1  0  0  0  0  0  0  0  0  0
    0.4389   -8.9676    5.6980 C   0  0  0  0  0  0  0  0  0  0  0  0
    1.7043   -9.2839    4.8839 C   0  0  1  0  0  0  0  0  0  0  0  0
    1.8700  -10.6876    4.8450 O   0  0  0  0  0  0  0  0  0  0  0  0
    0.1253   -6.4037    4.8725 C   0  0  1  0  0  0  0  0  0  0  0  0
   -0.2955   -5.7898    6.0748 O   0  0  0  0  0  0  0  0  0  0  0  0
    1.6404   -6.1373    4.5602 C   0  0  2  0  0  0  0  0  0  0  0  0
    2.3976   -6.4602    5.8966 C   0  0  0  0  0  0  0  0  0  0  0  0
    5.2241   -5.8343    5.0728 H   0  0  0  0  0  0  0  0  0  0  0  0
    6.6562   -5.3537    4.2566 H   0  0  0  0  0  0  0  0  0  0  0  0
    5.8814   -6.8125    3.8097 H   0  0  0  0  0  0  0  0  0  0  0  0
    5.5044   -3.5084    4.6426 H   0  0  0  0  0  0  0  0  0  0  0  0
    4.5841   -2.7572    3.4910 H   0  0  0  0  0  0  0  0  0  0  0  0
    3.7071   -4.3491    5.8519 H   0  0  0  0  0  0  0  0  0  0  0  0
    3.0725   -2.8919    5.2524 H   0  0  0  0  0  0  0  0  0  0  0  0
    1.2145   -3.9747    4.6173 H   0  0  0  0  0  0  0  0  0  0  0  0
    1.3341   -4.5754    2.3276 H   0  0  0  0  0  0  0  0  0  0  0  0
    1.4116   -2.4885    2.0946 H   0  0  0  0  0  0  0  0  0  0  0  0
    2.6950   -2.1198    3.0826 H   0  0  0  0  0  0  0  0  0  0  0  0
    2.7457   -3.0050    0.1376 H   0  0  0  0  0  0  0  0  0  0  0  0
    2.9765   -1.4470    0.7652 H   0  0  0  0  0  0  0  0  0  0  0  0
    4.9348   -2.1249   -0.1416 H   0  0  0  0  0  0  0  0  0  0  0  0
    5.0975   -0.8462    1.6060 H   0  0  0  0  0  0  0  0  0  0  0  0
    5.0676   -4.4580   -0.2316 H   0  0  0  0  0  0  0  0  0  0  0  0
    6.5163   -3.7310    0.2632 H   0  0  0  0  0  0  0  0  0  0  0  0
    6.7524   -4.8387    2.0974 H   0  0  0  0  0  0  0  0  0  0  0  0
    5.7006   -6.6083    0.2559 H   0  0  0  0  0  0  0  0  0  0  0  0
    6.5134   -7.0757    1.6874 H   0  0  0  0  0  0  0  0  0  0  0  0
    3.7925   -7.7855    0.8649 H   0  0  0  0  0  0  0  0  0  0  0  0
    4.7061   -8.3978    2.2011 H   0  0  0  0  0  0  0  0  0  0  0  0
    3.7940   -7.0817    3.7370 H   0  0  0  0  0  0  0  0  0  0  0  0
    3.3904   -4.4495    0.7326 H   0  0  0  0  0  0  0  0  0  0  0  0
    1.1856   -7.4943    1.5103 H   0  0  0  0  0  0  0  0  0  0  0  0
    2.7801   -9.8291    2.2554 H   0  0  0  0  0  0  0  0  0  0  0  0
    1.4374   -9.1520    1.3434 H   0  0  0  0  0  0  0  0  0  0  0  0
    1.1675  -10.5003    2.4017 H   0  0  0  0  0  0  0  0  0  0  0  0
   -1.3806   -7.9979    5.0190 H   0  0  0  0  0  0  0  0  0  0  0  0
    0.5834   -8.7123    6.7442 H   0  0  0  0  0  0  0  0  0  0  0  0
   -0.1862   -9.8612    5.7205 H   0  0  0  0  0  0  0  0  0  0  0  0
    2.6351   -8.9164    5.3050 H   0  0  0  0  0  0  0  0  0  0  0  0
    1.8212  -11.0414    5.7307 H   0  0  0  0  0  0  0  0  0  0  0  0
   -0.4539   -5.9087    4.0905 H   0  0  0  0  0  0  0  0  0  0  0  0
    0.1727   -6.1979    6.7953 H   0  0  0  0  0  0  0  0  0  0  0  0
    2.0311   -7.2823    6.4820 H   0  0  0  0  0  0  0  0  0  0  0  0
    2.2814   -5.6487    6.6123 H   0  0  0  0  0  0  0  0  0  0  0  0
    3.4571   -6.6507    5.7792 H   0  0  0  0  0  0  0  0  0  0  0  0
  2  1  1  1
  1 31  1  0
  1 32  1  0
  1 33  1  0
  2 12  1  0
  2 16  1  0
  2  3  1  0
  3  4  1  0
  3 34  1  0
  3 35  1  0
  4  5  1  0
  4 36  1  0
  4 37  1  0
  5 29  1  0
  5  6  1  0
  5 38  1  1
  6 16  1  0
  6  7  1  0
  6 39  1  6
  7  8  1  0
  7 40  1  0
  7 41  1  0
  8  9  1  0
  8 42  1  0
  8 43  1  0
  9 10  1  0
  9 11  1  0
  9 44  1  6
 10 45  1  0
 11 12  1  0
 11 46  1  0
 11 47  1  0
 12 13  1  0
 12 48  1  1
 13 14  1  0
 13 49  1  0
 13 50  1  0
 14 15  1  0
 14 51  1  0
 14 52  1  0
 15 16  1  0
 15 18  1  0
 15 53  1  1
 16 17  1  6
 17 54  1  0
 18 29  1  0
 18 19  1  6
 18 20  1  0
 19 55  1  0
 20 25  1  0
 20 21  1  6
 20 22  1  0
 21 56  1  0
 21 57  1  0
 21 58  1  0
 22 23  1  0
 23 24  1  0
 23 27  1  0
 23 59  1  1
 24 25  1  0
 24 60  1  0
 24 61  1  0
 25 26  1  0
 25 62  1  1
 26 63  1  0
 27 28  1  0
 27 29  1  0
 27 64  1  6
 28 65  1  0
 29 30  1  1
 30 66  1  0
 30 67  1  0
 30 68  1  0
M  END
>  <i_m_ct_stereo_status>  (232) 
1

>  <s_m_source_file>  (232) 
/var/tmp/pbs.5076255.sched01/tmpt7uccrld/92zpefy4ut.sdf

>  <i_m_source_file_index>  (232) 
8

>  <i_lp_mmshare_version>  (232) 
48012

>  <i_f3d_flags>  (232) 
0

>  <s_epik_input>  (232) 
W0NIM11bQ0BdMTJbQ0BASF0zW0NIMl1bQ0BIXShbT0hdKVtDSDJdW0NIMl1bQ0BASF00W0NASF0oW0NIMl1bQ0gyXTEpW0NAXTUoW0NIM10pW0NAQF0oW09IXSkoW0NAQEhdKFtDSDJdW0NIMl0zKVtDQF0yNFtPSF0pW0NAXTYoW0NIM10pT1tDQEhdKFtDQEhdNVtPSF0pW0NIMl1bQ0BIXTZbT0hd

>  <s_epik_cmdline>  (232) 
J2VwaWtfcHl0aG9uJywgJy1waHQnLCAnMi4wJywgJy1waCcsICc3LjAnLCAnLXRuJywgJzgnLCAnLW1hJywgJzIwMCcsICctaW1hZScsICc8aW5maWxlLm1hZT4nLCAnLW9tYWUnLCAnPG91dGZpbGUubWFlPic=

>  <r_lp_tautomer_probability>  (232) 
1

>  <r_epik_Ionization_Penalty>  (232) 
7.25791e-06

>  <r_epik_Ionization_Penalty_Charging>  (232) 
0

>  <r_epik_Ionization_Penalty_Neutral>  (232) 
7.25791e-06

>  <r_epik_State_Penalty>  (232) 
-0

>  <r_epik_Charging_Adjusted_Penalty>  (232) 
0

>  <i_epik_Tot_Q>  (232) 
0

>  <i_epik_Tot_abs_Q>  (232) 
0

>  <s_lp_Force_Field>  (232) 
OPLS3e

>  <r_lp_Energy>  (232) 
220.484

>  <b_lp_Chiralities_Consistent>  (232) 
1

>  <s_lp_Variant>  (232) 
71:0-1

>  <s_i_glide_gridfile>  (232) 
pfpi4k_grid

>  <i_i_glide_lignum>  (232) 
8

>  <i_i_glide_rotatable_bonds>  (232) 
5

>  <r_i_docking_score>  (232) 
-2.69044

>  <r_i_glide_ligand_efficiency>  (232) 
-0.0896814

>  <r_i_glide_ligand_efficiency_sa>  (232) 
-0.278661

>  <r_i_glide_ligand_efficiency_ln>  (232) 
-0.611297

>  <r_i_glide_gscore>  (232) 
-2.69044

>  <r_i_glide_lipo>  (232) 
-0.373004

>  <r_i_glide_hbond>  (232) 
0

>  <r_i_glide_metal>  (232) 
-0

>  <r_i_glide_rewards>  (232) 
-0.528035

>  <r_i_glide_evdw>  (232) 
-26.6189

>  <r_i_glide_ecoul>  (232) 
-3.05638

>  <r_i_glide_erotb>  (232) 
0

>  <r_i_glide_esite>  (232) 
0

>  <r_i_glide_emodel>  (232) 
-34.4623

>  <r_i_glide_energy>  (232) 
-29.6753

>  <r_i_glide_einternal>  (232) 
1.03103

>  <r_i_glide_intrahb_reward>  (232) 
-0

>  <i_i_glide_confnum>  (232) 
1

>  <i_i_glide_posenum>  (232) 
36

>  <r_i_glide_eff_state_penalty>  (232) 
0

>  <ligand_id>  (232) 
71

>  <original_smiles>  (232) 
CC12CCC3C4CCC(O)CC1CCC(C42O)C1(O)C2(C)OC(CC2O)C(O)C31C

>  <smiles>  (232) 
[H]OC1([H])C([H])([H])C([H])([H])C2([H])C3([H])C([H])([H])C([H])([H])C4(C([H])([H])[H])C([H])(C([H])([H])C([H])([H])C([H])(C24O[H])C2(O[H])C4(C([H])([H])[H])OC([H])(C([H])([H])C4([H])O[H])C([H])(O[H])C32C([H])([H])[H])C1([H])[H]

$$$$
71:0:2
     RDKit          3D

 68 73  0  0  1  0  0  0  0  0999 V2000
    5.6501   -5.5708    3.6787 C   0  0  0  0  0  0  0  0  0  0  0  0
    4.8401   -4.5737    2.7521 C   0  0  1  0  0  0  0  0  0  0  0  0
    4.9422   -3.3514    3.7008 C   0  0  0  0  0  0  0  0  0  0  0  0
    3.7860   -3.3527    4.7752 C   0  0  0  0  0  0  0  0  0  0  0  0
    2.3257   -3.8161    4.3162 C   0  0  1  0  0  0  0  0  0  0  0  0
    2.3849   -3.5949    2.8197 C   0  0  1  0  0  0  0  0  0  0  0  0
    2.7100   -2.1378    2.2748 C   0  0  0  0  0  0  0  0  0  0  0  0
    3.3772   -1.9231    0.8655 C   0  0  0  0  0  0  0  0  0  0  0  0
    4.8739   -2.2696    0.5211 C   0  0  1  0  0  0  0  0  0  0  0  0
    5.8379   -1.5119    1.2147 O   0  0  0  0  0  0  0  0  0  0  0  0
    5.3366   -3.7434    0.2529 C   0  0  0  0  0  0  0  0  0  0  0  0
    5.5192   -4.8063    1.3971 C   0  0  2  0  0  0  0  0  0  0  0  0
    5.1132   -6.3105    0.9721 C   0  0  0  0  0  0  0  0  0  0  0  0
    3.7788   -7.0157    1.5688 C   0  0  0  0  0  0  0  0  0  0  0  0
    3.0641   -6.2250    2.7378 C   0  0  1  0  0  0  0  0  0  0  0  0
    3.3252   -4.7596    2.3763 C   0  0  2  0  0  0  0  0  0  0  0  0
    2.8390   -4.6875    1.0410 O   0  0  0  0  0  0  0  0  0  0  0  0
    1.6540   -6.3230    3.3871 C   0  0  1  0  0  0  0  0  0  0  0  0
    0.7841   -5.8673    2.3610 O   0  0  0  0  0  0  0  0  0  0  0  0
    0.9556   -7.7264    3.6621 C   0  0  2  0  0  0  0  0  0  0  0  0
    0.9554   -8.6884    2.4562 C   0  0  0  0  0  0  0  0  0  0  0  0
   -0.3905   -7.3365    3.9369 O   0  0  0  0  0  0  0  0  0  0  0  0
   -0.4282   -6.7490    5.2148 C   0  0  1  0  0  0  0  0  0  0  0  0
    0.2297   -7.9183    5.9597 C   0  0  0  0  0  0  0  0  0  0  0  0
    1.3144   -8.4220    4.9950 C   0  0  1  0  0  0  0  0  0  0  0  0
    1.2835   -9.8270    4.9418 O   0  0  0  0  0  0  0  0  0  0  0  0
    0.2397   -5.3267    5.1690 C   0  0  1  0  0  0  0  0  0  0  0  0
    0.0727   -4.6624    6.4028 O   0  0  0  0  0  0  0  0  0  0  0  0
    1.7183   -5.3046    4.6699 C   0  0  2  0  0  0  0  0  0  0  0  0
    2.5748   -5.7502    5.9037 C   0  0  0  0  0  0  0  0  0  0  0  0
    5.3337   -5.5589    4.7154 H   0  0  0  0  0  0  0  0  0  0  0  0
    6.7060   -5.3002    3.7111 H   0  0  0  0  0  0  0  0  0  0  0  0
    5.6659   -6.6199    3.3941 H   0  0  0  0  0  0  0  0  0  0  0  0
    5.8599   -3.3342    4.2836 H   0  0  0  0  0  0  0  0  0  0  0  0
    5.0038   -2.4123    3.1874 H   0  0  0  0  0  0  0  0  0  0  0  0
    4.1766   -3.8859    5.6354 H   0  0  0  0  0  0  0  0  0  0  0  0
    3.6929   -2.3264    5.1325 H   0  0  0  0  0  0  0  0  0  0  0  0
    1.6223   -3.1052    4.7501 H   0  0  0  0  0  0  0  0  0  0  0  0
    1.3497   -3.6738    2.4897 H   0  0  0  0  0  0  0  0  0  0  0  0
    1.7381   -1.6506    2.1895 H   0  0  0  0  0  0  0  0  0  0  0  0
    3.1847   -1.4901    3.0108 H   0  0  0  0  0  0  0  0  0  0  0  0
    2.7308   -2.3462    0.0933 H   0  0  0  0  0  0  0  0  0  0  0  0
    3.2839   -0.8543    0.6743 H   0  0  0  0  0  0  0  0  0  0  0  0
    4.9709   -1.8280   -0.4709 H   0  0  0  0  0  0  0  0  0  0  0  0
    5.5566   -0.6037    1.2352 H   0  0  0  0  0  0  0  0  0  0  0  0
    4.7099   -4.1513   -0.5426 H   0  0  0  0  0  0  0  0  0  0  0  0
    6.3102   -3.6695   -0.2323 H   0  0  0  0  0  0  0  0  0  0  0  0
    6.5957   -4.7901    1.5673 H   0  0  0  0  0  0  0  0  0  0  0  0
    5.0460   -6.3613   -0.1100 H   0  0  0  0  0  0  0  0  0  0  0  0
    5.9549   -6.9572    1.2115 H   0  0  0  0  0  0  0  0  0  0  0  0
    3.0692   -7.2002    0.7569 H   0  0  0  0  0  0  0  0  0  0  0  0
    4.0536   -7.9992    1.9542 H   0  0  0  0  0  0  0  0  0  0  0  0
    3.5815   -6.5924    3.6023 H   0  0  0  0  0  0  0  0  0  0  0  0
    3.1904   -3.8768    0.6618 H   0  0  0  0  0  0  0  0  0  0  0  0
    1.2233   -5.0757    2.0191 H   0  0  0  0  0  0  0  0  0  0  0  0
    1.9492   -9.0984    2.2853 H   0  0  0  0  0  0  0  0  0  0  0  0
    0.6274   -8.2135    1.5332 H   0  0  0  0  0  0  0  0  0  0  0  0
    0.2819   -9.5251    2.6199 H   0  0  0  0  0  0  0  0  0  0  0  0
   -1.4697   -6.6180    5.4905 H   0  0  0  0  0  0  0  0  0  0  0  0
    0.5444   -7.7047    6.9766 H   0  0  0  0  0  0  0  0  0  0  0  0
   -0.5231   -8.6984    6.0664 H   0  0  0  0  0  0  0  0  0  0  0  0
    2.3382   -8.1986    5.2845 H   0  0  0  0  0  0  0  0  0  0  0  0
    0.3814  -10.1198    4.8493 H   0  0  0  0  0  0  0  0  0  0  0  0
   -0.3327   -4.7313    4.4620 H   0  0  0  0  0  0  0  0  0  0  0  0
    0.5570   -5.1413    7.0630 H   0  0  0  0  0  0  0  0  0  0  0  0
    2.1562   -6.5119    6.5342 H   0  0  0  0  0  0  0  0  0  0  0  0
    2.6668   -4.9269    6.6096 H   0  0  0  0  0  0  0  0  0  0  0  0
    3.5716   -6.0967    5.6587 H   0  0  0  0  0  0  0  0  0  0  0  0
  2  1  1  1
  1 31  1  0
  1 32  1  0
  1 33  1  0
  2 12  1  0
  2 16  1  0
  2  3  1  0
  3  4  1  0
  3 34  1  0
  3 35  1  0
  4  5  1  0
  4 36  1  0
  4 37  1  0
  5 29  1  0
  5  6  1  0
  5 38  1  1
  6 16  1  0
  6  7  1  0
  6 39  1  6
  7  8  1  0
  7 40  1  0
  7 41  1  0
  8  9  1  0
  8 42  1  0
  8 43  1  0
  9 10  1  0
  9 11  1  0
  9 44  1  6
 10 45  1  0
 11 12  1  0
 11 46  1  0
 11 47  1  0
 12 13  1  0
 12 48  1  1
 13 14  1  0
 13 49  1  0
 13 50  1  0
 14 15  1  0
 14 51  1  0
 14 52  1  0
 15 16  1  0
 15 18  1  0
 15 53  1  1
 16 17  1  6
 17 54  1  0
 18 29  1  0
 18 19  1  6
 18 20  1  0
 19 55  1  0
 20 25  1  0
 20 21  1  6
 20 22  1  0
 21 56  1  0
 21 57  1  0
 21 58  1  0
 22 23  1  0
 23 24  1  0
 23 27  1  0
 23 59  1  1
 24 25  1  0
 24 60  1  0
 24 61  1  0
 25 26  1  0
 25 62  1  1
 26 63  1  0
 27 28  1  0
 27 29  1  0
 27 64  1  6
 28 65  1  0
 29 30  1  1
 30 66  1  0
 30 67  1  0
 30 68  1  0
M  END
>  <i_m_ct_stereo_status>  (233) 
1

>  <s_m_source_file>  (233) 
/var/tmp/pbs.5076255.sched01/tmpt7uccrld/92zpefy4ut.sdf

>  <i_m_source_file_index>  (233) 
8

>  <i_lp_mmshare_version>  (233) 
48012

>  <i_f3d_flags>  (233) 
0

>  <s_epik_input>  (233) 
W0NIM11bQ0BdMTJbQ0BASF0zW0NIMl1bQ0BIXShbT0hdKVtDSDJdW0NIMl1bQ0BASF00W0NASF0oW0NIMl1bQ0gyXTEpW0NAXTUoW0NIM10pW0NAQF0oW09IXSkoW0NAQEhdKFtDSDJdW0NIMl0zKVtDQF0yNFtPSF0pW0NAXTYoW0NIM10pT1tDQEhdKFtDQEhdNVtPSF0pW0NIMl1bQ0BIXTZbT0hd

>  <s_epik_cmdline>  (233) 
J2VwaWtfcHl0aG9uJywgJy1waHQnLCAnMi4wJywgJy1waCcsICc3LjAnLCAnLXRuJywgJzgnLCAnLW1hJywgJzIwMCcsICctaW1hZScsICc8aW5maWxlLm1hZT4nLCAnLW9tYWUnLCAnPG91dGZpbGUubWFlPic=

>  <r_lp_tautomer_probability>  (233) 
1

>  <r_epik_Ionization_Penalty>  (233) 
7.25791e-06

>  <r_epik_Ionization_Penalty_Charging>  (233) 
0

>  <r_epik_Ionization_Penalty_Neutral>  (233) 
7.25791e-06

>  <r_epik_State_Penalty>  (233) 
-0

>  <r_epik_Charging_Adjusted_Penalty>  (233) 
0

>  <i_epik_Tot_Q>  (233) 
0

>  <i_epik_Tot_abs_Q>  (233) 
0

>  <s_lp_Force_Field>  (233) 
OPLS3e

>  <r_lp_Energy>  (233) 
220.484

>  <b_lp_Chiralities_Consistent>  (233) 
1

>  <s_lp_Variant>  (233) 
71:0-1

>  <s_i_glide_gridfile>  (233) 
pfpi4k_grid

>  <i_i_glide_lignum>  (233) 
8

>  <i_i_glide_rotatable_bonds>  (233) 
5

>  <r_i_docking_score>  (233) 
-2.62985

>  <r_i_glide_ligand_efficiency>  (233) 
-0.0876618

>  <r_i_glide_ligand_efficiency_sa>  (233) 
-0.272385

>  <r_i_glide_ligand_efficiency_ln>  (233) 
-0.597531

>  <r_i_glide_gscore>  (233) 
-2.62985

>  <r_i_glide_lipo>  (233) 
-0.348914

>  <r_i_glide_hbond>  (233) 
0

>  <r_i_glide_metal>  (233) 
-0

>  <r_i_glide_rewards>  (233) 
-0.528035

>  <r_i_glide_evdw>  (233) 
-24.3501

>  <r_i_glide_ecoul>  (233) 
-3.56934

>  <r_i_glide_erotb>  (233) 
0

>  <r_i_glide_esite>  (233) 
0

>  <r_i_glide_emodel>  (233) 
-32.926

>  <r_i_glide_energy>  (233) 
-27.9194

>  <r_i_glide_einternal>  (233) 
0.47663

>  <r_i_glide_intrahb_reward>  (233) 
-0

>  <i_i_glide_confnum>  (233) 
1

>  <i_i_glide_posenum>  (233) 
1

>  <r_i_glide_eff_state_penalty>  (233) 
0

>  <ligand_id>  (233) 
71

>  <original_smiles>  (233) 
CC12CCC3C4CCC(O)CC1CCC(C42O)C1(O)C2(C)OC(CC2O)C(O)C31C

>  <smiles>  (233) 
[H]OC1([H])C([H])([H])C([H])([H])C2([H])C3([H])C([H])([H])C([H])([H])C4(C([H])([H])[H])C([H])(C([H])([H])C([H])([H])C([H])(C24O[H])C2(O[H])C4(C([H])([H])[H])OC([H])(C([H])([H])C4([H])O[H])C([H])(O[H])C32C([H])([H])[H])C1([H])[H]

$$$$
73:0:0
     RDKit          3D

 51 56  0  0  1  0  0  0  0  0999 V2000
    3.4592  -10.5259    2.4777 O   0  0  0  0  0  0  0  0  0  0  0  0
    3.4086   -9.2284    2.0735 C   0  0  0  0  0  0  0  0  0  0  0  0
    4.3143   -8.7426    1.0964 C   0  0  0  0  0  0  0  0  0  0  0  0
    4.2648   -7.3955    0.7124 C   0  0  0  0  0  0  0  0  0  0  0  0
    3.3020   -6.5219    1.2714 C   0  0  0  0  0  0  0  0  0  0  0  0
    3.1858   -5.1020    0.7808 C   0  0  0  0  0  0  0  0  0  0  0  0
    4.3650   -4.2073    1.2594 C   0  0  0  0  0  0  0  0  0  0  0  0
    4.8238   -2.9934    0.3574 C   0  0  1  0  0  0  0  0  0  0  0  0
    5.8460   -2.1783    1.1808 C   0  0  0  0  0  0  0  0  0  0  0  0
    7.1555   -2.9825    0.9631 C   0  0  0  0  0  0  0  0  0  0  0  0
    6.9564   -3.9125   -0.2539 C   0  0  0  0  0  0  0  0  0  0  0  0
    5.6907   -3.3272   -0.8705 C   0  0  2  0  0  0  0  0  0  0  0  0
    6.0724   -2.1481   -1.8401 C   0  0  0  0  0  0  0  0  0  0  0  0
    5.0990   -2.3264   -3.0310 C   0  0  1  0  0  0  0  0  0  0  0  0
    5.1090   -3.8295   -3.1757 C   0  0  0  0  0  0  0  0  0  0  0  0
    4.6980   -4.0765   -1.7448 C   0  0  2  0  0  0  0  0  0  0  0  0
    3.4559   -3.1383   -1.5483 C   0  0  2  0  0  0  0  0  0  0  0  0
    3.6435   -2.0943   -2.6284 C   0  0  1  0  0  0  0  0  0  0  0  0
    3.3247   -0.7413   -2.0093 C   0  0  0  0  0  0  0  0  0  0  0  0
    3.5110   -0.9374   -0.4948 C   0  0  0  0  0  0  0  0  0  0  0  0
    3.5965   -2.4084   -0.2454 N   0  0  2  0  0  0  0  0  0  0  0  0
    2.4056   -7.0083    2.2411 C   0  0  0  0  0  0  0  0  0  0  0  0
    2.4548   -8.3438    2.6387 C   0  0  0  0  0  0  0  0  0  0  0  0
    3.8118  -11.1210    1.8158 H   0  0  0  0  0  0  0  0  0  0  0  0
    5.0335   -9.4145    0.6501 H   0  0  0  0  0  0  0  0  0  0  0  0
    4.9306   -7.0394   -0.0609 H   0  0  0  0  0  0  0  0  0  0  0  0
    3.1051   -5.2867   -0.2911 H   0  0  0  0  0  0  0  0  0  0  0  0
    2.2414   -4.6528    1.1214 H   0  0  0  0  0  0  0  0  0  0  0  0
    4.1024   -3.8165    2.2459 H   0  0  0  0  0  0  0  0  0  0  0  0
    5.2127   -4.8329    1.4924 H   0  0  0  0  0  0  0  0  0  0  0  0
    6.0141   -1.1576    0.8338 H   0  0  0  0  0  0  0  0  0  0  0  0
    5.5876   -2.1017    2.2349 H   0  0  0  0  0  0  0  0  0  0  0  0
    7.9976   -2.3092    0.7986 H   0  0  0  0  0  0  0  0  0  0  0  0
    7.3867   -3.6063    1.8225 H   0  0  0  0  0  0  0  0  0  0  0  0
    7.8314   -3.9145   -0.9033 H   0  0  0  0  0  0  0  0  0  0  0  0
    6.8001   -4.9434    0.0710 H   0  0  0  0  0  0  0  0  0  0  0  0
    6.0408   -1.1607   -1.3909 H   0  0  0  0  0  0  0  0  0  0  0  0
    7.0871   -2.2916   -2.2138 H   0  0  0  0  0  0  0  0  0  0  0  0
    5.3618   -1.8132   -3.9312 H   0  0  0  0  0  0  0  0  0  0  0  0
    4.3875   -4.2038   -3.9089 H   0  0  0  0  0  0  0  0  0  0  0  0
    6.1046   -4.1926   -3.3999 H   0  0  0  0  0  0  0  0  0  0  0  0
    4.6116   -5.1260   -1.4787 H   0  0  0  0  0  0  0  0  0  0  0  0
    2.4818   -3.6222   -1.6547 H   0  0  0  0  0  0  0  0  0  0  0  0
    2.9783   -2.2873   -3.4734 H   0  0  0  0  0  0  0  0  0  0  0  0
    3.9373    0.0593   -2.4199 H   0  0  0  0  0  0  0  0  0  0  0  0
    2.2931   -0.5175   -2.2857 H   0  0  0  0  0  0  0  0  0  0  0  0
    4.3761   -0.3833   -0.1468 H   0  0  0  0  0  0  0  0  0  0  0  0
    2.6732   -0.5461    0.0871 H   0  0  0  0  0  0  0  0  0  0  0  0
    1.6561   -6.3389    2.6376 H   0  0  0  0  0  0  0  0  0  0  0  0
    1.7552   -8.7083    3.3752 H   0  0  0  0  0  0  0  0  0  0  0  0
    2.8149   -2.6387    0.3597 H   0  0  0  0  0  0  0  0  0  0  0  0
  1  2  1  0
  1 24  1  0
  2 23  2  0
  2  3  1  0
  3  4  2  0
  3 25  1  0
  4  5  1  0
  4 26  1  0
  5  6  1  0
  5 22  2  0
  6  7  1  0
  6 27  1  0
  6 28  1  0
  8  7  1  1
  7 29  1  0
  7 30  1  0
  8 12  1  0
  8 21  1  0
  8  9  1  0
  9 10  1  0
  9 31  1  0
  9 32  1  0
 10 11  1  0
 10 33  1  0
 10 34  1  0
 12 11  1  1
 11 35  1  0
 11 36  1  0
 12 16  1  0
 12 13  1  0
 13 14  1  0
 13 37  1  0
 13 38  1  0
 14 18  1  0
 14 15  1  0
 14 39  1  6
 15 16  1  0
 15 40  1  0
 15 41  1  0
 16 17  1  0
 16 42  1  1
 17 21  1  0
 17 18  1  0
 17 43  1  1
 18 19  1  0
 18 44  1  6
 19 20  1  0
 19 45  1  0
 19 46  1  0
 20 21  1  0
 20 47  1  0
 20 48  1  0
 21 51  1  1
 22 23  1  0
 22 49  1  0
 23 50  1  0
M  CHG  1  21   1
M  END
>  <i_m_ct_stereo_status>  (234) 
1

>  <s_m_source_file>  (234) 
/var/tmp/pbs.5076255.sched01/tmpt7uccrld/92zpefy4ut.sdf

>  <i_m_source_file_index>  (234) 
10

>  <i_lp_mmshare_version>  (234) 
48012

>  <i_f3d_flags>  (234) 
0

>  <s_epik_input>  (234) 
W09IXWMxW2NIXVtjSF1jKFtjSF1bY0hdMSlbQ0gyXVtDSDJdW0NAXShbQ0BdMjM0KShbQ0gyXVtDSDJdW0NIMl0yKU41W0NAQEhdNltDQEhdNFtDSDJdW0NASF0oW0NIMl0zKVtDQEBIXTZbQ0gyXVtDSDJdNQ==

>  <s_epik_cmdline>  (234) 
J2VwaWtfcHl0aG9uJywgJy1waHQnLCAnMi4wJywgJy1waCcsICc3LjAnLCAnLXRuJywgJzgnLCAnLW1hJywgJzIwMCcsICctaW1hZScsICc8aW5maWxlLm1hZT4nLCAnLW9tYWUnLCAnPG91dGZpbGUubWFlPic=

>  <r_lp_tautomer_probability>  (234) 
1

>  <r_epik_Ionization_Penalty>  (234) 
0.000555883

>  <r_epik_Ionization_Penalty_Charging>  (234) 
6.6868e-05

>  <r_epik_Ionization_Penalty_Neutral>  (234) 
0.000489015

>  <r_epik_State_Penalty>  (234) 
0.000303787

>  <r_epik_Charging_Adjusted_Penalty>  (234) 
0.000370655

>  <i_epik_Tot_Q>  (234) 
1

>  <i_epik_Tot_abs_Q>  (234) 
1

>  <s_lp_Force_Field>  (234) 
OPLS3e

>  <r_lp_Energy>  (234) 
83.2547

>  <b_lp_Chiralities_Consistent>  (234) 
1

>  <s_lp_Variant>  (234) 
73:0-1

>  <s_i_glide_gridfile>  (234) 
pfpi4k_grid

>  <i_i_glide_lignum>  (234) 
10

>  <i_i_glide_rotatable_bonds>  (234) 
4

>  <r_i_docking_score>  (234) 
-3.48885

>  <r_i_glide_ligand_efficiency>  (234) 
-0.151689

>  <r_i_glide_ligand_efficiency_sa>  (234) 
-0.431384

>  <r_i_glide_ligand_efficiency_ln>  (234) 
-0.843636

>  <r_i_glide_gscore>  (234) 
-3.48885

>  <r_i_glide_lipo>  (234) 
-0.722251

>  <r_i_glide_hbond>  (234) 
-0.16

>  <r_i_glide_metal>  (234) 
-0

>  <r_i_glide_rewards>  (234) 
-1.29237

>  <r_i_glide_evdw>  (234) 
-17.2729

>  <r_i_glide_ecoul>  (234) 
-6.57104

>  <r_i_glide_erotb>  (234) 
0.576803

>  <r_i_glide_esite>  (234) 
-0.0417367

>  <r_i_glide_emodel>  (234) 
-24.6258

>  <r_i_glide_energy>  (234) 
-23.844

>  <r_i_glide_einternal>  (234) 
6.87538

>  <r_i_glide_intrahb_reward>  (234) 
-0

>  <i_i_glide_confnum>  (234) 
6

>  <i_i_glide_posenum>  (234) 
6

>  <r_i_glide_eff_state_penalty>  (234) 
0

>  <ligand_id>  (234) 
73

>  <original_smiles>  (234) 
Oc1ccc(CCC23CCCC24CC2CC4C4C2CCN43)cc1

>  <smiles>  (234) 
[H]Oc1c([H])c([H])c(C([H])([H])C([H])([H])C23C([H])([H])C([H])([H])C([H])([H])C24C([H])([H])C2([H])C([H])([H])C4([H])C4([H])C2([H])C([H])([H])C([H])([H])[N+]43[H])c([H])c1[H]

$$$$
73:0:1
     RDKit          3D

 51 56  0  0  1  0  0  0  0  0999 V2000
   -0.4946   -7.9207    4.7735 O   0  0  0  0  0  0  0  0  0  0  0  0
    0.2194   -7.1876    3.8736 C   0  0  0  0  0  0  0  0  0  0  0  0
    0.6295   -5.8780    4.2178 C   0  0  0  0  0  0  0  0  0  0  0  0
    1.3735   -5.1158    3.3009 C   0  0  0  0  0  0  0  0  0  0  0  0
    1.7252   -5.6723    2.0563 C   0  0  0  0  0  0  0  0  0  0  0  0
    2.5067   -4.8805    1.0348 C   0  0  0  0  0  0  0  0  0  0  0  0
    3.7488   -4.1124    1.5674 C   0  0  0  0  0  0  0  0  0  0  0  0
    4.4172   -3.0187    0.6322 C   0  0  1  0  0  0  0  0  0  0  0  0
    5.4820   -2.3211    1.4934 C   0  0  0  0  0  0  0  0  0  0  0  0
    6.6522   -3.3411    1.4192 C   0  0  0  0  0  0  0  0  0  0  0  0
    6.3989   -4.2849    0.2297 C   0  0  0  0  0  0  0  0  0  0  0  0
    5.3014   -3.5274   -0.5202 C   0  0  2  0  0  0  0  0  0  0  0  0
    5.9221   -2.4715   -1.5044 C   0  0  0  0  0  0  0  0  0  0  0  0
    5.0147   -2.5544   -2.7568 C   0  0  1  0  0  0  0  0  0  0  0  0
    4.8007   -4.0420   -2.8467 C   0  0  0  0  0  0  0  0  0  0  0  0
    4.2718   -4.1660   -1.4287 C   0  0  2  0  0  0  0  0  0  0  0  0
    3.1616   -3.0518   -1.3497 C   0  0  2  0  0  0  0  0  0  0  0  0
    3.5779   -2.0996   -2.4685 C   0  0  1  0  0  0  0  0  0  0  0  0
    3.4186   -0.6937   -1.9275 C   0  0  0  0  0  0  0  0  0  0  0  0
    3.4807   -0.8336   -0.3846 C   0  0  0  0  0  0  0  0  0  0  0  0
    3.3286   -2.2811   -0.0765 N   0  0  2  0  0  0  0  0  0  0  0  0
    1.2837   -6.9708    1.7133 C   0  0  0  0  0  0  0  0  0  0  0  0
    0.5380   -7.7305    2.6195 C   0  0  0  0  0  0  0  0  0  0  0  0
   -0.5983   -8.8292    4.5210 H   0  0  0  0  0  0  0  0  0  0  0  0
    0.3835   -5.4553    5.1767 H   0  0  0  0  0  0  0  0  0  0  0  0
    1.6542   -4.1035    3.5559 H   0  0  0  0  0  0  0  0  0  0  0  0
    2.7492   -5.5984    0.2565 H   0  0  0  0  0  0  0  0  0  0  0  0
    1.8106   -4.1604    0.6147 H   0  0  0  0  0  0  0  0  0  0  0  0
    3.4683   -3.5576    2.4700 H   0  0  0  0  0  0  0  0  0  0  0  0
    4.4522   -4.8712    1.9156 H   0  0  0  0  0  0  0  0  0  0  0  0
    5.8308   -1.3625    1.1192 H   0  0  0  0  0  0  0  0  0  0  0  0
    5.1683   -2.1537    2.5247 H   0  0  0  0  0  0  0  0  0  0  0  0
    7.5985   -2.8169    1.2817 H   0  0  0  0  0  0  0  0  0  0  0  0
    6.6913   -3.9504    2.3214 H   0  0  0  0  0  0  0  0  0  0  0  0
    7.3133   -4.4719   -0.3268 H   0  0  0  0  0  0  0  0  0  0  0  0
    6.0455   -5.2565    0.5719 H   0  0  0  0  0  0  0  0  0  0  0  0
    6.0121   -1.4626   -1.0994 H   0  0  0  0  0  0  0  0  0  0  0  0
    6.9223   -2.7915   -1.7983 H   0  0  0  0  0  0  0  0  0  0  0  0
    5.4143   -2.1149   -3.6677 H   0  0  0  0  0  0  0  0  0  0  0  0
    4.0671   -4.3179   -3.6057 H   0  0  0  0  0  0  0  0  0  0  0  0
    5.7098   -4.6079   -2.9758 H   0  0  0  0  0  0  0  0  0  0  0  0
    4.0626   -5.1843   -1.1076 H   0  0  0  0  0  0  0  0  0  0  0  0
    2.1391   -3.4063   -1.5054 H   0  0  0  0  0  0  0  0  0  0  0  0
    2.9328   -2.2470   -3.3394 H   0  0  0  0  0  0  0  0  0  0  0  0
    4.1655   -0.0000   -2.3260 H   0  0  0  0  0  0  0  0  0  0  0  0
    2.4354   -0.3493   -2.2732 H   0  0  0  0  0  0  0  0  0  0  0  0
    4.3965   -0.3837    0.0000 H   0  0  0  0  0  0  0  0  0  0  0  0
    2.6545   -0.2948    0.0934 H   0  0  0  0  0  0  0  0  0  0  0  0
    1.5096   -7.3827    0.7446 H   0  0  0  0  0  0  0  0  0  0  0  0
    0.2277   -8.7293    2.3239 H   0  0  0  0  0  0  0  0  0  0  0  0
    2.4892   -2.3543    0.4785 H   0  0  0  0  0  0  0  0  0  0  0  0
  1  2  1  0
  1 24  1  0
  2 23  2  0
  2  3  1  0
  3  4  2  0
  3 25  1  0
  4  5  1  0
  4 26  1  0
  5  6  1  0
  5 22  2  0
  6  7  1  0
  6 27  1  0
  6 28  1  0
  8  7  1  1
  7 29  1  0
  7 30  1  0
  8 12  1  0
  8 21  1  0
  8  9  1  0
  9 10  1  0
  9 31  1  0
  9 32  1  0
 10 11  1  0
 10 33  1  0
 10 34  1  0
 12 11  1  1
 11 35  1  0
 11 36  1  0
 12 16  1  0
 12 13  1  0
 13 14  1  0
 13 37  1  0
 13 38  1  0
 14 18  1  0
 14 15  1  0
 14 39  1  6
 15 16  1  0
 15 40  1  0
 15 41  1  0
 16 17  1  0
 16 42  1  1
 17 21  1  0
 17 18  1  0
 17 43  1  6
 18 19  1  0
 18 44  1  6
 19 20  1  0
 19 45  1  0
 19 46  1  0
 20 21  1  0
 20 47  1  0
 20 48  1  0
 21 51  1  1
 22 23  1  0
 22 49  1  0
 23 50  1  0
M  CHG  1  21   1
M  END
>  <i_m_ct_stereo_status>  (235) 
1

>  <s_m_source_file>  (235) 
/var/tmp/pbs.5076255.sched01/tmpt7uccrld/92zpefy4ut.sdf

>  <i_m_source_file_index>  (235) 
10

>  <i_lp_mmshare_version>  (235) 
48012

>  <i_f3d_flags>  (235) 
0

>  <s_epik_input>  (235) 
W09IXWMxW2NIXVtjSF1jKFtjSF1bY0hdMSlbQ0gyXVtDSDJdW0NAXShbQ0BdMjM0KShbQ0gyXVtDSDJdW0NIMl0yKU41W0NAQEhdNltDQEhdNFtDSDJdW0NASF0oW0NIMl0zKVtDQEBIXTZbQ0gyXVtDSDJdNQ==

>  <s_epik_cmdline>  (235) 
J2VwaWtfcHl0aG9uJywgJy1waHQnLCAnMi4wJywgJy1waCcsICc3LjAnLCAnLXRuJywgJzgnLCAnLW1hJywgJzIwMCcsICctaW1hZScsICc8aW5maWxlLm1hZT4nLCAnLW9tYWUnLCAnPG91dGZpbGUubWFlPic=

>  <r_lp_tautomer_probability>  (235) 
1

>  <r_epik_Ionization_Penalty>  (235) 
0.000555883

>  <r_epik_Ionization_Penalty_Charging>  (235) 
6.6868e-05

>  <r_epik_Ionization_Penalty_Neutral>  (235) 
0.000489015

>  <r_epik_State_Penalty>  (235) 
0.000303787

>  <r_epik_Charging_Adjusted_Penalty>  (235) 
0.000370655

>  <i_epik_Tot_Q>  (235) 
1

>  <i_epik_Tot_abs_Q>  (235) 
1

>  <s_lp_Force_Field>  (235) 
OPLS3e

>  <r_lp_Energy>  (235) 
83.2547

>  <b_lp_Chiralities_Consistent>  (235) 
1

>  <s_lp_Variant>  (235) 
73:0-1

>  <s_i_glide_gridfile>  (235) 
pfpi4k_grid

>  <i_i_glide_lignum>  (235) 
10

>  <i_i_glide_rotatable_bonds>  (235) 
4

>  <r_i_docking_score>  (235) 
-2.78006

>  <r_i_glide_ligand_efficiency>  (235) 
-0.120872

>  <r_i_glide_ligand_efficiency_sa>  (235) 
-0.343744

>  <r_i_glide_ligand_efficiency_ln>  (235) 
-0.672244

>  <r_i_glide_gscore>  (235) 
-2.78006

>  <r_i_glide_lipo>  (235) 
-0.459055

>  <r_i_glide_hbond>  (235) 
0

>  <r_i_glide_metal>  (235) 
-0

>  <r_i_glide_rewards>  (235) 
-1.29237

>  <r_i_glide_evdw>  (235) 
-14.7413

>  <r_i_glide_ecoul>  (235) 
-5.40082

>  <r_i_glide_erotb>  (235) 
0.576803

>  <r_i_glide_esite>  (235) 
-0.0582545

>  <r_i_glide_emodel>  (235) 
-20.0067

>  <r_i_glide_energy>  (235) 
-20.1421

>  <r_i_glide_einternal>  (235) 
6.38407

>  <r_i_glide_intrahb_reward>  (235) 
-0

>  <i_i_glide_confnum>  (235) 
6

>  <i_i_glide_posenum>  (235) 
11

>  <r_i_glide_eff_state_penalty>  (235) 
0

>  <ligand_id>  (235) 
73

>  <original_smiles>  (235) 
Oc1ccc(CCC23CCCC24CC2CC4C4C2CCN43)cc1

>  <smiles>  (235) 
[H]Oc1c([H])c([H])c(C([H])([H])C([H])([H])C23C([H])([H])C([H])([H])C([H])([H])C24C([H])([H])C2([H])C([H])([H])C4([H])C4([H])C2([H])C([H])([H])C([H])([H])[N+]43[H])c([H])c1[H]

$$$$
73:0:2
     RDKit          3D

 51 56  0  0  1  0  0  0  0  0999 V2000
    2.3256   -9.9326    3.4554 O   0  0  0  0  0  0  0  0  0  0  0  0
    2.4970   -8.7392    2.8168 C   0  0  0  0  0  0  0  0  0  0  0  0
    3.6006   -8.5654    1.9484 C   0  0  0  0  0  0  0  0  0  0  0  0
    3.7934   -7.3262    1.3172 C   0  0  0  0  0  0  0  0  0  0  0  0
    2.8897   -6.2667    1.5515 C   0  0  0  0  0  0  0  0  0  0  0  0
    3.0397   -4.9577    0.8335 C   0  0  0  0  0  0  0  0  0  0  0  0
    4.2962   -4.1478    1.2540 C   0  0  0  0  0  0  0  0  0  0  0  0
    4.7775   -2.9508    0.3490 C   0  0  1  0  0  0  0  0  0  0  0  0
    5.8108   -2.1542    1.1714 C   0  0  0  0  0  0  0  0  0  0  0  0
    7.1133   -2.9888    0.9595 C   0  0  0  0  0  0  0  0  0  0  0  0
    6.8950   -3.9169   -0.2526 C   0  0  0  0  0  0  0  0  0  0  0  0
    5.6423   -3.3005   -0.8777 C   0  0  2  0  0  0  0  0  0  0  0  0
    6.0415   -2.1433   -1.8482 C   0  0  0  0  0  0  0  0  0  0  0  0
    5.0609   -2.3070   -3.0305 C   0  0  1  0  0  0  0  0  0  0  0  0
    5.0483   -3.7990   -3.1890 C   0  0  0  0  0  0  0  0  0  0  0  0
    4.6478   -4.0365   -1.7512 C   0  0  2  0  0  0  0  0  0  0  0  0
    3.4071   -3.0851   -1.5429 C   0  0  2  0  0  0  0  0  0  0  0  0
    3.6102   -2.0425   -2.6339 C   0  0  1  0  0  0  0  0  0  0  0  0
    3.3236   -0.6887   -2.0199 C   0  0  0  0  0  0  0  0  0  0  0  0
    3.5097   -0.8865   -0.4946 C   0  0  0  0  0  0  0  0  0  0  0  0
    3.5661   -2.3484   -0.2484 N   0  0  2  0  0  0  0  0  0  0  0  0
    1.7899   -6.4467    2.4067 C   0  0  0  0  0  0  0  0  0  0  0  0
    1.5937   -7.6833    3.0363 C   0  0  0  0  0  0  0  0  0  0  0  0
    1.5516   -9.9484    4.0046 H   0  0  0  0  0  0  0  0  0  0  0  0
    4.2882   -9.3868    1.7728 H   0  0  0  0  0  0  0  0  0  0  0  0
    4.6246   -7.2007    0.6282 H   0  0  0  0  0  0  0  0  0  0  0  0
    3.0144   -5.3152   -0.1957 H   0  0  0  0  0  0  0  0  0  0  0  0
    2.1513   -4.3420    0.9721 H   0  0  0  0  0  0  0  0  0  0  0  0
    4.0826   -3.7587    2.2574 H   0  0  0  0  0  0  0  0  0  0  0  0
    5.1074   -4.8446    1.4514 H   0  0  0  0  0  0  0  0  0  0  0  0
    6.0086   -1.1441    0.8227 H   0  0  0  0  0  0  0  0  0  0  0  0
    5.5634   -2.0654    2.2314 H   0  0  0  0  0  0  0  0  0  0  0  0
    7.9679   -2.3274    0.7885 H   0  0  0  0  0  0  0  0  0  0  0  0
    7.3416   -3.6090    1.8271 H   0  0  0  0  0  0  0  0  0  0  0  0
    7.7701   -3.9316   -0.9033 H   0  0  0  0  0  0  0  0  0  0  0  0
    6.7236   -4.9450    0.0695 H   0  0  0  0  0  0  0  0  0  0  0  0
    6.0311   -1.1505   -1.4026 H   0  0  0  0  0  0  0  0  0  0  0  0
    7.0512   -2.3081   -2.2219 H   0  0  0  0  0  0  0  0  0  0  0  0
    5.3326   -1.7922   -3.9336 H   0  0  0  0  0  0  0  0  0  0  0  0
    4.3107   -4.1716   -3.9040 H   0  0  0  0  0  0  0  0  0  0  0  0
    6.0266   -4.2044   -3.4058 H   0  0  0  0  0  0  0  0  0  0  0  0
    4.6077   -5.1062   -1.5218 H   0  0  0  0  0  0  0  0  0  0  0  0
    2.4365   -3.5573   -1.6424 H   0  0  0  0  0  0  0  0  0  0  0  0
    2.9418   -2.2305   -3.4804 H   0  0  0  0  0  0  0  0  0  0  0  0
    3.9539    0.1056   -2.4450 H   0  0  0  0  0  0  0  0  0  0  0  0
    2.2915   -0.4356   -2.3012 H   0  0  0  0  0  0  0  0  0  0  0  0
    4.3790   -0.3335   -0.1662 H   0  0  0  0  0  0  0  0  0  0  0  0
    2.6901   -0.4655    0.0817 H   0  0  0  0  0  0  0  0  0  0  0  0
    1.0912   -5.6383    2.5526 H   0  0  0  0  0  0  0  0  0  0  0  0
    0.7424   -7.8074    3.6940 H   0  0  0  0  0  0  0  0  0  0  0  0
    2.7840   -2.5458    0.3503 H   0  0  0  0  0  0  0  0  0  0  0  0
  1  2  1  0
  1 24  1  0
  2 23  2  0
  2  3  1  0
  3  4  2  0
  3 25  1  0
  4  5  1  0
  4 26  1  0
  5  6  1  0
  5 22  2  0
  6  7  1  0
  6 27  1  0
  6 28  1  0
  8  7  1  1
  7 29  1  0
  7 30  1  0
  8 12  1  0
  8 21  1  0
  8  9  1  0
  9 10  1  0
  9 31  1  0
  9 32  1  0
 10 11  1  0
 10 33  1  0
 10 34  1  0
 12 11  1  1
 11 35  1  0
 11 36  1  0
 12 16  1  0
 12 13  1  0
 13 14  1  0
 13 37  1  0
 13 38  1  0
 14 18  1  0
 14 15  1  0
 14 39  1  6
 15 16  1  0
 15 40  1  0
 15 41  1  0
 16 17  1  0
 16 42  1  1
 17 21  1  0
 17 18  1  0
 17 43  1  1
 18 19  1  0
 18 44  1  6
 19 20  1  0
 19 45  1  0
 19 46  1  0
 20 21  1  0
 20 47  1  0
 20 48  1  0
 21 51  1  1
 22 23  1  0
 22 49  1  0
 23 50  1  0
M  CHG  1  21   1
M  END
>  <i_m_ct_stereo_status>  (236) 
1

>  <s_m_source_file>  (236) 
/var/tmp/pbs.5076255.sched01/tmpt7uccrld/92zpefy4ut.sdf

>  <i_m_source_file_index>  (236) 
10

>  <i_lp_mmshare_version>  (236) 
48012

>  <i_f3d_flags>  (236) 
0

>  <s_epik_input>  (236) 
W09IXWMxW2NIXVtjSF1jKFtjSF1bY0hdMSlbQ0gyXVtDSDJdW0NAXShbQ0BdMjM0KShbQ0gyXVtDSDJdW0NIMl0yKU41W0NAQEhdNltDQEhdNFtDSDJdW0NASF0oW0NIMl0zKVtDQEBIXTZbQ0gyXVtDSDJdNQ==

>  <s_epik_cmdline>  (236) 
J2VwaWtfcHl0aG9uJywgJy1waHQnLCAnMi4wJywgJy1waCcsICc3LjAnLCAnLXRuJywgJzgnLCAnLW1hJywgJzIwMCcsICctaW1hZScsICc8aW5maWxlLm1hZT4nLCAnLW9tYWUnLCAnPG91dGZpbGUubWFlPic=

>  <r_lp_tautomer_probability>  (236) 
1

>  <r_epik_Ionization_Penalty>  (236) 
0.000555883

>  <r_epik_Ionization_Penalty_Charging>  (236) 
6.6868e-05

>  <r_epik_Ionization_Penalty_Neutral>  (236) 
0.000489015

>  <r_epik_State_Penalty>  (236) 
0.000303787

>  <r_epik_Charging_Adjusted_Penalty>  (236) 
0.000370655

>  <i_epik_Tot_Q>  (236) 
1

>  <i_epik_Tot_abs_Q>  (236) 
1

>  <s_lp_Force_Field>  (236) 
OPLS3e

>  <r_lp_Energy>  (236) 
83.2547

>  <b_lp_Chiralities_Consistent>  (236) 
1

>  <s_lp_Variant>  (236) 
73:0-1

>  <s_i_glide_gridfile>  (236) 
pfpi4k_grid

>  <i_i_glide_lignum>  (236) 
10

>  <i_i_glide_rotatable_bonds>  (236) 
4

>  <r_i_docking_score>  (236) 
-2.76409

>  <r_i_glide_ligand_efficiency>  (236) 
-0.120178

>  <r_i_glide_ligand_efficiency_sa>  (236) 
-0.34177

>  <r_i_glide_ligand_efficiency_ln>  (236) 
-0.668383

>  <r_i_glide_gscore>  (236) 
-2.76409

>  <r_i_glide_lipo>  (236) 
-0.613952

>  <r_i_glide_hbond>  (236) 
0

>  <r_i_glide_metal>  (236) 
-0

>  <r_i_glide_rewards>  (236) 
-1.29237

>  <r_i_glide_evdw>  (236) 
-17.1734

>  <r_i_glide_ecoul>  (236) 
-3.52771

>  <r_i_glide_erotb>  (236) 
0.576803

>  <r_i_glide_esite>  (236) 
-0.0467524

>  <r_i_glide_emodel>  (236) 
-21.6801

>  <r_i_glide_energy>  (236) 
-20.7011

>  <r_i_glide_einternal>  (236) 
5.22482

>  <r_i_glide_intrahb_reward>  (236) 
-0

>  <i_i_glide_confnum>  (236) 
6

>  <i_i_glide_posenum>  (236) 
23

>  <r_i_glide_eff_state_penalty>  (236) 
0

>  <ligand_id>  (236) 
73

>  <original_smiles>  (236) 
Oc1ccc(CCC23CCCC24CC2CC4C4C2CCN43)cc1

>  <smiles>  (236) 
[H]Oc1c([H])c([H])c(C([H])([H])C([H])([H])C23C([H])([H])C([H])([H])C([H])([H])C24C([H])([H])C2([H])C([H])([H])C4([H])C4([H])C2([H])C([H])([H])C([H])([H])[N+]43[H])c([H])c1[H]

$$$$
74:0:0
     RDKit          3D

 46 51  0  0  1  0  0  0  0  0999 V2000
    5.8903   -4.7666    2.8869 C   0  0  0  0  0  0  0  0  0  0  0  0
    4.7986   -3.8720    2.5667 N   0  0  0  0  0  0  0  0  0  0  0  0
    3.5869   -4.4012    3.1790 C   0  0  0  0  0  0  0  0  0  0  0  0
    2.2109   -3.3340    3.1598 S   0  0  0  0  0  0  0  0  0  0  0  0
    2.2220   -2.9712    1.4345 C   0  0  0  0  0  0  0  0  0  0  0  0
    3.5750   -2.4942    0.8773 C   0  0  1  0  0  0  0  0  0  0  0  0
    3.4086   -2.2768   -0.6209 C   0  0  0  0  0  0  0  0  0  0  0  0
    2.8650   -3.1645   -1.5849 C   0  0  0  0  0  0  0  0  0  0  0  0
    2.8047   -2.8733   -2.8940 N   0  0  0  0  0  0  0  0  0  0  0  0
    3.2065   -1.6427   -3.2636 C   0  0  0  0  0  0  0  0  0  0  0  0
    3.7427   -0.6828   -2.3759 C   0  0  0  0  0  0  0  0  0  0  0  0
    3.8356   -1.0370   -1.0177 C   0  0  0  0  0  0  0  0  0  0  0  0
    4.3018   -0.2035    0.1583 C   0  0  0  0  0  0  0  0  0  0  0  0
    3.9934   -1.0789    1.3816 C   0  0  0  0  0  0  0  0  0  0  0  0
    4.8012   -0.8938    2.6784 C   0  0  0  0  0  0  0  0  0  0  0  0
    3.3873   -0.4514    2.6327 C   0  0  0  0  0  0  0  0  0  0  0  0
    4.7099   -3.5251    1.1460 C   0  0  2  0  0  0  0  0  0  0  0  0
    4.4809   -4.7696    0.2598 C   0  0  0  0  0  0  0  0  0  0  0  0
    3.5084   -5.5171    0.3673 O   0  0  0  0  0  0  0  0  0  0  0  0
    5.4260   -4.7645   -0.7142 N   0  0  0  0  0  0  0  0  0  0  0  0
    6.3769   -3.7436   -0.5119 C   0  0  0  0  0  0  0  0  0  0  0  0
    7.5721   -3.4167   -1.2035 C   0  0  0  0  0  0  0  0  0  0  0  0
    8.3624   -2.3699   -0.6729 C   0  0  0  0  0  0  0  0  0  0  0  0
    7.9535   -1.7072    0.4579 C   0  0  0  0  0  0  0  0  0  0  0  0
    6.7998   -2.0258    1.1101 N   0  0  0  0  0  0  0  0  0  0  0  0
    6.0400   -3.0113    0.5817 C   0  0  0  0  0  0  0  0  0  0  0  0
    5.6285   -5.7713    2.5738 H   0  0  0  0  0  0  0  0  0  0  0  0
    6.0796   -4.7350    3.9588 H   0  0  0  0  0  0  0  0  0  0  0  0
    6.8091   -4.4766    2.3838 H   0  0  0  0  0  0  0  0  0  0  0  0
    3.1895   -5.2815    2.7036 H   0  0  0  0  0  0  0  0  0  0  0  0
    3.6572   -4.4574    4.2540 H   0  0  0  0  0  0  0  0  0  0  0  0
    1.8668   -3.8944    0.9917 H   0  0  0  0  0  0  0  0  0  0  0  0
    1.4616   -2.2122    1.3713 H   0  0  0  0  0  0  0  0  0  0  0  0
    2.5467   -4.1634   -1.3291 H   0  0  0  0  0  0  0  0  0  0  0  0
    3.0964   -1.4246   -4.3110 H   0  0  0  0  0  0  0  0  0  0  0  0
    4.0086    0.2997   -2.7228 H   0  0  0  0  0  0  0  0  0  0  0  0
    5.3688    0.0090    0.0903 H   0  0  0  0  0  0  0  0  0  0  0  0
    3.8147    0.7620    0.2663 H   0  0  0  0  0  0  0  0  0  0  0  0
    5.0786   -1.7491    3.2708 H   0  0  0  0  0  0  0  0  0  0  0  0
    5.6019   -0.1734    2.6652 H   0  0  0  0  0  0  0  0  0  0  0  0
    3.2031    0.6006    2.6689 H   0  0  0  0  0  0  0  0  0  0  0  0
    2.6688   -0.9736    3.2287 H   0  0  0  0  0  0  0  0  0  0  0  0
    5.4658   -5.3684   -1.5089 H   0  0  0  0  0  0  0  0  0  0  0  0
    7.9035   -3.8850   -2.0943 H   0  0  0  0  0  0  0  0  0  0  0  0
    9.2982   -2.0940   -1.1420 H   0  0  0  0  0  0  0  0  0  0  0  0
    8.5413   -0.8966    0.8910 H   0  0  0  0  0  0  0  0  0  0  0  0
  1  2  1  0
  1 27  1  0
  1 28  1  0
  1 29  1  0
 17  2  1  1
  2  3  1  0
  3  4  1  0
  3 30  1  0
  3 31  1  0
  4  5  1  0
  6  5  1  1
  5 32  1  0
  5 33  1  0
  6 14  1  0
  6  7  1  0
  6 17  1  0
  7 12  1  0
  7  8  2  0
  8  9  1  0
  8 34  1  0
  9 10  2  0
 10 11  1  0
 10 35  1  0
 11 12  2  0
 11 36  1  0
 12 13  1  0
 13 14  1  0
 13 37  1  0
 13 38  1  0
 14 16  1  0
 14 15  1  0
 15 16  1  0
 15 39  1  0
 15 40  1  0
 16 41  1  0
 16 42  1  0
 17 26  1  0
 17 18  1  0
 18 19  2  0
 18 20  1  0
 20 21  1  0
 20 43  1  0
 21 26  2  0
 21 22  1  0
 22 23  2  0
 22 44  1  0
 23 24  1  0
 23 45  1  0
 24 25  2  0
 24 46  1  0
 25 26  1  0
M  END
>  <i_m_ct_stereo_status>  (237) 
1

>  <s_m_source_file>  (237) 
/var/tmp/pbs.5076255.sched01/tmpt7uccrld/92zpefy4ut.sdf

>  <i_m_source_file_index>  (237) 
11

>  <i_lp_mmshare_version>  (237) 
48012

>  <i_f3d_flags>  (237) 
0

>  <s_epik_input>  (237) 
bjFbY0hdW2NIXVtjSF1jKFtOSF1DMj1PKWMxW0NAQF0yKE4oW0NIM10pW0NIMl1TW0NIMl0zKVtDQF0zNEM1KFtDSDJdW0NIMl01KVtDSDJdYzZjNFtjSF1uW2NIXVtjSF02

>  <s_epik_cmdline>  (237) 
J2VwaWtfcHl0aG9uJywgJy1waHQnLCAnMi4wJywgJy1waCcsICc3LjAnLCAnLXRuJywgJzgnLCAnLW1hJywgJzIwMCcsICctaW1hZScsICc8aW5maWxlLm1hZT4nLCAnLW9tYWUnLCAnPG91dGZpbGUubWFlPic=

>  <r_epik_Ionization_Penalty>  (237) 
0.139376

>  <r_epik_Ionization_Penalty_Charging>  (237) 
0

>  <r_epik_Ionization_Penalty_Neutral>  (237) 
0.139376

>  <r_epik_State_Penalty>  (237) 
0.127467

>  <r_epik_Charging_Adjusted_Penalty>  (237) 
0.127467

>  <i_epik_Tot_Q>  (237) 
0

>  <i_epik_Tot_abs_Q>  (237) 
0

>  <s_epik_Chemistry_Notes>  (237) 
This compound contains an acetal/aminal-like group ( X-CH(R)-Y where X, Y are N, S, or O) that may be acid/base labile, releasing an aldehyde.

>  <s_lp_Force_Field>  (237) 
OPLS3e

>  <r_lp_Energy>  (237) 
44.2278

>  <b_lp_Chiralities_Consistent>  (237) 
1

>  <s_lp_Variant>  (237) 
74:0-1

>  <s_i_glide_gridfile>  (237) 
pfpi4k_grid

>  <i_i_glide_lignum>  (237) 
11

>  <i_i_glide_rotatable_bonds>  (237) 
0

>  <r_i_docking_score>  (237) 
-1.34308

>  <r_i_glide_ligand_efficiency>  (237) 
-0.0516571

>  <r_i_glide_ligand_efficiency_sa>  (237) 
-0.153034

>  <r_i_glide_ligand_efficiency_ln>  (237) 
-0.315419

>  <r_i_glide_gscore>  (237) 
-1.34308

>  <r_i_glide_lipo>  (237) 
-0.570849

>  <r_i_glide_hbond>  (237) 
0

>  <r_i_glide_metal>  (237) 
-0

>  <r_i_glide_rewards>  (237) 
-0.967147

>  <r_i_glide_evdw>  (237) 
-18.3902

>  <r_i_glide_ecoul>  (237) 
-0.693985

>  <r_i_glide_erotb>  (237) 
0

>  <r_i_glide_esite>  (237) 
-0.00121884

>  <r_i_glide_emodel>  (237) 
-13.3957

>  <r_i_glide_energy>  (237) 
-19.0842

>  <r_i_glide_einternal>  (237) 
0

>  <r_i_glide_intrahb_reward>  (237) 
-0

>  <i_i_glide_confnum>  (237) 
4

>  <i_i_glide_posenum>  (237) 
13

>  <r_i_glide_eff_state_penalty>  (237) 
0

>  <ligand_id>  (237) 
74

>  <original_smiles>  (237) 
CN1CSCC2(c3cnccc3CC23CC3)C12C(=O)Nc1cccnc12

>  <smiles>  (237) 
[H]c1nc2c(c([H])c1[H])N([H])C(=O)C21N(C([H])([H])[H])C([H])([H])SC([H])([H])C12c1c([H])nc([H])c([H])c1C([H])([H])C21C([H])([H])C1([H])[H]

$$$$
74:0:1
     RDKit          3D

 46 51  0  0  1  0  0  0  0  0999 V2000
    6.2989   -1.0672    1.9896 C   0  0  0  0  0  0  0  0  0  0  0  0
    6.0445   -2.0842    0.9790 N   0  0  0  0  0  0  0  0  0  0  0  0
    7.1184   -3.0585    1.0740 C   0  0  0  0  0  0  0  0  0  0  0  0
    7.1137   -4.1900   -0.2302 S   0  0  0  0  0  0  0  0  0  0  0  0
    5.5180   -4.8461    0.0927 C   0  0  0  0  0  0  0  0  0  0  0  0
    4.4272   -3.7925    0.0944 C   0  0  1  0  0  0  0  0  0  0  0  0
    4.2962   -3.1533   -1.2816 C   0  0  0  0  0  0  0  0  0  0  0  0
    5.2675   -2.4348   -2.0079 C   0  0  0  0  0  0  0  0  0  0  0  0
    4.9890   -1.8617   -3.1885 N   0  0  0  0  0  0  0  0  0  0  0  0
    3.7315   -1.9563   -3.6617 C   0  0  0  0  0  0  0  0  0  0  0  0
    2.6843   -2.6185   -2.9860 C   0  0  0  0  0  0  0  0  0  0  0  0
    3.0018   -3.2220   -1.7645 C   0  0  0  0  0  0  0  0  0  0  0  0
    2.0949   -3.9603   -0.8183 C   0  0  0  0  0  0  0  0  0  0  0  0
    3.0389   -4.4618    0.2732 C   0  0  0  0  0  0  0  0  0  0  0  0
    2.4686   -4.8260    1.6335 C   0  0  0  0  0  0  0  0  0  0  0  0
    2.9561   -5.9030    0.7690 C   0  0  0  0  0  0  0  0  0  0  0  0
    4.7287   -2.7205    1.2070 C   0  0  2  0  0  0  0  0  0  0  0  0
    3.5398   -1.7255    1.1693 C   0  0  0  0  0  0  0  0  0  0  0  0
    3.3354   -0.9932    0.2285 O   0  0  0  0  0  0  0  0  0  0  0  0
    2.8319   -1.8814    2.3363 N   0  0  0  0  0  0  0  0  0  0  0  0
    3.5001   -2.7041    3.2729 C   0  0  0  0  0  0  0  0  0  0  0  0
    3.1244   -3.2760    4.4893 C   0  0  0  0  0  0  0  0  0  0  0  0
    3.9564   -4.2449    5.1075 C   0  0  0  0  0  0  0  0  0  0  0  0
    5.1250   -4.6605    4.4242 C   0  0  0  0  0  0  0  0  0  0  0  0
    5.3997   -4.1813    3.2015 N   0  0  0  0  0  0  0  0  0  0  0  0
    4.6546   -3.2374    2.6485 C   0  0  0  0  0  0  0  0  0  0  0  0
    7.3113   -0.6996    1.8905 H   0  0  0  0  0  0  0  0  0  0  0  0
    6.2060   -1.4534    3.0056 H   0  0  0  0  0  0  0  0  0  0  0  0
    5.6139   -0.2353    1.8745 H   0  0  0  0  0  0  0  0  0  0  0  0
    8.0875   -2.6598    0.8619 H   0  0  0  0  0  0  0  0  0  0  0  0
    7.1886   -3.6914    1.9370 H   0  0  0  0  0  0  0  0  0  0  0  0
    5.4355   -5.5296   -0.7349 H   0  0  0  0  0  0  0  0  0  0  0  0
    5.6168   -5.3658    1.0412 H   0  0  0  0  0  0  0  0  0  0  0  0
    6.2787   -2.2902   -1.6646 H   0  0  0  0  0  0  0  0  0  0  0  0
    3.5618   -1.4987   -4.6222 H   0  0  0  0  0  0  0  0  0  0  0  0
    1.6898   -2.6560   -3.3940 H   0  0  0  0  0  0  0  0  0  0  0  0
    1.4078   -3.2596   -0.3726 H   0  0  0  0  0  0  0  0  0  0  0  0
    1.5325   -4.7696   -1.2764 H   0  0  0  0  0  0  0  0  0  0  0  0
    3.0742   -4.8809    2.5070 H   0  0  0  0  0  0  0  0  0  0  0  0
    1.4487   -4.5967    1.8721 H   0  0  0  0  0  0  0  0  0  0  0  0
    2.1827   -6.5496    0.4332 H   0  0  0  0  0  0  0  0  0  0  0  0
    3.8753   -6.3950    1.0884 H   0  0  0  0  0  0  0  0  0  0  0  0
    1.9182   -1.5244    2.5550 H   0  0  0  0  0  0  0  0  0  0  0  0
    2.1772   -3.0485    4.9775 H   0  0  0  0  0  0  0  0  0  0  0  0
    3.7554   -4.6707    6.0721 H   0  0  0  0  0  0  0  0  0  0  0  0
    5.8259   -5.3638    4.8539 H   0  0  0  0  0  0  0  0  0  0  0  0
  1  2  1  0
  1 27  1  0
  1 28  1  0
  1 29  1  0
 17  2  1  6
  2  3  1  0
  3  4  1  0
  3 30  1  0
  3 31  1  0
  4  5  1  0
  6  5  1  6
  5 32  1  0
  5 33  1  0
  6 14  1  0
  6  7  1  0
  6 17  1  0
  7 12  1  0
  7  8  2  0
  8  9  1  0
  8 34  1  0
  9 10  2  0
 10 11  1  0
 10 35  1  0
 11 12  2  0
 11 36  1  0
 12 13  1  0
 13 14  1  0
 13 37  1  0
 13 38  1  0
 14 16  1  0
 14 15  1  0
 15 16  1  0
 15 39  1  0
 15 40  1  0
 16 41  1  0
 16 42  1  0
 17 26  1  0
 17 18  1  0
 18 19  2  0
 18 20  1  0
 20 21  1  0
 20 43  1  0
 21 26  2  0
 21 22  1  0
 22 23  2  0
 22 44  1  0
 23 24  1  0
 23 45  1  0
 24 25  2  0
 24 46  1  0
 25 26  1  0
M  END
>  <i_m_ct_stereo_status>  (238) 
1

>  <s_m_source_file>  (238) 
/var/tmp/pbs.5076255.sched01/tmpt7uccrld/92zpefy4ut.sdf

>  <i_m_source_file_index>  (238) 
11

>  <i_lp_mmshare_version>  (238) 
48012

>  <i_f3d_flags>  (238) 
0

>  <s_epik_input>  (238) 
bjFbY0hdW2NIXVtjSF1jKFtOSF1DMj1PKWMxW0NAQF0yKE4oW0NIM10pW0NIMl1TW0NIMl0zKVtDQF0zNEM1KFtDSDJdW0NIMl01KVtDSDJdYzZjNFtjSF1uW2NIXVtjSF02

>  <s_epik_cmdline>  (238) 
J2VwaWtfcHl0aG9uJywgJy1waHQnLCAnMi4wJywgJy1waCcsICc3LjAnLCAnLXRuJywgJzgnLCAnLW1hJywgJzIwMCcsICctaW1hZScsICc8aW5maWxlLm1hZT4nLCAnLW9tYWUnLCAnPG91dGZpbGUubWFlPic=

>  <r_epik_Ionization_Penalty>  (238) 
0.139376

>  <r_epik_Ionization_Penalty_Charging>  (238) 
0

>  <r_epik_Ionization_Penalty_Neutral>  (238) 
0.139376

>  <r_epik_State_Penalty>  (238) 
0.127467

>  <r_epik_Charging_Adjusted_Penalty>  (238) 
0.127467

>  <i_epik_Tot_Q>  (238) 
0

>  <i_epik_Tot_abs_Q>  (238) 
0

>  <s_epik_Chemistry_Notes>  (238) 
This compound contains an acetal/aminal-like group ( X-CH(R)-Y where X, Y are N, S, or O) that may be acid/base labile, releasing an aldehyde.

>  <s_lp_Force_Field>  (238) 
OPLS3e

>  <r_lp_Energy>  (238) 
44.2278

>  <b_lp_Chiralities_Consistent>  (238) 
1

>  <s_lp_Variant>  (238) 
74:0-1

>  <s_i_glide_gridfile>  (238) 
pfpi4k_grid

>  <i_i_glide_lignum>  (238) 
11

>  <i_i_glide_rotatable_bonds>  (238) 
0

>  <r_i_docking_score>  (238) 
-1.04527

>  <r_i_glide_ligand_efficiency>  (238) 
-0.0402026

>  <r_i_glide_ligand_efficiency_sa>  (238) 
-0.1191

>  <r_i_glide_ligand_efficiency_ln>  (238) 
-0.245478

>  <r_i_glide_gscore>  (238) 
-1.04527

>  <r_i_glide_lipo>  (238) 
-0.66525

>  <r_i_glide_hbond>  (238) 
0

>  <r_i_glide_metal>  (238) 
-0

>  <r_i_glide_rewards>  (238) 
-0.924102

>  <r_i_glide_evdw>  (238) 
-15.7583

>  <r_i_glide_ecoul>  (238) 
-0.615738

>  <r_i_glide_erotb>  (238) 
0

>  <r_i_glide_esite>  (238) 
-0.0332592

>  <r_i_glide_emodel>  (238) 
-9.65942

>  <r_i_glide_energy>  (238) 
-16.3741

>  <r_i_glide_einternal>  (238) 
0

>  <r_i_glide_intrahb_reward>  (238) 
-0

>  <i_i_glide_confnum>  (238) 
1

>  <i_i_glide_posenum>  (238) 
3

>  <r_i_glide_eff_state_penalty>  (238) 
0

>  <ligand_id>  (238) 
74

>  <original_smiles>  (238) 
CN1CSCC2(c3cnccc3CC23CC3)C12C(=O)Nc1cccnc12

>  <smiles>  (238) 
[H]c1nc2c(c([H])c1[H])N([H])C(=O)C21N(C([H])([H])[H])C([H])([H])SC([H])([H])C12c1c([H])nc([H])c([H])c1C([H])([H])C21C([H])([H])C1([H])[H]

$$$$
74:0:2
     RDKit          3D

 46 51  0  0  1  0  0  0  0  0999 V2000
    4.6469   -6.2833   -0.0381 C   0  0  0  0  0  0  0  0  0  0  0  0
    5.1878   -5.1847    0.7429 N   0  0  0  0  0  0  0  0  0  0  0  0
    6.5927   -5.0740    0.3739 C   0  0  0  0  0  0  0  0  0  0  0  0
    7.4684   -3.9789    1.3348 S   0  0  0  0  0  0  0  0  0  0  0  0
    6.5099   -2.5727    1.0195 C   0  0  0  0  0  0  0  0  0  0  0  0
    5.0326   -2.7547    1.3156 C   0  0  1  0  0  0  0  0  0  0  0  0
    4.8029   -2.9768    2.8009 C   0  0  0  0  0  0  0  0  0  0  0  0
    5.2871   -4.0297    3.6167 C   0  0  0  0  0  0  0  0  0  0  0  0
    4.9483   -4.1400    4.9128 N   0  0  0  0  0  0  0  0  0  0  0  0
    4.0757   -3.2377    5.4104 C   0  0  0  0  0  0  0  0  0  0  0  0
    3.4942   -2.1908    4.6548 C   0  0  0  0  0  0  0  0  0  0  0  0
    3.8817   -2.0730    3.3117 C   0  0  0  0  0  0  0  0  0  0  0  0
    3.4068   -1.0833    2.2737 C   0  0  0  0  0  0  0  0  0  0  0  0
    4.2860   -1.4162    1.0616 C   0  0  0  0  0  0  0  0  0  0  0  0
    3.8223   -1.0034   -0.3113 C   0  0  0  0  0  0  0  0  0  0  0  0
    4.9726   -0.3223    0.2611 C   0  0  0  0  0  0  0  0  0  0  0  0
    4.4820   -3.9341    0.4527 C   0  0  2  0  0  0  0  0  0  0  0  0
    2.9600   -3.9884    0.7800 C   0  0  0  0  0  0  0  0  0  0  0  0
    2.5225   -4.2826    1.8849 O   0  0  0  0  0  0  0  0  0  0  0  0
    2.2947   -3.6061   -0.3674 N   0  0  0  0  0  0  0  0  0  0  0  0
    3.1637   -3.4964   -1.4837 C   0  0  0  0  0  0  0  0  0  0  0  0
    2.9537   -2.9891   -2.7999 C   0  0  0  0  0  0  0  0  0  0  0  0
    4.0895   -2.8318   -3.6410 C   0  0  0  0  0  0  0  0  0  0  0  0
    5.3654   -3.1113   -3.1269 C   0  0  0  0  0  0  0  0  0  0  0  0
    5.5375   -3.4697   -1.8460 N   0  0  0  0  0  0  0  0  0  0  0  0
    4.4489   -3.6922   -1.0685 C   0  0  0  0  0  0  0  0  0  0  0  0
    5.2553   -7.1675    0.0891 H   0  0  0  0  0  0  0  0  0  0  0  0
    4.6198   -6.0667   -1.1077 H   0  0  0  0  0  0  0  0  0  0  0  0
    3.6412   -6.5118    0.2898 H   0  0  0  0  0  0  0  0  0  0  0  0
    7.1856   -5.9235    0.6310 H   0  0  0  0  0  0  0  0  0  0  0  0
    6.8616   -4.6993   -0.5882 H   0  0  0  0  0  0  0  0  0  0  0  0
    6.9996   -1.8900    1.6868 H   0  0  0  0  0  0  0  0  0  0  0  0
    6.7337   -2.3623   -0.0170 H   0  0  0  0  0  0  0  0  0  0  0  0
    5.9646   -4.7847    3.2486 H   0  0  0  0  0  0  0  0  0  0  0  0
    3.8327   -3.3529    6.4530 H   0  0  0  0  0  0  0  0  0  0  0  0
    2.7967   -1.5036    5.0969 H   0  0  0  0  0  0  0  0  0  0  0  0
    2.3473   -1.2125    2.0128 H   0  0  0  0  0  0  0  0  0  0  0  0
    3.5349   -0.0452    2.5778 H   0  0  0  0  0  0  0  0  0  0  0  0
    4.1741   -1.4580   -1.1919 H   0  0  0  0  0  0  0  0  0  0  0  0
    2.8348   -0.6244   -0.4455 H   0  0  0  0  0  0  0  0  0  0  0  0
    4.7817    0.6969    0.4964 H   0  0  0  0  0  0  0  0  0  0  0  0
    5.9423   -0.5282   -0.1911 H   0  0  0  0  0  0  0  0  0  0  0  0
    1.3418   -3.3680   -0.4967 H   0  0  0  0  0  0  0  0  0  0  0  0
    1.9969   -2.6906   -3.1732 H   0  0  0  0  0  0  0  0  0  0  0  0
    3.9969   -2.5223   -4.6716 H   0  0  0  0  0  0  0  0  0  0  0  0
    6.2595   -3.0569   -3.7278 H   0  0  0  0  0  0  0  0  0  0  0  0
  1  2  1  0
  1 27  1  0
  1 28  1  0
  1 29  1  0
 17  2  1  6
  2  3  1  0
  3  4  1  0
  3 30  1  0
  3 31  1  0
  4  5  1  0
  6  5  1  1
  5 32  1  0
  5 33  1  0
  6 14  1  0
  6  7  1  0
  6 17  1  0
  7 12  1  0
  7  8  2  0
  8  9  1  0
  8 34  1  0
  9 10  2  0
 10 11  1  0
 10 35  1  0
 11 12  2  0
 11 36  1  0
 12 13  1  0
 13 14  1  0
 13 37  1  0
 13 38  1  0
 14 16  1  0
 14 15  1  0
 15 16  1  0
 15 39  1  0
 15 40  1  0
 16 41  1  0
 16 42  1  0
 17 26  1  0
 17 18  1  0
 18 19  2  0
 18 20  1  0
 20 21  1  0
 20 43  1  0
 21 26  2  0
 21 22  1  0
 22 23  2  0
 22 44  1  0
 23 24  1  0
 23 45  1  0
 24 25  2  0
 24 46  1  0
 25 26  1  0
M  END
>  <i_m_ct_stereo_status>  (239) 
1

>  <s_m_source_file>  (239) 
/var/tmp/pbs.5076255.sched01/tmpt7uccrld/92zpefy4ut.sdf

>  <i_m_source_file_index>  (239) 
11

>  <i_lp_mmshare_version>  (239) 
48012

>  <i_f3d_flags>  (239) 
0

>  <s_epik_input>  (239) 
bjFbY0hdW2NIXVtjSF1jKFtOSF1DMj1PKWMxW0NAQF0yKE4oW0NIM10pW0NIMl1TW0NIMl0zKVtDQF0zNEM1KFtDSDJdW0NIMl01KVtDSDJdYzZjNFtjSF1uW2NIXVtjSF02

>  <s_epik_cmdline>  (239) 
J2VwaWtfcHl0aG9uJywgJy1waHQnLCAnMi4wJywgJy1waCcsICc3LjAnLCAnLXRuJywgJzgnLCAnLW1hJywgJzIwMCcsICctaW1hZScsICc8aW5maWxlLm1hZT4nLCAnLW9tYWUnLCAnPG91dGZpbGUubWFlPic=

>  <r_epik_Ionization_Penalty>  (239) 
0.139376

>  <r_epik_Ionization_Penalty_Charging>  (239) 
0

>  <r_epik_Ionization_Penalty_Neutral>  (239) 
0.139376

>  <r_epik_State_Penalty>  (239) 
0.127467

>  <r_epik_Charging_Adjusted_Penalty>  (239) 
0.127467

>  <i_epik_Tot_Q>  (239) 
0

>  <i_epik_Tot_abs_Q>  (239) 
0

>  <s_epik_Chemistry_Notes>  (239) 
This compound contains an acetal/aminal-like group ( X-CH(R)-Y where X, Y are N, S, or O) that may be acid/base labile, releasing an aldehyde.

>  <s_lp_Force_Field>  (239) 
OPLS3e

>  <r_lp_Energy>  (239) 
44.2278

>  <b_lp_Chiralities_Consistent>  (239) 
1

>  <s_lp_Variant>  (239) 
74:0-1

>  <s_i_glide_gridfile>  (239) 
pfpi4k_grid

>  <i_i_glide_lignum>  (239) 
11

>  <i_i_glide_rotatable_bonds>  (239) 
0

>  <r_i_docking_score>  (239) 
-0.0443797

>  <r_i_glide_ligand_efficiency>  (239) 
-0.00170691

>  <r_i_glide_ligand_efficiency_sa>  (239) 
-0.00505672

>  <r_i_glide_ligand_efficiency_ln>  (239) 
-0.0104224

>  <r_i_glide_gscore>  (239) 
-0.0443797

>  <r_i_glide_lipo>  (239) 
-1.06302

>  <r_i_glide_hbond>  (239) 
0

>  <r_i_glide_metal>  (239) 
-0

>  <r_i_glide_rewards>  (239) 
-0.924102

>  <r_i_glide_evdw>  (239) 
-15.9796

>  <r_i_glide_ecoul>  (239) 
1.46382

>  <r_i_glide_erotb>  (239) 
0

>  <r_i_glide_esite>  (239) 
-0.0682464

>  <r_i_glide_emodel>  (239) 
-3.43421

>  <r_i_glide_energy>  (239) 
-14.5158

>  <r_i_glide_einternal>  (239) 
0

>  <r_i_glide_intrahb_reward>  (239) 
-0

>  <i_i_glide_confnum>  (239) 
1

>  <i_i_glide_posenum>  (239) 
1

>  <r_i_glide_eff_state_penalty>  (239) 
0

>  <ligand_id>  (239) 
74

>  <original_smiles>  (239) 
CN1CSCC2(c3cnccc3CC23CC3)C12C(=O)Nc1cccnc12

>  <smiles>  (239) 
[H]c1nc2c(c([H])c1[H])N([H])C(=O)C21N(C([H])([H])[H])C([H])([H])SC([H])([H])C12c1c([H])nc([H])c([H])c1C([H])([H])C21C([H])([H])C1([H])[H]

$$$$
74:1:0
     RDKit          3D

 47 52  0  0  1  0  0  0  0  0999 V2000
    4.4693   -6.4896   -0.2640 C   0  0  0  0  0  0  0  0  0  0  0  0
    4.9269   -5.5001    0.7042 N   0  0  0  0  0  0  0  0  0  0  0  0
    6.3977   -5.4748    0.5600 C   0  0  0  0  0  0  0  0  0  0  0  0
    7.1545   -4.5716    1.7667 S   0  0  0  0  0  0  0  0  0  0  0  0
    6.3124   -3.0292    1.5452 C   0  0  0  0  0  0  0  0  0  0  0  0
    4.7698   -3.1390    1.5688 C   0  0  1  0  0  0  0  0  0  0  0  0
    4.3114   -3.5360    2.9651 C   0  0  0  0  0  0  0  0  0  0  0  0
    4.6498   -4.6980    3.6899 C   0  0  0  0  0  0  0  0  0  0  0  0
    4.0820   -4.9134    4.8913 N   0  0  0  0  0  0  0  0  0  0  0  0
    3.1641   -4.0712    5.4189 C   0  0  0  0  0  0  0  0  0  0  0  0
    2.7562   -2.9155    4.7158 C   0  0  0  0  0  0  0  0  0  0  0  0
    3.3587   -2.6589    3.4651 C   0  0  0  0  0  0  0  0  0  0  0  0
    3.0705   -1.5282    2.4943 C   0  0  0  0  0  0  0  0  0  0  0  0
    4.1039   -1.7356    1.3806 C   0  0  0  0  0  0  0  0  0  0  0  0
    3.9267   -1.0620    0.0146 C   0  0  0  0  0  0  0  0  0  0  0  0
    4.9618   -0.5565    0.9413 C   0  0  0  0  0  0  0  0  0  0  0  0
    4.3197   -4.1753    0.4790 C   0  0  2  0  0  0  0  0  0  0  0  0
    2.7744   -4.2292    0.5092 C   0  0  0  0  0  0  0  0  0  0  0  0
    2.1067   -4.5563    1.4927 O   0  0  0  0  0  0  0  0  0  0  0  0
    2.2792   -3.8172   -0.7050 N   0  0  0  0  0  0  0  0  0  0  0  0
    3.2949   -3.5214   -1.5760 C   0  0  0  0  0  0  0  0  0  0  0  0
    3.2814   -3.0470   -2.9053 C   0  0  0  0  0  0  0  0  0  0  0  0
    4.5276   -2.7746   -3.5136 C   0  0  0  0  0  0  0  0  0  0  0  0
    5.7114   -2.9721   -2.7834 C   0  0  0  0  0  0  0  0  0  0  0  0
    5.7153   -3.4216   -1.5211 N   0  0  0  0  0  0  0  0  0  0  0  0
    4.5157   -3.7159   -0.9436 C   0  0  0  0  0  0  0  0  0  0  0  0
    4.9989   -7.4066   -0.1598 H   0  0  0  0  0  0  0  0  0  0  0  0
    4.6285   -6.1378   -1.2878 H   0  0  0  0  0  0  0  0  0  0  0  0
    3.4076   -6.6591   -0.1313 H   0  0  0  0  0  0  0  0  0  0  0  0
    6.8789   -6.4067    0.7442 H   0  0  0  0  0  0  0  0  0  0  0  0
    6.8090   -5.0185   -0.3519 H   0  0  0  0  0  0  0  0  0  0  0  0
    6.6156   -2.3419    2.3375 H   0  0  0  0  0  0  0  0  0  0  0  0
    6.6770   -2.6615    0.5869 H   0  0  0  0  0  0  0  0  0  0  0  0
    5.3229   -5.4748    3.3566 H   0  0  0  0  0  0  0  0  0  0  0  0
    2.7819   -4.3471    6.3921 H   0  0  0  0  0  0  0  0  0  0  0  0
    2.0080   -2.2550    5.1200 H   0  0  0  0  0  0  0  0  0  0  0  0
    2.0600   -1.5910    2.0818 H   0  0  0  0  0  0  0  0  0  0  0  0
    3.1779   -0.5453    2.9537 H   0  0  0  0  0  0  0  0  0  0  0  0
    4.3587   -1.3897   -0.8912 H   0  0  0  0  0  0  0  0  0  0  0  0
    2.9812   -0.5399   -0.1574 H   0  0  0  0  0  0  0  0  0  0  0  0
    4.7849    0.4214    1.3538 H   0  0  0  0  0  0  0  0  0  0  0  0
    5.9928   -0.7315    0.6433 H   0  0  0  0  0  0  0  0  0  0  0  0
    1.3052   -3.6368   -0.9064 H   0  0  0  0  0  0  0  0  0  0  0  0
    2.3653   -2.8671   -3.4400 H   0  0  0  0  0  0  0  0  0  0  0  0
    4.5937   -2.4030   -4.5260 H   0  0  0  0  0  0  0  0  0  0  0  0
    6.6784   -2.7451   -3.1874 H   0  0  0  0  0  0  0  0  0  0  0  0
    4.3630   -5.7548    5.4100 H   0  0  0  0  0  0  0  0  0  0  0  0
  1  2  1  0
  1 27  1  0
  1 28  1  0
  1 29  1  0
 17  2  1  6
  2  3  1  0
  3  4  1  0
  3 30  1  0
  3 31  1  0
  4  5  1  0
  6  5  1  1
  5 32  1  0
  5 33  1  0
  6 14  1  0
  6  7  1  0
  6 17  1  0
  7 12  1  0
  7  8  2  0
  8  9  1  0
  8 34  1  0
  9 10  2  0
  9 47  1  0
 10 11  1  0
 10 35  1  0
 11 12  2  0
 11 36  1  0
 12 13  1  0
 13 14  1  0
 13 37  1  0
 13 38  1  0
 14 16  1  0
 14 15  1  0
 15 16  1  0
 15 39  1  0
 15 40  1  0
 16 41  1  0
 16 42  1  0
 17 26  1  0
 17 18  1  0
 18 19  2  0
 18 20  1  0
 20 21  1  0
 20 43  1  0
 21 26  2  0
 21 22  1  0
 22 23  2  0
 22 44  1  0
 23 24  1  0
 23 45  1  0
 24 25  2  0
 24 46  1  0
 25 26  1  0
M  CHG  1   9   1
M  END
>  <i_m_ct_stereo_status>  (240) 
1

>  <s_m_source_file>  (240) 
/var/tmp/pbs.5076255.sched01/tmpt7uccrld/92zpefy4ut.sdf

>  <i_m_source_file_index>  (240) 
12

>  <i_lp_mmshare_version>  (240) 
48012

>  <i_f3d_flags>  (240) 
0

>  <s_epik_input>  (240) 
bjFbY0hdW2NIXVtjSF1jKFtOSF1DMj1PKWMxW0NAQF0yKE4oW0NIM10pW0NIMl1TW0NIMl0zKVtDQF0zNEM1KFtDSDJdW0NIMl01KVtDSDJdYzZjNFtjSF1uW2NIXVtjSF02

>  <s_epik_cmdline>  (240) 
J2VwaWtfcHl0aG9uJywgJy1waHQnLCAnMi4wJywgJy1waCcsICc3LjAnLCAnLXRuJywgJzgnLCAnLW1hJywgJzIwMCcsICctaW1hZScsICc8aW5maWxlLm1hZT4nLCAnLW9tYWUnLCAnPG91dGZpbGUubWFlPic=

>  <r_epik_Ionization_Penalty>  (240) 
0.930798

>  <r_epik_Ionization_Penalty_Charging>  (240) 
0.930446

>  <r_epik_Ionization_Penalty_Neutral>  (240) 
0.000352295

>  <r_epik_State_Penalty>  (240) 
0.972927

>  <r_epik_Charging_Adjusted_Penalty>  (240) 
1.90337

>  <i_epik_Tot_Q>  (240) 
1

>  <i_epik_Tot_abs_Q>  (240) 
1

>  <s_epik_Chemistry_Notes>  (240) 
This compound contains an acetal/aminal-like group ( X-CH(R)-Y where X, Y are N, S, or O) that may be acid/base labile, releasing an aldehyde.

>  <s_lp_Force_Field>  (240) 
OPLS3e

>  <r_lp_Energy>  (240) 
48.8089

>  <b_lp_Chiralities_Consistent>  (240) 
1

>  <s_lp_Variant>  (240) 
74:0-2

>  <s_i_glide_gridfile>  (240) 
pfpi4k_grid

>  <i_i_glide_lignum>  (240) 
12

>  <i_i_glide_rotatable_bonds>  (240) 
0

>  <r_i_docking_score>  (240) 
-2.21628

>  <r_i_glide_ligand_efficiency>  (240) 
-0.0852415

>  <r_i_glide_ligand_efficiency_sa>  (240) 
-0.252527

>  <r_i_glide_ligand_efficiency_ln>  (240) 
-0.520486

>  <r_i_glide_gscore>  (240) 
-2.21628

>  <r_i_glide_lipo>  (240) 
-0.851435

>  <r_i_glide_hbond>  (240) 
-0.00788111

>  <r_i_glide_metal>  (240) 
-0

>  <r_i_glide_rewards>  (240) 
-0.91723

>  <r_i_glide_evdw>  (240) 
-12.757

>  <r_i_glide_ecoul>  (240) 
-0.900461

>  <r_i_glide_erotb>  (240) 
0

>  <r_i_glide_esite>  (240) 
-0.08284

>  <r_i_glide_emodel>  (240) 
-11.2273

>  <r_i_glide_energy>  (240) 
-13.6575

>  <r_i_glide_einternal>  (240) 
0

>  <r_i_glide_intrahb_reward>  (240) 
-0

>  <i_i_glide_confnum>  (240) 
1

>  <i_i_glide_posenum>  (240) 
1

>  <r_i_glide_eff_state_penalty>  (240) 
0

>  <ligand_id>  (240) 
74

>  <original_smiles>  (240) 
CN1CSCC2(c3cnccc3CC23CC3)C12C(=O)Nc1cccnc12

>  <smiles>  (240) 
[H]c1nc2c(c([H])c1[H])N([H])C(=O)C21N(C([H])([H])[H])C([H])([H])SC([H])([H])C12c1c(c([H])c([H])[n+]([H])c1[H])C([H])([H])C21C([H])([H])C1([H])[H]

$$$$
74:1:1
     RDKit          3D

 47 52  0  0  1  0  0  0  0  0999 V2000
    6.3679   -3.7911   -2.7042 C   0  0  0  0  0  0  0  0  0  0  0  0
    6.5511   -3.4473   -1.3113 N   0  0  0  0  0  0  0  0  0  0  0  0
    7.5525   -2.3857   -1.3352 C   0  0  0  0  0  0  0  0  0  0  0  0
    8.0874   -1.8553    0.2655 S   0  0  0  0  0  0  0  0  0  0  0  0
    6.4619   -1.4126    0.8111 C   0  0  0  0  0  0  0  0  0  0  0  0
    5.4231   -2.5427    0.7319 C   0  0  1  0  0  0  0  0  0  0  0  0
    5.8286   -3.6977    1.6343 C   0  0  0  0  0  0  0  0  0  0  0  0
    7.0064   -4.4766    1.5632 C   0  0  0  0  0  0  0  0  0  0  0  0
    7.1737   -5.5004    2.4213 N   0  0  0  0  0  0  0  0  0  0  0  0
    6.2243   -5.8420    3.3254 C   0  0  0  0  0  0  0  0  0  0  0  0
    5.0045   -5.1269    3.3991 C   0  0  0  0  0  0  0  0  0  0  0  0
    4.8239   -4.0317    2.5336 C   0  0  0  0  0  0  0  0  0  0  0  0
    3.6096   -3.1454    2.3733 C   0  0  0  0  0  0  0  0  0  0  0  0
    4.0709   -2.0884    1.3553 C   0  0  0  0  0  0  0  0  0  0  0  0
    3.0384   -1.2368    0.6226 C   0  0  0  0  0  0  0  0  0  0  0  0
    3.8681   -0.6133    1.6721 C   0  0  0  0  0  0  0  0  0  0  0  0
    5.2573   -3.0085   -0.7513 C   0  0  2  0  0  0  0  0  0  0  0  0
    4.1559   -4.1152   -0.7609 C   0  0  0  0  0  0  0  0  0  0  0  0
    4.2115   -5.1673   -0.1663 O   0  0  0  0  0  0  0  0  0  0  0  0
    3.1181   -3.6802   -1.5314 N   0  0  0  0  0  0  0  0  0  0  0  0
    3.3934   -2.4670   -2.1412 C   0  0  0  0  0  0  0  0  0  0  0  0
    2.6373   -1.6433   -2.9602 C   0  0  0  0  0  0  0  0  0  0  0  0
    3.1152   -0.3642   -3.2983 C   0  0  0  0  0  0  0  0  0  0  0  0
    4.3517    0.0309   -2.7507 C   0  0  0  0  0  0  0  0  0  0  0  0
    5.0748   -0.7691   -1.9647 N   0  0  0  0  0  0  0  0  0  0  0  0
    4.6214   -1.9880   -1.6712 C   0  0  0  0  0  0  0  0  0  0  0  0
    7.3304   -4.0905   -3.1225 H   0  0  0  0  0  0  0  0  0  0  0  0
    5.8970   -3.1348   -3.3808 H   0  0  0  0  0  0  0  0  0  0  0  0
    5.7184   -4.6858   -2.7182 H   0  0  0  0  0  0  0  0  0  0  0  0
    8.4960   -2.6948   -1.7567 H   0  0  0  0  0  0  0  0  0  0  0  0
    7.2088   -1.5182   -1.8696 H   0  0  0  0  0  0  0  0  0  0  0  0
    6.6166   -1.1305    1.8424 H   0  0  0  0  0  0  0  0  0  0  0  0
    6.1766   -0.5515    0.2067 H   0  0  0  0  0  0  0  0  0  0  0  0
    7.8164   -4.3313    0.8664 H   0  0  0  0  0  0  0  0  0  0  0  0
    6.4674   -6.6732    3.9668 H   0  0  0  0  0  0  0  0  0  0  0  0
    4.2378   -5.4159    4.0975 H   0  0  0  0  0  0  0  0  0  0  0  0
    2.7442   -3.6897    1.9780 H   0  0  0  0  0  0  0  0  0  0  0  0
    3.3013   -2.6781    3.3058 H   0  0  0  0  0  0  0  0  0  0  0  0
    3.1962   -0.7605   -0.3290 H   0  0  0  0  0  0  0  0  0  0  0  0
    2.0084   -1.4899    0.7990 H   0  0  0  0  0  0  0  0  0  0  0  0
    3.3359   -0.3236    2.5584 H   0  0  0  0  0  0  0  0  0  0  0  0
    4.6085    0.1110    1.3399 H   0  0  0  0  0  0  0  0  0  0  0  0
    2.2447   -4.1662   -1.6464 H   0  0  0  0  0  0  0  0  0  0  0  0
    1.6721   -1.9444   -3.2944 H   0  0  0  0  0  0  0  0  0  0  0  0
    2.5768    0.3549   -3.8910 H   0  0  0  0  0  0  0  0  0  0  0  0
    4.7627    0.9950   -2.9781 H   0  0  0  0  0  0  0  0  0  0  0  0
    8.0536   -6.0202    2.3839 H   0  0  0  0  0  0  0  0  0  0  0  0
  1  2  1  0
  1 27  1  0
  1 28  1  0
  1 29  1  0
 17  2  1  6
  2  3  1  0
  3  4  1  0
  3 30  1  0
  3 31  1  0
  4  5  1  0
  6  5  1  6
  5 32  1  0
  5 33  1  0
  6 14  1  0
  6  7  1  0
  6 17  1  0
  7 12  1  0
  7  8  2  0
  8  9  1  0
  8 34  1  0
  9 10  2  0
  9 47  1  0
 10 11  1  0
 10 35  1  0
 11 12  2  0
 11 36  1  0
 12 13  1  0
 13 14  1  0
 13 37  1  0
 13 38  1  0
 14 16  1  0
 14 15  1  0
 15 16  1  0
 15 39  1  0
 15 40  1  0
 16 41  1  0
 16 42  1  0
 17 26  1  0
 17 18  1  0
 18 19  2  0
 18 20  1  0
 20 21  1  0
 20 43  1  0
 21 26  2  0
 21 22  1  0
 22 23  2  0
 22 44  1  0
 23 24  1  0
 23 45  1  0
 24 25  2  0
 24 46  1  0
 25 26  1  0
M  CHG  1   9   1
M  END
>  <i_m_ct_stereo_status>  (241) 
1

>  <s_m_source_file>  (241) 
/var/tmp/pbs.5076255.sched01/tmpt7uccrld/92zpefy4ut.sdf

>  <i_m_source_file_index>  (241) 
12

>  <i_lp_mmshare_version>  (241) 
48012

>  <i_f3d_flags>  (241) 
0

>  <s_epik_input>  (241) 
bjFbY0hdW2NIXVtjSF1jKFtOSF1DMj1PKWMxW0NAQF0yKE4oW0NIM10pW0NIMl1TW0NIMl0zKVtDQF0zNEM1KFtDSDJdW0NIMl01KVtDSDJdYzZjNFtjSF1uW2NIXVtjSF02

>  <s_epik_cmdline>  (241) 
J2VwaWtfcHl0aG9uJywgJy1waHQnLCAnMi4wJywgJy1waCcsICc3LjAnLCAnLXRuJywgJzgnLCAnLW1hJywgJzIwMCcsICctaW1hZScsICc8aW5maWxlLm1hZT4nLCAnLW9tYWUnLCAnPG91dGZpbGUubWFlPic=

>  <r_epik_Ionization_Penalty>  (241) 
0.930798

>  <r_epik_Ionization_Penalty_Charging>  (241) 
0.930446

>  <r_epik_Ionization_Penalty_Neutral>  (241) 
0.000352295

>  <r_epik_State_Penalty>  (241) 
0.972927

>  <r_epik_Charging_Adjusted_Penalty>  (241) 
1.90337

>  <i_epik_Tot_Q>  (241) 
1

>  <i_epik_Tot_abs_Q>  (241) 
1

>  <s_epik_Chemistry_Notes>  (241) 
This compound contains an acetal/aminal-like group ( X-CH(R)-Y where X, Y are N, S, or O) that may be acid/base labile, releasing an aldehyde.

>  <s_lp_Force_Field>  (241) 
OPLS3e

>  <r_lp_Energy>  (241) 
48.8089

>  <b_lp_Chiralities_Consistent>  (241) 
1

>  <s_lp_Variant>  (241) 
74:0-2

>  <s_i_glide_gridfile>  (241) 
pfpi4k_grid

>  <i_i_glide_lignum>  (241) 
12

>  <i_i_glide_rotatable_bonds>  (241) 
0

>  <r_i_docking_score>  (241) 
-1.43305

>  <r_i_glide_ligand_efficiency>  (241) 
-0.0551172

>  <r_i_glide_ligand_efficiency_sa>  (241) 
-0.163284

>  <r_i_glide_ligand_efficiency_ln>  (241) 
-0.336546

>  <r_i_glide_gscore>  (241) 
-1.43305

>  <r_i_glide_lipo>  (241) 
-0.633331

>  <r_i_glide_hbond>  (241) 
-0.00417773

>  <r_i_glide_metal>  (241) 
-0

>  <r_i_glide_rewards>  (241) 
-0.91723

>  <r_i_glide_evdw>  (241) 
1.47561

>  <r_i_glide_ecoul>  (241) 
-2.92468

>  <r_i_glide_erotb>  (241) 
0

>  <r_i_glide_esite>  (241) 
-0.0241902

>  <r_i_glide_emodel>  (241) 
2.20606

>  <r_i_glide_energy>  (241) 
-1.44906

>  <r_i_glide_einternal>  (241) 
0

>  <r_i_glide_intrahb_reward>  (241) 
-0

>  <i_i_glide_confnum>  (241) 
1

>  <i_i_glide_posenum>  (241) 
13

>  <r_i_glide_eff_state_penalty>  (241) 
0

>  <ligand_id>  (241) 
74

>  <original_smiles>  (241) 
CN1CSCC2(c3cnccc3CC23CC3)C12C(=O)Nc1cccnc12

>  <smiles>  (241) 
[H]c1nc2c(c([H])c1[H])N([H])C(=O)C21N(C([H])([H])[H])C([H])([H])SC([H])([H])C12c1c(c([H])c([H])[n+]([H])c1[H])C([H])([H])C21C([H])([H])C1([H])[H]

$$$$
76:0:0
     RDKit          3D

 49 52  0  0  1  0  0  0  0  0999 V2000
    5.0671   -1.0634   -0.5065 C   0  0  0  0  0  0  0  0  0  0  0  0
    3.8286   -1.4313    0.3218 C   0  0  0  0  0  0  0  0  0  0  0  0
    3.3528   -0.3248    1.0733 O   0  0  0  0  0  0  0  0  0  0  0  0
    3.8161   -0.0968    2.3154 C   0  0  0  0  0  0  0  0  0  0  0  0
    4.7320   -0.7258    2.8426 O   0  0  0  0  0  0  0  0  0  0  0  0
    3.0998    0.9436    2.9097 N   0  0  0  0  0  0  0  0  0  0  0  0
    3.2678    1.4010    4.2773 C   0  0  1  0  0  0  0  0  0  0  0  0
    3.2017    2.9371    4.1296 C   0  0  0  0  0  0  0  0  0  0  0  0
    2.4085    3.1778    2.8299 C   0  0  0  0  0  0  0  0  0  0  0  0
    2.0586    1.7654    2.3164 C   0  0  2  0  0  0  0  0  0  0  0  0
    0.7263    1.2125    2.8512 C   0  0  0  0  0  0  0  0  0  0  0  0
    0.7299    1.2380    4.4047 C   0  0  1  0  0  0  0  0  0  0  0  0
   -0.3952    0.5039    4.9513 N   0  0  0  0  0  0  0  0  0  0  0  0
   -0.7195   -0.7714    4.6778 C   0  0  0  0  0  0  0  0  0  0  0  0
   -1.7845   -1.2372    5.3072 N   0  0  0  0  0  0  0  0  0  0  0  0
   -2.1901   -0.1654    6.0773 N   0  0  0  0  0  0  0  0  0  0  0  0
   -1.3431    0.8474    5.8642 C   0  0  0  0  0  0  0  0  0  0  0  0
   -1.4879    2.1407    6.5770 C   0  0  0  0  0  0  0  0  0  0  0  0
   -0.8633    3.4034    6.3206 C   0  0  0  0  0  0  0  0  0  0  0  0
   -1.2051    4.3235    7.1986 N   0  0  0  0  0  0  0  0  0  0  0  0
   -2.0792    3.7177    8.0141 N   0  0  0  0  0  0  0  0  0  0  0  0
   -2.6460    4.5232    9.0701 C   0  0  0  0  0  0  0  0  0  0  0  0
   -2.1319    4.0680   10.4347 C   0  0  0  0  0  0  0  0  0  0  0  0
   -2.2889    2.3909    7.6781 C   0  0  0  0  0  0  0  0  0  0  0  0
    2.0756    0.8103    5.0653 C   0  0  0  0  0  0  0  0  0  0  0  0
    5.4110   -1.9232   -1.0840 H   0  0  0  0  0  0  0  0  0  0  0  0
    5.8864   -0.7393    0.1365 H   0  0  0  0  0  0  0  0  0  0  0  0
    4.8401   -0.2654   -1.2083 H   0  0  0  0  0  0  0  0  0  0  0  0
    3.0272   -1.7545   -0.3408 H   0  0  0  0  0  0  0  0  0  0  0  0
    4.0427   -2.2770    0.9766 H   0  0  0  0  0  0  0  0  0  0  0  0
    4.2160    1.0885    4.7201 H   0  0  0  0  0  0  0  0  0  0  0  0
    2.7446    3.4258    4.9894 H   0  0  0  0  0  0  0  0  0  0  0  0
    4.2089    3.3437    4.0434 H   0  0  0  0  0  0  0  0  0  0  0  0
    1.5232    3.7980    2.9784 H   0  0  0  0  0  0  0  0  0  0  0  0
    3.0312    3.6977    2.0999 H   0  0  0  0  0  0  0  0  0  0  0  0
    2.0410    1.7521    1.2333 H   0  0  0  0  0  0  0  0  0  0  0  0
   -0.1026    1.8334    2.5021 H   0  0  0  0  0  0  0  0  0  0  0  0
    0.5661    0.2160    2.4431 H   0  0  0  0  0  0  0  0  0  0  0  0
    0.6374    2.2892    4.6110 H   0  0  0  0  0  0  0  0  0  0  0  0
   -0.1458   -1.3736    3.9796 H   0  0  0  0  0  0  0  0  0  0  0  0
   -0.1805    3.7766    5.5681 H   0  0  0  0  0  0  0  0  0  0  0  0
   -2.3702    5.5707    8.9063 H   0  0  0  0  0  0  0  0  0  0  0  0
   -3.7319    4.4726    9.0005 H   0  0  0  0  0  0  0  0  0  0  0  0
   -2.5706    4.6683   11.2303 H   0  0  0  0  0  0  0  0  0  0  0  0
   -1.0451    4.1570   10.4937 H   0  0  0  0  0  0  0  0  0  0  0  0
   -2.3946    3.0253   10.6104 H   0  0  0  0  0  0  0  0  0  0  0  0
   -2.9668    1.7779    8.2429 H   0  0  0  0  0  0  0  0  0  0  0  0
    2.1681   -0.2736    5.1174 H   0  0  0  0  0  0  0  0  0  0  0  0
    2.0918    1.1787    6.0936 H   0  0  0  0  0  0  0  0  0  0  0  0
  1  2  1  0
  1 26  1  0
  1 27  1  0
  1 28  1  0
  2  3  1  0
  2 29  1  0
  2 30  1  0
  3  4  1  0
  4  5  2  0
  4  6  1  0
  6 10  1  0
  6  7  1  0
  7 25  1  0
  7  8  1  0
  7 31  1  1
  8  9  1  0
  8 32  1  0
  8 33  1  0
  9 10  1  0
  9 34  1  0
  9 35  1  0
 10 11  1  0
 10 36  1  6
 11 12  1  0
 11 37  1  0
 11 38  1  0
 12 13  1  0
 12 25  1  0
 12 39  1  6
 13 17  1  0
 13 14  1  0
 14 15  2  0
 14 40  1  0
 15 16  1  0
 16 17  2  0
 17 18  1  0
 18 24  2  0
 18 19  1  0
 19 20  2  0
 19 41  1  0
 20 21  1  0
 21 22  1  0
 21 24  1  0
 22 23  1  0
 22 42  1  0
 22 43  1  0
 23 44  1  0
 23 45  1  0
 23 46  1  0
 24 47  1  0
 25 48  1  0
 25 49  1  0
M  END
>  <i_m_ct_stereo_status>  (242) 
1

>  <s_m_source_file>  (242) 
/var/tmp/pbs.5076255.sched01/tmpt7uccrld/92zpefy4ut.sdf

>  <i_m_source_file_index>  (242) 
14

>  <i_lp_mmshare_version>  (242) 
48012

>  <i_f3d_flags>  (242) 
0

>  <s_epik_input>  (242) 
W0NIM11bQ0gyXU9DKD1PKU4oW0NAQEhdMTIpW0NASF0oW0NIMl1bQ0gyXTEpW0NIMl1bQ0BIXShbQ0gyXTIpbjNbY0hdbm5jMy1jNFtjSF1ubihbY0hdNClbQ0gyXVtDSDNd

>  <s_epik_cmdline>  (242) 
J2VwaWtfcHl0aG9uJywgJy1waHQnLCAnMi4wJywgJy1waCcsICc3LjAnLCAnLXRuJywgJzgnLCAnLW1hJywgJzIwMCcsICctaW1hZScsICc8aW5maWxlLm1hZT4nLCAnLW9tYWUnLCAnPG91dGZpbGUubWFlPic=

>  <r_lp_tautomer_probability>  (242) 
1

>  <r_epik_Ionization_Penalty>  (242) 
5.5205e-05

>  <r_epik_Ionization_Penalty_Charging>  (242) 
0

>  <r_epik_Ionization_Penalty_Neutral>  (242) 
5.5205e-05

>  <r_epik_State_Penalty>  (242) 
-0

>  <r_epik_Charging_Adjusted_Penalty>  (242) 
0

>  <i_epik_Tot_Q>  (242) 
0

>  <i_epik_Tot_abs_Q>  (242) 
0

>  <s_epik_Chemistry_Notes>  (242) 
This compound has an ester and may undergo hydrolysis at high or low pH.

>  <s_lp_Force_Field>  (242) 
OPLS3e

>  <r_lp_Energy>  (242) 
5.75739

>  <b_lp_Chiralities_Consistent>  (242) 
1

>  <s_lp_Variant>  (242) 
76:0-1

>  <s_i_glide_gridfile>  (242) 
pfpi4k_grid

>  <i_i_glide_lignum>  (242) 
14

>  <i_i_glide_rotatable_bonds>  (242) 
6

>  <r_i_docking_score>  (242) 
-2.88543

>  <r_i_glide_ligand_efficiency>  (242) 
-0.115417

>  <r_i_glide_ligand_efficiency_sa>  (242) 
-0.337481

>  <r_i_glide_ligand_efficiency_ln>  (242) 
-0.683932

>  <r_i_glide_gscore>  (242) 
-2.88543

>  <r_i_glide_lipo>  (242) 
-0.123322

>  <r_i_glide_hbond>  (242) 
0

>  <r_i_glide_metal>  (242) 
-0

>  <r_i_glide_rewards>  (242) 
-1.14968

>  <r_i_glide_evdw>  (242) 
-24.3947

>  <r_i_glide_ecoul>  (242) 
-5.29166

>  <r_i_glide_erotb>  (242) 
0.64027

>  <r_i_glide_esite>  (242) 
-0.239209

>  <r_i_glide_emodel>  (242) 
-34.3656

>  <r_i_glide_energy>  (242) 
-29.6864

>  <r_i_glide_einternal>  (242) 
1.22853

>  <r_i_glide_intrahb_reward>  (242) 
-0

>  <i_i_glide_confnum>  (242) 
4

>  <i_i_glide_posenum>  (242) 
36

>  <r_i_glide_eff_state_penalty>  (242) 
0

>  <ligand_id>  (242) 
76

>  <original_smiles>  (242) 
CCOC(=O)N1C2CCC1CC(n1cnnc1-c1cnn(CC)c1)C2

>  <smiles>  (242) 
[H]c1nn(C([H])([H])C([H])([H])[H])c([H])c1-c1nnc([H])n1C1([H])C([H])([H])C2([H])N(C(=O)OC([H])([H])C([H])([H])[H])C([H])(C([H])([H])C2([H])[H])C1([H])[H]

$$$$
76:0:1
     RDKit          3D

 49 52  0  0  1  0  0  0  0  0999 V2000
   -3.1629    2.9195    7.7850 C   0  0  0  0  0  0  0  0  0  0  0  0
   -1.6857    2.5296    7.9047 C   0  0  0  0  0  0  0  0  0  0  0  0
   -1.1166    2.3394    6.6173 O   0  0  0  0  0  0  0  0  0  0  0  0
   -1.1924    1.1405    6.0026 C   0  0  0  0  0  0  0  0  0  0  0  0
   -1.7672    0.1578    6.4792 O   0  0  0  0  0  0  0  0  0  0  0  0
   -0.5296    1.1864    4.7776 N   0  0  0  0  0  0  0  0  0  0  0  0
   -0.3248    0.0593    3.8815 C   0  0  1  0  0  0  0  0  0  0  0  0
   -0.6011    0.6802    2.4982 C   0  0  0  0  0  0  0  0  0  0  0  0
   -0.3040    2.1772    2.6759 C   0  0  0  0  0  0  0  0  0  0  0  0
    0.1169    2.3331    4.1494 C   0  0  2  0  0  0  0  0  0  0  0  0
    1.6329    2.1598    4.3683 C   0  0  0  0  0  0  0  0  0  0  0  0
    2.1415    0.8089    3.7837 C   0  0  1  0  0  0  0  0  0  0  0  0
    3.4974    0.4780    4.2402 N   0  0  0  0  0  0  0  0  0  0  0  0
    4.0102    0.6550    5.4749 C   0  0  0  0  0  0  0  0  0  0  0  0
    5.2629    0.2508    5.6084 N   0  0  0  0  0  0  0  0  0  0  0  0
    5.5971   -0.2649    4.3731 N   0  0  0  0  0  0  0  0  0  0  0  0
    4.5174   -0.1426    3.5929 C   0  0  0  0  0  0  0  0  0  0  0  0
    4.5234   -0.6364    2.2120 C   0  0  0  0  0  0  0  0  0  0  0  0
    3.4781   -0.5355    1.2441 C   0  0  0  0  0  0  0  0  0  0  0  0
    3.8274   -1.0923    0.1021 N   0  0  0  0  0  0  0  0  0  0  0  0
    5.0831   -1.5371    0.2812 N   0  0  0  0  0  0  0  0  0  0  0  0
    5.7361   -2.2454   -0.8142 C   0  0  0  0  0  0  0  0  0  0  0  0
    5.2757   -1.7356   -2.1993 C   0  0  0  0  0  0  0  0  0  0  0  0
    5.5325   -1.2963    1.5699 C   0  0  0  0  0  0  0  0  0  0  0  0
    1.1504   -0.3722    4.0448 C   0  0  0  0  0  0  0  0  0  0  0  0
   -3.6050    3.0820    8.7686 H   0  0  0  0  0  0  0  0  0  0  0  0
   -3.7443    2.1460    7.2799 H   0  0  0  0  0  0  0  0  0  0  0  0
   -3.2669    3.8379    7.2103 H   0  0  0  0  0  0  0  0  0  0  0  0
   -1.1366    3.3250    8.4066 H   0  0  0  0  0  0  0  0  0  0  0  0
   -1.5697    1.6348    8.5169 H   0  0  0  0  0  0  0  0  0  0  0  0
   -1.0085   -0.7676    4.0847 H   0  0  0  0  0  0  0  0  0  0  0  0
   -0.0010    0.2291    1.7071 H   0  0  0  0  0  0  0  0  0  0  0  0
   -1.6486    0.5485    2.2229 H   0  0  0  0  0  0  0  0  0  0  0  0
    0.4664    2.5333    1.9948 H   0  0  0  0  0  0  0  0  0  0  0  0
   -1.2057    2.7588    2.4772 H   0  0  0  0  0  0  0  0  0  0  0  0
   -0.2099    3.3040    4.5304 H   0  0  0  0  0  0  0  0  0  0  0  0
    2.1780    2.9659    3.8810 H   0  0  0  0  0  0  0  0  0  0  0  0
    1.8201    2.2642    5.4398 H   0  0  0  0  0  0  0  0  0  0  0  0
    2.1846    1.0029    2.7199 H   0  0  0  0  0  0  0  0  0  0  0  0
    3.4444    1.0899    6.2834 H   0  0  0  0  0  0  0  0  0  0  0  0
    2.4952   -0.1153    1.2825 H   0  0  0  0  0  0  0  0  0  0  0  0
    6.8215   -2.1427   -0.7156 H   0  0  0  0  0  0  0  0  0  0  0  0
    5.4939   -3.3077   -0.7204 H   0  0  0  0  0  0  0  0  0  0  0  0
    5.7627   -2.2837   -3.0059 H   0  0  0  0  0  0  0  0  0  0  0  0
    5.4892   -0.6732   -2.3186 H   0  0  0  0  0  0  0  0  0  0  0  0
    4.2016   -1.8584   -2.3466 H   0  0  0  0  0  0  0  0  0  0  0  0
    6.5110   -1.6156    1.9142 H   0  0  0  0  0  0  0  0  0  0  0  0
    1.2819   -0.7726    5.0512 H   0  0  0  0  0  0  0  0  0  0  0  0
    1.3720   -1.2014    3.3746 H   0  0  0  0  0  0  0  0  0  0  0  0
  1  2  1  0
  1 26  1  0
  1 27  1  0
  1 28  1  0
  2  3  1  0
  2 29  1  0
  2 30  1  0
  3  4  1  0
  4  5  2  0
  4  6  1  0
  6 10  1  0
  6  7  1  0
  7 25  1  0
  7  8  1  0
  7 31  1  1
  8  9  1  0
  8 32  1  0
  8 33  1  0
  9 10  1  0
  9 34  1  0
  9 35  1  0
 10 11  1  0
 10 36  1  1
 11 12  1  0
 11 37  1  0
 11 38  1  0
 12 13  1  0
 12 25  1  0
 12 39  1  6
 13 17  1  0
 13 14  1  0
 14 15  2  0
 14 40  1  0
 15 16  1  0
 16 17  2  0
 17 18  1  0
 18 24  2  0
 18 19  1  0
 19 20  2  0
 19 41  1  0
 20 21  1  0
 21 22  1  0
 21 24  1  0
 22 23  1  0
 22 42  1  0
 22 43  1  0
 23 44  1  0
 23 45  1  0
 23 46  1  0
 24 47  1  0
 25 48  1  0
 25 49  1  0
M  END
>  <i_m_ct_stereo_status>  (243) 
1

>  <s_m_source_file>  (243) 
/var/tmp/pbs.5076255.sched01/tmpt7uccrld/92zpefy4ut.sdf

>  <i_m_source_file_index>  (243) 
14

>  <i_lp_mmshare_version>  (243) 
48012

>  <i_f3d_flags>  (243) 
0

>  <s_epik_input>  (243) 
W0NIM11bQ0gyXU9DKD1PKU4oW0NAQEhdMTIpW0NASF0oW0NIMl1bQ0gyXTEpW0NIMl1bQ0BIXShbQ0gyXTIpbjNbY0hdbm5jMy1jNFtjSF1ubihbY0hdNClbQ0gyXVtDSDNd

>  <s_epik_cmdline>  (243) 
J2VwaWtfcHl0aG9uJywgJy1waHQnLCAnMi4wJywgJy1waCcsICc3LjAnLCAnLXRuJywgJzgnLCAnLW1hJywgJzIwMCcsICctaW1hZScsICc8aW5maWxlLm1hZT4nLCAnLW9tYWUnLCAnPG91dGZpbGUubWFlPic=

>  <r_lp_tautomer_probability>  (243) 
1

>  <r_epik_Ionization_Penalty>  (243) 
5.5205e-05

>  <r_epik_Ionization_Penalty_Charging>  (243) 
0

>  <r_epik_Ionization_Penalty_Neutral>  (243) 
5.5205e-05

>  <r_epik_State_Penalty>  (243) 
-0

>  <r_epik_Charging_Adjusted_Penalty>  (243) 
0

>  <i_epik_Tot_Q>  (243) 
0

>  <i_epik_Tot_abs_Q>  (243) 
0

>  <s_epik_Chemistry_Notes>  (243) 
This compound has an ester and may undergo hydrolysis at high or low pH.

>  <s_lp_Force_Field>  (243) 
OPLS3e

>  <r_lp_Energy>  (243) 
5.75739

>  <b_lp_Chiralities_Consistent>  (243) 
1

>  <s_lp_Variant>  (243) 
76:0-1

>  <s_i_glide_gridfile>  (243) 
pfpi4k_grid

>  <i_i_glide_lignum>  (243) 
14

>  <i_i_glide_rotatable_bonds>  (243) 
6

>  <r_i_docking_score>  (243) 
-2.87852

>  <r_i_glide_ligand_efficiency>  (243) 
-0.115141

>  <r_i_glide_ligand_efficiency_sa>  (243) 
-0.336674

>  <r_i_glide_ligand_efficiency_ln>  (243) 
-0.682296

>  <r_i_glide_gscore>  (243) 
-2.87852

>  <r_i_glide_lipo>  (243) 
-0.340453

>  <r_i_glide_hbond>  (243) 
-0.16

>  <r_i_glide_metal>  (243) 
-0

>  <r_i_glide_rewards>  (243) 
-1.1874

>  <r_i_glide_evdw>  (243) 
-24.9119

>  <r_i_glide_ecoul>  (243) 
-3.5948

>  <r_i_glide_erotb>  (243) 
0.64027

>  <r_i_glide_esite>  (243) 
-0.0461257

>  <r_i_glide_emodel>  (243) 
-32.6316

>  <r_i_glide_energy>  (243) 
-28.5067

>  <r_i_glide_einternal>  (243) 
2.14295

>  <r_i_glide_intrahb_reward>  (243) 
-0

>  <i_i_glide_confnum>  (243) 
4

>  <i_i_glide_posenum>  (243) 
2

>  <r_i_glide_eff_state_penalty>  (243) 
0

>  <ligand_id>  (243) 
76

>  <original_smiles>  (243) 
CCOC(=O)N1C2CCC1CC(n1cnnc1-c1cnn(CC)c1)C2

>  <smiles>  (243) 
[H]c1nn(C([H])([H])C([H])([H])[H])c([H])c1-c1nnc([H])n1C1([H])C([H])([H])C2([H])N(C(=O)OC([H])([H])C([H])([H])[H])C([H])(C([H])([H])C2([H])[H])C1([H])[H]

$$$$
76:0:2
     RDKit          3D

 49 52  0  0  1  0  0  0  0  0999 V2000
    1.7405    5.7969    3.3060 C   0  0  0  0  0  0  0  0  0  0  0  0
    2.9815    4.9534    3.0093 C   0  0  0  0  0  0  0  0  0  0  0  0
    2.6060    3.5901    2.8795 O   0  0  0  0  0  0  0  0  0  0  0  0
    2.8849    2.7014    3.8488 C   0  0  0  0  0  0  0  0  0  0  0  0
    3.4789    2.9678    4.8915 O   0  0  0  0  0  0  0  0  0  0  0  0
    2.4075    1.4403    3.4952 N   0  0  0  0  0  0  0  0  0  0  0  0
    2.5564    0.2375    4.2961 C   0  0  1  0  0  0  0  0  0  0  0  0
    1.1598   -0.4118    4.1663 C   0  0  0  0  0  0  0  0  0  0  0  0
    0.5912    0.1347    2.8419 C   0  0  0  0  0  0  0  0  0  0  0  0
    1.6904    1.0648    2.2856 C   0  0  2  0  0  0  0  0  0  0  0  0
    2.7198    0.3317    1.3945 C   0  0  0  0  0  0  0  0  0  0  0  0
    3.3410   -0.8849    2.1396 C   0  0  1  0  0  0  0  0  0  0  0  0
    4.5029   -1.4282    1.4158 N   0  0  0  0  0  0  0  0  0  0  0  0
    5.5916   -0.7361    1.0159 C   0  0  0  0  0  0  0  0  0  0  0  0
    6.5212   -1.4514    0.3808 N   0  0  0  0  0  0  0  0  0  0  0  0
    6.0036   -2.7335    0.3897 N   0  0  0  0  0  0  0  0  0  0  0  0
    4.8016   -2.6853    1.0088 C   0  0  0  0  0  0  0  0  0  0  0  0
    3.9798   -3.8989    1.1861 C   0  0  0  0  0  0  0  0  0  0  0  0
    2.6085   -4.0204    1.5967 C   0  0  0  0  0  0  0  0  0  0  0  0
    2.2132   -5.2661    1.6609 N   0  0  0  0  0  0  0  0  0  0  0  0
    3.2873   -5.9986    1.2908 N   0  0  0  0  0  0  0  0  0  0  0  0
    3.1364   -7.4297    1.2770 C   0  0  0  0  0  0  0  0  0  0  0  0
    3.3492   -8.0201    2.6752 C   0  0  0  0  0  0  0  0  0  0  0  0
    4.3731   -5.1950    0.9860 C   0  0  0  0  0  0  0  0  0  0  0  0
    3.6826   -0.5929    3.6307 C   0  0  0  0  0  0  0  0  0  0  0  0
    2.0005    6.8503    3.4059 H   0  0  0  0  0  0  0  0  0  0  0  0
    1.2642    5.4763    4.2326 H   0  0  0  0  0  0  0  0  0  0  0  0
    1.0103    5.7149    2.5000 H   0  0  0  0  0  0  0  0  0  0  0  0
    3.4385    5.2801    2.0773 H   0  0  0  0  0  0  0  0  0  0  0  0
    3.7338    5.1050    3.7840 H   0  0  0  0  0  0  0  0  0  0  0  0
    2.7940    0.4455    5.3416 H   0  0  0  0  0  0  0  0  0  0  0  0
    1.1998   -1.5017    4.1866 H   0  0  0  0  0  0  0  0  0  0  0  0
    0.5245   -0.0972    4.9959 H   0  0  0  0  0  0  0  0  0  0  0  0
    0.3279   -0.6550    2.1388 H   0  0  0  0  0  0  0  0  0  0  0  0
   -0.3165    0.7084    3.0371 H   0  0  0  0  0  0  0  0  0  0  0  0
    1.2363    1.8946    1.7385 H   0  0  0  0  0  0  0  0  0  0  0  0
    2.2294   -0.0357    0.4950 H   0  0  0  0  0  0  0  0  0  0  0  0
    3.4752    1.0546    1.0572 H   0  0  0  0  0  0  0  0  0  0  0  0
    2.5399   -1.5997    2.1629 H   0  0  0  0  0  0  0  0  0  0  0  0
    5.6896    0.3205    1.2017 H   0  0  0  0  0  0  0  0  0  0  0  0
    1.8394   -3.2970    1.8425 H   0  0  0  0  0  0  0  0  0  0  0  0
    2.1238   -7.6617    0.9317 H   0  0  0  0  0  0  0  0  0  0  0  0
    3.8359   -7.8457    0.5530 H   0  0  0  0  0  0  0  0  0  0  0  0
    3.2540   -9.1046    2.6476 H   0  0  0  0  0  0  0  0  0  0  0  0
    2.6191   -7.6333    3.3893 H   0  0  0  0  0  0  0  0  0  0  0  0
    4.3432   -7.7697    3.0436 H   0  0  0  0  0  0  0  0  0  0  0  0
    5.3197   -5.6234    0.6543 H   0  0  0  0  0  0  0  0  0  0  0  0
    4.6406   -0.0621    3.7472 H   0  0  0  0  0  0  0  0  0  0  0  0
    3.7958   -1.5446    4.1509 H   0  0  0  0  0  0  0  0  0  0  0  0
  1  2  1  0
  1 26  1  0
  1 27  1  0
  1 28  1  0
  2  3  1  0
  2 29  1  0
  2 30  1  0
  3  4  1  0
  4  5  2  0
  4  6  1  0
  6 10  1  0
  6  7  1  0
  7 25  1  0
  7  8  1  0
  7 31  1  1
  8  9  1  0
  8 32  1  0
  8 33  1  0
  9 10  1  0
  9 34  1  0
  9 35  1  0
 10 11  1  0
 10 36  1  6
 11 12  1  0
 11 37  1  0
 11 38  1  0
 12 13  1  0
 12 25  1  0
 12 39  1  1
 13 17  1  0
 13 14  1  0
 14 15  2  0
 14 40  1  0
 15 16  1  0
 16 17  2  0
 17 18  1  0
 18 24  2  0
 18 19  1  0
 19 20  2  0
 19 41  1  0
 20 21  1  0
 21 22  1  0
 21 24  1  0
 22 23  1  0
 22 42  1  0
 22 43  1  0
 23 44  1  0
 23 45  1  0
 23 46  1  0
 24 47  1  0
 25 48  1  0
 25 49  1  0
M  END
>  <i_m_ct_stereo_status>  (244) 
1

>  <s_m_source_file>  (244) 
/var/tmp/pbs.5076255.sched01/tmpt7uccrld/92zpefy4ut.sdf

>  <i_m_source_file_index>  (244) 
14

>  <i_lp_mmshare_version>  (244) 
48012

>  <i_f3d_flags>  (244) 
0

>  <s_epik_input>  (244) 
W0NIM11bQ0gyXU9DKD1PKU4oW0NAQEhdMTIpW0NASF0oW0NIMl1bQ0gyXTEpW0NIMl1bQ0BIXShbQ0gyXTIpbjNbY0hdbm5jMy1jNFtjSF1ubihbY0hdNClbQ0gyXVtDSDNd

>  <s_epik_cmdline>  (244) 
J2VwaWtfcHl0aG9uJywgJy1waHQnLCAnMi4wJywgJy1waCcsICc3LjAnLCAnLXRuJywgJzgnLCAnLW1hJywgJzIwMCcsICctaW1hZScsICc8aW5maWxlLm1hZT4nLCAnLW9tYWUnLCAnPG91dGZpbGUubWFlPic=

>  <r_lp_tautomer_probability>  (244) 
1

>  <r_epik_Ionization_Penalty>  (244) 
5.5205e-05

>  <r_epik_Ionization_Penalty_Charging>  (244) 
0

>  <r_epik_Ionization_Penalty_Neutral>  (244) 
5.5205e-05

>  <r_epik_State_Penalty>  (244) 
-0

>  <r_epik_Charging_Adjusted_Penalty>  (244) 
0

>  <i_epik_Tot_Q>  (244) 
0

>  <i_epik_Tot_abs_Q>  (244) 
0

>  <s_epik_Chemistry_Notes>  (244) 
This compound has an ester and may undergo hydrolysis at high or low pH.

>  <s_lp_Force_Field>  (244) 
OPLS3e

>  <r_lp_Energy>  (244) 
5.75739

>  <b_lp_Chiralities_Consistent>  (244) 
1

>  <s_lp_Variant>  (244) 
76:0-1

>  <s_i_glide_gridfile>  (244) 
pfpi4k_grid

>  <i_i_glide_lignum>  (244) 
14

>  <i_i_glide_rotatable_bonds>  (244) 
6

>  <r_i_docking_score>  (244) 
-2.59765

>  <r_i_glide_ligand_efficiency>  (244) 
-0.103906

>  <r_i_glide_ligand_efficiency_sa>  (244) 
-0.303823

>  <r_i_glide_ligand_efficiency_ln>  (244) 
-0.615721

>  <r_i_glide_gscore>  (244) 
-2.59765

>  <r_i_glide_lipo>  (244) 
-0.207645

>  <r_i_glide_hbond>  (244) 
0

>  <r_i_glide_metal>  (244) 
-0

>  <r_i_glide_rewards>  (244) 
-1.32298

>  <r_i_glide_evdw>  (244) 
-24.6965

>  <r_i_glide_ecoul>  (244) 
-2.95106

>  <r_i_glide_erotb>  (244) 
0.64027

>  <r_i_glide_esite>  (244) 
-0.0298116

>  <r_i_glide_emodel>  (244) 
-31.9721

>  <r_i_glide_energy>  (244) 
-27.6476

>  <r_i_glide_einternal>  (244) 
0.752514

>  <r_i_glide_intrahb_reward>  (244) 
-0

>  <i_i_glide_confnum>  (244) 
4

>  <i_i_glide_posenum>  (244) 
3

>  <r_i_glide_eff_state_penalty>  (244) 
0

>  <ligand_id>  (244) 
76

>  <original_smiles>  (244) 
CCOC(=O)N1C2CCC1CC(n1cnnc1-c1cnn(CC)c1)C2

>  <smiles>  (244) 
[H]c1nn(C([H])([H])C([H])([H])[H])c([H])c1-c1nnc([H])n1C1([H])C([H])([H])C2([H])N(C(=O)OC([H])([H])C([H])([H])[H])C([H])(C([H])([H])C2([H])[H])C1([H])[H]

$$$$
76:1:0
     RDKit          3D

 49 52  0  0  1  0  0  0  0  0999 V2000
    6.6460   -1.2007    0.1090 C   0  0  0  0  0  0  0  0  0  0  0  0
    5.1452   -0.9971   -0.1615 C   0  0  0  0  0  0  0  0  0  0  0  0
    4.4218   -0.5241    0.9662 O   0  0  0  0  0  0  0  0  0  0  0  0
    4.4178   -1.1872    2.1418 C   0  0  0  0  0  0  0  0  0  0  0  0
    5.3334   -1.8667    2.5881 O   0  0  0  0  0  0  0  0  0  0  0  0
    3.1881   -1.0426    2.7740 N   0  0  0  0  0  0  0  0  0  0  0  0
    2.0685   -0.2492    2.3283 C   0  0  1  0  0  0  0  0  0  0  0  0
    0.8807   -1.2186    2.5483 C   0  0  0  0  0  0  0  0  0  0  0  0
    1.3590   -2.2756    3.5745 C   0  0  0  0  0  0  0  0  0  0  0  0
    2.7670   -1.7509    3.9777 C   0  0  2  0  0  0  0  0  0  0  0  0
    2.8605   -0.6752    5.1084 C   0  0  0  0  0  0  0  0  0  0  0  0
    1.9603    0.5606    4.8147 C   0  0  2  0  0  0  0  0  0  0  0  0
    0.5259    0.3325    5.2178 N   0  0  0  0  0  0  0  0  0  0  0  0
    0.0369   -0.7490    5.8364 C   0  0  0  0  0  0  0  0  0  0  0  0
   -1.3162   -0.7453    5.9333 N   0  0  0  0  0  0  0  0  0  0  0  0
   -1.6830    0.4566    5.4042 N   0  0  0  0  0  0  0  0  0  0  0  0
   -0.5258    1.1084    5.0922 C   0  0  0  0  0  0  0  0  0  0  0  0
   -0.5683    2.5045    4.6171 C   0  0  0  0  0  0  0  0  0  0  0  0
   -1.7634    3.3116    4.5544 C   0  0  0  0  0  0  0  0  0  0  0  0
   -1.4898    4.5209    4.0859 N   0  0  0  0  0  0  0  0  0  0  0  0
   -0.1424    4.5062    3.8619 N   0  0  0  0  0  0  0  0  0  0  0  0
    0.5048    5.6703    3.2848 C   0  0  0  0  0  0  0  0  0  0  0  0
    0.9850    6.6248    4.3814 C   0  0  0  0  0  0  0  0  0  0  0  0
    0.4064    3.3199    4.2161 C   0  0  0  0  0  0  0  0  0  0  0  0
    2.0497    0.9513    3.2846 C   0  0  0  0  0  0  0  0  0  0  0  0
    7.1759   -1.5532   -0.7749 H   0  0  0  0  0  0  0  0  0  0  0  0
    6.8357   -1.9504    0.8759 H   0  0  0  0  0  0  0  0  0  0  0  0
    7.0870   -0.2766    0.4704 H   0  0  0  0  0  0  0  0  0  0  0  0
    5.0215   -0.2798   -0.9759 H   0  0  0  0  0  0  0  0  0  0  0  0
    4.6907   -1.9199   -0.5138 H   0  0  0  0  0  0  0  0  0  0  0  0
    2.0958    0.1015    1.2784 H   0  0  0  0  0  0  0  0  0  0  0  0
   -0.0055   -0.6649    2.8657 H   0  0  0  0  0  0  0  0  0  0  0  0
    0.6270   -1.6936    1.5995 H   0  0  0  0  0  0  0  0  0  0  0  0
    0.6720   -2.4247    4.3948 H   0  0  0  0  0  0  0  0  0  0  0  0
    1.4792   -3.2280    3.0468 H   0  0  0  0  0  0  0  0  0  0  0  0
    3.4469   -2.5798    4.2038 H   0  0  0  0  0  0  0  0  0  0  0  0
    2.6591   -1.1184    6.0830 H   0  0  0  0  0  0  0  0  0  0  0  0
    3.8971   -0.3227    5.2071 H   0  0  0  0  0  0  0  0  0  0  0  0
    2.2980    1.4024    5.4240 H   0  0  0  0  0  0  0  0  0  0  0  0
    0.6065   -1.5895    6.2053 H   0  0  0  0  0  0  0  0  0  0  0  0
   -2.7493    3.0370    4.8295 H   0  0  0  0  0  0  0  0  0  0  0  0
    1.3638    5.3346    2.6878 H   0  0  0  0  0  0  0  0  0  0  0  0
   -0.1685    6.1632    2.5850 H   0  0  0  0  0  0  0  0  0  0  0  0
    1.4488    7.5121    3.9481 H   0  0  0  0  0  0  0  0  0  0  0  0
    1.7179    6.1487    5.0366 H   0  0  0  0  0  0  0  0  0  0  0  0
    0.1460    6.9506    4.9958 H   0  0  0  0  0  0  0  0  0  0  0  0
    1.5218    3.2154    4.1083 H   0  0  0  0  0  0  0  0  0  0  0  0
    2.9542    1.5494    3.1237 H   0  0  0  0  0  0  0  0  0  0  0  0
    1.2132    1.5197    2.8971 H   0  0  0  0  0  0  0  0  0  0  0  0
  1  2  1  0
  1 26  1  0
  1 27  1  0
  1 28  1  0
  2  3  1  0
  2 29  1  0
  2 30  1  0
  3  4  1  0
  4  5  2  0
  4  6  1  0
  6 10  1  0
  6  7  1  0
  7 25  1  0
  7  8  1  0
  7 31  1  6
  8  9  1  0
  8 32  1  0
  8 33  1  0
  9 10  1  0
  9 34  1  0
  9 35  1  0
 10 11  1  0
 10 36  1  1
 11 12  1  0
 11 37  1  0
 11 38  1  0
 12 13  1  0
 12 25  1  0
 12 39  1  1
 13 17  1  0
 13 14  1  0
 14 15  2  0
 14 40  1  0
 15 16  1  0
 16 17  2  0
 17 18  1  0
 18 24  2  0
 18 19  1  0
 19 20  2  0
 19 41  1  0
 20 21  1  0
 21 22  1  0
 21 24  1  0
 22 23  1  0
 22 42  1  0
 22 43  1  0
 23 44  1  0
 23 45  1  0
 23 46  1  0
 24 47  1  0
 25 48  1  0
 25 49  1  0
M  END
>  <i_m_ct_stereo_status>  (245) 
1

>  <s_m_source_file>  (245) 
/var/tmp/pbs.5076255.sched01/tmpt7uccrld/92zpefy4ut.sdf

>  <i_m_source_file_index>  (245) 
15

>  <i_lp_mmshare_version>  (245) 
48012

>  <i_f3d_flags>  (245) 
0

>  <s_epik_input>  (245) 
W0NIM11bQ0gyXU9DKD1PKU4oW0NAQEhdMTIpW0NASF0oW0NIMl1bQ0gyXTEpW0NIMl1bQ0BIXShbQ0gyXTIpbjNbY0hdbm5jMy1jNFtjSF1ubihbY0hdNClbQ0gyXVtDSDNd

>  <s_epik_cmdline>  (245) 
J2VwaWtfcHl0aG9uJywgJy1waHQnLCAnMi4wJywgJy1waCcsICc3LjAnLCAnLXRuJywgJzgnLCAnLW1hJywgJzIwMCcsICctaW1hZScsICc8aW5maWxlLm1hZT4nLCAnLW9tYWUnLCAnPG91dGZpbGUubWFlPic=

>  <r_lp_tautomer_probability>  (245) 
1

>  <r_epik_Ionization_Penalty>  (245) 
5.5205e-05

>  <r_epik_Ionization_Penalty_Charging>  (245) 
0

>  <r_epik_Ionization_Penalty_Neutral>  (245) 
5.5205e-05

>  <r_epik_State_Penalty>  (245) 
-0

>  <r_epik_Charging_Adjusted_Penalty>  (245) 
0

>  <i_epik_Tot_Q>  (245) 
0

>  <i_epik_Tot_abs_Q>  (245) 
0

>  <s_epik_Chemistry_Notes>  (245) 
This compound has an ester and may undergo hydrolysis at high or low pH.

>  <s_lp_Force_Field>  (245) 
OPLS3e

>  <r_lp_Energy>  (245) 
12.7511

>  <b_lp_Chiralities_Consistent>  (245) 
1

>  <s_lp_Variant>  (245) 
76:0-2

>  <s_i_glide_gridfile>  (245) 
pfpi4k_grid

>  <i_i_glide_lignum>  (245) 
15

>  <i_i_glide_rotatable_bonds>  (245) 
6

>  <r_i_docking_score>  (245) 
-2.93102

>  <r_i_glide_ligand_efficiency>  (245) 
-0.117241

>  <r_i_glide_ligand_efficiency_sa>  (245) 
-0.342815

>  <r_i_glide_ligand_efficiency_ln>  (245) 
-0.69474

>  <r_i_glide_gscore>  (245) 
-2.93102

>  <r_i_glide_lipo>  (245) 
-0.0402691

>  <r_i_glide_hbond>  (245) 
-0.126835

>  <r_i_glide_metal>  (245) 
-0

>  <r_i_glide_rewards>  (245) 
-1.11447

>  <r_i_glide_evdw>  (245) 
-22.6965

>  <r_i_glide_ecoul>  (245) 
-5.95178

>  <r_i_glide_erotb>  (245) 
0.64027

>  <r_i_glide_esite>  (245) 
-0.262126

>  <r_i_glide_emodel>  (245) 
-29.3564

>  <r_i_glide_energy>  (245) 
-28.6482

>  <r_i_glide_einternal>  (245) 
4.28111

>  <r_i_glide_intrahb_reward>  (245) 
-0

>  <i_i_glide_confnum>  (245) 
2

>  <i_i_glide_posenum>  (245) 
14

>  <r_i_glide_eff_state_penalty>  (245) 
0

>  <ligand_id>  (245) 
76

>  <original_smiles>  (245) 
CCOC(=O)N1C2CCC1CC(n1cnnc1-c1cnn(CC)c1)C2

>  <smiles>  (245) 
[H]c1nn(C([H])([H])C([H])([H])[H])c([H])c1-c1nnc([H])n1C1([H])C([H])([H])C2([H])N(C(=O)OC([H])([H])C([H])([H])[H])C([H])(C([H])([H])C2([H])[H])C1([H])[H]

$$$$
76:1:1
     RDKit          3D

 49 52  0  0  1  0  0  0  0  0999 V2000
    4.3735   -2.0273   -1.2858 C   0  0  0  0  0  0  0  0  0  0  0  0
    4.5439   -0.6566   -0.6189 C   0  0  0  0  0  0  0  0  0  0  0  0
    3.7380   -0.5829    0.5419 O   0  0  0  0  0  0  0  0  0  0  0  0
    4.2505   -0.8982    1.7400 C   0  0  0  0  0  0  0  0  0  0  0  0
    5.4371   -1.1350    1.9598 O   0  0  0  0  0  0  0  0  0  0  0  0
    3.2379   -0.9481    2.6977 N   0  0  0  0  0  0  0  0  0  0  0  0
    1.8292   -0.6617    2.5208 C   0  0  1  0  0  0  0  0  0  0  0  0
    1.1430   -1.8398    3.2576 C   0  0  0  0  0  0  0  0  0  0  0  0
    2.2259   -2.3637    4.1913 C   0  0  0  0  0  0  0  0  0  0  0  0
    3.3973   -1.3808    4.0837 C   0  0  2  0  0  0  0  0  0  0  0  0
    3.3449   -0.0689    4.9294 C   0  0  0  0  0  0  0  0  0  0  0  0
    2.0043    0.7088    4.7322 C   0  0  2  0  0  0  0  0  0  0  0  0
    0.9347    0.1845    5.5679 N   0  0  0  0  0  0  0  0  0  0  0  0
    0.9952   -0.8261    6.4721 C   0  0  0  0  0  0  0  0  0  0  0  0
   -0.2052   -1.2301    6.9300 N   0  0  0  0  0  0  0  0  0  0  0  0
   -1.0616   -0.2719    6.4473 N   0  0  0  0  0  0  0  0  0  0  0  0
   -0.3548    0.5601    5.7011 C   0  0  0  0  0  0  0  0  0  0  0  0
   -0.9329    1.7678    5.1428 C   0  0  0  0  0  0  0  0  0  0  0  0
   -1.1190    2.9888    5.8461 C   0  0  0  0  0  0  0  0  0  0  0  0
   -1.6970    3.9103    5.0866 N   0  0  0  0  0  0  0  0  0  0  0  0
   -1.9108    3.2956    3.8953 N   0  0  0  0  0  0  0  0  0  0  0  0
   -2.5418    4.0151    2.8085 C   0  0  0  0  0  0  0  0  0  0  0  0
   -3.6203    3.1597    2.1309 C   0  0  0  0  0  0  0  0  0  0  0  0
   -1.4520    1.9984    3.8953 C   0  0  0  0  0  0  0  0  0  0  0  0
    1.6086    0.7040    3.2096 C   0  0  0  0  0  0  0  0  0  0  0  0
    4.9835   -2.1008   -2.1842 H   0  0  0  0  0  0  0  0  0  0  0  0
    3.3336   -2.1987   -1.5650 H   0  0  0  0  0  0  0  0  0  0  0  0
    4.6770   -2.8255   -0.6061 H   0  0  0  0  0  0  0  0  0  0  0  0
    5.5875   -0.4760   -0.3793 H   0  0  0  0  0  0  0  0  0  0  0  0
    4.2468    0.1237   -1.3188 H   0  0  0  0  0  0  0  0  0  0  0  0
    1.4938   -0.6422    1.4814 H   0  0  0  0  0  0  0  0  0  0  0  0
    0.2116   -1.5256    3.7486 H   0  0  0  0  0  0  0  0  0  0  0  0
    0.8789   -2.6490    2.5748 H   0  0  0  0  0  0  0  0  0  0  0  0
    1.8226   -2.5743    5.1790 H   0  0  0  0  0  0  0  0  0  0  0  0
    2.5178   -3.3864    3.9933 H   0  0  0  0  0  0  0  0  0  0  0  0
    4.3516   -1.8983    4.2650 H   0  0  0  0  0  0  0  0  0  0  0  0
    3.5001   -0.2770    5.9835 H   0  0  0  0  0  0  0  0  0  0  0  0
    4.1792    0.5740    4.6652 H   0  0  0  0  0  0  0  0  0  0  0  0
    2.1303    1.7457    5.0520 H   0  0  0  0  0  0  0  0  0  0  0  0
    1.8710   -1.3741    6.7207 H   0  0  0  0  0  0  0  0  0  0  0  0
   -0.8551    3.2250    6.8617 H   0  0  0  0  0  0  0  0  0  0  0  0
   -2.9783    4.9353    3.1919 H   0  0  0  0  0  0  0  0  0  0  0  0
   -1.7846    4.3118    2.0816 H   0  0  0  0  0  0  0  0  0  0  0  0
   -4.0965    3.6834    1.3073 H   0  0  0  0  0  0  0  0  0  0  0  0
   -4.3969    2.8924    2.8457 H   0  0  0  0  0  0  0  0  0  0  0  0
   -3.2017    2.2348    1.7308 H   0  0  0  0  0  0  0  0  0  0  0  0
   -1.5274    1.3738    3.0210 H   0  0  0  0  0  0  0  0  0  0  0  0
    2.1587    1.4711    2.6675 H   0  0  0  0  0  0  0  0  0  0  0  0
    0.5807    0.9748    3.0741 H   0  0  0  0  0  0  0  0  0  0  0  0
  1  2  1  0
  1 26  1  0
  1 27  1  0
  1 28  1  0
  2  3  1  0
  2 29  1  0
  2 30  1  0
  3  4  1  0
  4  5  2  0
  4  6  1  0
  6 10  1  0
  6  7  1  0
  7 25  1  0
  7  8  1  0
  7 31  1  6
  8  9  1  0
  8 32  1  0
  8 33  1  0
  9 10  1  0
  9 34  1  0
  9 35  1  0
 10 11  1  0
 10 36  1  6
 11 12  1  0
 11 37  1  0
 11 38  1  0
 12 13  1  0
 12 25  1  0
 12 39  1  1
 13 17  1  0
 13 14  1  0
 14 15  2  0
 14 40  1  0
 15 16  1  0
 16 17  2  0
 17 18  1  0
 18 24  2  0
 18 19  1  0
 19 20  2  0
 19 41  1  0
 20 21  1  0
 21 22  1  0
 21 24  1  0
 22 23  1  0
 22 42  1  0
 22 43  1  0
 23 44  1  0
 23 45  1  0
 23 46  1  0
 24 47  1  0
 25 48  1  0
 25 49  1  0
M  END
>  <i_m_ct_stereo_status>  (246) 
1

>  <s_m_source_file>  (246) 
/var/tmp/pbs.5076255.sched01/tmpt7uccrld/92zpefy4ut.sdf

>  <i_m_source_file_index>  (246) 
15

>  <i_lp_mmshare_version>  (246) 
48012

>  <i_f3d_flags>  (246) 
0

>  <s_epik_input>  (246) 
W0NIM11bQ0gyXU9DKD1PKU4oW0NAQEhdMTIpW0NASF0oW0NIMl1bQ0gyXTEpW0NIMl1bQ0BIXShbQ0gyXTIpbjNbY0hdbm5jMy1jNFtjSF1ubihbY0hdNClbQ0gyXVtDSDNd

>  <s_epik_cmdline>  (246) 
J2VwaWtfcHl0aG9uJywgJy1waHQnLCAnMi4wJywgJy1waCcsICc3LjAnLCAnLXRuJywgJzgnLCAnLW1hJywgJzIwMCcsICctaW1hZScsICc8aW5maWxlLm1hZT4nLCAnLW9tYWUnLCAnPG91dGZpbGUubWFlPic=

>  <r_lp_tautomer_probability>  (246) 
1

>  <r_epik_Ionization_Penalty>  (246) 
5.5205e-05

>  <r_epik_Ionization_Penalty_Charging>  (246) 
0

>  <r_epik_Ionization_Penalty_Neutral>  (246) 
5.5205e-05

>  <r_epik_State_Penalty>  (246) 
-0

>  <r_epik_Charging_Adjusted_Penalty>  (246) 
0

>  <i_epik_Tot_Q>  (246) 
0

>  <i_epik_Tot_abs_Q>  (246) 
0

>  <s_epik_Chemistry_Notes>  (246) 
This compound has an ester and may undergo hydrolysis at high or low pH.

>  <s_lp_Force_Field>  (246) 
OPLS3e

>  <r_lp_Energy>  (246) 
12.7511

>  <b_lp_Chiralities_Consistent>  (246) 
1

>  <s_lp_Variant>  (246) 
76:0-2

>  <s_i_glide_gridfile>  (246) 
pfpi4k_grid

>  <i_i_glide_lignum>  (246) 
15

>  <i_i_glide_rotatable_bonds>  (246) 
6

>  <r_i_docking_score>  (246) 
-2.75059

>  <r_i_glide_ligand_efficiency>  (246) 
-0.110024

>  <r_i_glide_ligand_efficiency_sa>  (246) 
-0.321711

>  <r_i_glide_ligand_efficiency_ln>  (246) 
-0.651973

>  <r_i_glide_gscore>  (246) 
-2.75059

>  <r_i_glide_lipo>  (246) 
-0.0432417

>  <r_i_glide_hbond>  (246) 
0

>  <r_i_glide_metal>  (246) 
-0

>  <r_i_glide_rewards>  (246) 
-1.12541

>  <r_i_glide_evdw>  (246) 
-22.0054

>  <r_i_glide_ecoul>  (246) 
-6.06249

>  <r_i_glide_erotb>  (246) 
0.64027

>  <r_i_glide_esite>  (246) 
-0.212565

>  <r_i_glide_emodel>  (246) 
-28.039

>  <r_i_glide_energy>  (246) 
-28.0679

>  <r_i_glide_einternal>  (246) 
6.13614

>  <r_i_glide_intrahb_reward>  (246) 
-0

>  <i_i_glide_confnum>  (246) 
2

>  <i_i_glide_posenum>  (246) 
24

>  <r_i_glide_eff_state_penalty>  (246) 
0

>  <ligand_id>  (246) 
76

>  <original_smiles>  (246) 
CCOC(=O)N1C2CCC1CC(n1cnnc1-c1cnn(CC)c1)C2

>  <smiles>  (246) 
[H]c1nn(C([H])([H])C([H])([H])[H])c([H])c1-c1nnc([H])n1C1([H])C([H])([H])C2([H])N(C(=O)OC([H])([H])C([H])([H])[H])C([H])(C([H])([H])C2([H])[H])C1([H])[H]

$$$$
76:1:2
     RDKit          3D

 49 52  0  0  1  0  0  0  0  0999 V2000
    4.2004   -2.0246   -1.2526 C   0  0  0  0  0  0  0  0  0  0  0  0
    4.5149   -0.6561   -0.6270 C   0  0  0  0  0  0  0  0  0  0  0  0
    3.7859   -0.4983    0.5682 O   0  0  0  0  0  0  0  0  0  0  0  0
    4.2684   -0.9806    1.7211 C   0  0  0  0  0  0  0  0  0  0  0  0
    5.4375   -1.3578    1.8973 O   0  0  0  0  0  0  0  0  0  0  0  0
    3.2612   -1.0578    2.6749 N   0  0  0  0  0  0  0  0  0  0  0  0
    1.9162   -0.5369    2.5680 C   0  0  1  0  0  0  0  0  0  0  0  0
    1.0409   -1.6908    3.1340 C   0  0  0  0  0  0  0  0  0  0  0  0
    2.0046   -2.5265    3.9729 C   0  0  0  0  0  0  0  0  0  0  0  0
    3.3209   -1.7265    3.9830 C   0  0  2  0  0  0  0  0  0  0  0  0
    3.4796   -0.5743    5.0284 C   0  0  0  0  0  0  0  0  0  0  0  0
    2.2689    0.4251    4.9732 C   0  0  2  0  0  0  0  0  0  0  0  0
    1.1197   -0.0319    5.7397 N   0  0  0  0  0  0  0  0  0  0  0  0
    1.0230   -1.1524    6.5094 C   0  0  0  0  0  0  0  0  0  0  0  0
   -0.2357   -1.4209    6.9291 N   0  0  0  0  0  0  0  0  0  0  0  0
   -0.9536   -0.3377    6.5065 N   0  0  0  0  0  0  0  0  0  0  0  0
   -0.0991    0.5083    5.8993 C   0  0  0  0  0  0  0  0  0  0  0  0
   -0.5500    1.8369    5.4800 C   0  0  0  0  0  0  0  0  0  0  0  0
   -1.6670    2.5282    6.0166 C   0  0  0  0  0  0  0  0  0  0  0  0
   -1.8467    3.7154    5.4437 N   0  0  0  0  0  0  0  0  0  0  0  0
   -0.8419    3.8114    4.5530 N   0  0  0  0  0  0  0  0  0  0  0  0
   -0.6986    4.9439    3.6691 C   0  0  0  0  0  0  0  0  0  0  0  0
   -1.8844    5.0477    2.6969 C   0  0  0  0  0  0  0  0  0  0  0  0
    0.0047    2.7425    4.5893 C   0  0  0  0  0  0  0  0  0  0  0  0
    1.9038    0.6796    3.4642 C   0  0  0  0  0  0  0  0  0  0  0  0
    4.7540   -2.1681   -2.1786 H   0  0  0  0  0  0  0  0  0  0  0  0
    3.1365   -2.1211   -1.4742 H   0  0  0  0  0  0  0  0  0  0  0  0
    4.4739   -2.8349   -0.5713 H   0  0  0  0  0  0  0  0  0  0  0  0
    5.5787   -0.5537   -0.4426 H   0  0  0  0  0  0  0  0  0  0  0  0
    4.2383    0.1260   -1.3315 H   0  0  0  0  0  0  0  0  0  0  0  0
    1.5808   -0.2661    1.5539 H   0  0  0  0  0  0  0  0  0  0  0  0
    0.1645   -1.2978    3.6698 H   0  0  0  0  0  0  0  0  0  0  0  0
    0.6318   -2.2870    2.3146 H   0  0  0  0  0  0  0  0  0  0  0  0
    1.5821   -2.7815    4.9454 H   0  0  0  0  0  0  0  0  0  0  0  0
    2.1436   -3.5003    3.5304 H   0  0  0  0  0  0  0  0  0  0  0  0
    4.1893   -2.3949    4.0455 H   0  0  0  0  0  0  0  0  0  0  0  0
    3.6073   -0.9689    6.0363 H   0  0  0  0  0  0  0  0  0  0  0  0
    4.3967   -0.0170    4.8490 H   0  0  0  0  0  0  0  0  0  0  0  0
    2.5641    1.3694    5.4509 H   0  0  0  0  0  0  0  0  0  0  0  0
    1.8159   -1.8501    6.6972 H   0  0  0  0  0  0  0  0  0  0  0  0
   -2.3280    2.2039    6.7996 H   0  0  0  0  0  0  0  0  0  0  0  0
   -0.5855    5.8433    4.2794 H   0  0  0  0  0  0  0  0  0  0  0  0
    0.2258    4.8515    3.0981 H   0  0  0  0  0  0  0  0  0  0  0  0
   -1.7658    5.9013    2.0313 H   0  0  0  0  0  0  0  0  0  0  0  0
   -2.8250    5.1340    3.2372 H   0  0  0  0  0  0  0  0  0  0  0  0
   -1.9607    4.1482    2.0865 H   0  0  0  0  0  0  0  0  0  0  0  0
    0.8581    2.7899    3.9447 H   0  0  0  0  0  0  0  0  0  0  0  0
    2.5222    1.4721    3.0562 H   0  0  0  0  0  0  0  0  0  0  0  0
    0.8620    0.9423    3.3164 H   0  0  0  0  0  0  0  0  0  0  0  0
  1  2  1  0
  1 26  1  0
  1 27  1  0
  1 28  1  0
  2  3  1  0
  2 29  1  0
  2 30  1  0
  3  4  1  0
  4  5  2  0
  4  6  1  0
  6 10  1  0
  6  7  1  0
  7 25  1  0
  7  8  1  0
  7 31  1  6
  8  9  1  0
  8 32  1  0
  8 33  1  0
  9 10  1  0
  9 34  1  0
  9 35  1  0
 10 11  1  0
 10 36  1  6
 11 12  1  0
 11 37  1  0
 11 38  1  0
 12 13  1  0
 12 25  1  0
 12 39  1  1
 13 17  1  0
 13 14  1  0
 14 15  2  0
 14 40  1  0
 15 16  1  0
 16 17  2  0
 17 18  1  0
 18 24  2  0
 18 19  1  0
 19 20  2  0
 19 41  1  0
 20 21  1  0
 21 22  1  0
 21 24  1  0
 22 23  1  0
 22 42  1  0
 22 43  1  0
 23 44  1  0
 23 45  1  0
 23 46  1  0
 24 47  1  0
 25 48  1  0
 25 49  1  0
M  END
>  <i_m_ct_stereo_status>  (247) 
1

>  <s_m_source_file>  (247) 
/var/tmp/pbs.5076255.sched01/tmpt7uccrld/92zpefy4ut.sdf

>  <i_m_source_file_index>  (247) 
15

>  <i_lp_mmshare_version>  (247) 
48012

>  <i_f3d_flags>  (247) 
0

>  <s_epik_input>  (247) 
W0NIM11bQ0gyXU9DKD1PKU4oW0NAQEhdMTIpW0NASF0oW0NIMl1bQ0gyXTEpW0NIMl1bQ0BIXShbQ0gyXTIpbjNbY0hdbm5jMy1jNFtjSF1ubihbY0hdNClbQ0gyXVtDSDNd

>  <s_epik_cmdline>  (247) 
J2VwaWtfcHl0aG9uJywgJy1waHQnLCAnMi4wJywgJy1waCcsICc3LjAnLCAnLXRuJywgJzgnLCAnLW1hJywgJzIwMCcsICctaW1hZScsICc8aW5maWxlLm1hZT4nLCAnLW9tYWUnLCAnPG91dGZpbGUubWFlPic=

>  <r_lp_tautomer_probability>  (247) 
1

>  <r_epik_Ionization_Penalty>  (247) 
5.5205e-05

>  <r_epik_Ionization_Penalty_Charging>  (247) 
0

>  <r_epik_Ionization_Penalty_Neutral>  (247) 
5.5205e-05

>  <r_epik_State_Penalty>  (247) 
-0

>  <r_epik_Charging_Adjusted_Penalty>  (247) 
0

>  <i_epik_Tot_Q>  (247) 
0

>  <i_epik_Tot_abs_Q>  (247) 
0

>  <s_epik_Chemistry_Notes>  (247) 
This compound has an ester and may undergo hydrolysis at high or low pH.

>  <s_lp_Force_Field>  (247) 
OPLS3e

>  <r_lp_Energy>  (247) 
12.7511

>  <b_lp_Chiralities_Consistent>  (247) 
1

>  <s_lp_Variant>  (247) 
76:0-2

>  <s_i_glide_gridfile>  (247) 
pfpi4k_grid

>  <i_i_glide_lignum>  (247) 
15

>  <i_i_glide_rotatable_bonds>  (247) 
6

>  <r_i_docking_score>  (247) 
-2.503

>  <r_i_glide_ligand_efficiency>  (247) 
-0.10012

>  <r_i_glide_ligand_efficiency_sa>  (247) 
-0.292753

>  <r_i_glide_ligand_efficiency_ln>  (247) 
-0.593286

>  <r_i_glide_gscore>  (247) 
-2.503

>  <r_i_glide_lipo>  (247) 
-0.0402313

>  <r_i_glide_hbond>  (247) 
0

>  <r_i_glide_metal>  (247) 
-0

>  <r_i_glide_rewards>  (247) 
-1.11655

>  <r_i_glide_evdw>  (247) 
-18.8013

>  <r_i_glide_ecoul>  (247) 
-5.65724

>  <r_i_glide_erotb>  (247) 
0.64027

>  <r_i_glide_esite>  (247) 
-0.197839

>  <r_i_glide_emodel>  (247) 
-25.2722

>  <r_i_glide_energy>  (247) 
-24.4586

>  <r_i_glide_einternal>  (247) 
1.98499

>  <r_i_glide_intrahb_reward>  (247) 
-0

>  <i_i_glide_confnum>  (247) 
2

>  <i_i_glide_posenum>  (247) 
30

>  <r_i_glide_eff_state_penalty>  (247) 
0

>  <ligand_id>  (247) 
76

>  <original_smiles>  (247) 
CCOC(=O)N1C2CCC1CC(n1cnnc1-c1cnn(CC)c1)C2

>  <smiles>  (247) 
[H]c1nn(C([H])([H])C([H])([H])[H])c([H])c1-c1nnc([H])n1C1([H])C([H])([H])C2([H])N(C(=O)OC([H])([H])C([H])([H])[H])C([H])(C([H])([H])C2([H])[H])C1([H])[H]

$$$$
77:0:0
     RDKit          3D

 51 54  0  0  1  0  0  0  0  0999 V2000
    4.1013   -5.0983    6.2770 C   0  0  0  0  0  0  0  0  0  0  0  0
    3.3140   -6.0127    5.3488 C   0  0  0  0  0  0  0  0  0  0  0  0
    2.3952   -6.8693    5.8792 C   0  0  0  0  0  0  0  0  0  0  0  0
    1.4384   -7.8971    5.2332 C   0  0  1  0  0  0  0  0  0  0  0  0
    0.4472   -8.4020    6.2819 C   0  0  0  0  0  0  0  0  0  0  0  0
    0.6774   -7.2510    4.0611 C   0  0  0  0  0  0  0  0  0  0  0  0
    0.2438   -6.1061    4.0750 O   0  0  0  0  0  0  0  0  0  0  0  0
    0.4163   -8.2276    2.9107 C   0  0  1  0  0  0  0  0  0  0  0  0
   -1.0509   -8.7202    3.0349 C   0  0  0  0  0  0  0  0  0  0  0  0
    0.3897   -7.6195    1.6267 O   0  0  0  0  0  0  0  0  0  0  0  0
    1.5545   -9.2971    3.1281 C   0  0  2  0  0  0  0  0  0  0  0  0
    0.9528  -10.7262    3.1061 C   0  0  0  0  0  0  0  0  0  0  0  0
    2.0705   -9.0877    4.5439 C   0  0  0  0  0  0  0  0  0  0  0  0
    3.2980   -9.6151    4.7516 C   0  0  0  0  0  0  0  0  0  0  0  0
    4.1176   -9.4139    5.7915 O   0  0  0  0  0  0  0  0  0  0  0  0
    3.7897   -9.9637    3.4206 C   0  0  0  0  0  0  0  0  0  0  0  0
    4.6839  -10.7476    3.1076 O   0  0  0  0  0  0  0  0  0  0  0  0
    2.9485   -9.2125    2.3859 C   0  0  1  0  0  0  0  0  0  0  0  0
    2.9295   -9.8561    1.1252 O   0  0  0  0  0  0  0  0  0  0  0  0
    3.4412   -7.7581    2.1761 C   0  0  1  0  0  0  0  0  0  0  0  0
    4.2638   -7.0384    3.2280 C   0  0  2  0  0  0  0  0  0  0  0  0
    3.6588   -5.8103    3.8730 C   0  0  0  0  0  0  0  0  0  0  0  0
    4.7934   -7.1684    1.8092 C   0  0  0  0  0  0  0  0  0  0  0  0
    5.9592   -8.0711    1.4773 C   0  0  0  0  0  0  0  0  0  0  0  0
    4.8505   -5.9366    0.9254 C   0  0  0  0  0  0  0  0  0  0  0  0
    3.9368   -4.0486    6.0269 H   0  0  0  0  0  0  0  0  0  0  0  0
    5.1698   -5.3060    6.1913 H   0  0  0  0  0  0  0  0  0  0  0  0
    3.8186   -5.2362    7.3211 H   0  0  0  0  0  0  0  0  0  0  0  0
    2.2582   -6.7843    6.9455 H   0  0  0  0  0  0  0  0  0  0  0  0
   -0.1963   -9.1796    5.8705 H   0  0  0  0  0  0  0  0  0  0  0  0
   -0.1681   -7.5769    6.6346 H   0  0  0  0  0  0  0  0  0  0  0  0
    0.9600   -8.8291    7.1431 H   0  0  0  0  0  0  0  0  0  0  0  0
   -1.2588   -9.2086    3.9811 H   0  0  0  0  0  0  0  0  0  0  0  0
   -1.3188   -9.4228    2.2463 H   0  0  0  0  0  0  0  0  0  0  0  0
   -1.7641   -7.9007    2.9710 H   0  0  0  0  0  0  0  0  0  0  0  0
    0.2401   -8.3197    0.9984 H   0  0  0  0  0  0  0  0  0  0  0  0
    0.4485  -10.9495    2.1686 H   0  0  0  0  0  0  0  0  0  0  0  0
    0.2425  -10.8642    3.9218 H   0  0  0  0  0  0  0  0  0  0  0  0
    1.6982  -11.5021    3.2665 H   0  0  0  0  0  0  0  0  0  0  0  0
    3.5847   -9.2524    6.5569 H   0  0  0  0  0  0  0  0  0  0  0  0
    3.3645  -10.7019    1.1670 H   0  0  0  0  0  0  0  0  0  0  0  0
    2.6859   -7.1656    1.6977 H   0  0  0  0  0  0  0  0  0  0  0  0
    4.9091   -7.5771    3.9069 H   0  0  0  0  0  0  0  0  0  0  0  0
    2.7815   -5.4832    3.3113 H   0  0  0  0  0  0  0  0  0  0  0  0
    4.3957   -5.0078    3.7857 H   0  0  0  0  0  0  0  0  0  0  0  0
    6.8983   -7.5134    1.4896 H   0  0  0  0  0  0  0  0  0  0  0  0
    5.7976   -8.5314    0.5017 H   0  0  0  0  0  0  0  0  0  0  0  0
    6.0450   -8.8712    2.2002 H   0  0  0  0  0  0  0  0  0  0  0  0
    5.7733   -5.3857    1.1057 H   0  0  0  0  0  0  0  0  0  0  0  0
    4.0151   -5.2804    1.1520 H   0  0  0  0  0  0  0  0  0  0  0  0
    4.7948   -6.2082   -0.1298 H   0  0  0  0  0  0  0  0  0  0  0  0
  1  2  1  0
  1 26  1  0
  1 27  1  0
  1 28  1  0
  2 22  1  0
  2  3  2  3
  3  4  1  0
  3 29  1  0
  4 13  1  0
  4  5  1  1
  4  6  1  0
  5 30  1  0
  5 31  1  0
  5 32  1  0
  6  7  2  0
  6  8  1  0
  8  9  1  0
  8 10  1  6
  8 11  1  0
  9 33  1  0
  9 34  1  0
  9 35  1  0
 10 36  1  0
 11 18  1  0
 11 12  1  1
 11 13  1  0
 12 37  1  0
 12 38  1  0
 12 39  1  0
 13 14  2  0
 14 15  1  0
 14 16  1  0
 15 40  1  0
 16 17  2  0
 16 18  1  0
 18 19  1  6
 18 20  1  0
 19 41  1  0
 20 23  1  0
 20 21  1  0
 20 42  1  6
 21 22  1  0
 21 23  1  0
 21 43  1  1
 22 44  1  0
 22 45  1  0
 23 24  1  0
 23 25  1  0
 24 46  1  0
 24 47  1  0
 24 48  1  0
 25 49  1  0
 25 50  1  0
 25 51  1  0
M  END
>  <i_m_ct_stereo_status>  (248) 
1

>  <s_m_source_file>  (248) 
/var/tmp/pbs.5076255.sched01/tmpt7uccrld/92zpefy4ut.sdf

>  <i_m_source_file_index>  (248) 
16

>  <i_lp_mmshare_version>  (248) 
48012

>  <i_f3d_flags>  (248) 
0

>  <s_epik_input>  (248) 
W0NIM10vQyg9W0NIXS8xKVtDSDJdW0NASF0oQzIoW0NIM10pW0NIM10pW0NAQEhdMltDQEBdKFtPSF0pKEMoPU8pQzNbT0hdKVtDQF0oW0NIM10pKFtDQF0oQzQ9TykoW0NIM10pW09IXSlDPTNbQ0BAXTE0W0NIM10=

>  <s_epik_cmdline>  (248) 
J2VwaWtfcHl0aG9uJywgJy1waHQnLCAnMi4wJywgJy1waCcsICc3LjAnLCAnLXRuJywgJzgnLCAnLW1hJywgJzIwMCcsICctaW1hZScsICc8aW5maWxlLm1hZT4nLCAnLW9tYWUnLCAnPG91dGZpbGUubWFlPic=

>  <r_epik_Ionization_Penalty>  (248) 
0.00310032

>  <r_epik_Ionization_Penalty_Charging>  (248) 
0

>  <r_epik_Ionization_Penalty_Neutral>  (248) 
0.00310032

>  <r_epik_State_Penalty>  (248) 
0.00214133

>  <r_epik_Charging_Adjusted_Penalty>  (248) 
0.00214133

>  <i_epik_Tot_Q>  (248) 
0

>  <i_epik_Tot_abs_Q>  (248) 
0

>  <s_lp_Force_Field>  (248) 
OPLS3e

>  <r_lp_Energy>  (248) 
54.7948

>  <b_lp_Chiralities_Consistent>  (248) 
1

>  <s_lp_Variant>  (248) 
77:0-1

>  <s_i_glide_gridfile>  (248) 
pfpi4k_grid

>  <i_i_glide_lignum>  (248) 
16

>  <i_i_glide_rotatable_bonds>  (248) 
3

>  <r_i_docking_score>  (248) 
-3.58919

>  <r_i_glide_ligand_efficiency>  (248) 
-0.143568

>  <r_i_glide_ligand_efficiency_sa>  (248) 
-0.419794

>  <r_i_glide_ligand_efficiency_ln>  (248) 
-0.850746

>  <r_i_glide_gscore>  (248) 
-3.58919

>  <r_i_glide_lipo>  (248) 
-0.395891

>  <r_i_glide_hbond>  (248) 
0

>  <r_i_glide_metal>  (248) 
-0

>  <r_i_glide_rewards>  (248) 
-1.04715

>  <r_i_glide_evdw>  (248) 
-22.4075

>  <r_i_glide_ecoul>  (248) 
-6.59778

>  <r_i_glide_erotb>  (248) 
0

>  <r_i_glide_esite>  (248) 
-0.0361026

>  <r_i_glide_emodel>  (248) 
-33.6312

>  <r_i_glide_energy>  (248) 
-29.0053

>  <r_i_glide_einternal>  (248) 
3.69824

>  <r_i_glide_intrahb_reward>  (248) 
-0

>  <i_i_glide_confnum>  (248) 
2

>  <i_i_glide_posenum>  (248) 
15

>  <r_i_glide_eff_state_penalty>  (248) 
0

>  <ligand_id>  (248) 
77

>  <original_smiles>  (248) 
CC1=CC2(C)C(=O)C(C)(O)C3(C)C2=C(O)C(=O)C3(O)C2C(C1)C2(C)C

>  <smiles>  (248) 
[H]OC1=C2C3(C([H])([H])[H])C(=O)C(O[H])(C([H])([H])[H])C2(C([H])([H])[H])C(O[H])(C1=O)C1([H])C([H])(C([H])([H])C(C([H])([H])[H])=C3[H])C1(C([H])([H])[H])C([H])([H])[H]

$$$$
77:0:1
     RDKit          3D

 51 54  0  0  1  0  0  0  0  0999 V2000
    2.7974   -3.4713    5.5527 C   0  0  0  0  0  0  0  0  0  0  0  0
    2.5340   -4.7298    4.7380 C   0  0  0  0  0  0  0  0  0  0  0  0
    2.0929   -5.8497    5.3639 C   0  0  0  0  0  0  0  0  0  0  0  0
    1.7198   -7.2576    4.8474 C   0  0  1  0  0  0  0  0  0  0  0  0
    1.0278   -8.0600    5.9595 C   0  0  0  0  0  0  0  0  0  0  0  0
    0.7810   -7.1458    3.6443 C   0  0  0  0  0  0  0  0  0  0  0  0
   -0.1110   -6.3029    3.5369 O   0  0  0  0  0  0  0  0  0  0  0  0
    1.0224   -8.2463    2.6125 C   0  0  1  0  0  0  0  0  0  0  0  0
   -0.0621   -9.3381    2.8111 C   0  0  0  0  0  0  0  0  0  0  0  0
    0.7671   -7.8099    1.2973 O   0  0  0  0  0  0  0  0  0  0  0  0
    2.5193   -8.6533    2.8791 C   0  0  2  0  0  0  0  0  0  0  0  0
    2.6396  -10.1931    2.9974 C   0  0  0  0  0  0  0  0  0  0  0  0
    2.8510   -8.0692    4.2450 C   0  0  0  0  0  0  0  0  0  0  0  0
    4.1787   -7.9639    4.4671 C   0  0  0  0  0  0  0  0  0  0  0  0
    4.7947   -7.3227    5.4647 O   0  0  0  0  0  0  0  0  0  0  0  0
    4.8132   -8.1995    3.1675 C   0  0  0  0  0  0  0  0  0  0  0  0
    5.9863   -8.5023    2.9311 O   0  0  0  0  0  0  0  0  0  0  0  0
    3.7342   -8.0203    2.0868 C   0  0  1  0  0  0  0  0  0  0  0  0
    4.0364   -8.7446    0.9063 O   0  0  0  0  0  0  0  0  0  0  0  0
    3.5140   -6.5176    1.7233 C   0  0  1  0  0  0  0  0  0  0  0  0
    3.9041   -5.4082    2.6981 C   0  0  2  0  0  0  0  0  0  0  0  0
    2.7860   -4.5339    3.2351 C   0  0  0  0  0  0  0  0  0  0  0  0
    4.4602   -5.4107    1.2829 C   0  0  0  0  0  0  0  0  0  0  0  0
    5.9236   -5.6967    1.0175 C   0  0  0  0  0  0  0  0  0  0  0  0
    3.9687   -4.3712    0.2949 C   0  0  0  0  0  0  0  0  0  0  0  0
    2.1798   -2.6393    5.2090 H   0  0  0  0  0  0  0  0  0  0  0  0
    3.8443   -3.1752    5.4644 H   0  0  0  0  0  0  0  0  0  0  0  0
    2.5863   -3.6213    6.6135 H   0  0  0  0  0  0  0  0  0  0  0  0
    1.9152   -5.7396    6.4236 H   0  0  0  0  0  0  0  0  0  0  0  0
    0.8456   -9.0843    5.6394 H   0  0  0  0  0  0  0  0  0  0  0  0
    0.0657   -7.6256    6.2399 H   0  0  0  0  0  0  0  0  0  0  0  0
    1.6577   -8.1149    6.8475 H   0  0  0  0  0  0  0  0  0  0  0  0
   -0.0546   -9.7872    3.7985 H   0  0  0  0  0  0  0  0  0  0  0  0
    0.0336  -10.1481    2.0885 H   0  0  0  0  0  0  0  0  0  0  0  0
   -1.0644   -8.9349    2.6742 H   0  0  0  0  0  0  0  0  0  0  0  0
    0.6006   -8.5781    0.7433 H   0  0  0  0  0  0  0  0  0  0  0  0
    2.3244  -10.6902    2.0790 H   0  0  0  0  0  0  0  0  0  0  0  0
    2.0430  -10.5583    3.8344 H   0  0  0  0  0  0  0  0  0  0  0  0
    3.6567  -10.5196    3.2103 H   0  0  0  0  0  0  0  0  0  0  0  0
    4.2068   -7.3035    6.2112 H   0  0  0  0  0  0  0  0  0  0  0  0
    3.2665   -8.7649    0.3519 H   0  0  0  0  0  0  0  0  0  0  0  0
    2.5776   -6.3703    1.2120 H   0  0  0  0  0  0  0  0  0  0  0  0
    4.7050   -5.5232    3.4185 H   0  0  0  0  0  0  0  0  0  0  0  0
    1.8662   -4.6880    2.6713 H   0  0  0  0  0  0  0  0  0  0  0  0
    3.0757   -3.4955    3.0595 H   0  0  0  0  0  0  0  0  0  0  0  0
    6.4978   -4.7692    0.9640 H   0  0  0  0  0  0  0  0  0  0  0  0
    6.0192   -6.2423    0.0799 H   0  0  0  0  0  0  0  0  0  0  0  0
    6.3455   -6.3064    1.8073 H   0  0  0  0  0  0  0  0  0  0  0  0
    4.5377   -3.4463    0.4000 H   0  0  0  0  0  0  0  0  0  0  0  0
    2.9175   -4.1489    0.4734 H   0  0  0  0  0  0  0  0  0  0  0  0
    4.0719   -4.7403   -0.7263 H   0  0  0  0  0  0  0  0  0  0  0  0
  1  2  1  0
  1 26  1  0
  1 27  1  0
  1 28  1  0
  2 22  1  0
  2  3  2  3
  3  4  1  0
  3 29  1  0
  4 13  1  0
  4  5  1  1
  4  6  1  0
  5 30  1  0
  5 31  1  0
  5 32  1  0
  6  7  2  0
  6  8  1  0
  8  9  1  0
  8 10  1  6
  8 11  1  0
  9 33  1  0
  9 34  1  0
  9 35  1  0
 10 36  1  0
 11 18  1  0
 11 12  1  1
 11 13  1  0
 12 37  1  0
 12 38  1  0
 12 39  1  0
 13 14  2  0
 14 15  1  0
 14 16  1  0
 15 40  1  0
 16 17  2  0
 16 18  1  0
 18 19  1  6
 18 20  1  0
 19 41  1  0
 20 23  1  0
 20 21  1  0
 20 42  1  6
 21 22  1  0
 21 23  1  0
 21 43  1  1
 22 44  1  0
 22 45  1  0
 23 24  1  0
 23 25  1  0
 24 46  1  0
 24 47  1  0
 24 48  1  0
 25 49  1  0
 25 50  1  0
 25 51  1  0
M  END
>  <i_m_ct_stereo_status>  (249) 
1

>  <s_m_source_file>  (249) 
/var/tmp/pbs.5076255.sched01/tmpt7uccrld/92zpefy4ut.sdf

>  <i_m_source_file_index>  (249) 
16

>  <i_lp_mmshare_version>  (249) 
48012

>  <i_f3d_flags>  (249) 
0

>  <s_epik_input>  (249) 
W0NIM10vQyg9W0NIXS8xKVtDSDJdW0NASF0oQzIoW0NIM10pW0NIM10pW0NAQEhdMltDQEBdKFtPSF0pKEMoPU8pQzNbT0hdKVtDQF0oW0NIM10pKFtDQF0oQzQ9TykoW0NIM10pW09IXSlDPTNbQ0BAXTE0W0NIM10=

>  <s_epik_cmdline>  (249) 
J2VwaWtfcHl0aG9uJywgJy1waHQnLCAnMi4wJywgJy1waCcsICc3LjAnLCAnLXRuJywgJzgnLCAnLW1hJywgJzIwMCcsICctaW1hZScsICc8aW5maWxlLm1hZT4nLCAnLW9tYWUnLCAnPG91dGZpbGUubWFlPic=

>  <r_epik_Ionization_Penalty>  (249) 
0.00310032

>  <r_epik_Ionization_Penalty_Charging>  (249) 
0

>  <r_epik_Ionization_Penalty_Neutral>  (249) 
0.00310032

>  <r_epik_State_Penalty>  (249) 
0.00214133

>  <r_epik_Charging_Adjusted_Penalty>  (249) 
0.00214133

>  <i_epik_Tot_Q>  (249) 
0

>  <i_epik_Tot_abs_Q>  (249) 
0

>  <s_lp_Force_Field>  (249) 
OPLS3e

>  <r_lp_Energy>  (249) 
54.7948

>  <b_lp_Chiralities_Consistent>  (249) 
1

>  <s_lp_Variant>  (249) 
77:0-1

>  <s_i_glide_gridfile>  (249) 
pfpi4k_grid

>  <i_i_glide_lignum>  (249) 
16

>  <i_i_glide_rotatable_bonds>  (249) 
3

>  <r_i_docking_score>  (249) 
-3.29271

>  <r_i_glide_ligand_efficiency>  (249) 
-0.131708

>  <r_i_glide_ligand_efficiency_sa>  (249) 
-0.385117

>  <r_i_glide_ligand_efficiency_ln>  (249) 
-0.78047

>  <r_i_glide_gscore>  (249) 
-3.29271

>  <r_i_glide_lipo>  (249) 
-0.173779

>  <r_i_glide_hbond>  (249) 
-0.0962706

>  <r_i_glide_metal>  (249) 
-0

>  <r_i_glide_rewards>  (249) 
-1.04715

>  <r_i_glide_evdw>  (249) 
-20.9499

>  <r_i_glide_ecoul>  (249) 
-6.0223

>  <r_i_glide_erotb>  (249) 
0

>  <r_i_glide_esite>  (249) 
-0.0246647

>  <r_i_glide_emodel>  (249) 
-33.0455

>  <r_i_glide_energy>  (249) 
-26.9722

>  <r_i_glide_einternal>  (249) 
0.816861

>  <r_i_glide_intrahb_reward>  (249) 
-0

>  <i_i_glide_confnum>  (249) 
2

>  <i_i_glide_posenum>  (249) 
1

>  <r_i_glide_eff_state_penalty>  (249) 
0

>  <ligand_id>  (249) 
77

>  <original_smiles>  (249) 
CC1=CC2(C)C(=O)C(C)(O)C3(C)C2=C(O)C(=O)C3(O)C2C(C1)C2(C)C

>  <smiles>  (249) 
[H]OC1=C2C3(C([H])([H])[H])C(=O)C(O[H])(C([H])([H])[H])C2(C([H])([H])[H])C(O[H])(C1=O)C1([H])C([H])(C([H])([H])C(C([H])([H])[H])=C3[H])C1(C([H])([H])[H])C([H])([H])[H]

$$$$
77:0:2
     RDKit          3D

 51 54  0  0  1  0  0  0  0  0999 V2000
    1.0092   -3.9614    5.2368 C   0  0  0  0  0  0  0  0  0  0  0  0
    1.8766   -3.5907    4.0478 C   0  0  0  0  0  0  0  0  0  0  0  0
    2.9576   -4.3585    3.7489 C   0  0  0  0  0  0  0  0  0  0  0  0
    4.0171   -4.2715    2.6249 C   0  0  1  0  0  0  0  0  0  0  0  0
    4.8899   -5.5388    2.6295 C   0  0  0  0  0  0  0  0  0  0  0  0
    3.3327   -4.1224    1.2595 C   0  0  0  0  0  0  0  0  0  0  0  0
    2.2915   -4.7059    0.9466 O   0  0  0  0  0  0  0  0  0  0  0  0
    4.1246   -3.2305    0.3032 C   0  0  1  0  0  0  0  0  0  0  0  0
    4.9194   -4.1531   -0.6634 C   0  0  0  0  0  0  0  0  0  0  0  0
    3.3532   -2.4860   -0.6308 O   0  0  0  0  0  0  0  0  0  0  0  0
    4.9673   -2.3345    1.2738 C   0  0  2  0  0  0  0  0  0  0  0  0
    6.4611   -2.3381    0.8428 C   0  0  0  0  0  0  0  0  0  0  0  0
    4.8943   -3.0413    2.6324 C   0  0  0  0  0  0  0  0  0  0  0  0
    5.1850   -2.2262    3.6612 C   0  0  0  0  0  0  0  0  0  0  0  0
    5.0624   -2.4500    4.9779 O   0  0  0  0  0  0  0  0  0  0  0  0
    5.2400   -0.8758    3.1078 C   0  0  0  0  0  0  0  0  0  0  0  0
    5.7874    0.1268    3.5740 O   0  0  0  0  0  0  0  0  0  0  0  0
    4.4926   -0.9150    1.7701 C   0  0  1  0  0  0  0  0  0  0  0  0
    4.9168    0.1011    0.8768 O   0  0  0  0  0  0  0  0  0  0  0  0
    2.9461   -0.8200    1.9575 C   0  0  1  0  0  0  0  0  0  0  0  0
    2.3056   -1.1909    3.2890 C   0  0  2  0  0  0  0  0  0  0  0  0
    1.3524   -2.3722    3.2781 C   0  0  0  0  0  0  0  0  0  0  0  0
    2.0642    0.1818    2.6758 C   0  0  0  0  0  0  0  0  0  0  0  0
    2.6430    1.4304    3.3093 C   0  0  0  0  0  0  0  0  0  0  0  0
    0.6991    0.5105    2.0984 C   0  0  0  0  0  0  0  0  0  0  0  0
   -0.0177   -4.1690    4.9294 H   0  0  0  0  0  0  0  0  0  0  0  0
    0.9895   -3.1389    5.9527 H   0  0  0  0  0  0  0  0  0  0  0  0
    1.3841   -4.8454    5.7575 H   0  0  0  0  0  0  0  0  0  0  0  0
    3.1092   -5.2131    4.3890 H   0  0  0  0  0  0  0  0  0  0  0  0
    5.7009   -5.4565    1.9068 H   0  0  0  0  0  0  0  0  0  0  0  0
    4.3160   -6.4313    2.3771 H   0  0  0  0  0  0  0  0  0  0  0  0
    5.3541   -5.6887    3.6042 H   0  0  0  0  0  0  0  0  0  0  0  0
    5.6057   -4.8328   -0.1657 H   0  0  0  0  0  0  0  0  0  0  0  0
    5.4862   -3.5897   -1.4028 H   0  0  0  0  0  0  0  0  0  0  0  0
    4.2366   -4.7825   -1.2224 H   0  0  0  0  0  0  0  0  0  0  0  0
    2.6588   -1.9898   -0.1991 H   0  0  0  0  0  0  0  0  0  0  0  0
    6.5986   -1.9550   -0.1701 H   0  0  0  0  0  0  0  0  0  0  0  0
    6.8866   -3.3431    0.9012 H   0  0  0  0  0  0  0  0  0  0  0  0
    7.0777   -1.7217    1.4952 H   0  0  0  0  0  0  0  0  0  0  0  0
    5.0795   -3.3953    5.1129 H   0  0  0  0  0  0  0  0  0  0  0  0
    4.3913    0.0652    0.0842 H   0  0  0  0  0  0  0  0  0  0  0  0
    2.4235   -1.1393    1.0768 H   0  0  0  0  0  0  0  0  0  0  0  0
    2.8231   -1.1048    4.2320 H   0  0  0  0  0  0  0  0  0  0  0  0
    1.1127   -2.6467    2.2593 H   0  0  0  0  0  0  0  0  0  0  0  0
    0.4147   -2.0436    3.7294 H   0  0  0  0  0  0  0  0  0  0  0  0
    1.9269    1.8851    3.9952 H   0  0  0  0  0  0  0  0  0  0  0  0
    2.9049    2.1496    2.5316 H   0  0  0  0  0  0  0  0  0  0  0  0
    3.5387    1.1930    3.8721 H   0  0  0  0  0  0  0  0  0  0  0  0
    0.0206    0.8519    2.8825 H   0  0  0  0  0  0  0  0  0  0  0  0
    0.2672   -0.3769    1.6440 H   0  0  0  0  0  0  0  0  0  0  0  0
    0.7785    1.2776    1.3284 H   0  0  0  0  0  0  0  0  0  0  0  0
  1  2  1  0
  1 26  1  0
  1 27  1  0
  1 28  1  0
  2 22  1  0
  2  3  2  3
  3  4  1  0
  3 29  1  0
  4 13  1  0
  4  5  1  6
  4  6  1  0
  5 30  1  0
  5 31  1  0
  5 32  1  0
  6  7  2  0
  6  8  1  0
  8  9  1  0
  8 10  1  6
  8 11  1  0
  9 33  1  0
  9 34  1  0
  9 35  1  0
 10 36  1  0
 11 18  1  0
 11 12  1  6
 11 13  1  0
 12 37  1  0
 12 38  1  0
 12 39  1  0
 13 14  2  0
 14 15  1  0
 14 16  1  0
 15 40  1  0
 16 17  2  0
 16 18  1  0
 18 19  1  6
 18 20  1  0
 19 41  1  0
 20 23  1  0
 20 21  1  0
 20 42  1  6
 21 22  1  0
 21 23  1  0
 21 43  1  1
 22 44  1  0
 22 45  1  0
 23 24  1  0
 23 25  1  0
 24 46  1  0
 24 47  1  0
 24 48  1  0
 25 49  1  0
 25 50  1  0
 25 51  1  0
M  END
>  <i_m_ct_stereo_status>  (250) 
1

>  <s_m_source_file>  (250) 
/var/tmp/pbs.5076255.sched01/tmpt7uccrld/92zpefy4ut.sdf

>  <i_m_source_file_index>  (250) 
16

>  <i_lp_mmshare_version>  (250) 
48012

>  <i_f3d_flags>  (250) 
0

>  <s_epik_input>  (250) 
W0NIM10vQyg9W0NIXS8xKVtDSDJdW0NASF0oQzIoW0NIM10pW0NIM10pW0NAQEhdMltDQEBdKFtPSF0pKEMoPU8pQzNbT0hdKVtDQF0oW0NIM10pKFtDQF0oQzQ9TykoW0NIM10pW09IXSlDPTNbQ0BAXTE0W0NIM10=

>  <s_epik_cmdline>  (250) 
J2VwaWtfcHl0aG9uJywgJy1waHQnLCAnMi4wJywgJy1waCcsICc3LjAnLCAnLXRuJywgJzgnLCAnLW1hJywgJzIwMCcsICctaW1hZScsICc8aW5maWxlLm1hZT4nLCAnLW9tYWUnLCAnPG91dGZpbGUubWFlPic=

>  <r_epik_Ionization_Penalty>  (250) 
0.00310032

>  <r_epik_Ionization_Penalty_Charging>  (250) 
0

>  <r_epik_Ionization_Penalty_Neutral>  (250) 
0.00310032

>  <r_epik_State_Penalty>  (250) 
0.00214133

>  <r_epik_Charging_Adjusted_Penalty>  (250) 
0.00214133

>  <i_epik_Tot_Q>  (250) 
0

>  <i_epik_Tot_abs_Q>  (250) 
0

>  <s_lp_Force_Field>  (250) 
OPLS3e

>  <r_lp_Energy>  (250) 
54.7948

>  <b_lp_Chiralities_Consistent>  (250) 
1

>  <s_lp_Variant>  (250) 
77:0-1

>  <s_i_glide_gridfile>  (250) 
pfpi4k_grid

>  <i_i_glide_lignum>  (250) 
16

>  <i_i_glide_rotatable_bonds>  (250) 
3

>  <r_i_docking_score>  (250) 
-3.21479

>  <r_i_glide_ligand_efficiency>  (250) 
-0.128592

>  <r_i_glide_ligand_efficiency_sa>  (250) 
-0.376004

>  <r_i_glide_ligand_efficiency_ln>  (250) 
-0.762001

>  <r_i_glide_gscore>  (250) 
-3.21479

>  <r_i_glide_lipo>  (250) 
-0.390285

>  <r_i_glide_hbond>  (250) 
-0.0407637

>  <r_i_glide_metal>  (250) 
-0

>  <r_i_glide_rewards>  (250) 
-1.20544

>  <r_i_glide_evdw>  (250) 
-22.2101

>  <r_i_glide_ecoul>  (250) 
-3.11865

>  <r_i_glide_erotb>  (250) 
0

>  <r_i_glide_esite>  (250) 
0

>  <r_i_glide_emodel>  (250) 
-30.9106

>  <r_i_glide_energy>  (250) 
-25.3287

>  <r_i_glide_einternal>  (250) 
1.65499

>  <r_i_glide_intrahb_reward>  (250) 
-0

>  <i_i_glide_confnum>  (250) 
1

>  <i_i_glide_posenum>  (250) 
26

>  <r_i_glide_eff_state_penalty>  (250) 
0

>  <ligand_id>  (250) 
77

>  <original_smiles>  (250) 
CC1=CC2(C)C(=O)C(C)(O)C3(C)C2=C(O)C(=O)C3(O)C2C(C1)C2(C)C

>  <smiles>  (250) 
[H]OC1=C2C3(C([H])([H])[H])C(=O)C(O[H])(C([H])([H])[H])C2(C([H])([H])[H])C(O[H])(C1=O)C1([H])C([H])(C([H])([H])C(C([H])([H])[H])=C3[H])C1(C([H])([H])[H])C([H])([H])[H]

$$$$
77:1:0
     RDKit          3D

 51 54  0  0  1  0  0  0  0  0999 V2000
    2.2092   -5.5189    1.3008 C   0  0  0  0  0  0  0  0  0  0  0  0
    2.6674   -4.0829    1.5449 C   0  0  0  0  0  0  0  0  0  0  0  0
    3.5530   -3.6078    2.4566 C   0  0  0  0  0  0  0  0  0  0  0  0
    4.8541   -4.2084    2.9792 C   0  0  1  0  0  0  0  0  0  0  0  0
    5.0221   -4.0450    4.5017 C   0  0  0  0  0  0  0  0  0  0  0  0
    5.0935   -5.6441    2.5147 C   0  0  0  0  0  0  0  0  0  0  0  0
    4.7563   -6.6145    3.1703 O   0  0  0  0  0  0  0  0  0  0  0  0
    5.8681   -5.7662    1.1877 C   0  0  1  0  0  0  0  0  0  0  0  0
    6.8836   -6.9412    1.3152 C   0  0  0  0  0  0  0  0  0  0  0  0
    5.0006   -6.1850    0.1620 O   0  0  0  0  0  0  0  0  0  0  0  0
    6.4733   -4.3292    0.9888 C   0  0  2  0  0  0  0  0  0  0  0  0
    8.0227   -4.3969    1.2311 C   0  0  0  0  0  0  0  0  0  0  0  0
    5.8860   -3.5172    2.1373 C   0  0  0  0  0  0  0  0  0  0  0  0
    6.0388   -2.1930    1.9522 C   0  0  0  0  0  0  0  0  0  0  0  0
    5.5886   -1.1677    2.6715 O   0  0  0  0  0  0  0  0  0  0  0  0
    6.4443   -2.0245    0.5810 C   0  0  0  0  0  0  0  0  0  0  0  0
    7.0137   -1.0485    0.0933 O   0  0  0  0  0  0  0  0  0  0  0  0
    6.1218   -3.3049   -0.1805 C   0  0  1  0  0  0  0  0  0  0  0  0
    6.9738   -3.4439   -1.3042 O   0  0  0  0  0  0  0  0  0  0  0  0
    4.6457   -3.3146   -0.6977 C   0  0  1  0  0  0  0  0  0  0  0  0
    3.5397   -2.4409   -0.1250 C   0  0  2  0  0  0  0  0  0  0  0  0
    2.3014   -3.1171    0.4426 C   0  0  0  0  0  0  0  0  0  0  0  0
    3.9202   -2.3233   -1.5908 C   0  0  0  0  0  0  0  0  0  0  0  0
    4.5752   -1.0559   -2.0913 C   0  0  0  0  0  0  0  0  0  0  0  0
    3.0280   -2.8712   -2.6880 C   0  0  0  0  0  0  0  0  0  0  0  0
    1.1213   -5.5585    1.3161 H   0  0  0  0  0  0  0  0  0  0  0  0
    2.5202   -6.2216    2.0687 H   0  0  0  0  0  0  0  0  0  0  0  0
    2.5094   -5.8806    0.3165 H   0  0  0  0  0  0  0  0  0  0  0  0
    3.5954   -2.5325    2.4961 H   0  0  0  0  0  0  0  0  0  0  0  0
    5.9822   -4.4462    4.8210 H   0  0  0  0  0  0  0  0  0  0  0  0
    4.2425   -4.5888    5.0378 H   0  0  0  0  0  0  0  0  0  0  0  0
    4.9702   -2.9954    4.7841 H   0  0  0  0  0  0  0  0  0  0  0  0
    7.5399   -6.8784    2.1806 H   0  0  0  0  0  0  0  0  0  0  0  0
    7.5416   -6.9911    0.4585 H   0  0  0  0  0  0  0  0  0  0  0  0
    6.3670   -7.8964    1.3819 H   0  0  0  0  0  0  0  0  0  0  0  0
    5.4874   -6.2711   -0.6560 H   0  0  0  0  0  0  0  0  0  0  0  0
    8.5400   -4.9823    0.4733 H   0  0  0  0  0  0  0  0  0  0  0  0
    8.2621   -4.8259    2.2064 H   0  0  0  0  0  0  0  0  0  0  0  0
    8.5222   -3.4308    1.2382 H   0  0  0  0  0  0  0  0  0  0  0  0
    5.9613   -0.4147    2.2350 H   0  0  0  0  0  0  0  0  0  0  0  0
    6.6691   -4.1823   -1.7991 H   0  0  0  0  0  0  0  0  0  0  0  0
    4.3425   -4.2947   -0.9862 H   0  0  0  0  0  0  0  0  0  0  0  0
    3.7890   -1.5603    0.4416 H   0  0  0  0  0  0  0  0  0  0  0  0
    1.7960   -3.6380   -0.3619 H   0  0  0  0  0  0  0  0  0  0  0  0
    1.6581   -2.3358    0.8500 H   0  0  0  0  0  0  0  0  0  0  0  0
    3.8527   -0.4199   -2.6094 H   0  0  0  0  0  0  0  0  0  0  0  0
    5.3911   -1.3159   -2.7626 H   0  0  0  0  0  0  0  0  0  0  0  0
    4.9696   -0.4794   -1.2637 H   0  0  0  0  0  0  0  0  0  0  0  0
    2.2162   -2.1724   -2.9002 H   0  0  0  0  0  0  0  0  0  0  0  0
    2.5881   -3.8187   -2.3848 H   0  0  0  0  0  0  0  0  0  0  0  0
    3.6024   -3.0526   -3.5990 H   0  0  0  0  0  0  0  0  0  0  0  0
  1  2  1  0
  1 26  1  0
  1 27  1  0
  1 28  1  0
  2 22  1  0
  2  3  2  3
  3  4  1  0
  3 29  1  0
  4 13  1  0
  4  5  1  1
  4  6  1  0
  5 30  1  0
  5 31  1  0
  5 32  1  0
  6  7  2  0
  6  8  1  0
  8  9  1  0
  8 10  1  6
  8 11  1  0
  9 33  1  0
  9 34  1  0
  9 35  1  0
 10 36  1  0
 11 18  1  0
 11 12  1  1
 11 13  1  0
 12 37  1  0
 12 38  1  0
 12 39  1  0
 13 14  2  0
 14 15  1  0
 14 16  1  0
 15 40  1  0
 16 17  2  0
 16 18  1  0
 18 19  1  6
 18 20  1  0
 19 41  1  0
 20 23  1  0
 20 21  1  0
 20 42  1  6
 21 22  1  0
 21 23  1  0
 21 43  1  1
 22 44  1  0
 22 45  1  0
 23 24  1  0
 23 25  1  0
 24 46  1  0
 24 47  1  0
 24 48  1  0
 25 49  1  0
 25 50  1  0
 25 51  1  0
M  END
>  <i_m_ct_stereo_status>  (251) 
1

>  <s_m_source_file>  (251) 
/var/tmp/pbs.5076255.sched01/tmpt7uccrld/92zpefy4ut.sdf

>  <i_m_source_file_index>  (251) 
17

>  <i_lp_mmshare_version>  (251) 
48012

>  <i_f3d_flags>  (251) 
0

>  <s_epik_input>  (251) 
W0NIM10vQyg9W0NIXS8xKVtDSDJdW0NASF0oQzIoW0NIM10pW0NIM10pW0NAQEhdMltDQEBdKFtPSF0pKEMoPU8pQzNbT0hdKVtDQF0oW0NIM10pKFtDQF0oQzQ9TykoW0NIM10pW09IXSlDPTNbQ0BAXTE0W0NIM10=

>  <s_epik_cmdline>  (251) 
J2VwaWtfcHl0aG9uJywgJy1waHQnLCAnMi4wJywgJy1waCcsICc3LjAnLCAnLXRuJywgJzgnLCAnLW1hJywgJzIwMCcsICctaW1hZScsICc8aW5maWxlLm1hZT4nLCAnLW9tYWUnLCAnPG91dGZpbGUubWFlPic=

>  <r_epik_Ionization_Penalty>  (251) 
0.00310032

>  <r_epik_Ionization_Penalty_Charging>  (251) 
0

>  <r_epik_Ionization_Penalty_Neutral>  (251) 
0.00310032

>  <r_epik_State_Penalty>  (251) 
0.00214133

>  <r_epik_Charging_Adjusted_Penalty>  (251) 
0.00214133

>  <i_epik_Tot_Q>  (251) 
0

>  <i_epik_Tot_abs_Q>  (251) 
0

>  <s_lp_Force_Field>  (251) 
OPLS3e

>  <r_lp_Energy>  (251) 
84.2155

>  <b_lp_Chiralities_Consistent>  (251) 
1

>  <s_lp_Variant>  (251) 
77:0-2

>  <s_i_glide_gridfile>  (251) 
pfpi4k_grid

>  <i_i_glide_lignum>  (251) 
17

>  <i_i_glide_rotatable_bonds>  (251) 
3

>  <r_i_docking_score>  (251) 
-3.01697

>  <r_i_glide_ligand_efficiency>  (251) 
-0.120679

>  <r_i_glide_ligand_efficiency_sa>  (251) 
-0.352868

>  <r_i_glide_ligand_efficiency_ln>  (251) 
-0.715113

>  <r_i_glide_gscore>  (251) 
-3.01697

>  <r_i_glide_lipo>  (251) 
-0.662575

>  <r_i_glide_hbond>  (251) 
-0.0684361

>  <r_i_glide_metal>  (251) 
-0

>  <r_i_glide_rewards>  (251) 
-1.14114

>  <r_i_glide_evdw>  (251) 
-20.1462

>  <r_i_glide_ecoul>  (251) 
-0.916772

>  <r_i_glide_erotb>  (251) 
0

>  <r_i_glide_esite>  (251) 
0

>  <r_i_glide_emodel>  (251) 
-22.7342

>  <r_i_glide_energy>  (251) 
-21.063

>  <r_i_glide_einternal>  (251) 
2.03774

>  <r_i_glide_intrahb_reward>  (251) 
-0

>  <i_i_glide_confnum>  (251) 
2

>  <i_i_glide_posenum>  (251) 
33

>  <r_i_glide_eff_state_penalty>  (251) 
0

>  <ligand_id>  (251) 
77

>  <original_smiles>  (251) 
CC1=CC2(C)C(=O)C(C)(O)C3(C)C2=C(O)C(=O)C3(O)C2C(C1)C2(C)C

>  <smiles>  (251) 
[H]OC1=C2C3(C([H])([H])[H])C(=O)C(O[H])(C([H])([H])[H])C2(C([H])([H])[H])C(O[H])(C1=O)C1([H])C([H])(C([H])([H])C(C([H])([H])[H])=C3[H])C1(C([H])([H])[H])C([H])([H])[H]

$$$$
77:1:1
     RDKit          3D

 51 54  0  0  1  0  0  0  0  0999 V2000
    2.0406   -5.9321    0.3370 C   0  0  0  0  0  0  0  0  0  0  0  0
    2.3238   -4.4589    0.5235 C   0  0  0  0  0  0  0  0  0  0  0  0
    2.9236   -3.8207    1.5436 C   0  0  0  0  0  0  0  0  0  0  0  0
    4.1987   -4.2069    2.3219 C   0  0  1  0  0  0  0  0  0  0  0  0
    4.0533   -4.0081    3.8329 C   0  0  0  0  0  0  0  0  0  0  0  0
    4.7205   -5.5894    1.9697 C   0  0  0  0  0  0  0  0  0  0  0  0
    4.3994   -6.6003    2.5993 O   0  0  0  0  0  0  0  0  0  0  0  0
    5.6767   -5.5862    0.7675 C   0  0  1  0  0  0  0  0  0  0  0  0
    6.8379   -6.5863    1.0499 C   0  0  0  0  0  0  0  0  0  0  0  0
    4.9928   -6.1559   -0.3219 O   0  0  0  0  0  0  0  0  0  0  0  0
    6.1082   -4.0735    0.6286 C   0  0  2  0  0  0  0  0  0  0  0  0
    7.6006   -3.9135    1.0708 C   0  0  0  0  0  0  0  0  0  0  0  0
    5.2675   -3.3420    1.6588 C   0  0  0  0  0  0  0  0  0  0  0  0
    5.2356   -2.0364    1.4558 C   0  0  0  0  0  0  0  0  0  0  0  0
    4.4649   -1.0940    2.0336 O   0  0  0  0  0  0  0  0  0  0  0  0
    5.7946   -1.7799    0.1450 C   0  0  0  0  0  0  0  0  0  0  0  0
    6.1918   -0.6920   -0.3000 O   0  0  0  0  0  0  0  0  0  0  0  0
    5.8020   -3.1196   -0.6190 C   0  0  1  0  0  0  0  0  0  0  0  0
    6.8337   -3.1415   -1.5781 O   0  0  0  0  0  0  0  0  0  0  0  0
    4.4874   -3.3846   -1.4238 C   0  0  1  0  0  0  0  0  0  0  0  0
    3.1557   -2.7261   -1.0844 C   0  0  2  0  0  0  0  0  0  0  0  0
    2.0150   -3.6697   -0.7536 C   0  0  0  0  0  0  0  0  0  0  0  0
    3.7575   -2.5151   -2.4474 C   0  0  0  0  0  0  0  0  0  0  0  0
    4.2368   -1.1431   -2.8374 C   0  0  0  0  0  0  0  0  0  0  0  0
    3.1477   -3.1827   -3.6566 C   0  0  0  0  0  0  0  0  0  0  0  0
    0.9819   -6.0886    0.1182 H   0  0  0  0  0  0  0  0  0  0  0  0
    2.3404   -6.5713    1.1632 H   0  0  0  0  0  0  0  0  0  0  0  0
    2.5528   -6.2371   -0.5625 H   0  0  0  0  0  0  0  0  0  0  0  0
    2.8060   -2.7420    1.5261 H   0  0  0  0  0  0  0  0  0  0  0  0
    4.9894   -4.2501    4.3345 H   0  0  0  0  0  0  0  0  0  0  0  0
    3.2828   -4.6701    4.2387 H   0  0  0  0  0  0  0  0  0  0  0  0
    3.7817   -2.9820    4.0821 H   0  0  0  0  0  0  0  0  0  0  0  0
    7.3554   -6.4321    1.9945 H   0  0  0  0  0  0  0  0  0  0  0  0
    7.5920   -6.5619    0.2676 H   0  0  0  0  0  0  0  0  0  0  0  0
    6.4791   -7.6122    1.0930 H   0  0  0  0  0  0  0  0  0  0  0  0
    4.3058   -5.5565   -0.6128 H   0  0  0  0  0  0  0  0  0  0  0  0
    8.3045   -4.4026    0.3706 H   0  0  0  0  0  0  0  0  0  0  0  0
    7.7134   -4.3283    2.0783 H   0  0  0  0  0  0  0  0  0  0  0  0
    7.9011   -2.8630    1.1453 H   0  0  0  0  0  0  0  0  0  0  0  0
    4.6152   -0.2968    1.5568 H   0  0  0  0  0  0  0  0  0  0  0  0
    6.7628   -3.9306   -2.0924 H   0  0  0  0  0  0  0  0  0  0  0  0
    4.4172   -4.4191   -1.7130 H   0  0  0  0  0  0  0  0  0  0  0  0
    3.1286   -1.8220   -0.4670 H   0  0  0  0  0  0  0  0  0  0  0  0
    1.7535   -4.2975   -1.6071 H   0  0  0  0  0  0  0  0  0  0  0  0
    1.1348   -3.0504   -0.6337 H   0  0  0  0  0  0  0  0  0  0  0  0
    3.5214   -0.6357   -3.4909 H   0  0  0  0  0  0  0  0  0  0  0  0
    5.1670   -1.2941   -3.3695 H   0  0  0  0  0  0  0  0  0  0  0  0
    4.4063   -0.5041   -1.9732 H   0  0  0  0  0  0  0  0  0  0  0  0
    2.2948   -2.6166   -4.0197 H   0  0  0  0  0  0  0  0  0  0  0  0
    2.8025   -4.1878   -3.4441 H   0  0  0  0  0  0  0  0  0  0  0  0
    3.8911   -3.2764   -4.4378 H   0  0  0  0  0  0  0  0  0  0  0  0
  1  2  1  0
  1 26  1  0
  1 27  1  0
  1 28  1  0
  2 22  1  0
  2  3  2  3
  3  4  1  0
  3 29  1  0
  4 13  1  0
  4  5  1  1
  4  6  1  0
  5 30  1  0
  5 31  1  0
  5 32  1  0
  6  7  2  0
  6  8  1  0
  8  9  1  0
  8 10  1  6
  8 11  1  0
  9 33  1  0
  9 34  1  0
  9 35  1  0
 10 36  1  0
 11 18  1  0
 11 12  1  1
 11 13  1  0
 12 37  1  0
 12 38  1  0
 12 39  1  0
 13 14  2  0
 14 15  1  0
 14 16  1  0
 15 40  1  0
 16 17  2  0
 16 18  1  0
 18 19  1  6
 18 20  1  0
 19 41  1  0
 20 23  1  0
 20 21  1  0
 20 42  1  6
 21 22  1  0
 21 23  1  0
 21 43  1  1
 22 44  1  0
 22 45  1  0
 23 24  1  0
 23 25  1  0
 24 46  1  0
 24 47  1  0
 24 48  1  0
 25 49  1  0
 25 50  1  0
 25 51  1  0
M  END
>  <i_m_ct_stereo_status>  (252) 
1

>  <s_m_source_file>  (252) 
/var/tmp/pbs.5076255.sched01/tmpt7uccrld/92zpefy4ut.sdf

>  <i_m_source_file_index>  (252) 
17

>  <i_lp_mmshare_version>  (252) 
48012

>  <i_f3d_flags>  (252) 
0

>  <s_epik_input>  (252) 
W0NIM10vQyg9W0NIXS8xKVtDSDJdW0NASF0oQzIoW0NIM10pW0NIM10pW0NAQEhdMltDQEBdKFtPSF0pKEMoPU8pQzNbT0hdKVtDQF0oW0NIM10pKFtDQF0oQzQ9TykoW0NIM10pW09IXSlDPTNbQ0BAXTE0W0NIM10=

>  <s_epik_cmdline>  (252) 
J2VwaWtfcHl0aG9uJywgJy1waHQnLCAnMi4wJywgJy1waCcsICc3LjAnLCAnLXRuJywgJzgnLCAnLW1hJywgJzIwMCcsICctaW1hZScsICc8aW5maWxlLm1hZT4nLCAnLW9tYWUnLCAnPG91dGZpbGUubWFlPic=

>  <r_epik_Ionization_Penalty>  (252) 
0.00310032

>  <r_epik_Ionization_Penalty_Charging>  (252) 
0

>  <r_epik_Ionization_Penalty_Neutral>  (252) 
0.00310032

>  <r_epik_State_Penalty>  (252) 
0.00214133

>  <r_epik_Charging_Adjusted_Penalty>  (252) 
0.00214133

>  <i_epik_Tot_Q>  (252) 
0

>  <i_epik_Tot_abs_Q>  (252) 
0

>  <s_lp_Force_Field>  (252) 
OPLS3e

>  <r_lp_Energy>  (252) 
84.2155

>  <b_lp_Chiralities_Consistent>  (252) 
1

>  <s_lp_Variant>  (252) 
77:0-2

>  <s_i_glide_gridfile>  (252) 
pfpi4k_grid

>  <i_i_glide_lignum>  (252) 
17

>  <i_i_glide_rotatable_bonds>  (252) 
3

>  <r_i_docking_score>  (252) 
-2.93439

>  <r_i_glide_ligand_efficiency>  (252) 
-0.117376

>  <r_i_glide_ligand_efficiency_sa>  (252) 
-0.343208

>  <r_i_glide_ligand_efficiency_ln>  (252) 
-0.695538

>  <r_i_glide_gscore>  (252) 
-2.93439

>  <r_i_glide_lipo>  (252) 
-0.733775

>  <r_i_glide_hbond>  (252) 
-0.0389713

>  <r_i_glide_metal>  (252) 
-0

>  <r_i_glide_rewards>  (252) 
-1.10507

>  <r_i_glide_evdw>  (252) 
-13.815

>  <r_i_glide_ecoul>  (252) 
-2.43882

>  <r_i_glide_erotb>  (252) 
0

>  <r_i_glide_esite>  (252) 
0

>  <r_i_glide_emodel>  (252) 
-16.9164

>  <r_i_glide_energy>  (252) 
-16.2539

>  <r_i_glide_einternal>  (252) 
3.84689

>  <r_i_glide_intrahb_reward>  (252) 
-0

>  <i_i_glide_confnum>  (252) 
2

>  <i_i_glide_posenum>  (252) 
36

>  <r_i_glide_eff_state_penalty>  (252) 
0

>  <ligand_id>  (252) 
77

>  <original_smiles>  (252) 
CC1=CC2(C)C(=O)C(C)(O)C3(C)C2=C(O)C(=O)C3(O)C2C(C1)C2(C)C

>  <smiles>  (252) 
[H]OC1=C2C3(C([H])([H])[H])C(=O)C(O[H])(C([H])([H])[H])C2(C([H])([H])[H])C(O[H])(C1=O)C1([H])C([H])(C([H])([H])C(C([H])([H])[H])=C3[H])C1(C([H])([H])[H])C([H])([H])[H]

$$$$
77:1:2
     RDKit          3D

 51 54  0  0  1  0  0  0  0  0999 V2000
    1.8020   -5.8895    0.4839 C   0  0  0  0  0  0  0  0  0  0  0  0
    2.2829   -4.5386    0.9947 C   0  0  0  0  0  0  0  0  0  0  0  0
    2.8984   -4.2408    2.1618 C   0  0  0  0  0  0  0  0  0  0  0  0
    3.9408   -5.0268    2.9673 C   0  0  1  0  0  0  0  0  0  0  0  0
    3.6645   -5.0433    4.4716 C   0  0  0  0  0  0  0  0  0  0  0  0
    4.2098   -6.4235    2.4082 C   0  0  0  0  0  0  0  0  0  0  0  0
    3.6196   -7.4230    2.7971 O   0  0  0  0  0  0  0  0  0  0  0  0
    5.3201   -6.4571    1.3467 C   0  0  1  0  0  0  0  0  0  0  0  0
    6.1839   -7.7375    1.5491 C   0  0  0  0  0  0  0  0  0  0  0  0
    4.7385   -6.6531    0.0897 O   0  0  0  0  0  0  0  0  0  0  0  0
    6.0542   -5.0824    1.5300 C   0  0  2  0  0  0  0  0  0  0  0  0
    7.4778   -5.3866    2.1045 C   0  0  0  0  0  0  0  0  0  0  0  0
    5.2502   -4.3491    2.5767 C   0  0  0  0  0  0  0  0  0  0  0  0
    5.4851   -3.0208    2.5942 C   0  0  0  0  0  0  0  0  0  0  0  0
    4.8658   -2.0547    3.2428 O   0  0  0  0  0  0  0  0  0  0  0  0
    6.2527   -2.7086    1.4029 C   0  0  0  0  0  0  0  0  0  0  0  0
    6.8966   -1.6826    1.1664 O   0  0  0  0  0  0  0  0  0  0  0  0
    6.0956   -3.8932    0.4534 C   0  0  1  0  0  0  0  0  0  0  0  0
    7.2509   -3.9628   -0.3160 O   0  0  0  0  0  0  0  0  0  0  0  0
    4.8619   -3.7225   -0.5059 C   0  0  1  0  0  0  0  0  0  0  0  0
    3.6734   -2.8073   -0.1783 C   0  0  2  0  0  0  0  0  0  0  0  0
    2.3036   -3.4537   -0.0774 C   0  0  0  0  0  0  0  0  0  0  0  0
    4.4866   -2.5689   -1.4338 C   0  0  0  0  0  0  0  0  0  0  0  0
    5.3175   -1.3129   -1.5423 C   0  0  0  0  0  0  0  0  0  0  0  0
    3.9075   -2.9043   -2.7917 C   0  0  0  0  0  0  0  0  0  0  0  0
    0.7718   -5.8322    0.1385 H   0  0  0  0  0  0  0  0  0  0  0  0
    1.8358   -6.7037    1.2127 H   0  0  0  0  0  0  0  0  0  0  0  0
    2.3797   -6.1598   -0.3847 H   0  0  0  0  0  0  0  0  0  0  0  0
    2.9980   -3.1846    2.3453 H   0  0  0  0  0  0  0  0  0  0  0  0
    4.4559   -5.5620    5.0074 H   0  0  0  0  0  0  0  0  0  0  0  0
    2.7303   -5.5599    4.6837 H   0  0  0  0  0  0  0  0  0  0  0  0
    3.5856   -4.0360    4.8730 H   0  0  0  0  0  0  0  0  0  0  0  0
    6.5487   -7.8405    2.5668 H   0  0  0  0  0  0  0  0  0  0  0  0
    7.0548   -7.7700    0.8973 H   0  0  0  0  0  0  0  0  0  0  0  0
    5.6158   -8.6403    1.3490 H   0  0  0  0  0  0  0  0  0  0  0  0
    5.4072   -6.6698   -0.5791 H   0  0  0  0  0  0  0  0  0  0  0  0
    8.0969   -5.9998    1.4365 H   0  0  0  0  0  0  0  0  0  0  0  0
    7.3660   -5.8780    3.0808 H   0  0  0  0  0  0  0  0  0  0  0  0
    8.0682   -4.4916    2.2433 H   0  0  0  0  0  0  0  0  0  0  0  0
    5.3236   -1.2549    3.0251 H   0  0  0  0  0  0  0  0  0  0  0  0
    7.0881   -4.5554   -1.0248 H   0  0  0  0  0  0  0  0  0  0  0  0
    4.5993   -4.6479   -1.0071 H   0  0  0  0  0  0  0  0  0  0  0  0
    3.7836   -2.0288    0.5838 H   0  0  0  0  0  0  0  0  0  0  0  0
    1.9657   -3.8362   -1.0416 H   0  0  0  0  0  0  0  0  0  0  0  0
    1.6393   -2.6523    0.2346 H   0  0  0  0  0  0  0  0  0  0  0  0
    4.8134   -0.5661   -2.1605 H   0  0  0  0  0  0  0  0  0  0  0  0
    6.2710   -1.5872   -1.9879 H   0  0  0  0  0  0  0  0  0  0  0  0
    5.4741   -0.8548   -0.5675 H   0  0  0  0  0  0  0  0  0  0  0  0
    3.2485   -2.0993   -3.1243 H   0  0  0  0  0  0  0  0  0  0  0  0
    3.3451   -3.8425   -2.7458 H   0  0  0  0  0  0  0  0  0  0  0  0
    4.7220   -3.0313   -3.5033 H   0  0  0  0  0  0  0  0  0  0  0  0
  1  2  1  0
  1 26  1  0
  1 27  1  0
  1 28  1  0
  2 22  1  0
  2  3  2  3
  3  4  1  0
  3 29  1  0
  4 13  1  0
  4  5  1  1
  4  6  1  0
  5 30  1  0
  5 31  1  0
  5 32  1  0
  6  7  2  0
  6  8  1  0
  8  9  1  0
  8 10  1  6
  8 11  1  0
  9 33  1  0
  9 34  1  0
  9 35  1  0
 10 36  1  0
 11 18  1  0
 11 12  1  1
 11 13  1  0
 12 37  1  0
 12 38  1  0
 12 39  1  0
 13 14  2  0
 14 15  1  0
 14 16  1  0
 15 40  1  0
 16 17  2  0
 16 18  1  0
 18 19  1  6
 18 20  1  0
 19 41  1  0
 20 23  1  0
 20 21  1  0
 20 42  1  6
 21 22  1  0
 21 23  1  0
 21 43  1  1
 22 44  1  0
 22 45  1  0
 23 24  1  0
 23 25  1  0
 24 46  1  0
 24 47  1  0
 24 48  1  0
 25 49  1  0
 25 50  1  0
 25 51  1  0
M  END
>  <i_m_ct_stereo_status>  (253) 
1

>  <s_m_source_file>  (253) 
/var/tmp/pbs.5076255.sched01/tmpt7uccrld/92zpefy4ut.sdf

>  <i_m_source_file_index>  (253) 
17

>  <i_lp_mmshare_version>  (253) 
48012

>  <i_f3d_flags>  (253) 
0

>  <s_epik_input>  (253) 
W0NIM10vQyg9W0NIXS8xKVtDSDJdW0NASF0oQzIoW0NIM10pW0NIM10pW0NAQEhdMltDQEBdKFtPSF0pKEMoPU8pQzNbT0hdKVtDQF0oW0NIM10pKFtDQF0oQzQ9TykoW0NIM10pW09IXSlDPTNbQ0BAXTE0W0NIM10=

>  <s_epik_cmdline>  (253) 
J2VwaWtfcHl0aG9uJywgJy1waHQnLCAnMi4wJywgJy1waCcsICc3LjAnLCAnLXRuJywgJzgnLCAnLW1hJywgJzIwMCcsICctaW1hZScsICc8aW5maWxlLm1hZT4nLCAnLW9tYWUnLCAnPG91dGZpbGUubWFlPic=

>  <r_epik_Ionization_Penalty>  (253) 
0.00310032

>  <r_epik_Ionization_Penalty_Charging>  (253) 
0

>  <r_epik_Ionization_Penalty_Neutral>  (253) 
0.00310032

>  <r_epik_State_Penalty>  (253) 
0.00214133

>  <r_epik_Charging_Adjusted_Penalty>  (253) 
0.00214133

>  <i_epik_Tot_Q>  (253) 
0

>  <i_epik_Tot_abs_Q>  (253) 
0

>  <s_lp_Force_Field>  (253) 
OPLS3e

>  <r_lp_Energy>  (253) 
84.2155

>  <b_lp_Chiralities_Consistent>  (253) 
1

>  <s_lp_Variant>  (253) 
77:0-2

>  <s_i_glide_gridfile>  (253) 
pfpi4k_grid

>  <i_i_glide_lignum>  (253) 
17

>  <i_i_glide_rotatable_bonds>  (253) 
3

>  <r_i_docking_score>  (253) 
-2.30323

>  <r_i_glide_ligand_efficiency>  (253) 
-0.0921293

>  <r_i_glide_ligand_efficiency_sa>  (253) 
-0.269388

>  <r_i_glide_ligand_efficiency_ln>  (253) 
-0.545935

>  <r_i_glide_gscore>  (253) 
-2.30323

>  <r_i_glide_lipo>  (253) 
-0.495804

>  <r_i_glide_hbond>  (253) 
0

>  <r_i_glide_metal>  (253) 
-0

>  <r_i_glide_rewards>  (253) 
-1.17898

>  <r_i_glide_evdw>  (253) 
-16.0277

>  <r_i_glide_ecoul>  (253) 
1.15292

>  <r_i_glide_erotb>  (253) 
0

>  <r_i_glide_esite>  (253) 
0

>  <r_i_glide_emodel>  (253) 
-15.5382

>  <r_i_glide_energy>  (253) 
-14.8748

>  <r_i_glide_einternal>  (253) 
2.20152

>  <r_i_glide_intrahb_reward>  (253) 
-0

>  <i_i_glide_confnum>  (253) 
2

>  <i_i_glide_posenum>  (253) 
1

>  <r_i_glide_eff_state_penalty>  (253) 
0

>  <ligand_id>  (253) 
77

>  <original_smiles>  (253) 
CC1=CC2(C)C(=O)C(C)(O)C3(C)C2=C(O)C(=O)C3(O)C2C(C1)C2(C)C

>  <smiles>  (253) 
[H]OC1=C2C3(C([H])([H])[H])C(=O)C(O[H])(C([H])([H])[H])C2(C([H])([H])[H])C(O[H])(C1=O)C1([H])C([H])(C([H])([H])C(C([H])([H])[H])=C3[H])C1(C([H])([H])[H])C([H])([H])[H]

$$$$
78:0:0
     RDKit          3D

 14 16  0  0  1  0  0  0  0  0999 V2000
    2.6624   -2.2505   -3.5101 C   0  0  0  0  0  0  0  0  0  0  0  0
    2.4435   -3.0596   -2.4026 C   0  0  0  0  0  0  0  0  0  0  0  0
    3.6013   -3.0835   -1.5432 C   0  0  0  0  0  0  0  0  0  0  0  0
    4.5987   -2.2467   -2.1075 C   0  0  0  0  0  0  0  0  0  0  0  0
    5.8010   -2.1249   -1.4575 N   0  0  0  0  0  0  0  0  0  0  0  0
    5.9902   -2.7990   -0.3101 N   0  0  0  0  0  0  0  0  0  0  0  0
    5.0098   -3.5912    0.2019 C   0  0  0  0  0  0  0  0  0  0  0  0
    5.0256   -4.3191    1.3170 N   0  0  0  0  0  0  0  0  0  0  0  0
    3.7572   -4.9289    1.3500 N   0  0  0  0  0  0  0  0  0  0  0  0
    3.0177   -4.5937    0.3294 N   0  0  0  0  0  0  0  0  0  0  0  0
    3.8207   -3.7718   -0.3561 N   0  0  0  0  0  0  0  0  0  0  0  0
    4.2128   -1.4337   -3.5825 S   0  0  0  0  0  0  0  0  0  0  0  0
    1.9525   -2.0638   -4.2996 H   0  0  0  0  0  0  0  0  0  0  0  0
    1.5651   -3.6363   -2.1574 H   0  0  0  0  0  0  0  0  0  0  0  0
  1 12  1  0
  1  2  2  0
  1 13  1  0
  2  3  1  0
  2 14  1  0
  3 11  1  0
  3  4  2  0
  4  5  1  0
  4 12  1  0
  5  6  2  0
  6  7  1  0
  7 11  1  0
  7  8  2  0
  8  9  1  0
  9 10  2  0
 10 11  1  0
M  END
>  <i_m_ct_stereo_status>  (254) 
1

>  <s_m_source_file>  (254) 
/var/tmp/pbs.5076255.sched01/tmpt7uccrld/92zpefy4ut.sdf

>  <i_m_source_file_index>  (254) 
18

>  <i_lp_mmshare_version>  (254) 
48012

>  <i_f3d_flags>  (254) 
0

>  <s_epik_input>  (254) 
W2NIXTFbY0hdc2MoYzEyKW5uYzNuMm5ubjM=

>  <s_epik_cmdline>  (254) 
J2VwaWtfcHl0aG9uJywgJy1waHQnLCAnMi4wJywgJy1waCcsICc3LjAnLCAnLXRuJywgJzgnLCAnLW1hJywgJzIwMCcsICctaW1hZScsICc8aW5maWxlLm1hZT4nLCAnLW9tYWUnLCAnPG91dGZpbGUubWFlPic=

>  <r_lp_tautomer_probability>  (254) 
1

>  <r_epik_Ionization_Penalty>  (254) 
3.63509e-12

>  <r_epik_Ionization_Penalty_Charging>  (254) 
0

>  <r_epik_Ionization_Penalty_Neutral>  (254) 
3.63509e-12

>  <r_epik_State_Penalty>  (254) 
-0

>  <r_epik_Charging_Adjusted_Penalty>  (254) 
0

>  <i_epik_Tot_Q>  (254) 
0

>  <i_epik_Tot_abs_Q>  (254) 
0

>  <s_lp_Force_Field>  (254) 
OPLS3e

>  <r_lp_Energy>  (254) 
15.3301

>  <b_lp_Chiralities_Consistent>  (254) 
1

>  <s_lp_Variant>  (254) 
78:0-1

>  <s_i_glide_gridfile>  (254) 
pfpi4k_grid

>  <i_i_glide_lignum>  (254) 
18

>  <i_i_glide_rotatable_bonds>  (254) 
0

>  <r_i_docking_score>  (254) 
-4.14679

>  <r_i_glide_ligand_efficiency>  (254) 
-0.345566

>  <r_i_glide_ligand_efficiency_sa>  (254) 
-0.791149

>  <r_i_glide_ligand_efficiency_ln>  (254) 
-1.18993

>  <r_i_glide_gscore>  (254) 
-4.14679

>  <r_i_glide_lipo>  (254) 
-0.474527

>  <r_i_glide_hbond>  (254) 
0

>  <r_i_glide_metal>  (254) 
-0

>  <r_i_glide_rewards>  (254) 
-2.24807

>  <r_i_glide_evdw>  (254) 
-20.4731

>  <r_i_glide_ecoul>  (254) 
-2.18712

>  <r_i_glide_erotb>  (254) 
0

>  <r_i_glide_esite>  (254) 
-0.0724696

>  <r_i_glide_emodel>  (254) 
-28.6892

>  <r_i_glide_energy>  (254) 
-22.6603

>  <r_i_glide_einternal>  (254) 
0

>  <r_i_glide_intrahb_reward>  (254) 
-0

>  <i_i_glide_confnum>  (254) 
2

>  <i_i_glide_posenum>  (254) 
23

>  <r_i_glide_eff_state_penalty>  (254) 
0

>  <ligand_id>  (254) 
78

>  <original_smiles>  (254) 
c1cc2c(nnc3nnnn32)s1

>  <smiles>  (254) 
[H]c1sc2nnc3nnnn3c2c1[H]

$$$$
78:0:1
     RDKit          3D

 14 16  0  0  1  0  0  0  0  0999 V2000
    2.6506   -2.2552   -3.5185 C   0  0  0  0  0  0  0  0  0  0  0  0
    2.5072   -3.0580   -2.3977 C   0  0  0  0  0  0  0  0  0  0  0  0
    3.4363   -2.6718   -1.3660 C   0  0  0  0  0  0  0  0  0  0  0  0
    4.2056   -1.5803   -1.8396 C   0  0  0  0  0  0  0  0  0  0  0  0
    5.1742   -1.0575   -1.0186 N   0  0  0  0  0  0  0  0  0  0  0  0
    5.3458   -1.5808    0.2046 N   0  0  0  0  0  0  0  0  0  0  0  0
    4.5833   -2.6239    0.6265 C   0  0  0  0  0  0  0  0  0  0  0  0
    4.6222   -3.2692    1.7885 N   0  0  0  0  0  0  0  0  0  0  0  0
    3.6252   -4.2574    1.6722 N   0  0  0  0  0  0  0  0  0  0  0  0
    3.0180   -4.2177    0.5173 N   0  0  0  0  0  0  0  0  0  0  0  0
    3.6322   -3.2030   -0.0986 N   0  0  0  0  0  0  0  0  0  0  0  0
    3.8626   -0.9848   -3.4248 S   0  0  0  0  0  0  0  0  0  0  0  0
    2.0580   -2.3281   -4.4093 H   0  0  0  0  0  0  0  0  0  0  0  0
    1.8157   -3.8741   -2.2498 H   0  0  0  0  0  0  0  0  0  0  0  0
  1 12  1  0
  1  2  2  0
  1 13  1  0
  2  3  1  0
  2 14  1  0
  3 11  1  0
  3  4  2  0
  4  5  1  0
  4 12  1  0
  5  6  2  0
  6  7  1  0
  7 11  1  0
  7  8  2  0
  8  9  1  0
  9 10  2  0
 10 11  1  0
M  END
>  <i_m_ct_stereo_status>  (255) 
1

>  <s_m_source_file>  (255) 
/var/tmp/pbs.5076255.sched01/tmpt7uccrld/92zpefy4ut.sdf

>  <i_m_source_file_index>  (255) 
18

>  <i_lp_mmshare_version>  (255) 
48012

>  <i_f3d_flags>  (255) 
0

>  <s_epik_input>  (255) 
W2NIXTFbY0hdc2MoYzEyKW5uYzNuMm5ubjM=

>  <s_epik_cmdline>  (255) 
J2VwaWtfcHl0aG9uJywgJy1waHQnLCAnMi4wJywgJy1waCcsICc3LjAnLCAnLXRuJywgJzgnLCAnLW1hJywgJzIwMCcsICctaW1hZScsICc8aW5maWxlLm1hZT4nLCAnLW9tYWUnLCAnPG91dGZpbGUubWFlPic=

>  <r_lp_tautomer_probability>  (255) 
1

>  <r_epik_Ionization_Penalty>  (255) 
3.63509e-12

>  <r_epik_Ionization_Penalty_Charging>  (255) 
0

>  <r_epik_Ionization_Penalty_Neutral>  (255) 
3.63509e-12

>  <r_epik_State_Penalty>  (255) 
-0

>  <r_epik_Charging_Adjusted_Penalty>  (255) 
0

>  <i_epik_Tot_Q>  (255) 
0

>  <i_epik_Tot_abs_Q>  (255) 
0

>  <s_lp_Force_Field>  (255) 
OPLS3e

>  <r_lp_Energy>  (255) 
15.3301

>  <b_lp_Chiralities_Consistent>  (255) 
1

>  <s_lp_Variant>  (255) 
78:0-1

>  <s_i_glide_gridfile>  (255) 
pfpi4k_grid

>  <i_i_glide_lignum>  (255) 
18

>  <i_i_glide_rotatable_bonds>  (255) 
0

>  <r_i_docking_score>  (255) 
-4.07466

>  <r_i_glide_ligand_efficiency>  (255) 
-0.339555

>  <r_i_glide_ligand_efficiency_sa>  (255) 
-0.777387

>  <r_i_glide_ligand_efficiency_ln>  (255) 
-1.16923

>  <r_i_glide_gscore>  (255) 
-4.07466

>  <r_i_glide_lipo>  (255) 
-0.440605

>  <r_i_glide_hbond>  (255) 
0

>  <r_i_glide_metal>  (255) 
-0

>  <r_i_glide_rewards>  (255) 
-2.20953

>  <r_i_glide_evdw>  (255) 
-20.5396

>  <r_i_glide_ecoul>  (255) 
-2.25325

>  <r_i_glide_erotb>  (255) 
0

>  <r_i_glide_esite>  (255) 
-0.0595591

>  <r_i_glide_emodel>  (255) 
-28.7188

>  <r_i_glide_energy>  (255) 
-22.7928

>  <r_i_glide_einternal>  (255) 
0

>  <r_i_glide_intrahb_reward>  (255) 
-0

>  <i_i_glide_confnum>  (255) 
1

>  <i_i_glide_posenum>  (255) 
13

>  <r_i_glide_eff_state_penalty>  (255) 
0

>  <ligand_id>  (255) 
78

>  <original_smiles>  (255) 
c1cc2c(nnc3nnnn32)s1

>  <smiles>  (255) 
[H]c1sc2nnc3nnnn3c2c1[H]

$$$$
78:0:2
     RDKit          3D

 14 16  0  0  1  0  0  0  0  0999 V2000
    3.2162   -2.0065   -3.6279 C   0  0  0  0  0  0  0  0  0  0  0  0
    2.7989   -2.9952   -2.7466 C   0  0  0  0  0  0  0  0  0  0  0  0
    3.2734   -2.7278   -1.4093 C   0  0  0  0  0  0  0  0  0  0  0  0
    4.0211   -1.5217   -1.4296 C   0  0  0  0  0  0  0  0  0  0  0  0
    4.5728   -1.0668   -0.2549 N   0  0  0  0  0  0  0  0  0  0  0  0
    4.3808   -1.7753    0.8703 N   0  0  0  0  0  0  0  0  0  0  0  0
    3.6558   -2.9250    0.8518 C   0  0  0  0  0  0  0  0  0  0  0  0
    3.3758   -3.7458    1.8619 N   0  0  0  0  0  0  0  0  0  0  0  0
    2.6160   -4.7767    1.2734 N   0  0  0  0  0  0  0  0  0  0  0  0
    2.4378   -4.5895   -0.0061 N   0  0  0  0  0  0  0  0  0  0  0  0
    3.0896   -3.4441   -0.2322 N   0  0  0  0  0  0  0  0  0  0  0  0
    4.1832   -0.7035   -2.9421 S   0  0  0  0  0  0  0  0  0  0  0  0
    2.9767   -1.9600   -4.6782 H   0  0  0  0  0  0  0  0  0  0  0  0
    2.1931   -3.8639   -2.9575 H   0  0  0  0  0  0  0  0  0  0  0  0
  1 12  1  0
  1  2  2  0
  1 13  1  0
  2  3  1  0
  2 14  1  0
  3 11  1  0
  3  4  2  0
  4  5  1  0
  4 12  1  0
  5  6  2  0
  6  7  1  0
  7 11  1  0
  7  8  2  0
  8  9  1  0
  9 10  2  0
 10 11  1  0
M  END
>  <i_m_ct_stereo_status>  (256) 
1

>  <s_m_source_file>  (256) 
/var/tmp/pbs.5076255.sched01/tmpt7uccrld/92zpefy4ut.sdf

>  <i_m_source_file_index>  (256) 
18

>  <i_lp_mmshare_version>  (256) 
48012

>  <i_f3d_flags>  (256) 
0

>  <s_epik_input>  (256) 
W2NIXTFbY0hdc2MoYzEyKW5uYzNuMm5ubjM=

>  <s_epik_cmdline>  (256) 
J2VwaWtfcHl0aG9uJywgJy1waHQnLCAnMi4wJywgJy1waCcsICc3LjAnLCAnLXRuJywgJzgnLCAnLW1hJywgJzIwMCcsICctaW1hZScsICc8aW5maWxlLm1hZT4nLCAnLW9tYWUnLCAnPG91dGZpbGUubWFlPic=

>  <r_lp_tautomer_probability>  (256) 
1

>  <r_epik_Ionization_Penalty>  (256) 
3.63509e-12

>  <r_epik_Ionization_Penalty_Charging>  (256) 
0

>  <r_epik_Ionization_Penalty_Neutral>  (256) 
3.63509e-12

>  <r_epik_State_Penalty>  (256) 
-0

>  <r_epik_Charging_Adjusted_Penalty>  (256) 
0

>  <i_epik_Tot_Q>  (256) 
0

>  <i_epik_Tot_abs_Q>  (256) 
0

>  <s_lp_Force_Field>  (256) 
OPLS3e

>  <r_lp_Energy>  (256) 
15.3301

>  <b_lp_Chiralities_Consistent>  (256) 
1

>  <s_lp_Variant>  (256) 
78:0-1

>  <s_i_glide_gridfile>  (256) 
pfpi4k_grid

>  <i_i_glide_lignum>  (256) 
18

>  <i_i_glide_rotatable_bonds>  (256) 
0

>  <r_i_docking_score>  (256) 
-3.91927

>  <r_i_glide_ligand_efficiency>  (256) 
-0.326606

>  <r_i_glide_ligand_efficiency_sa>  (256) 
-0.747741

>  <r_i_glide_ligand_efficiency_ln>  (256) 
-1.12464

>  <r_i_glide_gscore>  (256) 
-3.91927

>  <r_i_glide_lipo>  (256) 
-0.375152

>  <r_i_glide_hbond>  (256) 
0

>  <r_i_glide_metal>  (256) 
-0

>  <r_i_glide_rewards>  (256) 
-2.21746

>  <r_i_glide_evdw>  (256) 
-19.571

>  <r_i_glide_ecoul>  (256) 
-1.59162

>  <r_i_glide_erotb>  (256) 
0

>  <r_i_glide_esite>  (256) 
-0.109363

>  <r_i_glide_emodel>  (256) 
-26.8633

>  <r_i_glide_energy>  (256) 
-21.1627

>  <r_i_glide_einternal>  (256) 
0

>  <r_i_glide_intrahb_reward>  (256) 
-0

>  <i_i_glide_confnum>  (256) 
1

>  <i_i_glide_posenum>  (256) 
15

>  <r_i_glide_eff_state_penalty>  (256) 
0

>  <ligand_id>  (256) 
78

>  <original_smiles>  (256) 
c1cc2c(nnc3nnnn32)s1

>  <smiles>  (256) 
[H]c1sc2nnc3nnnn3c2c1[H]

$$$$
79:0:0
     RDKit          3D

 43 48  0  0  1  0  0  0  0  0999 V2000
    2.7855   -1.4006    3.5605 C   0  0  0  0  0  0  0  0  0  0  0  0
    4.2969   -1.5524    3.5846 C   0  0  0  0  0  0  0  0  0  0  0  0
    4.9971   -0.2264    3.7285 C   0  0  0  0  0  0  0  0  0  0  0  0
    4.7972   -2.6131    4.4124 O   0  0  0  0  0  0  0  0  0  0  0  0
    5.0127   -2.7407    2.9981 C   0  0  1  0  0  0  0  0  0  0  0  0
    4.2484   -3.8680    2.3438 C   0  0  2  0  0  0  0  0  0  0  0  0
    4.9241   -5.0830    1.8403 C   0  0  1  0  0  0  0  0  0  0  0  0
    4.0031   -6.2924    1.6784 C   0  0  1  0  0  0  0  0  0  0  0  0
    3.6199   -6.8084    2.9410 O   0  0  0  0  0  0  0  0  0  0  0  0
    2.8782   -5.7969    0.9544 O   0  0  0  0  0  0  0  0  0  0  0  0
    3.3467   -4.8473    0.0725 C   0  0  1  0  0  0  0  0  0  0  0  0
    2.4935   -3.8562   -0.4446 O   0  0  0  0  0  0  0  0  0  0  0  0
    3.2041   -2.6023   -0.3656 C   0  0  1  0  0  0  0  0  0  0  0  0
    4.5879   -2.9188    0.0733 C   0  0  0  0  0  0  0  0  0  0  0  0
    5.5577   -2.2710   -0.5681 C   0  0  0  0  0  0  0  0  0  0  0  0
    4.9210   -1.4347   -1.6327 C   0  0  2  0  0  0  0  0  0  0  0  0
    3.4335   -1.7272   -1.5894 C   0  0  1  0  0  0  0  0  0  0  0  0
    4.2250   -2.0181   -2.8499 C   0  0  0  0  0  0  0  0  0  0  0  0
    3.9369   -1.1480   -4.0562 C   0  0  0  0  0  0  0  0  0  0  0  0
    4.4837   -3.4390   -3.2828 C   0  0  0  0  0  0  0  0  0  0  0  0
    4.3521   -4.1215    0.8502 C   0  0  1  0  0  0  0  0  0  0  0  0
    2.4732   -0.9907    2.6007 H   0  0  0  0  0  0  0  0  0  0  0  0
    2.4448   -0.7255    4.3456 H   0  0  0  0  0  0  0  0  0  0  0  0
    2.2893   -2.3622    3.7038 H   0  0  0  0  0  0  0  0  0  0  0  0
    4.8321    0.3578    2.8260 H   0  0  0  0  0  0  0  0  0  0  0  0
    6.0671   -0.3812    3.8596 H   0  0  0  0  0  0  0  0  0  0  0  0
    4.6069    0.3187    4.5875 H   0  0  0  0  0  0  0  0  0  0  0  0
    6.0517   -2.5813    2.7194 H   0  0  0  0  0  0  0  0  0  0  0  0
    3.2544   -4.0257    2.7399 H   0  0  0  0  0  0  0  0  0  0  0  0
    5.9931   -5.1976    2.0065 H   0  0  0  0  0  0  0  0  0  0  0  0
    4.4450   -7.1133    1.0990 H   0  0  0  0  0  0  0  0  0  0  0  0
    3.1015   -7.5899    2.7985 H   0  0  0  0  0  0  0  0  0  0  0  0
    3.8331   -5.3866   -0.7333 H   0  0  0  0  0  0  0  0  0  0  0  0
    2.7328   -1.9838    0.4058 H   0  0  0  0  0  0  0  0  0  0  0  0
    6.6195   -2.4813   -0.5081 H   0  0  0  0  0  0  0  0  0  0  0  0
    5.2132   -0.3911   -1.6244 H   0  0  0  0  0  0  0  0  0  0  0  0
    2.7595   -0.8814   -1.6784 H   0  0  0  0  0  0  0  0  0  0  0  0
    3.0708   -1.5226   -4.6010 H   0  0  0  0  0  0  0  0  0  0  0  0
    4.7913   -1.1241   -4.7271 H   0  0  0  0  0  0  0  0  0  0  0  0
    3.7252   -0.1275   -3.7466 H   0  0  0  0  0  0  0  0  0  0  0  0
    3.5976   -3.8420   -3.7775 H   0  0  0  0  0  0  0  0  0  0  0  0
    4.6935   -4.0459   -2.4048 H   0  0  0  0  0  0  0  0  0  0  0  0
    5.3445   -3.4803   -3.9497 H   0  0  0  0  0  0  0  0  0  0  0  0
  1  2  1  0
  1 22  1  0
  1 23  1  0
  1 24  1  0
  2  5  1  0
  2  3  1  0
  2  4  1  0
  3 25  1  0
  3 26  1  0
  3 27  1  0
  4  5  1  0
  5  6  1  0
  5 28  1  1
  6 21  1  0
  6  7  1  0
  6 29  1  1
  7 21  1  0
  7  8  1  0
  7 30  1  6
  8  9  1  0
  8 10  1  0
  8 31  1  6
  9 32  1  0
 10 11  1  0
 11 21  1  0
 11 12  1  0
 11 33  1  6
 12 13  1  0
 13 17  1  0
 13 14  1  0
 13 34  1  1
 14 15  2  0
 21 14  1  6
 15 16  1  0
 15 35  1  0
 16 18  1  0
 16 17  1  0
 16 36  1  6
 17 18  1  0
 17 37  1  6
 18 19  1  0
 18 20  1  0
 19 38  1  0
 19 39  1  0
 19 40  1  0
 20 41  1  0
 20 42  1  0
 20 43  1  0
M  END
>  <i_m_ct_stereo_status>  (257) 
1

>  <s_m_source_file>  (257) 
/var/tmp/pbs.5076255.sched01/tmpt7uccrld/92zpefy4ut.sdf

>  <i_m_source_file_index>  (257) 
19

>  <i_lp_mmshare_version>  (257) 
48012

>  <i_f3d_flags>  (257) 
0

>  <s_epik_input>  (257) 
W0NIM11DMShbQ0gzXSlPW0NASF0xW0NAQEhdMltDQEhdKFtDQF0yMzQpW0NAQEhdKFtPSF0pT1tDQEhdM09bQ0BIXTVDND1bQ0hdW0NAQEhdNltDQEhdNUM2KFtDSDNdKVtDSDNd

>  <s_epik_cmdline>  (257) 
J2VwaWtfcHl0aG9uJywgJy1waHQnLCAnMi4wJywgJy1waCcsICc3LjAnLCAnLXRuJywgJzgnLCAnLW1hJywgJzIwMCcsICctaW1hZScsICc8aW5maWxlLm1hZT4nLCAnLW9tYWUnLCAnPG91dGZpbGUubWFlPic=

>  <r_lp_tautomer_probability>  (257) 
1

>  <r_epik_Ionization_Penalty>  (257) 
1.58735e-07

>  <r_epik_Ionization_Penalty_Charging>  (257) 
0

>  <r_epik_Ionization_Penalty_Neutral>  (257) 
1.58735e-07

>  <r_epik_State_Penalty>  (257) 
-0

>  <r_epik_Charging_Adjusted_Penalty>  (257) 
0

>  <i_epik_Tot_Q>  (257) 
0

>  <i_epik_Tot_abs_Q>  (257) 
0

>  <s_epik_Chemistry_Notes>  (257) 
This compound contains an acetal/aminal-like group ( X-CH(R)-Y where X, Y are N, S, or O) that may be acid/base labile, releasing an aldehyde.

>  <s_lp_Force_Field>  (257) 
OPLS3e

>  <r_lp_Energy>  (257) 
37.1168

>  <b_lp_Chiralities_Consistent>  (257) 
1

>  <s_lp_Variant>  (257) 
79:0-1

>  <s_i_glide_gridfile>  (257) 
pfpi4k_grid

>  <i_i_glide_lignum>  (257) 
19

>  <i_i_glide_rotatable_bonds>  (257) 
2

>  <r_i_docking_score>  (257) 
-3.22063

>  <r_i_glide_ligand_efficiency>  (257) 
-0.153363

>  <r_i_glide_ligand_efficiency_sa>  (257) 
-0.423117

>  <r_i_glide_ligand_efficiency_ln>  (257) 
-0.796294

>  <r_i_glide_gscore>  (257) 
-3.22063

>  <r_i_glide_lipo>  (257) 
-0.519355

>  <r_i_glide_hbond>  (257) 
0

>  <r_i_glide_metal>  (257) 
-0

>  <r_i_glide_rewards>  (257) 
-1.48884

>  <r_i_glide_evdw>  (257) 
-23.6426

>  <r_i_glide_ecoul>  (257) 
-1.4661

>  <r_i_glide_erotb>  (257) 
0.216162

>  <r_i_glide_esite>  (257) 
-0.0265466

>  <r_i_glide_emodel>  (257) 
-30.1428

>  <r_i_glide_energy>  (257) 
-25.1087

>  <r_i_glide_einternal>  (257) 
0.333708

>  <r_i_glide_intrahb_reward>  (257) 
-0

>  <i_i_glide_confnum>  (257) 
2

>  <i_i_glide_posenum>  (257) 
34

>  <r_i_glide_eff_state_penalty>  (257) 
0

>  <ligand_id>  (257) 
79

>  <original_smiles>  (257) 
CC1(C)OC1C1C2C(O)OC3OC4C(=CC5C4C5(C)C)C321

>  <smiles>  (257) 
[H]OC1([H])OC2([H])OC3([H])C(=C([H])C4([H])C3([H])C4(C([H])([H])[H])C([H])([H])[H])C23C1([H])C3([H])C1([H])OC1(C([H])([H])[H])C([H])([H])[H]

$$$$
79:0:1
     RDKit          3D

 43 48  0  0  1  0  0  0  0  0999 V2000
    2.7889   -1.3896    3.6039 C   0  0  0  0  0  0  0  0  0  0  0  0
    4.3018   -1.5385    3.5954 C   0  0  0  0  0  0  0  0  0  0  0  0
    4.9982   -0.2077    3.7416 C   0  0  0  0  0  0  0  0  0  0  0  0
    4.8175   -2.6079    4.3979 O   0  0  0  0  0  0  0  0  0  0  0  0
    5.0138   -2.7127    2.9829 C   0  0  1  0  0  0  0  0  0  0  0  0
    4.2428   -3.8252    2.3305 C   0  0  2  0  0  0  0  0  0  0  0  0
    4.9157   -5.0571    1.8369 C   0  0  1  0  0  0  0  0  0  0  0  0
    3.9682   -6.2576    1.6980 C   0  0  1  0  0  0  0  0  0  0  0  0
    3.5910   -6.7582    2.9600 O   0  0  0  0  0  0  0  0  0  0  0  0
    2.8467   -5.7653    0.9831 O   0  0  0  0  0  0  0  0  0  0  0  0
    3.3438   -4.8313    0.0642 C   0  0  1  0  0  0  0  0  0  0  0  0
    2.4823   -3.8232   -0.4556 O   0  0  0  0  0  0  0  0  0  0  0  0
    3.2017   -2.5774   -0.3791 C   0  0  1  0  0  0  0  0  0  0  0  0
    4.5915   -2.9041    0.0575 C   0  0  0  0  0  0  0  0  0  0  0  0
    5.5599   -2.2674   -0.5842 C   0  0  0  0  0  0  0  0  0  0  0  0
    4.9273   -1.4296   -1.6509 C   0  0  2  0  0  0  0  0  0  0  0  0
    3.4391   -1.7088   -1.6014 C   0  0  1  0  0  0  0  0  0  0  0  0
    4.2250   -2.0162   -2.8633 C   0  0  0  0  0  0  0  0  0  0  0  0
    3.9459   -1.1468   -4.0688 C   0  0  0  0  0  0  0  0  0  0  0  0
    4.4745   -3.4384   -3.2906 C   0  0  0  0  0  0  0  0  0  0  0  0
    4.3511   -4.0898    0.8566 C   0  0  1  0  0  0  0  0  0  0  0  0
    2.4567   -0.9766    2.6519 H   0  0  0  0  0  0  0  0  0  0  0  0
    2.4635   -0.7191    4.3975 H   0  0  0  0  0  0  0  0  0  0  0  0
    2.2993   -2.3562    3.7517 H   0  0  0  0  0  0  0  0  0  0  0  0
    4.8119    0.3848    2.8493 H   0  0  0  0  0  0  0  0  0  0  0  0
    6.0719   -0.3585    3.8493 H   0  0  0  0  0  0  0  0  0  0  0  0
    4.6222    0.3252    4.6125 H   0  0  0  0  0  0  0  0  0  0  0  0
    6.0458   -2.5490    2.6916 H   0  0  0  0  0  0  0  0  0  0  0  0
    3.2443   -3.9766    2.7159 H   0  0  0  0  0  0  0  0  0  0  0  0
    5.9832   -5.1840    2.0014 H   0  0  0  0  0  0  0  0  0  0  0  0
    4.3923   -7.0886    1.1323 H   0  0  0  0  0  0  0  0  0  0  0  0
    3.2582   -6.0438    3.4797 H   0  0  0  0  0  0  0  0  0  0  0  0
    3.8239   -5.3780   -0.7407 H   0  0  0  0  0  0  0  0  0  0  0  0
    2.7363   -1.9526    0.3942 H   0  0  0  0  0  0  0  0  0  0  0  0
    6.6189   -2.4858   -0.5236 H   0  0  0  0  0  0  0  0  0  0  0  0
    5.2297   -0.3875   -1.6493 H   0  0  0  0  0  0  0  0  0  0  0  0
    2.7686   -0.8620   -1.6979 H   0  0  0  0  0  0  0  0  0  0  0  0
    3.0849   -1.5204   -4.6215 H   0  0  0  0  0  0  0  0  0  0  0  0
    4.8113   -1.1295   -4.7213 H   0  0  0  0  0  0  0  0  0  0  0  0
    3.7360   -0.1259   -3.7642 H   0  0  0  0  0  0  0  0  0  0  0  0
    3.5875   -3.8400   -3.7860 H   0  0  0  0  0  0  0  0  0  0  0  0
    4.6831   -4.0463   -2.4103 H   0  0  0  0  0  0  0  0  0  0  0  0
    5.3372   -3.4884   -3.9521 H   0  0  0  0  0  0  0  0  0  0  0  0
  1  2  1  0
  1 22  1  0
  1 23  1  0
  1 24  1  0
  2  5  1  0
  2  3  1  0
  2  4  1  0
  3 25  1  0
  3 26  1  0
  3 27  1  0
  4  5  1  0
  5  6  1  0
  5 28  1  1
  6 21  1  0
  6  7  1  0
  6 29  1  1
  7 21  1  0
  7  8  1  0
  7 30  1  6
  8  9  1  0
  8 10  1  0
  8 31  1  6
  9 32  1  0
 10 11  1  0
 11 21  1  0
 11 12  1  0
 11 33  1  6
 12 13  1  0
 13 17  1  0
 13 14  1  0
 13 34  1  1
 14 15  2  0
 21 14  1  6
 15 16  1  0
 15 35  1  0
 16 18  1  0
 16 17  1  0
 16 36  1  6
 17 18  1  0
 17 37  1  6
 18 19  1  0
 18 20  1  0
 19 38  1  0
 19 39  1  0
 19 40  1  0
 20 41  1  0
 20 42  1  0
 20 43  1  0
M  END
>  <i_m_ct_stereo_status>  (258) 
1

>  <s_m_source_file>  (258) 
/var/tmp/pbs.5076255.sched01/tmpt7uccrld/92zpefy4ut.sdf

>  <i_m_source_file_index>  (258) 
19

>  <i_lp_mmshare_version>  (258) 
48012

>  <i_f3d_flags>  (258) 
0

>  <s_epik_input>  (258) 
W0NIM11DMShbQ0gzXSlPW0NASF0xW0NAQEhdMltDQEhdKFtDQF0yMzQpW0NAQEhdKFtPSF0pT1tDQEhdM09bQ0BIXTVDND1bQ0hdW0NAQEhdNltDQEhdNUM2KFtDSDNdKVtDSDNd

>  <s_epik_cmdline>  (258) 
J2VwaWtfcHl0aG9uJywgJy1waHQnLCAnMi4wJywgJy1waCcsICc3LjAnLCAnLXRuJywgJzgnLCAnLW1hJywgJzIwMCcsICctaW1hZScsICc8aW5maWxlLm1hZT4nLCAnLW9tYWUnLCAnPG91dGZpbGUubWFlPic=

>  <r_lp_tautomer_probability>  (258) 
1

>  <r_epik_Ionization_Penalty>  (258) 
1.58735e-07

>  <r_epik_Ionization_Penalty_Charging>  (258) 
0

>  <r_epik_Ionization_Penalty_Neutral>  (258) 
1.58735e-07

>  <r_epik_State_Penalty>  (258) 
-0

>  <r_epik_Charging_Adjusted_Penalty>  (258) 
0

>  <i_epik_Tot_Q>  (258) 
0

>  <i_epik_Tot_abs_Q>  (258) 
0

>  <s_epik_Chemistry_Notes>  (258) 
This compound contains an acetal/aminal-like group ( X-CH(R)-Y where X, Y are N, S, or O) that may be acid/base labile, releasing an aldehyde.

>  <s_lp_Force_Field>  (258) 
OPLS3e

>  <r_lp_Energy>  (258) 
37.1168

>  <b_lp_Chiralities_Consistent>  (258) 
1

>  <s_lp_Variant>  (258) 
79:0-1

>  <s_i_glide_gridfile>  (258) 
pfpi4k_grid

>  <i_i_glide_lignum>  (258) 
19

>  <i_i_glide_rotatable_bonds>  (258) 
2

>  <r_i_docking_score>  (258) 
-3.20412

>  <r_i_glide_ligand_efficiency>  (258) 
-0.152577

>  <r_i_glide_ligand_efficiency_sa>  (258) 
-0.420948

>  <r_i_glide_ligand_efficiency_ln>  (258) 
-0.792211

>  <r_i_glide_gscore>  (258) 
-3.20412

>  <r_i_glide_lipo>  (258) 
-0.514636

>  <r_i_glide_hbond>  (258) 
0

>  <r_i_glide_metal>  (258) 
-0

>  <r_i_glide_rewards>  (258) 
-1.48539

>  <r_i_glide_evdw>  (258) 
-23.4648

>  <r_i_glide_ecoul>  (258) 
-1.46838

>  <r_i_glide_erotb>  (258) 
0.216162

>  <r_i_glide_esite>  (258) 
-0.026757

>  <r_i_glide_emodel>  (258) 
-30.0366

>  <r_i_glide_energy>  (258) 
-24.9332

>  <r_i_glide_einternal>  (258) 
0.0333823

>  <r_i_glide_intrahb_reward>  (258) 
-0

>  <i_i_glide_confnum>  (258) 
2

>  <i_i_glide_posenum>  (258) 
2

>  <r_i_glide_eff_state_penalty>  (258) 
0

>  <ligand_id>  (258) 
79

>  <original_smiles>  (258) 
CC1(C)OC1C1C2C(O)OC3OC4C(=CC5C4C5(C)C)C321

>  <smiles>  (258) 
[H]OC1([H])OC2([H])OC3([H])C(=C([H])C4([H])C3([H])C4(C([H])([H])[H])C([H])([H])[H])C23C1([H])C3([H])C1([H])OC1(C([H])([H])[H])C([H])([H])[H]

$$$$
79:0:2
     RDKit          3D

 43 48  0  0  1  0  0  0  0  0999 V2000
    4.9896   -3.2946    5.2455 C   0  0  0  0  0  0  0  0  0  0  0  0
    4.5976   -2.0547    4.4544 C   0  0  0  0  0  0  0  0  0  0  0  0
    4.2691   -0.8838    5.3383 C   0  0  0  0  0  0  0  0  0  0  0  0
    5.4301   -1.7305    3.3312 O   0  0  0  0  0  0  0  0  0  0  0  0
    4.0766   -2.1237    3.0354 C   0  0  1  0  0  0  0  0  0  0  0  0
    3.8940   -3.4534    2.3301 C   0  0  2  0  0  0  0  0  0  0  0  0
    5.0717   -4.3634    2.1252 C   0  0  1  0  0  0  0  0  0  0  0  0
    4.6924   -5.8298    1.9759 C   0  0  1  0  0  0  0  0  0  0  0  0
    4.2871   -6.3787    3.2024 O   0  0  0  0  0  0  0  0  0  0  0  0
    3.6655   -5.8581    0.9844 O   0  0  0  0  0  0  0  0  0  0  0  0
    3.9664   -4.8541    0.0725 C   0  0  1  0  0  0  0  0  0  0  0  0
    2.9307   -4.2577   -0.6877 O   0  0  0  0  0  0  0  0  0  0  0  0
    3.1103   -2.8345   -0.6389 C   0  0  1  0  0  0  0  0  0  0  0  0
    4.3924   -2.6030    0.0712 C   0  0  0  0  0  0  0  0  0  0  0  0
    5.1768   -1.6542   -0.4354 C   0  0  0  0  0  0  0  0  0  0  0  0
    4.5410   -1.1643   -1.6929 C   0  0  2  0  0  0  0  0  0  0  0  0
    3.2781   -2.0031   -1.9024 C   0  0  1  0  0  0  0  0  0  0  0  0
    4.3904   -2.0423   -2.9107 C   0  0  0  0  0  0  0  0  0  0  0  0
    4.0732   -1.4012   -4.2421 C   0  0  0  0  0  0  0  0  0  0  0  0
    5.2360   -3.2936   -3.0881 C   0  0  0  0  0  0  0  0  0  0  0  0
    4.4358   -3.7429    0.9371 C   0  0  1  0  0  0  0  0  0  0  0  0
    4.1044   -3.6958    5.7398 H   0  0  0  0  0  0  0  0  0  0  0  0
    5.7143   -3.0382    6.0260 H   0  0  0  0  0  0  0  0  0  0  0  0
    5.4246   -4.0687    4.6106 H   0  0  0  0  0  0  0  0  0  0  0  0
    3.3702   -1.1026    5.9095 H   0  0  0  0  0  0  0  0  0  0  0  0
    4.0995    0.0085    4.7336 H   0  0  0  0  0  0  0  0  0  0  0  0
    5.0957   -0.6901    6.0223 H   0  0  0  0  0  0  0  0  0  0  0  0
    3.4367   -1.2961    2.7157 H   0  0  0  0  0  0  0  0  0  0  0  0
    2.9194   -3.8995    2.5145 H   0  0  0  0  0  0  0  0  0  0  0  0
    6.0862   -4.0582    2.3962 H   0  0  0  0  0  0  0  0  0  0  0  0
    5.5219   -6.4375    1.6225 H   0  0  0  0  0  0  0  0  0  0  0  0
    3.5822   -5.8455    3.5527 H   0  0  0  0  0  0  0  0  0  0  0  0
    4.7581   -5.1933   -0.6051 H   0  0  0  0  0  0  0  0  0  0  0  0
    2.3109   -2.4002   -0.0339 H   0  0  0  0  0  0  0  0  0  0  0  0
    6.1899   -1.4118   -0.1354 H   0  0  0  0  0  0  0  0  0  0  0  0
    4.4286   -0.0854   -1.7852 H   0  0  0  0  0  0  0  0  0  0  0  0
    2.3699   -1.5374   -2.2711 H   0  0  0  0  0  0  0  0  0  0  0  0
    3.5419   -2.1061   -4.8808 H   0  0  0  0  0  0  0  0  0  0  0  0
    4.9860   -1.0559   -4.7240 H   0  0  0  0  0  0  0  0  0  0  0  0
    3.4349   -0.5289   -4.1085 H   0  0  0  0  0  0  0  0  0  0  0  0
    4.7031   -4.0347   -3.6992 H   0  0  0  0  0  0  0  0  0  0  0  0
    5.4471   -3.7215   -2.1169 H   0  0  0  0  0  0  0  0  0  0  0  0
    6.2023   -3.0406   -3.5234 H   0  0  0  0  0  0  0  0  0  0  0  0
  1  2  1  0
  1 22  1  0
  1 23  1  0
  1 24  1  0
  2  5  1  0
  2  3  1  0
  2  4  1  0
  3 25  1  0
  3 26  1  0
  3 27  1  0
  4  5  1  0
  5  6  1  0
  5 28  1  1
  6 21  1  0
  6  7  1  0
  6 29  1  6
  7 21  1  0
  7  8  1  0
  7 30  1  1
  8  9  1  0
  8 10  1  0
  8 31  1  6
  9 32  1  0
 10 11  1  0
 11 21  1  0
 11 12  1  0
 11 33  1  6
 12 13  1  0
 13 17  1  0
 13 14  1  0
 13 34  1  1
 14 15  2  0
 21 14  1  6
 15 16  1  0
 15 35  1  0
 16 18  1  0
 16 17  1  0
 16 36  1  6
 17 18  1  0
 17 37  1  6
 18 19  1  0
 18 20  1  0
 19 38  1  0
 19 39  1  0
 19 40  1  0
 20 41  1  0
 20 42  1  0
 20 43  1  0
M  END
>  <i_m_ct_stereo_status>  (259) 
1

>  <s_m_source_file>  (259) 
/var/tmp/pbs.5076255.sched01/tmpt7uccrld/92zpefy4ut.sdf

>  <i_m_source_file_index>  (259) 
19

>  <i_lp_mmshare_version>  (259) 
48012

>  <i_f3d_flags>  (259) 
0

>  <s_epik_input>  (259) 
W0NIM11DMShbQ0gzXSlPW0NASF0xW0NAQEhdMltDQEhdKFtDQF0yMzQpW0NAQEhdKFtPSF0pT1tDQEhdM09bQ0BIXTVDND1bQ0hdW0NAQEhdNltDQEhdNUM2KFtDSDNdKVtDSDNd

>  <s_epik_cmdline>  (259) 
J2VwaWtfcHl0aG9uJywgJy1waHQnLCAnMi4wJywgJy1waCcsICc3LjAnLCAnLXRuJywgJzgnLCAnLW1hJywgJzIwMCcsICctaW1hZScsICc8aW5maWxlLm1hZT4nLCAnLW9tYWUnLCAnPG91dGZpbGUubWFlPic=

>  <r_lp_tautomer_probability>  (259) 
1

>  <r_epik_Ionization_Penalty>  (259) 
1.58735e-07

>  <r_epik_Ionization_Penalty_Charging>  (259) 
0

>  <r_epik_Ionization_Penalty_Neutral>  (259) 
1.58735e-07

>  <r_epik_State_Penalty>  (259) 
-0

>  <r_epik_Charging_Adjusted_Penalty>  (259) 
0

>  <i_epik_Tot_Q>  (259) 
0

>  <i_epik_Tot_abs_Q>  (259) 
0

>  <s_epik_Chemistry_Notes>  (259) 
This compound contains an acetal/aminal-like group ( X-CH(R)-Y where X, Y are N, S, or O) that may be acid/base labile, releasing an aldehyde.

>  <s_lp_Force_Field>  (259) 
OPLS3e

>  <r_lp_Energy>  (259) 
37.1168

>  <b_lp_Chiralities_Consistent>  (259) 
1

>  <s_lp_Variant>  (259) 
79:0-1

>  <s_i_glide_gridfile>  (259) 
pfpi4k_grid

>  <i_i_glide_lignum>  (259) 
19

>  <i_i_glide_rotatable_bonds>  (259) 
2

>  <r_i_docking_score>  (259) 
-2.71542

>  <r_i_glide_ligand_efficiency>  (259) 
-0.129306

>  <r_i_glide_ligand_efficiency_sa>  (259) 
-0.356745

>  <r_i_glide_ligand_efficiency_ln>  (259) 
-0.671382

>  <r_i_glide_gscore>  (259) 
-2.71542

>  <r_i_glide_lipo>  (259) 
-0.405425

>  <r_i_glide_hbond>  (259) 
0

>  <r_i_glide_metal>  (259) 
-0

>  <r_i_glide_rewards>  (259) 
-1.45999

>  <r_i_glide_evdw>  (259) 
-21.1829

>  <r_i_glide_ecoul>  (259) 
0.0260464

>  <r_i_glide_erotb>  (259) 
0.216162

>  <r_i_glide_esite>  (259) 
-0.0109259

>  <r_i_glide_emodel>  (259) 
-25.0253

>  <r_i_glide_energy>  (259) 
-21.1569

>  <r_i_glide_einternal>  (259) 
0.591874

>  <r_i_glide_intrahb_reward>  (259) 
-0

>  <i_i_glide_confnum>  (259) 
5

>  <i_i_glide_posenum>  (259) 
14

>  <r_i_glide_eff_state_penalty>  (259) 
0

>  <ligand_id>  (259) 
79

>  <original_smiles>  (259) 
CC1(C)OC1C1C2C(O)OC3OC4C(=CC5C4C5(C)C)C321

>  <smiles>  (259) 
[H]OC1([H])OC2([H])OC3([H])C(=C([H])C4([H])C3([H])C4(C([H])([H])[H])C([H])([H])[H])C23C1([H])C3([H])C1([H])OC1(C([H])([H])[H])C([H])([H])[H]

$$$$
80:0:0
     RDKit          3D

 45 49  0  0  1  0  0  0  0  0999 V2000
    4.5513   -0.9033    3.0921 C   0  0  0  0  0  0  0  0  0  0  0  0
    5.3817   -0.8516    1.7954 C   0  0  2  0  0  0  0  0  0  0  0  0
    4.5878   -0.2664    0.6140 C   0  0  0  0  0  0  0  0  0  0  0  0
    3.5312   -1.1798    0.0046 C   0  0  0  0  0  0  0  0  0  0  0  0
    3.7448   -1.5079   -1.4458 C   0  0  1  0  0  0  0  0  0  0  0  0
    4.9968   -1.9763   -2.1238 C   0  0  1  0  0  0  0  0  0  0  0  0
    4.8466   -2.1752   -3.5172 O   0  0  0  0  0  0  0  0  0  0  0  0
    3.7063   -3.0648   -3.4164 C   0  0  1  0  0  0  0  0  0  0  0  0
    3.9257   -4.2498   -4.1119 O   0  0  0  0  0  0  0  0  0  0  0  0
    3.9034   -2.9307   -1.9186 C   0  0  2  0  0  0  0  0  0  0  0  0
    4.5714   -4.1120   -1.1750 C   0  0  1  0  0  0  0  0  0  0  0  0
    5.9328   -3.7857   -1.0226 O   0  0  0  0  0  0  0  0  0  0  0  0
    6.2684   -2.5714   -1.6000 C   0  0  2  0  0  0  0  0  0  0  0  0
    6.6983   -1.5945   -0.7357 O   0  0  0  0  0  0  0  0  0  0  0  0
    7.3343   -2.0096    0.3931 C   0  0  1  0  0  0  0  0  0  0  0  0
    8.3313   -1.0632    0.6702 O   0  0  0  0  0  0  0  0  0  0  0  0
    6.2500   -2.1146    1.5216 C   0  0  2  0  0  0  0  0  0  0  0  0
    5.8179   -3.5855    1.8316 C   0  0  0  0  0  0  0  0  0  0  0  0
    4.3838   -4.0498    1.5624 C   0  0  0  0  0  0  0  0  0  0  0  0
    4.0123   -4.6681    0.1777 C   0  0  1  0  0  0  0  0  0  0  0  0
    2.5101   -4.9305    0.1324 C   0  0  0  0  0  0  0  0  0  0  0  0
    3.6335   -1.4763    2.9705 H   0  0  0  0  0  0  0  0  0  0  0  0
    4.2546    0.1029    3.3965 H   0  0  0  0  0  0  0  0  0  0  0  0
    5.1192   -1.3356    3.9187 H   0  0  0  0  0  0  0  0  0  0  0  0
    6.1116   -0.0709    2.0128 H   0  0  0  0  0  0  0  0  0  0  0  0
    4.0685    0.6171    0.9732 H   0  0  0  0  0  0  0  0  0  0  0  0
    5.2569    0.1374   -0.1291 H   0  0  0  0  0  0  0  0  0  0  0  0
    3.3119   -2.0865    0.5154 H   0  0  0  0  0  0  0  0  0  0  0  0
    2.6074   -0.6251    0.0394 H   0  0  0  0  0  0  0  0  0  0  0  0
    3.1327   -0.8515   -2.0695 H   0  0  0  0  0  0  0  0  0  0  0  0
    2.7787   -2.5963   -3.7535 H   0  0  0  0  0  0  0  0  0  0  0  0
    3.4942   -4.9504   -3.6123 H   0  0  0  0  0  0  0  0  0  0  0  0
    4.6284   -4.9510   -1.8644 H   0  0  0  0  0  0  0  0  0  0  0  0
    7.0199   -2.7507   -2.3737 H   0  0  0  0  0  0  0  0  0  0  0  0
    7.8369   -2.9684    0.2164 H   0  0  0  0  0  0  0  0  0  0  0  0
    7.9487   -0.3162    1.1550 H   0  0  0  0  0  0  0  0  0  0  0  0
    6.8586   -1.9646    2.3864 H   0  0  0  0  0  0  0  0  0  0  0  0
    6.5331   -4.2936    1.4187 H   0  0  0  0  0  0  0  0  0  0  0  0
    5.9502   -3.7148    2.9087 H   0  0  0  0  0  0  0  0  0  0  0  0
    4.2347   -4.8509    2.2830 H   0  0  0  0  0  0  0  0  0  0  0  0
    3.6683   -3.3448    1.9472 H   0  0  0  0  0  0  0  0  0  0  0  0
    4.4808   -5.6462    0.2476 H   0  0  0  0  0  0  0  0  0  0  0  0
    1.9650   -3.9958    0.0655 H   0  0  0  0  0  0  0  0  0  0  0  0
    2.1845   -5.4486    1.0301 H   0  0  0  0  0  0  0  0  0  0  0  0
    2.2242   -5.5343   -0.7244 H   0  0  0  0  0  0  0  0  0  0  0  0
  1  2  1  0
  1 22  1  0
  1 23  1  0
  1 24  1  0
  2 17  1  0
  2  3  1  0
  2 25  1  1
  3  4  1  0
  3 26  1  0
  3 27  1  0
  4  5  1  0
  4 28  1  0
  4 29  1  0
  5 10  1  0
  5  6  1  0
  5 30  1  6
 10  6  1  6
  6 13  1  0
  6  7  1  6
  7  8  1  0
  8  9  1  0
  8 10  1  0
  8 31  1  1
  9 32  1  0
 10 11  1  0
 11 20  1  0
 11 12  1  0
 11 33  1  6
 12 13  1  0
 13 14  1  0
 13 34  1  6
 14 15  1  0
 15 16  1  0
 15 17  1  0
 15 35  1  6
 16 36  1  0
 17 18  1  0
 17 37  1  1
 18 19  1  0
 18 38  1  0
 18 39  1  0
 19 20  1  0
 19 40  1  0
 19 41  1  0
 20 21  1  0
 20 42  1  1
 21 43  1  0
 21 44  1  0
 21 45  1  0
M  END
>  <i_m_ct_stereo_status>  (260) 
1

>  <s_m_source_file>  (260) 
/var/tmp/pbs.5076255.sched01/tmpt7uccrld/92zpefy4ut.sdf

>  <i_m_source_file_index>  (260) 
20

>  <i_lp_mmshare_version>  (260) 
48012

>  <i_f3d_flags>  (260) 
0

>  <s_epik_input>  (260) 
TzFbQ0BASF0oW09IXSlbQ0BAXTIoW0NAQF0xMzQpW0NASF0zW0NIMl1bQ0gyXVtDQEBIXShbQ0gzXSlbQ0hdNVtDQEhdKFtPSF0pT1tDQEhdNE9bQ0BIXTJbQ0BIXShbQ0gzXSlbQ0gyXVtDSDJdNQ==

>  <s_epik_cmdline>  (260) 
J2VwaWtfcHl0aG9uJywgJy1waHQnLCAnMi4wJywgJy1waCcsICc3LjAnLCAnLXRuJywgJzgnLCAnLW1hJywgJzIwMCcsICctaW1hZScsICc8aW5maWxlLm1hZT4nLCAnLW9tYWUnLCAnPG91dGZpbGUubWFlPic=

>  <r_lp_tautomer_probability>  (260) 
1

>  <r_epik_Ionization_Penalty>  (260) 
3.39808e-07

>  <r_epik_Ionization_Penalty_Charging>  (260) 
0

>  <r_epik_Ionization_Penalty_Neutral>  (260) 
3.39808e-07

>  <r_epik_State_Penalty>  (260) 
-0

>  <r_epik_Charging_Adjusted_Penalty>  (260) 
0

>  <i_epik_Tot_Q>  (260) 
0

>  <i_epik_Tot_abs_Q>  (260) 
0

>  <s_epik_Chemistry_Notes>  (260) 
This compound contains an acetal/aminal-like group ( X-CH(R)-Y where X, Y are N, S, or O) that may be acid/base labile, releasing an aldehyde.

>  <s_lp_Force_Field>  (260) 
OPLS3e

>  <r_lp_Energy>  (260) 
75.5962

>  <b_lp_Chiralities_Consistent>  (260) 
1

>  <s_lp_Variant>  (260) 
80:0-1

>  <s_i_glide_gridfile>  (260) 
pfpi4k_grid

>  <i_i_glide_lignum>  (260) 
20

>  <i_i_glide_rotatable_bonds>  (260) 
2

>  <r_i_docking_score>  (260) 
-5.36306

>  <r_i_glide_ligand_efficiency>  (260) 
-0.255384

>  <r_i_glide_ligand_efficiency_sa>  (260) 
-0.704585

>  <r_i_glide_ligand_efficiency_ln>  (260) 
-1.32601

>  <r_i_glide_gscore>  (260) 
-5.36306

>  <r_i_glide_lipo>  (260) 
-0.502794

>  <r_i_glide_hbond>  (260) 
-0.137267

>  <r_i_glide_metal>  (260) 
-0

>  <r_i_glide_rewards>  (260) 
-1.6675

>  <r_i_glide_evdw>  (260) 
-11.7589

>  <r_i_glide_ecoul>  (260) 
-16.2521

>  <r_i_glide_erotb>  (260) 
0

>  <r_i_glide_esite>  (260) 
-0.0297383

>  <r_i_glide_emodel>  (260) 
-34.4346

>  <r_i_glide_energy>  (260) 
-28.011

>  <r_i_glide_einternal>  (260) 
1.92189

>  <r_i_glide_intrahb_reward>  (260) 
-0

>  <i_i_glide_confnum>  (260) 
2

>  <i_i_glide_posenum>  (260) 
24

>  <r_i_glide_eff_state_penalty>  (260) 
0

>  <ligand_id>  (260) 
80

>  <original_smiles>  (260) 
CC1CCC2C34OC(O)C23C2OC4OC(O)C1CCC2C

>  <smiles>  (260) 
[H]OC1([H])OC2([H])OC3([H])C([H])(C([H])([H])[H])C([H])([H])C([H])([H])C1([H])C([H])(C([H])([H])[H])C([H])([H])C([H])([H])C1([H])C24OC([H])(O[H])C314

$$$$
80:0:1
     RDKit          3D

 45 49  0  0  1  0  0  0  0  0999 V2000
    5.3249   -1.9743    3.2779 C   0  0  0  0  0  0  0  0  0  0  0  0
    6.0396   -1.7148    1.9319 C   0  0  2  0  0  0  0  0  0  0  0  0
    5.2618   -0.6709    1.0929 C   0  0  0  0  0  0  0  0  0  0  0  0
    3.9807   -1.1565    0.4215 C   0  0  0  0  0  0  0  0  0  0  0  0
    4.0085   -1.1358   -1.0820 C   0  0  1  0  0  0  0  0  0  0  0  0
    5.0284   -1.6428   -2.0805 C   0  0  1  0  0  0  0  0  0  0  0  0
    4.6278   -1.5663   -3.4583 O   0  0  0  0  0  0  0  0  0  0  0  0
    3.3338   -2.1766   -3.2912 C   0  0  1  0  0  0  0  0  0  0  0  0
    3.0368   -3.2152   -4.1820 O   0  0  0  0  0  0  0  0  0  0  0  0
    3.7828   -2.4175   -1.8589 C   0  0  2  0  0  0  0  0  0  0  0  0
    4.3289   -3.7956   -1.5459 C   0  0  1  0  0  0  0  0  0  0  0  0
    5.7294   -3.7551   -1.4669 O   0  0  0  0  0  0  0  0  0  0  0  0
    6.2174   -2.5234   -1.8599 C   0  0  2  0  0  0  0  0  0  0  0  0
    6.9936   -1.8998   -0.9126 O   0  0  0  0  0  0  0  0  0  0  0  0
    7.5900   -2.7530    0.0094 C   0  0  1  0  0  0  0  0  0  0  0  0
    8.7751   -2.1564    0.4473 O   0  0  0  0  0  0  0  0  0  0  0  0
    6.6171   -3.0084    1.2261 C   0  0  2  0  0  0  0  0  0  0  0  0
    5.9095   -4.3960    1.2224 C   0  0  0  0  0  0  0  0  0  0  0  0
    4.3849   -4.4941    1.0856 C   0  0  0  0  0  0  0  0  0  0  0  0
    3.7648   -4.6151   -0.3241 C   0  0  1  0  0  0  0  0  0  0  0  0
    2.2358   -4.5846   -0.2127 C   0  0  0  0  0  0  0  0  0  0  0  0
    4.2961   -2.3046    3.1671 H   0  0  0  0  0  0  0  0  0  0  0  0
    5.3008   -1.0671    3.8848 H   0  0  0  0  0  0  0  0  0  0  0  0
    5.8156   -2.7362    3.8856 H   0  0  0  0  0  0  0  0  0  0  0  0
    6.9292   -1.1452    2.2096 H   0  0  0  0  0  0  0  0  0  0  0  0
    4.9801    0.1337    1.7712 H   0  0  0  0  0  0  0  0  0  0  0  0
    5.9272   -0.1913    0.3818 H   0  0  0  0  0  0  0  0  0  0  0  0
    3.6558   -2.1224    0.7528 H   0  0  0  0  0  0  0  0  0  0  0  0
    3.1616   -0.4926    0.7225 H   0  0  0  0  0  0  0  0  0  0  0  0
    3.5338   -0.2699   -1.4565 H   0  0  0  0  0  0  0  0  0  0  0  0
    2.5844   -1.4134   -3.3584 H   0  0  0  0  0  0  0  0  0  0  0  0
    2.6284   -2.8034   -4.9456 H   0  0  0  0  0  0  0  0  0  0  0  0
    4.2506   -4.3375   -2.4864 H   0  0  0  0  0  0  0  0  0  0  0  0
    6.8136   -2.6705   -2.7599 H   0  0  0  0  0  0  0  0  0  0  0  0
    7.8813   -3.7016   -0.4793 H   0  0  0  0  0  0  0  0  0  0  0  0
    9.3679   -2.0724   -0.2887 H   0  0  0  0  0  0  0  0  0  0  0  0
    7.3301   -3.3209    1.9574 H   0  0  0  0  0  0  0  0  0  0  0  0
    6.4023   -5.0873    0.5374 H   0  0  0  0  0  0  0  0  0  0  0  0
    6.1136   -4.8395    2.1940 H   0  0  0  0  0  0  0  0  0  0  0  0
    4.1355   -5.4333    1.5850 H   0  0  0  0  0  0  0  0  0  0  0  0
    3.8777   -3.8046    1.7471 H   0  0  0  0  0  0  0  0  0  0  0  0
    4.0305   -5.6269   -0.6016 H   0  0  0  0  0  0  0  0  0  0  0  0
    1.8869   -3.5860    0.0461 H   0  0  0  0  0  0  0  0  0  0  0  0
    1.8988   -5.2853    0.5589 H   0  0  0  0  0  0  0  0  0  0  0  0
    1.7528   -4.8817   -1.1354 H   0  0  0  0  0  0  0  0  0  0  0  0
  1  2  1  0
  1 22  1  0
  1 23  1  0
  1 24  1  0
  2 17  1  0
  2  3  1  0
  2 25  1  1
  3  4  1  0
  3 26  1  0
  3 27  1  0
  4  5  1  0
  4 28  1  0
  4 29  1  0
  5 10  1  0
  5  6  1  0
  5 30  1  6
 10  6  1  6
  6 13  1  0
  6  7  1  6
  7  8  1  0
  8  9  1  0
  8 10  1  0
  8 31  1  1
  9 32  1  0
 10 11  1  0
 11 20  1  0
 11 12  1  0
 11 33  1  6
 12 13  1  0
 13 14  1  0
 13 34  1  6
 14 15  1  0
 15 16  1  0
 15 17  1  0
 15 35  1  6
 16 36  1  0
 17 18  1  0
 17 37  1  1
 18 19  1  0
 18 38  1  0
 18 39  1  0
 19 20  1  0
 19 40  1  0
 19 41  1  0
 20 21  1  0
 20 42  1  6
 21 43  1  0
 21 44  1  0
 21 45  1  0
M  END
>  <i_m_ct_stereo_status>  (261) 
1

>  <s_m_source_file>  (261) 
/var/tmp/pbs.5076255.sched01/tmpt7uccrld/92zpefy4ut.sdf

>  <i_m_source_file_index>  (261) 
20

>  <i_lp_mmshare_version>  (261) 
48012

>  <i_f3d_flags>  (261) 
0

>  <s_epik_input>  (261) 
TzFbQ0BASF0oW09IXSlbQ0BAXTIoW0NAQF0xMzQpW0NASF0zW0NIMl1bQ0gyXVtDQEBIXShbQ0gzXSlbQ0hdNVtDQEhdKFtPSF0pT1tDQEhdNE9bQ0BIXTJbQ0BIXShbQ0gzXSlbQ0gyXVtDSDJdNQ==

>  <s_epik_cmdline>  (261) 
J2VwaWtfcHl0aG9uJywgJy1waHQnLCAnMi4wJywgJy1waCcsICc3LjAnLCAnLXRuJywgJzgnLCAnLW1hJywgJzIwMCcsICctaW1hZScsICc8aW5maWxlLm1hZT4nLCAnLW9tYWUnLCAnPG91dGZpbGUubWFlPic=

>  <r_lp_tautomer_probability>  (261) 
1

>  <r_epik_Ionization_Penalty>  (261) 
3.39808e-07

>  <r_epik_Ionization_Penalty_Charging>  (261) 
0

>  <r_epik_Ionization_Penalty_Neutral>  (261) 
3.39808e-07

>  <r_epik_State_Penalty>  (261) 
-0

>  <r_epik_Charging_Adjusted_Penalty>  (261) 
0

>  <i_epik_Tot_Q>  (261) 
0

>  <i_epik_Tot_abs_Q>  (261) 
0

>  <s_epik_Chemistry_Notes>  (261) 
This compound contains an acetal/aminal-like group ( X-CH(R)-Y where X, Y are N, S, or O) that may be acid/base labile, releasing an aldehyde.

>  <s_lp_Force_Field>  (261) 
OPLS3e

>  <r_lp_Energy>  (261) 
75.5962

>  <b_lp_Chiralities_Consistent>  (261) 
1

>  <s_lp_Variant>  (261) 
80:0-1

>  <s_i_glide_gridfile>  (261) 
pfpi4k_grid

>  <i_i_glide_lignum>  (261) 
20

>  <i_i_glide_rotatable_bonds>  (261) 
2

>  <r_i_docking_score>  (261) 
-4.29334

>  <r_i_glide_ligand_efficiency>  (261) 
-0.204445

>  <r_i_glide_ligand_efficiency_sa>  (261) 
-0.564047

>  <r_i_glide_ligand_efficiency_ln>  (261) 
-1.06152

>  <r_i_glide_gscore>  (261) 
-4.29334

>  <r_i_glide_lipo>  (261) 
-0.503057

>  <r_i_glide_hbond>  (261) 
-0.16

>  <r_i_glide_metal>  (261) 
-0

>  <r_i_glide_rewards>  (261) 
-1.71095

>  <r_i_glide_evdw>  (261) 
-18.6011

>  <r_i_glide_ecoul>  (261) 
-6.40985

>  <r_i_glide_erotb>  (261) 
0

>  <r_i_glide_esite>  (261) 
-0.027795

>  <r_i_glide_emodel>  (261) 
-30.3761

>  <r_i_glide_energy>  (261) 
-25.011

>  <r_i_glide_einternal>  (261) 
1.31901

>  <r_i_glide_intrahb_reward>  (261) 
-0

>  <i_i_glide_confnum>  (261) 
1

>  <i_i_glide_posenum>  (261) 
14

>  <r_i_glide_eff_state_penalty>  (261) 
0

>  <ligand_id>  (261) 
80

>  <original_smiles>  (261) 
CC1CCC2C34OC(O)C23C2OC4OC(O)C1CCC2C

>  <smiles>  (261) 
[H]OC1([H])OC2([H])OC3([H])C([H])(C([H])([H])[H])C([H])([H])C([H])([H])C1([H])C([H])(C([H])([H])[H])C([H])([H])C([H])([H])C1([H])C24OC([H])(O[H])C314

$$$$
80:0:2
     RDKit          3D

 45 49  0  0  1  0  0  0  0  0999 V2000
    3.9247   -1.0703   -2.0076 C   0  0  0  0  0  0  0  0  0  0  0  0
    5.0046   -2.0578   -1.5285 C   0  0  2  0  0  0  0  0  0  0  0  0
    4.4933   -3.5158   -1.5970 C   0  0  0  0  0  0  0  0  0  0  0  0
    3.4943   -3.9844   -0.5275 C   0  0  0  0  0  0  0  0  0  0  0  0
    3.9579   -5.1051    0.3671 C   0  0  1  0  0  0  0  0  0  0  0  0
    5.2780   -5.2614    1.1266 C   0  0  1  0  0  0  0  0  0  0  0  0
    5.4075   -6.4323    1.9415 O   0  0  0  0  0  0  0  0  0  0  0  0
    4.1557   -6.2337    2.6410 C   0  0  1  0  0  0  0  0  0  0  0  0
    4.2322   -6.2766    4.0483 O   0  0  0  0  0  0  0  0  0  0  0  0
    4.0526   -4.9267    1.8888 C   0  0  2  0  0  0  0  0  0  0  0  0
    4.4692   -3.6510    2.6402 C   0  0  1  0  0  0  0  0  0  0  0  0
    5.8023   -3.3049    2.2675 O   0  0  0  0  0  0  0  0  0  0  0  0
    6.3407   -4.2438    1.3961 C   0  0  2  0  0  0  0  0  0  0  0  0
    6.7253   -3.7509    0.1534 O   0  0  0  0  0  0  0  0  0  0  0  0
    7.0490   -2.4194    0.1107 C   0  0  1  0  0  0  0  0  0  0  0  0
    8.0363   -2.2433   -0.8865 O   0  0  0  0  0  0  0  0  0  0  0  0
    5.7913   -1.5692   -0.2560 C   0  0  2  0  0  0  0  0  0  0  0  0
    5.1304   -0.8774    0.9797 C   0  0  0  0  0  0  0  0  0  0  0  0
    3.7347   -1.2787    1.4893 C   0  0  0  0  0  0  0  0  0  0  0  0
    3.5871   -2.3564    2.6111 C   0  0  1  0  0  0  0  0  0  0  0  0
    2.1046   -2.6539    2.8701 C   0  0  0  0  0  0  0  0  0  0  0  0
    3.0146   -1.1660   -1.4270 H   0  0  0  0  0  0  0  0  0  0  0  0
    3.6450   -1.2545   -3.0455 H   0  0  0  0  0  0  0  0  0  0  0  0
    4.2528   -0.0354   -1.9411 H   0  0  0  0  0  0  0  0  0  0  0  0
    5.7509   -2.0112   -2.3246 H   0  0  0  0  0  0  0  0  0  0  0  0
    3.9997   -3.6341   -2.5605 H   0  0  0  0  0  0  0  0  0  0  0  0
    5.3257   -4.2127   -1.6719 H   0  0  0  0  0  0  0  0  0  0  0  0
    3.0849   -3.2003    0.0642 H   0  0  0  0  0  0  0  0  0  0  0  0
    2.6098   -4.3481   -1.0584 H   0  0  0  0  0  0  0  0  0  0  0  0
    3.5618   -6.0428   -0.0118 H   0  0  0  0  0  0  0  0  0  0  0  0
    3.4206   -6.9465    2.2907 H   0  0  0  0  0  0  0  0  0  0  0  0
    4.3926   -7.1897    4.2649 H   0  0  0  0  0  0  0  0  0  0  0  0
    4.5186   -3.9525    3.6870 H   0  0  0  0  0  0  0  0  0  0  0  0
    7.1935   -4.7068    1.8835 H   0  0  0  0  0  0  0  0  0  0  0  0
    7.5061   -2.0935    1.0519 H   0  0  0  0  0  0  0  0  0  0  0  0
    8.8270   -2.6593   -0.5940 H   0  0  0  0  0  0  0  0  0  0  0  0
    6.2480   -0.6759   -0.6715 H   0  0  0  0  0  0  0  0  0  0  0  0
    5.8312   -0.8153    1.8149 H   0  0  0  0  0  0  0  0  0  0  0  0
    5.0119    0.1689    0.6880 H   0  0  0  0  0  0  0  0  0  0  0  0
    3.3556   -0.3703    1.9561 H   0  0  0  0  0  0  0  0  0  0  0  0
    3.0138   -1.3539    0.6853 H   0  0  0  0  0  0  0  0  0  0  0  0
    3.9357   -1.8282    3.4958 H   0  0  0  0  0  0  0  0  0  0  0  0
    1.6664   -3.1979    2.0322 H   0  0  0  0  0  0  0  0  0  0  0  0
    1.5464   -1.7208    2.9871 H   0  0  0  0  0  0  0  0  0  0  0  0
    1.9668   -3.2461    3.7769 H   0  0  0  0  0  0  0  0  0  0  0  0
  1  2  1  0
  1 22  1  0
  1 23  1  0
  1 24  1  0
  2 17  1  0
  2  3  1  0
  2 25  1  6
  3  4  1  0
  3 26  1  0
  3 27  1  0
  4  5  1  0
  4 28  1  0
  4 29  1  0
  5 10  1  0
  5  6  1  0
  5 30  1  1
 10  6  1  6
  6 13  1  0
  6  7  1  1
  7  8  1  0
  8  9  1  0
  8 10  1  0
  8 31  1  6
  9 32  1  0
 10 11  1  0
 11 20  1  0
 11 12  1  0
 11 33  1  1
 12 13  1  0
 13 14  1  0
 13 34  1  1
 14 15  1  0
 15 16  1  0
 15 17  1  0
 15 35  1  1
 16 36  1  0
 17 18  1  0
 17 37  1  6
 18 19  1  0
 18 38  1  0
 18 39  1  0
 19 20  1  0
 19 40  1  0
 19 41  1  0
 20 21  1  0
 20 42  1  1
 21 43  1  0
 21 44  1  0
 21 45  1  0
M  END
>  <i_m_ct_stereo_status>  (262) 
1

>  <s_m_source_file>  (262) 
/var/tmp/pbs.5076255.sched01/tmpt7uccrld/92zpefy4ut.sdf

>  <i_m_source_file_index>  (262) 
20

>  <i_lp_mmshare_version>  (262) 
48012

>  <i_f3d_flags>  (262) 
0

>  <s_epik_input>  (262) 
TzFbQ0BASF0oW09IXSlbQ0BAXTIoW0NAQF0xMzQpW0NASF0zW0NIMl1bQ0gyXVtDQEBIXShbQ0gzXSlbQ0hdNVtDQEhdKFtPSF0pT1tDQEhdNE9bQ0BIXTJbQ0BIXShbQ0gzXSlbQ0gyXVtDSDJdNQ==

>  <s_epik_cmdline>  (262) 
J2VwaWtfcHl0aG9uJywgJy1waHQnLCAnMi4wJywgJy1waCcsICc3LjAnLCAnLXRuJywgJzgnLCAnLW1hJywgJzIwMCcsICctaW1hZScsICc8aW5maWxlLm1hZT4nLCAnLW9tYWUnLCAnPG91dGZpbGUubWFlPic=

>  <r_lp_tautomer_probability>  (262) 
1

>  <r_epik_Ionization_Penalty>  (262) 
3.39808e-07

>  <r_epik_Ionization_Penalty_Charging>  (262) 
0

>  <r_epik_Ionization_Penalty_Neutral>  (262) 
3.39808e-07

>  <r_epik_State_Penalty>  (262) 
-0

>  <r_epik_Charging_Adjusted_Penalty>  (262) 
0

>  <i_epik_Tot_Q>  (262) 
0

>  <i_epik_Tot_abs_Q>  (262) 
0

>  <s_epik_Chemistry_Notes>  (262) 
This compound contains an acetal/aminal-like group ( X-CH(R)-Y where X, Y are N, S, or O) that may be acid/base labile, releasing an aldehyde.

>  <s_lp_Force_Field>  (262) 
OPLS3e

>  <r_lp_Energy>  (262) 
75.5962

>  <b_lp_Chiralities_Consistent>  (262) 
1

>  <s_lp_Variant>  (262) 
80:0-1

>  <s_i_glide_gridfile>  (262) 
pfpi4k_grid

>  <i_i_glide_lignum>  (262) 
20

>  <i_i_glide_rotatable_bonds>  (262) 
2

>  <r_i_docking_score>  (262) 
-3.38306

>  <r_i_glide_ligand_efficiency>  (262) 
-0.161098

>  <r_i_glide_ligand_efficiency_sa>  (262) 
-0.444457

>  <r_i_glide_ligand_efficiency_ln>  (262) 
-0.836454

>  <r_i_glide_gscore>  (262) 
-3.38306

>  <r_i_glide_lipo>  (262) 
-0.239109

>  <r_i_glide_hbond>  (262) 
0

>  <r_i_glide_metal>  (262) 
-0

>  <r_i_glide_rewards>  (262) 
-1.58092

>  <r_i_glide_evdw>  (262) 
-21.6923

>  <r_i_glide_ecoul>  (262) 
-3.18943

>  <r_i_glide_erotb>  (262) 
0

>  <r_i_glide_esite>  (262) 
0

>  <r_i_glide_emodel>  (262) 
-29.6076

>  <r_i_glide_energy>  (262) 
-24.8817

>  <r_i_glide_einternal>  (262) 
0.457445

>  <r_i_glide_intrahb_reward>  (262) 
-0

>  <i_i_glide_confnum>  (262) 
2

>  <i_i_glide_posenum>  (262) 
13

>  <r_i_glide_eff_state_penalty>  (262) 
0

>  <ligand_id>  (262) 
80

>  <original_smiles>  (262) 
CC1CCC2C34OC(O)C23C2OC4OC(O)C1CCC2C

>  <smiles>  (262) 
[H]OC1([H])OC2([H])OC3([H])C([H])(C([H])([H])[H])C([H])([H])C([H])([H])C1([H])C([H])(C([H])([H])[H])C([H])([H])C([H])([H])C1([H])C24OC([H])(O[H])C314

$$$$
80:1:0
     RDKit          3D

 45 49  0  0  1  0  0  0  0  0999 V2000
    4.7170   -1.3592    2.9909 C   0  0  0  0  0  0  0  0  0  0  0  0
    5.5916   -1.1850    1.7418 C   0  0  2  0  0  0  0  0  0  0  0  0
    4.8095   -0.3572    0.6904 C   0  0  0  0  0  0  0  0  0  0  0  0
    3.6158   -1.0993    0.0634 C   0  0  0  0  0  0  0  0  0  0  0  0
    3.7496   -1.5062   -1.4094 C   0  0  1  0  0  0  0  0  0  0  0  0
    4.9560   -1.9064   -2.2305 C   0  0  1  0  0  0  0  0  0  0  0  0
    4.6501   -1.9871   -3.6178 O   0  0  0  0  0  0  0  0  0  0  0  0
    3.6011   -2.9701   -3.4692 C   0  0  1  0  0  0  0  0  0  0  0  0
    3.8244   -4.1514   -4.2141 O   0  0  0  0  0  0  0  0  0  0  0  0
    3.9004   -2.9167   -1.9848 C   0  0  2  0  0  0  0  0  0  0  0  0
    4.7209   -4.1645   -1.4834 C   0  0  1  0  0  0  0  0  0  0  0  0
    6.0757   -3.8485   -1.5304 O   0  0  0  0  0  0  0  0  0  0  0  0
    6.2869   -2.5630   -1.9197 C   0  0  2  0  0  0  0  0  0  0  0  0
    6.9167   -1.7820   -1.0091 O   0  0  0  0  0  0  0  0  0  0  0  0
    7.3412   -2.3560    0.1703 C   0  0  1  0  0  0  0  0  0  0  0  0
    8.3277   -1.4976    0.7011 O   0  0  0  0  0  0  0  0  0  0  0  0
    6.0774   -2.5035    1.0823 C   0  0  1  0  0  0  0  0  0  0  0  0
    6.0100   -3.8618    1.8126 C   0  0  0  0  0  0  0  0  0  0  0  0
    5.6863   -5.0408    0.8682 C   0  0  0  0  0  0  0  0  0  0  0  0
    4.4739   -4.9258   -0.1220 C   0  0  1  0  0  0  0  0  0  0  0  0
    3.1375   -4.6940    0.5840 C   0  0  0  0  0  0  0  0  0  0  0  0
    3.8244   -1.9538    2.7929 H   0  0  0  0  0  0  0  0  0  0  0  0
    4.3798   -0.3939    3.3639 H   0  0  0  0  0  0  0  0  0  0  0  0
    5.2707   -1.8401    3.7952 H   0  0  0  0  0  0  0  0  0  0  0  0
    6.4566   -0.6099    2.0741 H   0  0  0  0  0  0  0  0  0  0  0  0
    4.4262    0.5479    1.1675 H   0  0  0  0  0  0  0  0  0  0  0  0
    5.4914    0.0041   -0.0673 H   0  0  0  0  0  0  0  0  0  0  0  0
    3.2706   -1.9414    0.6297 H   0  0  0  0  0  0  0  0  0  0  0  0
    2.7708   -0.4144    0.1171 H   0  0  0  0  0  0  0  0  0  0  0  0
    3.0823   -0.8575   -1.9653 H   0  0  0  0  0  0  0  0  0  0  0  0
    2.6418   -2.5274   -3.7030 H   0  0  0  0  0  0  0  0  0  0  0  0
    3.3977   -4.8594   -3.7233 H   0  0  0  0  0  0  0  0  0  0  0  0
    4.6584   -4.9322   -2.2466 H   0  0  0  0  0  0  0  0  0  0  0  0
    6.9499   -2.6274   -2.7663 H   0  0  0  0  0  0  0  0  0  0  0  0
    7.8253   -3.3071   -0.0424 H   0  0  0  0  0  0  0  0  0  0  0  0
    7.8839   -0.7939    1.1307 H   0  0  0  0  0  0  0  0  0  0  0  0
    5.2762   -2.7047    0.4125 H   0  0  0  0  0  0  0  0  0  0  0  0
    6.9410   -4.0994    2.3112 H   0  0  0  0  0  0  0  0  0  0  0  0
    5.2435   -3.8480    2.5838 H   0  0  0  0  0  0  0  0  0  0  0  0
    6.5979   -5.3136    0.3249 H   0  0  0  0  0  0  0  0  0  0  0  0
    5.5067   -5.8969    1.5117 H   0  0  0  0  0  0  0  0  0  0  0  0
    4.4013   -5.9462   -0.4786 H   0  0  0  0  0  0  0  0  0  0  0  0
    3.1915   -3.8772    1.2979 H   0  0  0  0  0  0  0  0  0  0  0  0
    2.8883   -5.5805    1.1648 H   0  0  0  0  0  0  0  0  0  0  0  0
    2.3367   -4.5110   -0.1379 H   0  0  0  0  0  0  0  0  0  0  0  0
  1  2  1  0
  1 22  1  0
  1 23  1  0
  1 24  1  0
  2 17  1  0
  2  3  1  0
  2 25  1  1
  3  4  1  0
  3 26  1  0
  3 27  1  0
  4  5  1  0
  4 28  1  0
  4 29  1  0
  5 10  1  0
  5  6  1  0
  5 30  1  6
 10  6  1  6
  6 13  1  0
  6  7  1  6
  7  8  1  0
  8  9  1  0
  8 10  1  0
  8 31  1  1
  9 32  1  0
 10 11  1  0
 11 20  1  0
 11 12  1  0
 11 33  1  6
 12 13  1  0
 13 14  1  0
 13 34  1  6
 14 15  1  0
 15 16  1  0
 15 17  1  0
 15 35  1  6
 16 36  1  0
 17 18  1  0
 17 37  1  6
 18 19  1  0
 18 38  1  0
 18 39  1  0
 19 20  1  0
 19 40  1  0
 19 41  1  0
 20 21  1  0
 20 42  1  6
 21 43  1  0
 21 44  1  0
 21 45  1  0
M  END
>  <i_m_ct_stereo_status>  (263) 
1

>  <s_m_source_file>  (263) 
/var/tmp/pbs.5076255.sched01/tmpt7uccrld/92zpefy4ut.sdf

>  <i_m_source_file_index>  (263) 
21

>  <i_lp_mmshare_version>  (263) 
48012

>  <i_f3d_flags>  (263) 
0

>  <s_epik_input>  (263) 
TzFbQ0BASF0oW09IXSlbQ0BAXTIoW0NAQF0xMzQpW0NASF0zW0NIMl1bQ0gyXVtDQEBIXShbQ0gzXSlbQ0hdNVtDQEhdKFtPSF0pT1tDQEhdNE9bQ0BIXTJbQ0BIXShbQ0gzXSlbQ0gyXVtDSDJdNQ==

>  <s_epik_cmdline>  (263) 
J2VwaWtfcHl0aG9uJywgJy1waHQnLCAnMi4wJywgJy1waCcsICc3LjAnLCAnLXRuJywgJzgnLCAnLW1hJywgJzIwMCcsICctaW1hZScsICc8aW5maWxlLm1hZT4nLCAnLW9tYWUnLCAnPG91dGZpbGUubWFlPic=

>  <r_lp_tautomer_probability>  (263) 
1

>  <r_epik_Ionization_Penalty>  (263) 
3.39808e-07

>  <r_epik_Ionization_Penalty_Charging>  (263) 
0

>  <r_epik_Ionization_Penalty_Neutral>  (263) 
3.39808e-07

>  <r_epik_State_Penalty>  (263) 
-0

>  <r_epik_Charging_Adjusted_Penalty>  (263) 
0

>  <i_epik_Tot_Q>  (263) 
0

>  <i_epik_Tot_abs_Q>  (263) 
0

>  <s_epik_Chemistry_Notes>  (263) 
This compound contains an acetal/aminal-like group ( X-CH(R)-Y where X, Y are N, S, or O) that may be acid/base labile, releasing an aldehyde.

>  <s_lp_Force_Field>  (263) 
OPLS3e

>  <r_lp_Energy>  (263) 
85.9831

>  <b_lp_Chiralities_Consistent>  (263) 
1

>  <s_lp_Variant>  (263) 
80:0-2

>  <s_i_glide_gridfile>  (263) 
pfpi4k_grid

>  <i_i_glide_lignum>  (263) 
21

>  <i_i_glide_rotatable_bonds>  (263) 
2

>  <r_i_docking_score>  (263) 
-5.4008

>  <r_i_glide_ligand_efficiency>  (263) 
-0.257181

>  <r_i_glide_ligand_efficiency_sa>  (263) 
-0.709543

>  <r_i_glide_ligand_efficiency_ln>  (263) 
-1.33534

>  <r_i_glide_gscore>  (263) 
-5.4008

>  <r_i_glide_lipo>  (263) 
-0.597148

>  <r_i_glide_hbond>  (263) 
-0.155029

>  <r_i_glide_metal>  (263) 
-0

>  <r_i_glide_rewards>  (263) 
-1.75408

>  <r_i_glide_evdw>  (263) 
-13.9214

>  <r_i_glide_ecoul>  (263) 
-14.4834

>  <r_i_glide_erotb>  (263) 
0

>  <r_i_glide_esite>  (263) 
-0.025969

>  <r_i_glide_emodel>  (263) 
-35.3423

>  <r_i_glide_energy>  (263) 
-28.4048

>  <r_i_glide_einternal>  (263) 
1.72376

>  <r_i_glide_intrahb_reward>  (263) 
-0

>  <i_i_glide_confnum>  (263) 
1

>  <i_i_glide_posenum>  (263) 
3

>  <r_i_glide_eff_state_penalty>  (263) 
0

>  <ligand_id>  (263) 
80

>  <original_smiles>  (263) 
CC1CCC2C34OC(O)C23C2OC4OC(O)C1CCC2C

>  <smiles>  (263) 
[H]OC1([H])OC2([H])OC3([H])C([H])(C([H])([H])[H])C([H])([H])C([H])([H])C1([H])C([H])(C([H])([H])[H])C([H])([H])C([H])([H])C1([H])C24OC([H])(O[H])C314

$$$$
80:1:1
     RDKit          3D

 45 49  0  0  1  0  0  0  0  0999 V2000
    5.3496   -1.3963    3.0771 C   0  0  0  0  0  0  0  0  0  0  0  0
    6.0756   -1.2919    1.7243 C   0  0  2  0  0  0  0  0  0  0  0  0
    5.2311   -0.3762    0.8134 C   0  0  0  0  0  0  0  0  0  0  0  0
    3.8838   -0.9795    0.3805 C   0  0  0  0  0  0  0  0  0  0  0  0
    3.8062   -1.3532   -1.0739 C   0  0  1  0  0  0  0  0  0  0  0  0
    4.8389   -1.8149   -2.0577 C   0  0  1  0  0  0  0  0  0  0  0  0
    4.3522   -1.9610   -3.3841 O   0  0  0  0  0  0  0  0  0  0  0  0
    3.1920   -2.7338   -3.0586 C   0  0  1  0  0  0  0  0  0  0  0  0
    3.0520   -3.8713   -3.8725 O   0  0  0  0  0  0  0  0  0  0  0  0
    3.7501   -2.7542   -1.6460 C   0  0  2  0  0  0  0  0  0  0  0  0
    4.5440   -4.0310   -1.2441 C   0  0  1  0  0  0  0  0  0  0  0  0
    5.8884   -3.8569   -1.5483 O   0  0  0  0  0  0  0  0  0  0  0  0
    6.1532   -2.5692   -1.9770 C   0  0  2  0  0  0  0  0  0  0  0  0
    7.0402   -1.8672   -1.1710 O   0  0  0  0  0  0  0  0  0  0  0  0
    7.4996   -2.5907   -0.0559 C   0  0  1  0  0  0  0  0  0  0  0  0
    8.6610   -1.9705    0.4730 O   0  0  0  0  0  0  0  0  0  0  0  0
    6.3399   -2.6367    0.9952 C   0  0  1  0  0  0  0  0  0  0  0  0
    6.2801   -3.9821    1.7303 C   0  0  0  0  0  0  0  0  0  0  0  0
    5.7039   -5.1265    0.8801 C   0  0  0  0  0  0  0  0  0  0  0  0
    4.3835   -4.8532    0.0834 C   0  0  1  0  0  0  0  0  0  0  0  0
    3.1889   -4.5425    0.9928 C   0  0  0  0  0  0  0  0  0  0  0  0
    4.3760   -1.8773    3.0077 H   0  0  0  0  0  0  0  0  0  0  0  0
    5.2142   -0.4073    3.5197 H   0  0  0  0  0  0  0  0  0  0  0  0
    5.8981   -1.9961    3.7883 H   0  0  0  0  0  0  0  0  0  0  0  0
    7.0223   -0.7939    1.9217 H   0  0  0  0  0  0  0  0  0  0  0  0
    5.0101    0.5514    1.3362 H   0  0  0  0  0  0  0  0  0  0  0  0
    5.8276   -0.0771   -0.0432 H   0  0  0  0  0  0  0  0  0  0  0  0
    3.5574   -1.8113    0.9904 H   0  0  0  0  0  0  0  0  0  0  0  0
    3.1175   -0.2250    0.5194 H   0  0  0  0  0  0  0  0  0  0  0  0
    3.0890   -0.6729   -1.5395 H   0  0  0  0  0  0  0  0  0  0  0  0
    2.2799   -2.1697   -3.1145 H   0  0  0  0  0  0  0  0  0  0  0  0
    2.9753   -4.6459   -3.3022 H   0  0  0  0  0  0  0  0  0  0  0  0
    4.3674   -4.7437   -2.0142 H   0  0  0  0  0  0  0  0  0  0  0  0
    6.5875   -2.6978   -2.9561 H   0  0  0  0  0  0  0  0  0  0  0  0
    7.8184   -3.5980   -0.3705 H   0  0  0  0  0  0  0  0  0  0  0  0
    9.3253   -1.9860   -0.1894 H   0  0  0  0  0  0  0  0  0  0  0  0
    5.4354   -2.7280    0.4671 H   0  0  0  0  0  0  0  0  0  0  0  0
    7.2812   -4.2766    2.0371 H   0  0  0  0  0  0  0  0  0  0  0  0
    5.6678   -3.9211    2.6271 H   0  0  0  0  0  0  0  0  0  0  0  0
    6.4811   -5.4795    0.2013 H   0  0  0  0  0  0  0  0  0  0  0  0
    5.5450   -5.9698    1.5511 H   0  0  0  0  0  0  0  0  0  0  0  0
    4.1563   -5.8543   -0.2798 H   0  0  0  0  0  0  0  0  0  0  0  0
    3.4198   -3.7417    1.6904 H   0  0  0  0  0  0  0  0  0  0  0  0
    2.9488   -5.4144    1.6060 H   0  0  0  0  0  0  0  0  0  0  0  0
    2.3098   -4.2822    0.3979 H   0  0  0  0  0  0  0  0  0  0  0  0
  1  2  1  0
  1 22  1  0
  1 23  1  0
  1 24  1  0
  2 17  1  0
  2  3  1  0
  2 25  1  1
  3  4  1  0
  3 26  1  0
  3 27  1  0
  4  5  1  0
  4 28  1  0
  4 29  1  0
  5 10  1  0
  5  6  1  0
  5 30  1  6
 10  6  1  6
  6 13  1  0
  6  7  1  6
  7  8  1  0
  8  9  1  0
  8 10  1  0
  8 31  1  1
  9 32  1  0
 10 11  1  0
 11 20  1  0
 11 12  1  0
 11 33  1  6
 12 13  1  0
 13 14  1  0
 13 34  1  6
 14 15  1  0
 15 16  1  0
 15 17  1  0
 15 35  1  6
 16 36  1  0
 17 18  1  0
 17 37  1  6
 18 19  1  0
 18 38  1  0
 18 39  1  0
 19 20  1  0
 19 40  1  0
 19 41  1  0
 20 21  1  0
 20 42  1  6
 21 43  1  0
 21 44  1  0
 21 45  1  0
M  END
>  <i_m_ct_stereo_status>  (264) 
1

>  <s_m_source_file>  (264) 
/var/tmp/pbs.5076255.sched01/tmpt7uccrld/92zpefy4ut.sdf

>  <i_m_source_file_index>  (264) 
21

>  <i_lp_mmshare_version>  (264) 
48012

>  <i_f3d_flags>  (264) 
0

>  <s_epik_input>  (264) 
TzFbQ0BASF0oW09IXSlbQ0BAXTIoW0NAQF0xMzQpW0NASF0zW0NIMl1bQ0gyXVtDQEBIXShbQ0gzXSlbQ0hdNVtDQEhdKFtPSF0pT1tDQEhdNE9bQ0BIXTJbQ0BIXShbQ0gzXSlbQ0gyXVtDSDJdNQ==

>  <s_epik_cmdline>  (264) 
J2VwaWtfcHl0aG9uJywgJy1waHQnLCAnMi4wJywgJy1waCcsICc3LjAnLCAnLXRuJywgJzgnLCAnLW1hJywgJzIwMCcsICctaW1hZScsICc8aW5maWxlLm1hZT4nLCAnLW9tYWUnLCAnPG91dGZpbGUubWFlPic=

>  <r_lp_tautomer_probability>  (264) 
1

>  <r_epik_Ionization_Penalty>  (264) 
3.39808e-07

>  <r_epik_Ionization_Penalty_Charging>  (264) 
0

>  <r_epik_Ionization_Penalty_Neutral>  (264) 
3.39808e-07

>  <r_epik_State_Penalty>  (264) 
-0

>  <r_epik_Charging_Adjusted_Penalty>  (264) 
0

>  <i_epik_Tot_Q>  (264) 
0

>  <i_epik_Tot_abs_Q>  (264) 
0

>  <s_epik_Chemistry_Notes>  (264) 
This compound contains an acetal/aminal-like group ( X-CH(R)-Y where X, Y are N, S, or O) that may be acid/base labile, releasing an aldehyde.

>  <s_lp_Force_Field>  (264) 
OPLS3e

>  <r_lp_Energy>  (264) 
85.9831

>  <b_lp_Chiralities_Consistent>  (264) 
1

>  <s_lp_Variant>  (264) 
80:0-2

>  <s_i_glide_gridfile>  (264) 
pfpi4k_grid

>  <i_i_glide_lignum>  (264) 
21

>  <i_i_glide_rotatable_bonds>  (264) 
2

>  <r_i_docking_score>  (264) 
-5.23492

>  <r_i_glide_ligand_efficiency>  (264) 
-0.249282

>  <r_i_glide_ligand_efficiency_sa>  (264) 
-0.68775

>  <r_i_glide_ligand_efficiency_ln>  (264) 
-1.29432

>  <r_i_glide_gscore>  (264) 
-5.23492

>  <r_i_glide_lipo>  (264) 
-0.666413

>  <r_i_glide_hbond>  (264) 
-0.16

>  <r_i_glide_metal>  (264) 
-0

>  <r_i_glide_rewards>  (264) 
-1.51942

>  <r_i_glide_evdw>  (264) 
-18.5356

>  <r_i_glide_ecoul>  (264) 
-12.9689

>  <r_i_glide_erotb>  (264) 
0

>  <r_i_glide_esite>  (264) 
-0.0169744

>  <r_i_glide_emodel>  (264) 
-38.4285

>  <r_i_glide_energy>  (264) 
-31.5046

>  <r_i_glide_einternal>  (264) 
2.00092

>  <r_i_glide_intrahb_reward>  (264) 
-0

>  <i_i_glide_confnum>  (264) 
1

>  <i_i_glide_posenum>  (264) 
6

>  <r_i_glide_eff_state_penalty>  (264) 
0

>  <ligand_id>  (264) 
80

>  <original_smiles>  (264) 
CC1CCC2C34OC(O)C23C2OC4OC(O)C1CCC2C

>  <smiles>  (264) 
[H]OC1([H])OC2([H])OC3([H])C([H])(C([H])([H])[H])C([H])([H])C([H])([H])C1([H])C([H])(C([H])([H])[H])C([H])([H])C([H])([H])C1([H])C24OC([H])(O[H])C314

$$$$
80:1:2
     RDKit          3D

 45 49  0  0  1  0  0  0  0  0999 V2000
    4.1772   -0.8346   -2.3250 C   0  0  0  0  0  0  0  0  0  0  0  0
    5.0269   -2.0511   -1.9101 C   0  0  2  0  0  0  0  0  0  0  0  0
    4.1901   -3.3426   -2.0790 C   0  0  0  0  0  0  0  0  0  0  0  0
    3.0427   -3.4853   -1.0516 C   0  0  0  0  0  0  0  0  0  0  0  0
    3.2090   -4.5630    0.0224 C   0  0  1  0  0  0  0  0  0  0  0  0
    4.4526   -5.1545    0.6873 C   0  0  1  0  0  0  0  0  0  0  0  0
    4.1604   -6.2851    1.4997 O   0  0  0  0  0  0  0  0  0  0  0  0
    3.1087   -5.6500    2.2799 C   0  0  1  0  0  0  0  0  0  0  0  0
    3.2360   -5.7730    3.6840 O   0  0  0  0  0  0  0  0  0  0  0  0
    3.4814   -4.3911    1.5321 C   0  0  2  0  0  0  0  0  0  0  0  0
    4.3846   -3.4019    2.3249 C   0  0  1  0  0  0  0  0  0  0  0  0
    5.7378   -3.6964    1.9930 O   0  0  0  0  0  0  0  0  0  0  0  0
    5.8423   -4.6403    0.9688 C   0  0  2  0  0  0  0  0  0  0  0  0
    6.4879   -4.2162   -0.2178 O   0  0  0  0  0  0  0  0  0  0  0  0
    6.8565   -2.8663   -0.2508 C   0  0  1  0  0  0  0  0  0  0  0  0
    7.8037   -2.6368   -1.2678 O   0  0  0  0  0  0  0  0  0  0  0  0
    5.5807   -2.0079   -0.4569 C   0  0  1  0  0  0  0  0  0  0  0  0
    5.6406   -0.6968    0.3438 C   0  0  0  0  0  0  0  0  0  0  0  0
    5.4004   -0.9337    1.8641 C   0  0  0  0  0  0  0  0  0  0  0  0
    4.1872   -1.8253    2.3176 C   0  0  1  0  0  0  0  0  0  0  0  0
    2.8269   -1.2736    1.8480 C   0  0  0  0  0  0  0  0  0  0  0  0
    3.3255   -0.6875   -1.6604 H   0  0  0  0  0  0  0  0  0  0  0  0
    3.7763   -0.9512   -3.3302 H   0  0  0  0  0  0  0  0  0  0  0  0
    4.7599    0.0854   -2.3205 H   0  0  0  0  0  0  0  0  0  0  0  0
    5.8344   -2.0868   -2.6358 H   0  0  0  0  0  0  0  0  0  0  0  0
    3.7540   -3.3427   -3.0788 H   0  0  0  0  0  0  0  0  0  0  0  0
    4.8331   -4.2232   -2.0708 H   0  0  0  0  0  0  0  0  0  0  0  0
    2.7464   -2.5570   -0.5960 H   0  0  0  0  0  0  0  0  0  0  0  0
    2.1583   -3.7835   -1.6232 H   0  0  0  0  0  0  0  0  0  0  0  0
    2.5141   -5.3531   -0.2430 H   0  0  0  0  0  0  0  0  0  0  0  0
    2.1381   -6.0224    1.9828 H   0  0  0  0  0  0  0  0  0  0  0  0
    3.0811   -6.6923    3.8799 H   0  0  0  0  0  0  0  0  0  0  0  0
    4.2983   -3.6880    3.3710 H   0  0  0  0  0  0  0  0  0  0  0  0
    6.4515   -5.4459    1.3677 H   0  0  0  0  0  0  0  0  0  0  0  0
    7.3689   -2.6336    0.6809 H   0  0  0  0  0  0  0  0  0  0  0  0
    7.4919   -3.0568   -2.0511 H   0  0  0  0  0  0  0  0  0  0  0  0
    4.8189   -2.4821    0.0958 H   0  0  0  0  0  0  0  0  0  0  0  0
    6.5816   -0.1646    0.1729 H   0  0  0  0  0  0  0  0  0  0  0  0
    4.8614   -0.0008    0.0219 H   0  0  0  0  0  0  0  0  0  0  0  0
    6.3204   -1.3009    2.3148 H   0  0  0  0  0  0  0  0  0  0  0  0
    5.2664    0.0507    2.3074 H   0  0  0  0  0  0  0  0  0  0  0  0
    4.1615   -1.6190    3.3844 H   0  0  0  0  0  0  0  0  0  0  0  0
    2.8133   -1.0386    0.7907 H   0  0  0  0  0  0  0  0  0  0  0  0
    2.6257   -0.3255    2.3457 H   0  0  0  0  0  0  0  0  0  0  0  0
    2.0030   -1.9512    2.0790 H   0  0  0  0  0  0  0  0  0  0  0  0
  1  2  1  0
  1 22  1  0
  1 23  1  0
  1 24  1  0
  2 17  1  0
  2  3  1  0
  2 25  1  6
  3  4  1  0
  3 26  1  0
  3 27  1  0
  4  5  1  0
  4 28  1  0
  4 29  1  0
  5 10  1  0
  5  6  1  0
  5 30  1  1
 10  6  1  6
  6 13  1  0
  6  7  1  1
  7  8  1  0
  8  9  1  0
  8 10  1  0
  8 31  1  6
  9 32  1  0
 10 11  1  0
 11 20  1  0
 11 12  1  0
 11 33  1  1
 12 13  1  0
 13 14  1  0
 13 34  1  1
 14 15  1  0
 15 16  1  0
 15 17  1  0
 15 35  1  1
 16 36  1  0
 17 18  1  0
 17 37  1  1
 18 19  1  0
 18 38  1  0
 18 39  1  0
 19 20  1  0
 19 40  1  0
 19 41  1  0
 20 21  1  0
 20 42  1  1
 21 43  1  0
 21 44  1  0
 21 45  1  0
M  END
>  <i_m_ct_stereo_status>  (265) 
1

>  <s_m_source_file>  (265) 
/var/tmp/pbs.5076255.sched01/tmpt7uccrld/92zpefy4ut.sdf

>  <i_m_source_file_index>  (265) 
21

>  <i_lp_mmshare_version>  (265) 
48012

>  <i_f3d_flags>  (265) 
0

>  <s_epik_input>  (265) 
TzFbQ0BASF0oW09IXSlbQ0BAXTIoW0NAQF0xMzQpW0NASF0zW0NIMl1bQ0gyXVtDQEBIXShbQ0gzXSlbQ0hdNVtDQEhdKFtPSF0pT1tDQEhdNE9bQ0BIXTJbQ0BIXShbQ0gzXSlbQ0gyXVtDSDJdNQ==

>  <s_epik_cmdline>  (265) 
J2VwaWtfcHl0aG9uJywgJy1waHQnLCAnMi4wJywgJy1waCcsICc3LjAnLCAnLXRuJywgJzgnLCAnLW1hJywgJzIwMCcsICctaW1hZScsICc8aW5maWxlLm1hZT4nLCAnLW9tYWUnLCAnPG91dGZpbGUubWFlPic=

>  <r_lp_tautomer_probability>  (265) 
1

>  <r_epik_Ionization_Penalty>  (265) 
3.39808e-07

>  <r_epik_Ionization_Penalty_Charging>  (265) 
0

>  <r_epik_Ionization_Penalty_Neutral>  (265) 
3.39808e-07

>  <r_epik_State_Penalty>  (265) 
-0

>  <r_epik_Charging_Adjusted_Penalty>  (265) 
0

>  <i_epik_Tot_Q>  (265) 
0

>  <i_epik_Tot_abs_Q>  (265) 
0

>  <s_epik_Chemistry_Notes>  (265) 
This compound contains an acetal/aminal-like group ( X-CH(R)-Y where X, Y are N, S, or O) that may be acid/base labile, releasing an aldehyde.

>  <s_lp_Force_Field>  (265) 
OPLS3e

>  <r_lp_Energy>  (265) 
85.9831

>  <b_lp_Chiralities_Consistent>  (265) 
1

>  <s_lp_Variant>  (265) 
80:0-2

>  <s_i_glide_gridfile>  (265) 
pfpi4k_grid

>  <i_i_glide_lignum>  (265) 
21

>  <i_i_glide_rotatable_bonds>  (265) 
2

>  <r_i_docking_score>  (265) 
-3.63176

>  <r_i_glide_ligand_efficiency>  (265) 
-0.172941

>  <r_i_glide_ligand_efficiency_sa>  (265) 
-0.477131

>  <r_i_glide_ligand_efficiency_ln>  (265) 
-0.897945

>  <r_i_glide_gscore>  (265) 
-3.63176

>  <r_i_glide_lipo>  (265) 
-0.379268

>  <r_i_glide_hbond>  (265) 
0

>  <r_i_glide_metal>  (265) 
-0

>  <r_i_glide_rewards>  (265) 
-1.56585

>  <r_i_glide_evdw>  (265) 
-25.0554

>  <r_i_glide_ecoul>  (265) 
-2.89247

>  <r_i_glide_erotb>  (265) 
0

>  <r_i_glide_esite>  (265) 
0

>  <r_i_glide_emodel>  (265) 
-33.6441

>  <r_i_glide_energy>  (265) 
-27.9479

>  <r_i_glide_einternal>  (265) 
0.513899

>  <r_i_glide_intrahb_reward>  (265) 
-0

>  <i_i_glide_confnum>  (265) 
2

>  <i_i_glide_posenum>  (265) 
21

>  <r_i_glide_eff_state_penalty>  (265) 
0

>  <ligand_id>  (265) 
80

>  <original_smiles>  (265) 
CC1CCC2C34OC(O)C23C2OC4OC(O)C1CCC2C

>  <smiles>  (265) 
[H]OC1([H])OC2([H])OC3([H])C([H])(C([H])([H])[H])C([H])([H])C([H])([H])C1([H])C([H])(C([H])([H])[H])C([H])([H])C([H])([H])C1([H])C24OC([H])(O[H])C314

$$$$
81:1:0
     RDKit          3D

 74 80  0  0  1  0  0  0  0  0999 V2000
    4.9699   -5.6736   -0.3673 C   0  0  0  0  0  0  0  0  0  0  0  0
    3.9971   -4.5657   -0.4816 N   0  0  2  0  0  0  0  0  0  0  0  0
    4.4951   -3.2987   -1.0732 C   0  0  0  0  0  0  0  0  0  0  0  0
    3.8837   -2.1440   -0.2647 C   0  0  1  0  0  0  0  0  0  0  0  0
    3.4145   -1.1430   -1.1511 O   0  0  0  0  0  0  0  0  0  0  0  0
    2.7537   -2.7806    0.5674 C   0  0  2  0  0  0  0  0  0  0  0  0
    2.6902   -2.2789    1.9119 O   0  0  0  0  0  0  0  0  0  0  0  0
    2.6090   -3.4367    2.7273 C   0  0  2  0  0  0  0  0  0  0  0  0
    2.4965   -3.3218    4.2746 C   0  0  0  0  0  0  0  0  0  0  0  0
    3.0554   -4.6015    4.9688 C   0  0  1  0  0  0  0  0  0  0  0  0
    4.5385   -4.2569    5.3345 C   0  0  0  0  0  0  0  0  0  0  0  0
    2.4111   -4.9948    6.2000 O   0  0  0  0  0  0  0  0  0  0  0  0
    2.7655   -6.3530    6.5666 C   0  0  2  0  0  0  0  0  0  0  0  0
    4.0317   -6.2819    7.4911 C   0  0  0  0  0  0  0  0  0  0  0  0
    3.1647   -6.9705    5.1769 C   0  0  1  0  0  0  0  0  0  0  0  0
    2.9465   -8.5226    5.0463 C   0  0  2  0  0  0  0  0  0  0  0  0
    1.7607   -9.0745    4.2626 C   0  0  0  0  0  0  0  0  0  0  0  0
    0.4645   -9.1422    4.6272 C   0  0  0  0  0  0  0  0  0  0  0  0
   -0.1960   -8.6467    5.9059 C   0  0  0  0  0  0  0  0  0  0  0  0
    0.3327   -7.2844    6.4031 C   0  0  0  0  0  0  0  0  0  0  0  0
   -0.3009   -6.2562    6.1440 O   0  0  0  0  0  0  0  0  0  0  0  0
    1.6153   -7.2143    7.2816 C   0  0  1  0  0  0  0  0  0  0  0  0
    2.1333   -8.6516    7.4917 C   0  0  0  0  0  0  0  0  0  0  0  0
    1.8764   -9.3505    8.6124 C   0  0  0  0  0  0  0  0  0  0  0  0
    1.0046   -8.7879    9.7179 C   0  0  0  0  0  0  0  0  0  0  0  0
    0.2939   -7.6192    9.2822 O   0  0  0  0  0  0  0  0  0  0  0  0
    1.0907   -6.6370    8.6670 C   0  0  1  0  0  0  0  0  0  0  0  0
    2.0937   -6.1909    9.5534 O   0  0  0  0  0  0  0  0  0  0  0  0
    2.9935   -9.2215    6.4192 C   0  0  0  0  0  0  0  0  0  0  0  0
    3.7250  -10.1904    6.5783 O   0  0  0  0  0  0  0  0  0  0  0  0
    2.7986   -5.8843    4.1006 C   0  0  1  0  0  0  0  0  0  0  0  0
    1.3108   -5.9517    3.6239 C   0  0  0  0  0  0  0  0  0  0  0  0
    3.6763   -5.8083    2.8050 C   0  0  0  0  0  0  0  0  0  0  0  0
    3.7019   -4.3738    2.1314 C   0  0  2  0  0  0  0  0  0  0  0  0
    5.1162   -3.7157    2.2720 C   0  0  0  0  0  0  0  0  0  0  0  0
    3.1352   -4.2659    0.6904 C   0  0  2  0  0  0  0  0  0  0  0  0
    5.8281   -5.4636    0.2733 H   0  0  0  0  0  0  0  0  0  0  0  0
    5.3279   -5.8227   -1.3777 H   0  0  0  0  0  0  0  0  0  0  0  0
    4.4767   -6.5981   -0.0502 H   0  0  0  0  0  0  0  0  0  0  0  0
    5.5807   -3.2496   -1.0801 H   0  0  0  0  0  0  0  0  0  0  0  0
    4.1736   -3.2705   -2.1164 H   0  0  0  0  0  0  0  0  0  0  0  0
    4.6458   -1.7292    0.3976 H   0  0  0  0  0  0  0  0  0  0  0  0
    2.4474   -1.1276   -1.1221 H   0  0  0  0  0  0  0  0  0  0  0  0
    1.8135   -2.6989    0.0389 H   0  0  0  0  0  0  0  0  0  0  0  0
    1.6200   -3.7954    2.4445 H   0  0  0  0  0  0  0  0  0  0  0  0
    3.0027   -2.4233    4.6220 H   0  0  0  0  0  0  0  0  0  0  0  0
    1.4528   -3.1662    4.5549 H   0  0  0  0  0  0  0  0  0  0  0  0
    4.9329   -3.3946    4.8043 H   0  0  0  0  0  0  0  0  0  0  0  0
    5.2479   -5.0618    5.1553 H   0  0  0  0  0  0  0  0  0  0  0  0
    4.6234   -3.9575    6.3780 H   0  0  0  0  0  0  0  0  0  0  0  0
    4.1329   -7.1349    8.1611 H   0  0  0  0  0  0  0  0  0  0  0  0
    4.0018   -5.3860    8.1126 H   0  0  0  0  0  0  0  0  0  0  0  0
    4.9817   -6.2403    6.9666 H   0  0  0  0  0  0  0  0  0  0  0  0
    4.2504   -6.9626    5.1432 H   0  0  0  0  0  0  0  0  0  0  0  0
    3.8092   -8.9155    4.5097 H   0  0  0  0  0  0  0  0  0  0  0  0
    2.0276   -9.4973    3.3026 H   0  0  0  0  0  0  0  0  0  0  0  0
   -0.2214   -9.6147    3.9399 H   0  0  0  0  0  0  0  0  0  0  0  0
   -1.2458   -8.5255    5.6489 H   0  0  0  0  0  0  0  0  0  0  0  0
   -0.1762   -9.4145    6.6772 H   0  0  0  0  0  0  0  0  0  0  0  0
    2.2837  -10.3415    8.7698 H   0  0  0  0  0  0  0  0  0  0  0  0
    0.2839   -9.5463   10.0197 H   0  0  0  0  0  0  0  0  0  0  0  0
    1.6199   -8.5774   10.5961 H   0  0  0  0  0  0  0  0  0  0  0  0
    0.4547   -5.7648    8.5089 H   0  0  0  0  0  0  0  0  0  0  0  0
    2.7295   -6.8828    9.6547 H   0  0  0  0  0  0  0  0  0  0  0  0
    0.8218   -6.8873    3.7716 H   0  0  0  0  0  0  0  0  0  0  0  0
    1.2063   -5.8181    2.5498 H   0  0  0  0  0  0  0  0  0  0  0  0
    0.6746   -5.2134    4.1075 H   0  0  0  0  0  0  0  0  0  0  0  0
    4.6916   -6.1264    3.0457 H   0  0  0  0  0  0  0  0  0  0  0  0
    3.3380   -6.5576    2.0897 H   0  0  0  0  0  0  0  0  0  0  0  0
    5.7846   -4.2770    2.9228 H   0  0  0  0  0  0  0  0  0  0  0  0
    5.0487   -2.7046    2.6766 H   0  0  0  0  0  0  0  0  0  0  0  0
    5.6581   -3.6155    1.3375 H   0  0  0  0  0  0  0  0  0  0  0  0
    2.2473   -4.8975    0.5995 H   0  0  0  0  0  0  0  0  0  0  0  0
    3.3649   -4.9047   -1.2023 H   0  0  0  0  0  0  0  0  0  0  0  0
  1  2  1  0
  1 37  1  0
  1 38  1  0
  1 39  1  0
  2 36  1  0
  2  3  1  0
  2 74  1  6
  3  4  1  0
  3 40  1  0
  3 41  1  0
  4  5  1  0
  4  6  1  0
  4 42  1  1
  5 43  1  0
  6 36  1  0
  6  7  1  0
  6 44  1  6
  7  8  1  0
  8 34  1  0
  8  9  1  0
  8 45  1  6
  9 10  1  0
  9 46  1  0
  9 47  1  0
 10 31  1  0
 10 11  1  1
 10 12  1  0
 11 48  1  0
 11 49  1  0
 11 50  1  0
 12 13  1  0
 13 22  1  0
 13 14  1  1
 13 15  1  0
 14 51  1  0
 14 52  1  0
 14 53  1  0
 15 16  1  0
 15 31  1  0
 15 54  1  1
 16 29  1  0
 16 17  1  0
 16 55  1  6
 17 18  2  3
 17 56  1  0
 18 19  1  0
 18 57  1  0
 19 20  1  0
 19 58  1  0
 19 59  1  0
 20 21  2  0
 22 20  1  6
 22 27  1  0
 22 23  1  0
 23 24  2  0
 23 29  1  0
 24 25  1  0
 24 60  1  0
 25 26  1  0
 25 61  1  0
 25 62  1  0
 26 27  1  0
 27 28  1  0
 27 63  1  6
 28 64  1  0
 29 30  2  0
 31 32  1  6
 31 33  1  0
 32 65  1  0
 32 66  1  0
 32 67  1  0
 33 34  1  0
 33 68  1  0
 33 69  1  0
 34 35  1  6
 34 36  1  0
 35 70  1  0
 35 71  1  0
 35 72  1  0
 36 73  1  1
M  CHG  1   2   1
M  END
>  <i_m_ct_stereo_status>  (266) 
1

>  <s_m_source_file>  (266) 
/var/tmp/pbs.5076255.sched01/tmpt7uccrld/92zpefy4ut.sdf

>  <i_m_source_file_index>  (266) 
23

>  <i_lp_mmshare_version>  (266) 
48012

>  <i_f3d_flags>  (266) 
0

>  <s_epik_input>  (266) 
W0NIM11OMVtDSDJdW0NAQEhdKFtPSF0pW0NASF0oTzIpW0NAQEhdMVtDQEBdKFtDSDJdMykoW0NIM10pW0NASF0yW0NIMl1bQ0BdKE80KShbQ0gzXSlbQ0BdMyhbQ0gzXSlbQ0BASF0oW0NAQF00KFtDQEBdNTY3KVtDSDNdKVtDQEhdKC9bQ0hdPVtDSF1cW0NIMl1DNT1PKUMoPU8pQzY9W0NIXVtDSDJdT1tDQEhdN1tPSF0=

>  <s_epik_cmdline>  (266) 
J2VwaWtfcHl0aG9uJywgJy1waHQnLCAnMi4wJywgJy1waCcsICc3LjAnLCAnLXRuJywgJzgnLCAnLW1hJywgJzIwMCcsICctaW1hZScsICc8aW5maWxlLm1hZT4nLCAnLW9tYWUnLCAnPG91dGZpbGUubWFlPic=

>  <r_epik_Ionization_Penalty>  (266) 
0.0515651

>  <r_epik_Ionization_Penalty_Charging>  (266) 
0.0515477

>  <r_epik_Ionization_Penalty_Neutral>  (266) 
1.73886e-05

>  <r_epik_State_Penalty>  (266) 
0.0441663

>  <r_epik_Charging_Adjusted_Penalty>  (266) 
0.0957139

>  <i_epik_Tot_Q>  (266) 
1

>  <i_epik_Tot_abs_Q>  (266) 
1

>  <s_epik_Chemistry_Notes>  (266) 
This compound contains an acetal/aminal-like group ( X-CH(R)-Y where X, Y are N, S, or O) that may be acid/base labile, releasing an aldehyde.

>  <s_lp_Force_Field>  (266) 
OPLS3e

>  <r_lp_Energy>  (266) 
119.064

>  <b_lp_Chiralities_Consistent>  (266) 
1

>  <s_lp_Variant>  (266) 
81:0-2

>  <s_i_glide_gridfile>  (266) 
pfpi4k_grid

>  <i_i_glide_lignum>  (266) 
23

>  <i_i_glide_rotatable_bonds>  (266) 
2

>  <r_i_docking_score>  (266) 
-2.74367

>  <r_i_glide_ligand_efficiency>  (266) 
-0.076213

>  <r_i_glide_ligand_efficiency_sa>  (266) 
-0.25165

>  <r_i_glide_ligand_efficiency_ln>  (266) 
-0.598595

>  <r_i_glide_gscore>  (266) 
-2.74367

>  <r_i_glide_lipo>  (266) 
-0.0626786

>  <r_i_glide_hbond>  (266) 
-0.188014

>  <r_i_glide_metal>  (266) 
-0

>  <r_i_glide_rewards>  (266) 
0

>  <r_i_glide_evdw>  (266) 
-16.0245

>  <r_i_glide_ecoul>  (266) 
-10.7469

>  <r_i_glide_erotb>  (266) 
0

>  <r_i_glide_esite>  (266) 
-0.0797131

>  <r_i_glide_emodel>  (266) 
-31.4268

>  <r_i_glide_energy>  (266) 
-26.7714

>  <r_i_glide_einternal>  (266) 
0.870216

>  <r_i_glide_intrahb_reward>  (266) 
-0

>  <i_i_glide_confnum>  (266) 
1

>  <i_i_glide_posenum>  (266) 
39

>  <r_i_glide_eff_state_penalty>  (266) 
0

>  <ligand_id>  (266) 
81

>  <original_smiles>  (266) 
CN1CC(O)C2OC3CC4(C)OC5(C)C(C6C=CCC(=O)C57C(=CCOC7O)C6=O)C4(C)CC3(C)C21

>  <smiles>  (266) 
[H]OC1([H])OC([H])([H])C([H])=C2C(=O)C3([H])C([H])=C([H])C([H])([H])C(=O)C21C1(C([H])([H])[H])OC2(C([H])([H])[H])C([H])([H])C4([H])OC5([H])C([H])(O[H])C([H])([H])[N+]([H])(C([H])([H])[H])C5([H])C4(C([H])([H])[H])C([H])([H])C2(C([H])([H])[H])C31[H]

$$$$
81:1:1
     RDKit          3D

 74 80  0  0  1  0  0  0  0  0999 V2000
    4.5006   -8.0913    7.2307 C   0  0  0  0  0  0  0  0  0  0  0  0
    3.7717   -9.0674    6.4183 N   0  0  2  0  0  0  0  0  0  0  0  0
    4.1035  -10.4827    6.6214 C   0  0  0  0  0  0  0  0  0  0  0  0
    4.0968  -11.1761    5.2382 C   0  0  1  0  0  0  0  0  0  0  0  0
    3.4938  -12.4566    5.2809 O   0  0  0  0  0  0  0  0  0  0  0  0
    3.3778  -10.1813    4.2941 C   0  0  2  0  0  0  0  0  0  0  0  0
    4.0257  -10.0769    3.0165 O   0  0  0  0  0  0  0  0  0  0  0  0
    4.1700   -8.6910    2.7736 C   0  0  2  0  0  0  0  0  0  0  0  0
    4.7937   -8.1554    1.4507 C   0  0  0  0  0  0  0  0  0  0  0  0
    5.4307   -6.7484    1.6573 C   0  0  1  0  0  0  0  0  0  0  0  0
    6.9468   -7.0116    1.9368 C   0  0  0  0  0  0  0  0  0  0  0  0
    5.3739   -5.8432    0.5337 O   0  0  0  0  0  0  0  0  0  0  0  0
    5.6610   -4.4824    0.9368 C   0  0  2  0  0  0  0  0  0  0  0  0
    7.2065   -4.2484    0.7921 C   0  0  0  0  0  0  0  0  0  0  0  0
    5.2890   -4.5099    2.4636 C   0  0  1  0  0  0  0  0  0  0  0  0
    4.8269   -3.1325    3.0697 C   0  0  2  0  0  0  0  0  0  0  0  0
    3.3510   -2.8668    3.3470 C   0  0  0  0  0  0  0  0  0  0  0  0
    2.3662   -2.5741    2.4665 C   0  0  0  0  0  0  0  0  0  0  0  0
    2.4495   -2.4356    0.9519 C   0  0  0  0  0  0  0  0  0  0  0  0
    3.3131   -3.5068    0.2738 C   0  0  0  0  0  0  0  0  0  0  0  0
    2.7454   -4.4845   -0.2174 O   0  0  0  0  0  0  0  0  0  0  0  0
    4.8558   -3.3269    0.1684 C   0  0  1  0  0  0  0  0  0  0  0  0
    5.2087   -1.9719    0.8006 C   0  0  0  0  0  0  0  0  0  0  0  0
    5.3947   -0.8619    0.0710 C   0  0  0  0  0  0  0  0  0  0  0  0
    5.1921   -0.8730   -1.4286 C   0  0  0  0  0  0  0  0  0  0  0  0
    4.5583   -2.0683   -1.8789 O   0  0  0  0  0  0  0  0  0  0  0  0
    5.1157   -3.2545   -1.3979 C   0  0  1  0  0  0  0  0  0  0  0  0
    6.4848   -3.3304   -1.8040 O   0  0  0  0  0  0  0  0  0  0  0  0
    5.3709   -1.9383    2.2709 C   0  0  0  0  0  0  0  0  0  0  0  0
    5.8352   -0.9733    2.8826 O   0  0  0  0  0  0  0  0  0  0  0  0
    4.6299   -5.9176    2.7216 C   0  0  1  0  0  0  0  0  0  0  0  0
    3.0959   -5.9435    2.4190 C   0  0  0  0  0  0  0  0  0  0  0  0
    4.8157   -6.5735    4.1337 C   0  0  0  0  0  0  0  0  0  0  0  0
    4.7269   -8.1543    4.1269 C   0  0  2  0  0  0  0  0  0  0  0  0
    6.1233   -8.7906    4.4239 C   0  0  0  0  0  0  0  0  0  0  0  0
    3.5842   -8.8058    4.9840 C   0  0  2  0  0  0  0  0  0  0  0  0
    5.5748   -8.0638    7.0271 H   0  0  0  0  0  0  0  0  0  0  0  0
    4.3879   -8.3269    8.2953 H   0  0  0  0  0  0  0  0  0  0  0  0
    4.1071   -7.0782    7.0856 H   0  0  0  0  0  0  0  0  0  0  0  0
    5.0716  -10.6229    7.1150 H   0  0  0  0  0  0  0  0  0  0  0  0
    3.3565  -10.9374    7.2847 H   0  0  0  0  0  0  0  0  0  0  0  0
    5.1207  -11.3025    4.8991 H   0  0  0  0  0  0  0  0  0  0  0  0
    2.7806  -12.4857    5.9010 H   0  0  0  0  0  0  0  0  0  0  0  0
    2.3171  -10.4066    4.2076 H   0  0  0  0  0  0  0  0  0  0  0  0
    3.1212   -8.4125    2.6708 H   0  0  0  0  0  0  0  0  0  0  0  0
    5.5282   -8.8705    1.0644 H   0  0  0  0  0  0  0  0  0  0  0  0
    4.0394   -8.1186    0.6664 H   0  0  0  0  0  0  0  0  0  0  0  0
    7.1704   -8.0388    2.2083 H   0  0  0  0  0  0  0  0  0  0  0  0
    7.3761   -6.4008    2.7282 H   0  0  0  0  0  0  0  0  0  0  0  0
    7.5436   -6.8659    1.0376 H   0  0  0  0  0  0  0  0  0  0  0  0
    7.4816   -3.2070    0.6342 H   0  0  0  0  0  0  0  0  0  0  0  0
    7.5973   -4.8062   -0.0588 H   0  0  0  0  0  0  0  0  0  0  0  0
    7.8069   -4.5644    1.6409 H   0  0  0  0  0  0  0  0  0  0  0  0
    6.2209   -4.6141    3.0060 H   0  0  0  0  0  0  0  0  0  0  0  0
    5.2867   -3.0576    4.0548 H   0  0  0  0  0  0  0  0  0  0  0  0
    3.0862   -2.9062    4.3948 H   0  0  0  0  0  0  0  0  0  0  0  0
    1.3846   -2.3839    2.8742 H   0  0  0  0  0  0  0  0  0  0  0  0
    1.4444   -2.6035    0.5787 H   0  0  0  0  0  0  0  0  0  0  0  0
    2.7057   -1.4225    0.6431 H   0  0  0  0  0  0  0  0  0  0  0  0
    5.6900    0.0787    0.5194 H   0  0  0  0  0  0  0  0  0  0  0  0
    4.5981   -0.0070   -1.7241 H   0  0  0  0  0  0  0  0  0  0  0  0
    6.1617   -0.7729   -1.9057 H   0  0  0  0  0  0  0  0  0  0  0  0
    4.6240   -4.0852   -1.9120 H   0  0  0  0  0  0  0  0  0  0  0  0
    6.4973   -3.4812   -2.7255 H   0  0  0  0  0  0  0  0  0  0  0  0
    2.6050   -4.9966    2.4348 H   0  0  0  0  0  0  0  0  0  0  0  0
    2.5304   -6.4969    3.1650 H   0  0  0  0  0  0  0  0  0  0  0  0
    2.8636   -6.3733    1.4467 H   0  0  0  0  0  0  0  0  0  0  0  0
    5.7722   -6.2513    4.5512 H   0  0  0  0  0  0  0  0  0  0  0  0
    4.0851   -6.1591    4.8295 H   0  0  0  0  0  0  0  0  0  0  0  0
    6.9337   -8.0607    4.4420 H   0  0  0  0  0  0  0  0  0  0  0  0
    6.3914   -9.5424    3.6777 H   0  0  0  0  0  0  0  0  0  0  0  0
    6.1890   -9.3012    5.3797 H   0  0  0  0  0  0  0  0  0  0  0  0
    2.6809   -8.1996    4.8532 H   0  0  0  0  0  0  0  0  0  0  0  0
    2.8158   -9.0273    6.7766 H   0  0  0  0  0  0  0  0  0  0  0  0
  1  2  1  0
  1 37  1  0
  1 38  1  0
  1 39  1  0
  2 36  1  0
  2  3  1  0
  2 74  1  1
  3  4  1  0
  3 40  1  0
  3 41  1  0
  4  5  1  0
  4  6  1  0
  4 42  1  6
  5 43  1  0
  6 36  1  0
  6  7  1  0
  6 44  1  6
  7  8  1  0
  8 34  1  0
  8  9  1  0
  8 45  1  6
  9 10  1  0
  9 46  1  0
  9 47  1  0
 10 31  1  0
 10 11  1  1
 10 12  1  0
 11 48  1  0
 11 49  1  0
 11 50  1  0
 12 13  1  0
 13 22  1  0
 13 14  1  1
 13 15  1  0
 14 51  1  0
 14 52  1  0
 14 53  1  0
 15 16  1  0
 15 31  1  0
 15 54  1  1
 16 29  1  0
 16 17  1  0
 16 55  1  1
 17 18  2  3
 17 56  1  0
 18 19  1  0
 18 57  1  0
 19 20  1  0
 19 58  1  0
 19 59  1  0
 20 21  2  0
 22 20  1  6
 22 27  1  0
 22 23  1  0
 23 24  2  0
 23 29  1  0
 24 25  1  0
 24 60  1  0
 25 26  1  0
 25 61  1  0
 25 62  1  0
 26 27  1  0
 27 28  1  0
 27 63  1  6
 28 64  1  0
 29 30  2  0
 31 32  1  6
 31 33  1  0
 32 65  1  0
 32 66  1  0
 32 67  1  0
 33 34  1  0
 33 68  1  0
 33 69  1  0
 34 35  1  1
 34 36  1  0
 35 70  1  0
 35 71  1  0
 35 72  1  0
 36 73  1  1
M  CHG  1   2   1
M  END
>  <i_m_ct_stereo_status>  (267) 
1

>  <s_m_source_file>  (267) 
/var/tmp/pbs.5076255.sched01/tmpt7uccrld/92zpefy4ut.sdf

>  <i_m_source_file_index>  (267) 
23

>  <i_lp_mmshare_version>  (267) 
48012

>  <i_f3d_flags>  (267) 
0

>  <s_epik_input>  (267) 
W0NIM11OMVtDSDJdW0NAQEhdKFtPSF0pW0NASF0oTzIpW0NAQEhdMVtDQEBdKFtDSDJdMykoW0NIM10pW0NASF0yW0NIMl1bQ0BdKE80KShbQ0gzXSlbQ0BdMyhbQ0gzXSlbQ0BASF0oW0NAQF00KFtDQEBdNTY3KVtDSDNdKVtDQEhdKC9bQ0hdPVtDSF1cW0NIMl1DNT1PKUMoPU8pQzY9W0NIXVtDSDJdT1tDQEhdN1tPSF0=

>  <s_epik_cmdline>  (267) 
J2VwaWtfcHl0aG9uJywgJy1waHQnLCAnMi4wJywgJy1waCcsICc3LjAnLCAnLXRuJywgJzgnLCAnLW1hJywgJzIwMCcsICctaW1hZScsICc8aW5maWxlLm1hZT4nLCAnLW9tYWUnLCAnPG91dGZpbGUubWFlPic=

>  <r_epik_Ionization_Penalty>  (267) 
0.0515651

>  <r_epik_Ionization_Penalty_Charging>  (267) 
0.0515477

>  <r_epik_Ionization_Penalty_Neutral>  (267) 
1.73886e-05

>  <r_epik_State_Penalty>  (267) 
0.0441663

>  <r_epik_Charging_Adjusted_Penalty>  (267) 
0.0957139

>  <i_epik_Tot_Q>  (267) 
1

>  <i_epik_Tot_abs_Q>  (267) 
1

>  <s_epik_Chemistry_Notes>  (267) 
This compound contains an acetal/aminal-like group ( X-CH(R)-Y where X, Y are N, S, or O) that may be acid/base labile, releasing an aldehyde.

>  <s_lp_Force_Field>  (267) 
OPLS3e

>  <r_lp_Energy>  (267) 
119.064

>  <b_lp_Chiralities_Consistent>  (267) 
1

>  <s_lp_Variant>  (267) 
81:0-2

>  <s_i_glide_gridfile>  (267) 
pfpi4k_grid

>  <i_i_glide_lignum>  (267) 
23

>  <i_i_glide_rotatable_bonds>  (267) 
2

>  <r_i_docking_score>  (267) 
-2.62341

>  <r_i_glide_ligand_efficiency>  (267) 
-0.0728726

>  <r_i_glide_ligand_efficiency_sa>  (267) 
-0.24062

>  <r_i_glide_ligand_efficiency_ln>  (267) 
-0.572358

>  <r_i_glide_gscore>  (267) 
-2.62341

>  <r_i_glide_lipo>  (267) 
-0.544452

>  <r_i_glide_hbond>  (267) 
0

>  <r_i_glide_metal>  (267) 
-0

>  <r_i_glide_rewards>  (267) 
-0.20111

>  <r_i_glide_evdw>  (267) 
-23.9243

>  <r_i_glide_ecoul>  (267) 
-4.43013

>  <r_i_glide_erotb>  (267) 
0

>  <r_i_glide_esite>  (267) 
-0.0171153

>  <r_i_glide_emodel>  (267) 
-32.6297

>  <r_i_glide_energy>  (267) 
-28.3545

>  <r_i_glide_einternal>  (267) 
1.02318

>  <r_i_glide_intrahb_reward>  (267) 
-0

>  <i_i_glide_confnum>  (267) 
1

>  <i_i_glide_posenum>  (267) 
7

>  <r_i_glide_eff_state_penalty>  (267) 
0

>  <ligand_id>  (267) 
81

>  <original_smiles>  (267) 
CN1CC(O)C2OC3CC4(C)OC5(C)C(C6C=CCC(=O)C57C(=CCOC7O)C6=O)C4(C)CC3(C)C21

>  <smiles>  (267) 
[H]OC1([H])OC([H])([H])C([H])=C2C(=O)C3([H])C([H])=C([H])C([H])([H])C(=O)C21C1(C([H])([H])[H])OC2(C([H])([H])[H])C([H])([H])C4([H])OC5([H])C([H])(O[H])C([H])([H])[N+]([H])(C([H])([H])[H])C5([H])C4(C([H])([H])[H])C([H])([H])C2(C([H])([H])[H])C31[H]

$$$$
81:1:2
     RDKit          3D

 74 80  0  0  1  0  0  0  0  0999 V2000
    6.3209   -4.9020    0.6076 C   0  0  0  0  0  0  0  0  0  0  0  0
    5.0958   -4.3393    0.0361 N   0  0  2  0  0  0  0  0  0  0  0  0
    5.2059   -3.0304   -0.6163 C   0  0  0  0  0  0  0  0  0  0  0  0
    3.9555   -2.2012   -0.2377 C   0  0  1  0  0  0  0  0  0  0  0  0
    3.4070   -1.5336   -1.3579 O   0  0  0  0  0  0  0  0  0  0  0  0
    2.9571   -3.2314    0.3256 C   0  0  2  0  0  0  0  0  0  0  0  0
    2.2645   -2.7295    1.4786 O   0  0  0  0  0  0  0  0  0  0  0  0
    2.3775   -3.7513    2.4498 C   0  0  2  0  0  0  0  0  0  0  0  0
    1.7097   -3.6163    3.8475 C   0  0  0  0  0  0  0  0  0  0  0  0
    2.4550   -4.4781    4.9105 C   0  0  1  0  0  0  0  0  0  0  0  0
    3.4634   -3.5049    5.6046 C   0  0  0  0  0  0  0  0  0  0  0  0
    1.6428   -5.0471    5.9605 O   0  0  0  0  0  0  0  0  0  0  0  0
    2.3503   -6.0936    6.6693 C   0  0  2  0  0  0  0  0  0  0  0  0
    3.1003   -5.4284    7.8795 C   0  0  0  0  0  0  0  0  0  0  0  0
    3.4092   -6.5505    5.5992 C   0  0  1  0  0  0  0  0  0  0  0  0
    3.8781   -8.0484    5.7186 C   0  0  2  0  0  0  0  0  0  0  0  0
    3.3424   -9.1079    4.7591 C   0  0  0  0  0  0  0  0  0  0  0  0
    2.1285   -9.7054    4.7397 C   0  0  0  0  0  0  0  0  0  0  0  0
    0.9353   -9.4924    5.6647 C   0  0  0  0  0  0  0  0  0  0  0  0
    0.6817   -8.0185    6.0207 C   0  0  0  0  0  0  0  0  0  0  0  0
   -0.1886   -7.3957    5.4067 O   0  0  0  0  0  0  0  0  0  0  0  0
    1.4690   -7.3367    7.1809 C   0  0  1  0  0  0  0  0  0  0  0  0
    2.4026   -8.3855    7.8051 C   0  0  0  0  0  0  0  0  0  0  0  0
    2.0934   -9.0543    8.9276 C   0  0  0  0  0  0  0  0  0  0  0  0
    0.7575   -8.8700    9.6156 C   0  0  0  0  0  0  0  0  0  0  0  0
   -0.1649   -8.1497    8.7942 O   0  0  0  0  0  0  0  0  0  0  0  0
    0.3288   -6.9675    8.2287 C   0  0  1  0  0  0  0  0  0  0  0  0
    0.7202   -6.0650    9.2650 O   0  0  0  0  0  0  0  0  0  0  0  0
    3.7233   -8.5757    7.1529 C   0  0  0  0  0  0  0  0  0  0  0  0
    4.6786   -9.1417    7.6896 O   0  0  0  0  0  0  0  0  0  0  0  0
    3.0337   -5.7889    4.2712 C   0  0  1  0  0  0  0  0  0  0  0  0
    1.9476   -6.5275    3.4208 C   0  0  0  0  0  0  0  0  0  0  0  0
    4.1904   -5.4113    3.2838 C   0  0  0  0  0  0  0  0  0  0  0  0
    3.8816   -4.1522    2.3766 C   0  0  2  0  0  0  0  0  0  0  0  0
    4.7787   -2.9379    2.7799 C   0  0  0  0  0  0  0  0  0  0  0  0
    3.8591   -4.3860    0.8256 C   0  0  2  0  0  0  0  0  0  0  0  0
    6.7362   -4.3184    1.4329 H   0  0  0  0  0  0  0  0  0  0  0  0
    7.1106   -4.9579   -0.1458 H   0  0  0  0  0  0  0  0  0  0  0  0
    6.1598   -5.9225    0.9723 H   0  0  0  0  0  0  0  0  0  0  0  0
    6.1155   -2.4933   -0.3319 H   0  0  0  0  0  0  0  0  0  0  0  0
    5.2687   -3.1705   -1.7023 H   0  0  0  0  0  0  0  0  0  0  0  0
    4.2088   -1.4643    0.5219 H   0  0  0  0  0  0  0  0  0  0  0  0
    2.5307   -1.2238   -1.1237 H   0  0  0  0  0  0  0  0  0  0  0  0
    2.2781   -3.5938   -0.4463 H   0  0  0  0  0  0  0  0  0  0  0  0
    1.7729   -4.5232    1.9774 H   0  0  0  0  0  0  0  0  0  0  0  0
    1.6664   -2.5639    4.1466 H   0  0  0  0  0  0  0  0  0  0  0  0
    0.6622   -3.9071    3.7915 H   0  0  0  0  0  0  0  0  0  0  0  0
    3.6403   -2.5883    5.0500 H   0  0  0  0  0  0  0  0  0  0  0  0
    4.4479   -3.9287    5.7908 H   0  0  0  0  0  0  0  0  0  0  0  0
    3.0679   -3.1407    6.5516 H   0  0  0  0  0  0  0  0  0  0  0  0
    3.2997   -6.1100    8.7044 H   0  0  0  0  0  0  0  0  0  0  0  0
    2.5149   -4.5995    8.2834 H   0  0  0  0  0  0  0  0  0  0  0  0
    4.0734   -5.0040    7.6467 H   0  0  0  0  0  0  0  0  0  0  0  0
    4.3463   -6.0720    5.8678 H   0  0  0  0  0  0  0  0  0  0  0  0
    4.9513   -8.0532    5.5263 H   0  0  0  0  0  0  0  0  0  0  0  0
    4.0543   -9.4141    4.0039 H   0  0  0  0  0  0  0  0  0  0  0  0
    1.9726  -10.4667    3.9889 H   0  0  0  0  0  0  0  0  0  0  0  0
    0.0551   -9.8329    5.1171 H   0  0  0  0  0  0  0  0  0  0  0  0
    0.9988  -10.1325    6.5440 H   0  0  0  0  0  0  0  0  0  0  0  0
    2.7775   -9.7606    9.3805 H   0  0  0  0  0  0  0  0  0  0  0  0
    0.3522   -9.8547    9.8466 H   0  0  0  0  0  0  0  0  0  0  0  0
    0.9071   -8.3677   10.5739 H   0  0  0  0  0  0  0  0  0  0  0  0
   -0.5044   -6.4614    7.7386 H   0  0  0  0  0  0  0  0  0  0  0  0
    1.5186   -6.3837    9.6311 H   0  0  0  0  0  0  0  0  0  0  0  0
    1.8462   -7.5741    3.6042 H   0  0  0  0  0  0  0  0  0  0  0  0
    2.1658   -6.5153    2.3554 H   0  0  0  0  0  0  0  0  0  0  0  0
    0.9496   -6.1171    3.5560 H   0  0  0  0  0  0  0  0  0  0  0  0
    5.1036   -5.2440    3.8577 H   0  0  0  0  0  0  0  0  0  0  0  0
    4.4377   -6.2742    2.6637 H   0  0  0  0  0  0  0  0  0  0  0  0
    5.3522   -3.1122    3.6905 H   0  0  0  0  0  0  0  0  0  0  0  0
    4.1864   -2.0357    2.9472 H   0  0  0  0  0  0  0  0  0  0  0  0
    5.5183   -2.6598    2.0360 H   0  0  0  0  0  0  0  0  0  0  0  0
    3.3625   -5.3413    0.6294 H   0  0  0  0  0  0  0  0  0  0  0  0
    4.8806   -4.9534   -0.7519 H   0  0  0  0  0  0  0  0  0  0  0  0
  1  2  1  0
  1 37  1  0
  1 38  1  0
  1 39  1  0
  2 36  1  0
  2  3  1  0
  2 74  1  6
  3  4  1  0
  3 40  1  0
  3 41  1  0
  4  5  1  0
  4  6  1  0
  4 42  1  1
  5 43  1  0
  6 36  1  0
  6  7  1  0
  6 44  1  6
  7  8  1  0
  8 34  1  0
  8  9  1  0
  8 45  1  6
  9 10  1  0
  9 46  1  0
  9 47  1  0
 10 31  1  0
 10 11  1  1
 10 12  1  0
 11 48  1  0
 11 49  1  0
 11 50  1  0
 12 13  1  0
 13 22  1  0
 13 14  1  1
 13 15  1  0
 14 51  1  0
 14 52  1  0
 14 53  1  0
 15 16  1  0
 15 31  1  0
 15 54  1  1
 16 29  1  0
 16 17  1  0
 16 55  1  6
 17 18  2  3
 17 56  1  0
 18 19  1  0
 18 57  1  0
 19 20  1  0
 19 58  1  0
 19 59  1  0
 20 21  2  0
 22 20  1  6
 22 27  1  0
 22 23  1  0
 23 24  2  0
 23 29  1  0
 24 25  1  0
 24 60  1  0
 25 26  1  0
 25 61  1  0
 25 62  1  0
 26 27  1  0
 27 28  1  0
 27 63  1  6
 28 64  1  0
 29 30  2  0
 31 32  1  6
 31 33  1  0
 32 65  1  0
 32 66  1  0
 32 67  1  0
 33 34  1  0
 33 68  1  0
 33 69  1  0
 34 35  1  6
 34 36  1  0
 35 70  1  0
 35 71  1  0
 35 72  1  0
 36 73  1  1
M  CHG  1   2   1
M  END
>  <i_m_ct_stereo_status>  (268) 
1

>  <s_m_source_file>  (268) 
/var/tmp/pbs.5076255.sched01/tmpt7uccrld/92zpefy4ut.sdf

>  <i_m_source_file_index>  (268) 
23

>  <i_lp_mmshare_version>  (268) 
48012

>  <i_f3d_flags>  (268) 
0

>  <s_epik_input>  (268) 
W0NIM11OMVtDSDJdW0NAQEhdKFtPSF0pW0NASF0oTzIpW0NAQEhdMVtDQEBdKFtDSDJdMykoW0NIM10pW0NASF0yW0NIMl1bQ0BdKE80KShbQ0gzXSlbQ0BdMyhbQ0gzXSlbQ0BASF0oW0NAQF00KFtDQEBdNTY3KVtDSDNdKVtDQEhdKC9bQ0hdPVtDSF1cW0NIMl1DNT1PKUMoPU8pQzY9W0NIXVtDSDJdT1tDQEhdN1tPSF0=

>  <s_epik_cmdline>  (268) 
J2VwaWtfcHl0aG9uJywgJy1waHQnLCAnMi4wJywgJy1waCcsICc3LjAnLCAnLXRuJywgJzgnLCAnLW1hJywgJzIwMCcsICctaW1hZScsICc8aW5maWxlLm1hZT4nLCAnLW9tYWUnLCAnPG91dGZpbGUubWFlPic=

>  <r_epik_Ionization_Penalty>  (268) 
0.0515651

>  <r_epik_Ionization_Penalty_Charging>  (268) 
0.0515477

>  <r_epik_Ionization_Penalty_Neutral>  (268) 
1.73886e-05

>  <r_epik_State_Penalty>  (268) 
0.0441663

>  <r_epik_Charging_Adjusted_Penalty>  (268) 
0.0957139

>  <i_epik_Tot_Q>  (268) 
1

>  <i_epik_Tot_abs_Q>  (268) 
1

>  <s_epik_Chemistry_Notes>  (268) 
This compound contains an acetal/aminal-like group ( X-CH(R)-Y where X, Y are N, S, or O) that may be acid/base labile, releasing an aldehyde.

>  <s_lp_Force_Field>  (268) 
OPLS3e

>  <r_lp_Energy>  (268) 
119.064

>  <b_lp_Chiralities_Consistent>  (268) 
1

>  <s_lp_Variant>  (268) 
81:0-2

>  <s_i_glide_gridfile>  (268) 
pfpi4k_grid

>  <i_i_glide_lignum>  (268) 
23

>  <i_i_glide_rotatable_bonds>  (268) 
2

>  <r_i_docking_score>  (268) 
-2.45568

>  <r_i_glide_ligand_efficiency>  (268) 
-0.0682133

>  <r_i_glide_ligand_efficiency_sa>  (268) 
-0.225235

>  <r_i_glide_ligand_efficiency_ln>  (268) 
-0.535763

>  <r_i_glide_gscore>  (268) 
-2.45568

>  <r_i_glide_lipo>  (268) 
-0.196865

>  <r_i_glide_hbond>  (268) 
-0.152693

>  <r_i_glide_metal>  (268) 
-0

>  <r_i_glide_rewards>  (268) 
0

>  <r_i_glide_evdw>  (268) 
-18.9587

>  <r_i_glide_ecoul>  (268) 
-7.37755

>  <r_i_glide_erotb>  (268) 
0

>  <r_i_glide_esite>  (268) 
-0.0515522

>  <r_i_glide_emodel>  (268) 
-30.6379

>  <r_i_glide_energy>  (268) 
-26.3363

>  <r_i_glide_einternal>  (268) 
0.577288

>  <r_i_glide_intrahb_reward>  (268) 
-0

>  <i_i_glide_confnum>  (268) 
1

>  <i_i_glide_posenum>  (268) 
21

>  <r_i_glide_eff_state_penalty>  (268) 
0

>  <ligand_id>  (268) 
81

>  <original_smiles>  (268) 
CN1CC(O)C2OC3CC4(C)OC5(C)C(C6C=CCC(=O)C57C(=CCOC7O)C6=O)C4(C)CC3(C)C21

>  <smiles>  (268) 
[H]OC1([H])OC([H])([H])C([H])=C2C(=O)C3([H])C([H])=C([H])C([H])([H])C(=O)C21C1(C([H])([H])[H])OC2(C([H])([H])[H])C([H])([H])C4([H])OC5([H])C([H])(O[H])C([H])([H])[N+]([H])(C([H])([H])[H])C5([H])C4(C([H])([H])[H])C([H])([H])C2(C([H])([H])[H])C31[H]

$$$$
82:0:0
     RDKit          3D

 19 20  0  0  1  0  0  0  0  0999 V2000
   -6.4333   -4.2786   -4.2204 C   0  0  0  0  0  0  0  0  0  0  0  0
   -6.4241   -5.5425   -5.0537 C   0  0  0  0  0  0  0  0  0  0  0  0
   -7.3974   -5.7066   -6.0717 C   0  0  0  0  0  0  0  0  0  0  0  0
   -7.3862   -6.8526   -6.8296 C   0  0  0  0  0  0  0  0  0  0  0  0
   -8.4100   -7.0446   -7.9338 C   0  0  0  0  0  0  0  0  0  0  0  0
   -6.3974   -7.8341   -6.5533 C   0  0  0  0  0  0  0  0  0  0  0  0
   -6.0811   -9.0302   -7.0594 N   0  0  0  0  0  0  0  0  0  0  0  0
   -4.9950   -9.5095   -6.3408 N   0  0  0  0  0  0  0  0  0  0  0  0
   -4.6686   -8.5936   -5.4273 C   0  0  0  0  0  0  0  0  0  0  0  0
   -5.5028   -7.5252   -5.5101 N   0  0  0  0  0  0  0  0  0  0  0  0
   -5.4605   -6.4054   -4.7365 N   0  0  0  0  0  0  0  0  0  0  0  0
   -7.2323   -3.6066   -4.5336 H   0  0  0  0  0  0  0  0  0  0  0  0
   -5.4873   -3.7459   -4.3215 H   0  0  0  0  0  0  0  0  0  0  0  0
   -6.5864   -4.5134   -3.1661 H   0  0  0  0  0  0  0  0  0  0  0  0
   -8.1399   -4.9378   -6.2626 H   0  0  0  0  0  0  0  0  0  0  0  0
   -8.2778   -7.9965   -8.4478 H   0  0  0  0  0  0  0  0  0  0  0  0
   -8.3214   -6.2479   -8.6733 H   0  0  0  0  0  0  0  0  0  0  0  0
   -9.4189   -7.0199   -7.5217 H   0  0  0  0  0  0  0  0  0  0  0  0
   -3.8566   -8.6946   -4.7246 H   0  0  0  0  0  0  0  0  0  0  0  0
  1  2  1  0
  1 12  1  0
  1 13  1  0
  1 14  1  0
  2 11  2  0
  2  3  1  0
  3  4  2  0
  3 15  1  0
  4  5  1  0
  4  6  1  0
  5 16  1  0
  5 17  1  0
  5 18  1  0
  6 10  1  0
  6  7  2  0
  7  8  1  0
  8  9  2  0
  9 10  1  0
  9 19  1  0
 10 11  1  0
M  END
>  <i_m_ct_stereo_status>  (269) 
1

>  <s_m_source_file>  (269) 
/var/tmp/pbs.5076255.sched01/tmpt7uccrld/92zpefy4ut.sdf

>  <i_m_source_file_index>  (269) 
26

>  <i_lp_mmshare_version>  (269) 
48012

>  <i_f3d_flags>  (269) 
0

>  <s_epik_input>  (269) 
W0NIM11jMVtjSF1jKFtDSDNdKW5uKGMxMilbY0hdbm4y

>  <s_epik_cmdline>  (269) 
J2VwaWtfcHl0aG9uJywgJy1waHQnLCAnMi4wJywgJy1waCcsICc3LjAnLCAnLXRuJywgJzgnLCAnLW1hJywgJzIwMCcsICctaW1hZScsICc8aW5maWxlLm1hZT4nLCAnLW9tYWUnLCAnPG91dGZpbGUubWFlPic=

>  <r_lp_tautomer_probability>  (269) 
1

>  <r_epik_Ionization_Penalty>  (269) 
8.71981e-07

>  <r_epik_Ionization_Penalty_Charging>  (269) 
0

>  <r_epik_Ionization_Penalty_Neutral>  (269) 
8.71981e-07

>  <r_epik_State_Penalty>  (269) 
-0

>  <r_epik_Charging_Adjusted_Penalty>  (269) 
0

>  <i_epik_Tot_Q>  (269) 
0

>  <i_epik_Tot_abs_Q>  (269) 
0

>  <s_lp_Force_Field>  (269) 
OPLS3e

>  <r_lp_Energy>  (269) 
9.84663

>  <b_lp_Chiralities_Consistent>  (269) 
1

>  <s_lp_Variant>  (269) 
82:0-1

>  <s_i_glide_gridfile>  (269) 
pfpi4k_grid

>  <i_i_glide_lignum>  (269) 
26

>  <i_i_glide_rotatable_bonds>  (269) 
0

>  <r_i_docking_score>  (269) 
-6.95265

>  <r_i_glide_ligand_efficiency>  (269) 
-0.632059

>  <r_i_glide_ligand_efficiency_sa>  (269) 
-1.40569

>  <r_i_glide_ligand_efficiency_ln>  (269) 
-2.04616

>  <r_i_glide_gscore>  (269) 
-6.95265

>  <r_i_glide_lipo>  (269) 
-1.23343

>  <r_i_glide_hbond>  (269) 
-0.0183678

>  <r_i_glide_metal>  (269) 
-0

>  <r_i_glide_rewards>  (269) 
-4.22292

>  <r_i_glide_evdw>  (269) 
-22.5082

>  <r_i_glide_ecoul>  (269) 
-2.35017

>  <r_i_glide_erotb>  (269) 
0

>  <r_i_glide_esite>  (269) 
0

>  <r_i_glide_emodel>  (269) 
-36.5487

>  <r_i_glide_energy>  (269) 
-24.8583

>  <r_i_glide_einternal>  (269) 
0

>  <r_i_glide_intrahb_reward>  (269) 
-0

>  <i_i_glide_confnum>  (269) 
2

>  <i_i_glide_posenum>  (269) 
16

>  <r_i_glide_eff_state_penalty>  (269) 
0

>  <ligand_id>  (269) 
82

>  <original_smiles>  (269) 
Cc1cc(C)c2nncn2n1

>  <smiles>  (269) 
[H]c1c(C([H])([H])[H])nn2c([H])nnc2c1C([H])([H])[H]

$$$$
82:0:1
     RDKit          3D

 19 20  0  0  1  0  0  0  0  0999 V2000
    2.5047  -11.3790    3.4158 C   0  0  0  0  0  0  0  0  0  0  0  0
    1.6933  -10.1784    2.9684 C   0  0  0  0  0  0  0  0  0  0  0  0
    0.3051  -10.1380    3.2505 C   0  0  0  0  0  0  0  0  0  0  0  0
   -0.4308   -9.0519    2.8449 C   0  0  0  0  0  0  0  0  0  0  0  0
   -1.9184   -8.9958    3.1178 C   0  0  0  0  0  0  0  0  0  0  0  0
    0.2317   -8.0019    2.1590 C   0  0  0  0  0  0  0  0  0  0  0  0
   -0.1362   -6.8286    1.6266 N   0  0  0  0  0  0  0  0  0  0  0  0
    1.0014   -6.2564    1.0752 N   0  0  0  0  0  0  0  0  0  0  0  0
    2.0286   -7.0767    1.3044 C   0  0  0  0  0  0  0  0  0  0  0  0
    1.6136   -8.1883    1.9615 N   0  0  0  0  0  0  0  0  0  0  0  0
    2.3933   -9.2374    2.3383 N   0  0  0  0  0  0  0  0  0  0  0  0
    1.8805  -12.1115    3.9306 H   0  0  0  0  0  0  0  0  0  0  0  0
    3.2919  -11.0718    4.1054 H   0  0  0  0  0  0  0  0  0  0  0  0
    2.9725  -11.8716    2.5611 H   0  0  0  0  0  0  0  0  0  0  0  0
   -0.1734  -10.9537    3.7816 H   0  0  0  0  0  0  0  0  0  0  0  0
   -2.3693   -8.0791    2.7376 H   0  0  0  0  0  0  0  0  0  0  0  0
   -2.1027   -9.0443    4.1911 H   0  0  0  0  0  0  0  0  0  0  0  0
   -2.4175   -9.8428    2.6456 H   0  0  0  0  0  0  0  0  0  0  0  0
    3.0461   -6.8955    0.9939 H   0  0  0  0  0  0  0  0  0  0  0  0
  1  2  1  0
  1 12  1  0
  1 13  1  0
  1 14  1  0
  2 11  2  0
  2  3  1  0
  3  4  2  0
  3 15  1  0
  4  5  1  0
  4  6  1  0
  5 16  1  0
  5 17  1  0
  5 18  1  0
  6 10  1  0
  6  7  2  0
  7  8  1  0
  8  9  2  0
  9 10  1  0
  9 19  1  0
 10 11  1  0
M  END
>  <i_m_ct_stereo_status>  (270) 
1

>  <s_m_source_file>  (270) 
/var/tmp/pbs.5076255.sched01/tmpt7uccrld/92zpefy4ut.sdf

>  <i_m_source_file_index>  (270) 
26

>  <i_lp_mmshare_version>  (270) 
48012

>  <i_f3d_flags>  (270) 
0

>  <s_epik_input>  (270) 
W0NIM11jMVtjSF1jKFtDSDNdKW5uKGMxMilbY0hdbm4y

>  <s_epik_cmdline>  (270) 
J2VwaWtfcHl0aG9uJywgJy1waHQnLCAnMi4wJywgJy1waCcsICc3LjAnLCAnLXRuJywgJzgnLCAnLW1hJywgJzIwMCcsICctaW1hZScsICc8aW5maWxlLm1hZT4nLCAnLW9tYWUnLCAnPG91dGZpbGUubWFlPic=

>  <r_lp_tautomer_probability>  (270) 
1

>  <r_epik_Ionization_Penalty>  (270) 
8.71981e-07

>  <r_epik_Ionization_Penalty_Charging>  (270) 
0

>  <r_epik_Ionization_Penalty_Neutral>  (270) 
8.71981e-07

>  <r_epik_State_Penalty>  (270) 
-0

>  <r_epik_Charging_Adjusted_Penalty>  (270) 
0

>  <i_epik_Tot_Q>  (270) 
0

>  <i_epik_Tot_abs_Q>  (270) 
0

>  <s_lp_Force_Field>  (270) 
OPLS3e

>  <r_lp_Energy>  (270) 
9.84663

>  <b_lp_Chiralities_Consistent>  (270) 
1

>  <s_lp_Variant>  (270) 
82:0-1

>  <s_i_glide_gridfile>  (270) 
pfpi4k_grid

>  <i_i_glide_lignum>  (270) 
26

>  <i_i_glide_rotatable_bonds>  (270) 
0

>  <r_i_docking_score>  (270) 
-4.26737

>  <r_i_glide_ligand_efficiency>  (270) 
-0.387943

>  <r_i_glide_ligand_efficiency_sa>  (270) 
-0.862777

>  <r_i_glide_ligand_efficiency_ln>  (270) 
-1.25589

>  <r_i_glide_gscore>  (270) 
-4.26737

>  <r_i_glide_lipo>  (270) 
-0.117528

>  <r_i_glide_hbond>  (270) 
0

>  <r_i_glide_metal>  (270) 
-0

>  <r_i_glide_rewards>  (270) 
-2.25

>  <r_i_glide_evdw>  (270) 
-16.6503

>  <r_i_glide_ecoul>  (270) 
-5.07837

>  <r_i_glide_erotb>  (270) 
0

>  <r_i_glide_esite>  (270) 
-0.305574

>  <r_i_glide_emodel>  (270) 
-28.9023

>  <r_i_glide_energy>  (270) 
-21.7286

>  <r_i_glide_einternal>  (270) 
0

>  <r_i_glide_intrahb_reward>  (270) 
-0

>  <i_i_glide_confnum>  (270) 
2

>  <i_i_glide_posenum>  (270) 
1

>  <r_i_glide_eff_state_penalty>  (270) 
0

>  <ligand_id>  (270) 
82

>  <original_smiles>  (270) 
Cc1cc(C)c2nncn2n1

>  <smiles>  (270) 
[H]c1c(C([H])([H])[H])nn2c([H])nnc2c1C([H])([H])[H]

$$$$
82:0:2
     RDKit          3D

 19 20  0  0  1  0  0  0  0  0999 V2000
    1.4984    1.4878    1.7725 C   0  0  0  0  0  0  0  0  0  0  0  0
    0.4702    1.1494    2.8307 C   0  0  0  0  0  0  0  0  0  0  0  0
   -0.4147    2.1598    3.2878 C   0  0  0  0  0  0  0  0  0  0  0  0
   -1.3427    1.8501    4.2531 C   0  0  0  0  0  0  0  0  0  0  0  0
   -2.2907    2.9195    4.7603 C   0  0  0  0  0  0  0  0  0  0  0  0
   -1.3829    0.5192    4.7525 C   0  0  0  0  0  0  0  0  0  0  0  0
   -2.1127   -0.1445    5.6598 N   0  0  0  0  0  0  0  0  0  0  0  0
   -1.6624   -1.4559    5.6749 N   0  0  0  0  0  0  0  0  0  0  0  0
   -0.6539   -1.5538    4.8080 C   0  0  0  0  0  0  0  0  0  0  0  0
   -0.4353   -0.3629    4.1950 N   0  0  0  0  0  0  0  0  0  0  0  0
    0.5046   -0.1139    3.2466 N   0  0  0  0  0  0  0  0  0  0  0  0
    1.4295    2.5356    1.4752 H   0  0  0  0  0  0  0  0  0  0  0  0
    1.3424    0.8683    0.8891 H   0  0  0  0  0  0  0  0  0  0  0  0
    2.5094    1.3083    2.1406 H   0  0  0  0  0  0  0  0  0  0  0  0
   -0.3564    3.1662    2.8796 H   0  0  0  0  0  0  0  0  0  0  0  0
   -2.9706    2.5444    5.5232 H   0  0  0  0  0  0  0  0  0  0  0  0
   -2.8903    3.3051    3.9352 H   0  0  0  0  0  0  0  0  0  0  0  0
   -1.7267    3.7430    5.1987 H   0  0  0  0  0  0  0  0  0  0  0  0
   -0.1082   -2.4620    4.5994 H   0  0  0  0  0  0  0  0  0  0  0  0
  1  2  1  0
  1 12  1  0
  1 13  1  0
  1 14  1  0
  2 11  2  0
  2  3  1  0
  3  4  2  0
  3 15  1  0
  4  5  1  0
  4  6  1  0
  5 16  1  0
  5 17  1  0
  5 18  1  0
  6 10  1  0
  6  7  2  0
  7  8  1  0
  8  9  2  0
  9 10  1  0
  9 19  1  0
 10 11  1  0
M  END
>  <i_m_ct_stereo_status>  (271) 
1

>  <s_m_source_file>  (271) 
/var/tmp/pbs.5076255.sched01/tmpt7uccrld/92zpefy4ut.sdf

>  <i_m_source_file_index>  (271) 
26

>  <i_lp_mmshare_version>  (271) 
48012

>  <i_f3d_flags>  (271) 
0

>  <s_epik_input>  (271) 
W0NIM11jMVtjSF1jKFtDSDNdKW5uKGMxMilbY0hdbm4y

>  <s_epik_cmdline>  (271) 
J2VwaWtfcHl0aG9uJywgJy1waHQnLCAnMi4wJywgJy1waCcsICc3LjAnLCAnLXRuJywgJzgnLCAnLW1hJywgJzIwMCcsICctaW1hZScsICc8aW5maWxlLm1hZT4nLCAnLW9tYWUnLCAnPG91dGZpbGUubWFlPic=

>  <r_lp_tautomer_probability>  (271) 
1

>  <r_epik_Ionization_Penalty>  (271) 
8.71981e-07

>  <r_epik_Ionization_Penalty_Charging>  (271) 
0

>  <r_epik_Ionization_Penalty_Neutral>  (271) 
8.71981e-07

>  <r_epik_State_Penalty>  (271) 
-0

>  <r_epik_Charging_Adjusted_Penalty>  (271) 
0

>  <i_epik_Tot_Q>  (271) 
0

>  <i_epik_Tot_abs_Q>  (271) 
0

>  <s_lp_Force_Field>  (271) 
OPLS3e

>  <r_lp_Energy>  (271) 
9.84663

>  <b_lp_Chiralities_Consistent>  (271) 
1

>  <s_lp_Variant>  (271) 
82:0-1

>  <s_i_glide_gridfile>  (271) 
pfpi4k_grid

>  <i_i_glide_lignum>  (271) 
26

>  <i_i_glide_rotatable_bonds>  (271) 
0

>  <r_i_docking_score>  (271) 
-3.89899

>  <r_i_glide_ligand_efficiency>  (271) 
-0.354454

>  <r_i_glide_ligand_efficiency_sa>  (271) 
-0.788299

>  <r_i_glide_ligand_efficiency_ln>  (271) 
-1.14747

>  <r_i_glide_gscore>  (271) 
-3.89899

>  <r_i_glide_lipo>  (271) 
0

>  <r_i_glide_hbond>  (271) 
0

>  <r_i_glide_metal>  (271) 
-0

>  <r_i_glide_rewards>  (271) 
-2.25

>  <r_i_glide_evdw>  (271) 
-14.8639

>  <r_i_glide_ecoul>  (271) 
-4.57781

>  <r_i_glide_erotb>  (271) 
0

>  <r_i_glide_esite>  (271) 
-0.21913

>  <r_i_glide_emodel>  (271) 
-25.9945

>  <r_i_glide_energy>  (271) 
-19.4417

>  <r_i_glide_einternal>  (271) 
0

>  <r_i_glide_intrahb_reward>  (271) 
-0

>  <i_i_glide_confnum>  (271) 
2

>  <i_i_glide_posenum>  (271) 
3

>  <r_i_glide_eff_state_penalty>  (271) 
0

>  <ligand_id>  (271) 
82

>  <original_smiles>  (271) 
Cc1cc(C)c2nncn2n1

>  <smiles>  (271) 
[H]c1c(C([H])([H])[H])nn2c([H])nnc2c1C([H])([H])[H]

$$$$
83:0:0
     RDKit          3D

 33 37  0  0  1  0  0  0  0  0999 V2000
    2.8222   -0.8589   -4.3331 C   0  0  0  0  0  0  0  0  0  0  0  0
    4.0881   -1.0762   -3.5113 C   0  0  0  0  0  0  0  0  0  0  0  0
    3.8100   -1.4257   -2.0386 C   0  0  2  0  0  0  0  0  0  0  0  0
    5.0463   -1.4071   -1.1539 C   0  0  2  0  0  0  0  0  0  0  0  0
    5.8454   -2.6738   -1.5098 C   0  0  2  0  0  0  0  0  0  0  0  0
    4.7994   -3.7084   -1.9158 C   0  0  1  0  0  0  0  0  0  0  0  0
    5.0375   -4.4358   -0.5725 C   0  0  2  0  0  0  0  0  0  0  0  0
    3.6989   -4.4277    0.1398 C   0  0  0  0  0  0  0  0  0  0  0  0
    3.3477   -2.9610   -0.2020 C   0  0  2  0  0  0  0  0  0  0  0  0
    3.4757   -2.9110   -1.7608 C   0  0  1  0  0  0  0  0  0  0  0  0
    2.3798   -3.4527   -2.4539 O   0  0  0  0  0  0  0  0  0  0  0  0
    4.6211   -2.1452    0.1450 C   0  0  2  0  0  0  0  0  0  0  0  0
    4.5970   -1.4686    1.4036 O   0  0  0  0  0  0  0  0  0  0  0  0
    5.7245   -0.6555    1.6999 C   0  0  0  0  0  0  0  0  0  0  0  0
    5.7401   -3.1650   -0.0886 C   0  0  2  0  0  0  0  0  0  0  0  0
    3.0671   -0.6297   -5.3694 H   0  0  0  0  0  0  0  0  0  0  0  0
    2.2492   -0.0215   -3.9374 H   0  0  0  0  0  0  0  0  0  0  0  0
    2.1883   -1.7424   -4.3218 H   0  0  0  0  0  0  0  0  0  0  0  0
    4.7195   -1.8315   -3.9776 H   0  0  0  0  0  0  0  0  0  0  0  0
    4.6129   -0.1296   -3.5378 H   0  0  0  0  0  0  0  0  0  0  0  0
    3.0413   -0.7617   -1.6438 H   0  0  0  0  0  0  0  0  0  0  0  0
    5.6274   -0.4932   -1.0657 H   0  0  0  0  0  0  0  0  0  0  0  0
    6.8293   -2.6487   -1.9812 H   0  0  0  0  0  0  0  0  0  0  0  0
    5.0076   -4.2478   -2.8420 H   0  0  0  0  0  0  0  0  0  0  0  0
    5.6371   -5.3403   -0.6054 H   0  0  0  0  0  0  0  0  0  0  0  0
    2.9931   -5.1475   -0.2763 H   0  0  0  0  0  0  0  0  0  0  0  0
    3.7945   -4.5914    1.2135 H   0  0  0  0  0  0  0  0  0  0  0  0
    2.4181   -2.5597    0.2047 H   0  0  0  0  0  0  0  0  0  0  0  0
    2.5053   -4.4055   -2.4930 H   0  0  0  0  0  0  0  0  0  0  0  0
    5.6075   -0.2360    2.6988 H   0  0  0  0  0  0  0  0  0  0  0  0
    5.8038    0.1805    1.0098 H   0  0  0  0  0  0  0  0  0  0  0  0
    6.6587   -1.2135    1.6866 H   0  0  0  0  0  0  0  0  0  0  0  0
    6.6395   -3.1985    0.5312 H   0  0  0  0  0  0  0  0  0  0  0  0
  1  2  1  0
  1 16  1  0
  1 17  1  0
  1 18  1  0
  2  3  1  0
  2 19  1  0
  2 20  1  0
  3 10  1  0
  3  4  1  0
  3 21  1  1
  4 12  1  0
  4  5  1  0
  4 22  1  1
  5 15  1  0
  5  6  1  0
  5 23  1  6
  6 10  1  0
  6  7  1  0
  6 24  1  6
  7 15  1  0
  7  8  1  0
  7 25  1  6
  8  9  1  0
  8 26  1  0
  8 27  1  0
  9 10  1  0
  9 12  1  0
  9 28  1  6
 10 11  1  6
 11 29  1  0
 12 13  1  1
 12 15  1  0
 13 14  1  0
 14 30  1  0
 14 31  1  0
 14 32  1  0
 15 33  1  1
M  END
>  <i_m_ct_stereo_status>  (272) 
1

>  <s_m_source_file>  (272) 
/var/tmp/pbs.5076255.sched01/tmpt7uccrld/92zpefy4ut.sdf

>  <i_m_source_file_index>  (272) 
27

>  <i_lp_mmshare_version>  (272) 
48012

>  <i_f3d_flags>  (272) 
0

>  <s_epik_input>  (272) 
W09IXVtDQEBdMTJbQ0BIXTNbQ0BIXTRbQ0BASF0oW0NASF0xW0NIMl1bQ0gzXSlbQ0BAXTUoT1tDSDNdKVtDQEBIXTJbQ0gyXVtDQEBIXTNbQ0BASF00NQ==

>  <s_epik_cmdline>  (272) 
J2VwaWtfcHl0aG9uJywgJy1waHQnLCAnMi4wJywgJy1waCcsICc3LjAnLCAnLXRuJywgJzgnLCAnLW1hJywgJzIwMCcsICctaW1hZScsICc8aW5maWxlLm1hZT4nLCAnLW9tYWUnLCAnPG91dGZpbGUubWFlPic=

>  <r_lp_tautomer_probability>  (272) 
1

>  <r_epik_Ionization_Penalty>  (272) 
1.15351e-06

>  <r_epik_Ionization_Penalty_Charging>  (272) 
0

>  <r_epik_Ionization_Penalty_Neutral>  (272) 
1.15351e-06

>  <r_epik_State_Penalty>  (272) 
-0

>  <r_epik_Charging_Adjusted_Penalty>  (272) 
0

>  <i_epik_Tot_Q>  (272) 
0

>  <i_epik_Tot_abs_Q>  (272) 
0

>  <s_lp_Force_Field>  (272) 
OPLS3e

>  <r_lp_Energy>  (272) 
76.894

>  <b_lp_Chiralities_Consistent>  (272) 
1

>  <s_lp_Variant>  (272) 
83:0-1

>  <s_i_glide_gridfile>  (272) 
pfpi4k_grid

>  <i_i_glide_lignum>  (272) 
27

>  <i_i_glide_rotatable_bonds>  (272) 
3

>  <r_i_docking_score>  (272) 
-4.23704

>  <r_i_glide_ligand_efficiency>  (272) 
-0.282469

>  <r_i_glide_ligand_efficiency_sa>  (272) 
-0.696629

>  <r_i_glide_ligand_efficiency_ln>  (272) 
-1.14266

>  <r_i_glide_gscore>  (272) 
-4.23704

>  <r_i_glide_lipo>  (272) 
-0.484089

>  <r_i_glide_hbond>  (272) 
-0.32

>  <r_i_glide_metal>  (272) 
-0

>  <r_i_glide_rewards>  (272) 
-2.00263

>  <r_i_glide_evdw>  (272) 
-17.4816

>  <r_i_glide_ecoul>  (272) 
-3.70825

>  <r_i_glide_erotb>  (272) 
0

>  <r_i_glide_esite>  (272) 
0

>  <r_i_glide_emodel>  (272) 
-25.8439

>  <r_i_glide_energy>  (272) 
-21.1899

>  <r_i_glide_einternal>  (272) 
2.32194

>  <r_i_glide_intrahb_reward>  (272) 
-0

>  <i_i_glide_confnum>  (272) 
2

>  <i_i_glide_posenum>  (272) 
25

>  <r_i_glide_eff_state_penalty>  (272) 
0

>  <ligand_id>  (272) 
83

>  <original_smiles>  (272) 
CCC1C2C3C4C5CC(C14O)C2(OC)C53

>  <smiles>  (272) 
[H]OC12C([H])(C([H])([H])C([H])([H])[H])C3([H])C4([H])C1([H])C1([H])C([H])([H])C2([H])C3(OC([H])([H])[H])C14[H]

$$$$
83:0:1
     RDKit          3D

 33 37  0  0  1  0  0  0  0  0999 V2000
    3.4175   -0.1185   -4.7336 C   0  0  0  0  0  0  0  0  0  0  0  0
    3.4667   -1.4936   -4.0614 C   0  0  0  0  0  0  0  0  0  0  0  0
    3.5804   -1.4164   -2.5201 C   0  0  2  0  0  0  0  0  0  0  0  0
    4.9932   -1.2049   -1.9829 C   0  0  2  0  0  0  0  0  0  0  0  0
    5.7192   -2.5368   -2.2025 C   0  0  2  0  0  0  0  0  0  0  0  0
    4.6693   -3.6227   -2.0483 C   0  0  1  0  0  0  0  0  0  0  0  0
    5.2672   -3.9824   -0.6826 C   0  0  2  0  0  0  0  0  0  0  0  0
    4.1397   -3.7742    0.3146 C   0  0  0  0  0  0  0  0  0  0  0  0
    3.6483   -2.4236   -0.2848 C   0  0  2  0  0  0  0  0  0  0  0  0
    3.3904   -2.7787   -1.7893 C   0  0  1  0  0  0  0  0  0  0  0  0
    2.1847   -3.4656   -2.0202 O   0  0  0  0  0  0  0  0  0  0  0  0
    4.9386   -1.5831   -0.4857 C   0  0  2  0  0  0  0  0  0  0  0  0
    5.3031   -0.5789    0.4452 O   0  0  0  0  0  0  0  0  0  0  0  0
    5.4294   -1.0366    1.7883 C   0  0  0  0  0  0  0  0  0  0  0  0
    6.0044   -2.6485   -0.7457 C   0  0  2  0  0  0  0  0  0  0  0  0
    3.2757   -0.2154   -5.8073 H   0  0  0  0  0  0  0  0  0  0  0  0
    4.3235    0.4485   -4.5603 H   0  0  0  0  0  0  0  0  0  0  0  0
    2.5877    0.4639   -4.3441 H   0  0  0  0  0  0  0  0  0  0  0  0
    2.5462   -2.0195   -4.3133 H   0  0  0  0  0  0  0  0  0  0  0  0
    4.2751   -2.0929   -4.4741 H   0  0  0  0  0  0  0  0  0  0  0  0
    2.8818   -0.6716   -2.1306 H   0  0  0  0  0  0  0  0  0  0  0  0
    5.5570   -0.3071   -2.2325 H   0  0  0  0  0  0  0  0  0  0  0  0
    6.5819   -2.6834   -2.8467 H   0  0  0  0  0  0  0  0  0  0  0  0
    4.7136   -4.3696   -2.8243 H   0  0  0  0  0  0  0  0  0  0  0  0
    5.8984   -4.8691   -0.6488 H   0  0  0  0  0  0  0  0  0  0  0  0
    3.3833   -4.5597    0.2837 H   0  0  0  0  0  0  0  0  0  0  0  0
    4.5183   -3.7065    1.3339 H   0  0  0  0  0  0  0  0  0  0  0  0
    2.8468   -1.8910    0.2213 H   0  0  0  0  0  0  0  0  0  0  0  0
    2.3852   -4.3625   -2.2649 H   0  0  0  0  0  0  0  0  0  0  0  0
    5.6661   -0.2168    2.4685 H   0  0  0  0  0  0  0  0  0  0  0  0
    6.2226   -1.7809    1.8800 H   0  0  0  0  0  0  0  0  0  0  0  0
    4.4992   -1.4760    2.1515 H   0  0  0  0  0  0  0  0  0  0  0  0
    7.0513   -2.5106   -0.4851 H   0  0  0  0  0  0  0  0  0  0  0  0
  1  2  1  0
  1 16  1  0
  1 17  1  0
  1 18  1  0
  2  3  1  0
  2 19  1  0
  2 20  1  0
  3 10  1  0
  3  4  1  0
  3 21  1  1
  4 12  1  0
  4  5  1  0
  4 22  1  1
  5 15  1  0
  5  6  1  0
  5 23  1  6
  6 10  1  0
  6  7  1  0
  6 24  1  6
  7 15  1  0
  7  8  1  0
  7 25  1  6
  8  9  1  0
  8 26  1  0
  8 27  1  0
  9 10  1  0
  9 12  1  0
  9 28  1  1
 10 11  1  1
 11 29  1  0
 12 13  1  1
 12 15  1  0
 13 14  1  0
 14 30  1  0
 14 31  1  0
 14 32  1  0
 15 33  1  6
M  END
>  <i_m_ct_stereo_status>  (273) 
1

>  <s_m_source_file>  (273) 
/var/tmp/pbs.5076255.sched01/tmpt7uccrld/92zpefy4ut.sdf

>  <i_m_source_file_index>  (273) 
27

>  <i_lp_mmshare_version>  (273) 
48012

>  <i_f3d_flags>  (273) 
0

>  <s_epik_input>  (273) 
W09IXVtDQEBdMTJbQ0BIXTNbQ0BIXTRbQ0BASF0oW0NASF0xW0NIMl1bQ0gzXSlbQ0BAXTUoT1tDSDNdKVtDQEBIXTJbQ0gyXVtDQEBIXTNbQ0BASF00NQ==

>  <s_epik_cmdline>  (273) 
J2VwaWtfcHl0aG9uJywgJy1waHQnLCAnMi4wJywgJy1waCcsICc3LjAnLCAnLXRuJywgJzgnLCAnLW1hJywgJzIwMCcsICctaW1hZScsICc8aW5maWxlLm1hZT4nLCAnLW9tYWUnLCAnPG91dGZpbGUubWFlPic=

>  <r_lp_tautomer_probability>  (273) 
1

>  <r_epik_Ionization_Penalty>  (273) 
1.15351e-06

>  <r_epik_Ionization_Penalty_Charging>  (273) 
0

>  <r_epik_Ionization_Penalty_Neutral>  (273) 
1.15351e-06

>  <r_epik_State_Penalty>  (273) 
-0

>  <r_epik_Charging_Adjusted_Penalty>  (273) 
0

>  <i_epik_Tot_Q>  (273) 
0

>  <i_epik_Tot_abs_Q>  (273) 
0

>  <s_lp_Force_Field>  (273) 
OPLS3e

>  <r_lp_Energy>  (273) 
76.894

>  <b_lp_Chiralities_Consistent>  (273) 
1

>  <s_lp_Variant>  (273) 
83:0-1

>  <s_i_glide_gridfile>  (273) 
pfpi4k_grid

>  <i_i_glide_lignum>  (273) 
27

>  <i_i_glide_rotatable_bonds>  (273) 
3

>  <r_i_docking_score>  (273) 
-4.19059

>  <r_i_glide_ligand_efficiency>  (273) 
-0.279373

>  <r_i_glide_ligand_efficiency_sa>  (273) 
-0.688993

>  <r_i_glide_ligand_efficiency_ln>  (273) 
-1.13013

>  <r_i_glide_gscore>  (273) 
-4.19059

>  <r_i_glide_lipo>  (273) 
-0.469794

>  <r_i_glide_hbond>  (273) 
-0.32

>  <r_i_glide_metal>  (273) 
-0

>  <r_i_glide_rewards>  (273) 
-2.00263

>  <r_i_glide_evdw>  (273) 
-19.7396

>  <r_i_glide_ecoul>  (273) 
-2.74127

>  <r_i_glide_erotb>  (273) 
0

>  <r_i_glide_esite>  (273) 
0

>  <r_i_glide_emodel>  (273) 
-26.8283

>  <r_i_glide_energy>  (273) 
-22.4808

>  <r_i_glide_einternal>  (273) 
2.5858

>  <r_i_glide_intrahb_reward>  (273) 
-0

>  <i_i_glide_confnum>  (273) 
1

>  <i_i_glide_posenum>  (273) 
17

>  <r_i_glide_eff_state_penalty>  (273) 
0

>  <ligand_id>  (273) 
83

>  <original_smiles>  (273) 
CCC1C2C3C4C5CC(C14O)C2(OC)C53

>  <smiles>  (273) 
[H]OC12C([H])(C([H])([H])C([H])([H])[H])C3([H])C4([H])C1([H])C1([H])C([H])([H])C2([H])C3(OC([H])([H])[H])C14[H]

$$$$
83:0:2
     RDKit          3D

 33 37  0  0  1  0  0  0  0  0999 V2000
    3.5186    0.2618   -4.5255 C   0  0  0  0  0  0  0  0  0  0  0  0
    3.8262   -1.1826   -4.1252 C   0  0  0  0  0  0  0  0  0  0  0  0
    3.7061   -1.4233   -2.6047 C   0  0  2  0  0  0  0  0  0  0  0  0
    5.0249   -1.3753   -1.8517 C   0  0  2  0  0  0  0  0  0  0  0  0
    5.7595   -2.6827   -2.2062 C   0  0  2  0  0  0  0  0  0  0  0  0
    4.6599   -3.7167   -2.4297 C   0  0  1  0  0  0  0  0  0  0  0  0
    5.0236   -4.3576   -1.0664 C   0  0  2  0  0  0  0  0  0  0  0  0
    3.7822   -4.2774   -0.2194 C   0  0  0  0  0  0  0  0  0  0  0  0
    3.4039   -2.8385   -0.6314 C   0  0  2  0  0  0  0  0  0  0  0  0
    3.3780   -2.8882   -2.1966 C   0  0  1  0  0  0  0  0  0  0  0  0
    2.2204   -3.4540   -2.7562 O   0  0  0  0  0  0  0  0  0  0  0  0
    4.7137   -2.0239   -0.4757 C   0  0  2  0  0  0  0  0  0  0  0  0
    4.9300   -1.2763    0.7173 O   0  0  0  0  0  0  0  0  0  0  0  0
    4.0454   -0.1780    0.8636 C   0  0  0  0  0  0  0  0  0  0  0  0
    5.7942   -3.0702   -0.7548 C   0  0  2  0  0  0  0  0  0  0  0  0
    3.5648    0.3920   -5.6055 H   0  0  0  0  0  0  0  0  0  0  0  0
    4.2120    0.9648   -4.0634 H   0  0  0  0  0  0  0  0  0  0  0  0
    2.5133    0.5364   -4.2069 H   0  0  0  0  0  0  0  0  0  0  0  0
    3.1221   -1.8282   -4.6488 H   0  0  0  0  0  0  0  0  0  0  0  0
    4.8142   -1.4564   -4.4814 H   0  0  0  0  0  0  0  0  0  0  0  0
    2.9690   -0.7432   -2.1714 H   0  0  0  0  0  0  0  0  0  0  0  0
    5.6284   -0.4663   -1.8385 H   0  0  0  0  0  0  0  0  0  0  0  0
    6.6871   -2.7172   -2.7796 H   0  0  0  0  0  0  0  0  0  0  0  0
    4.7596   -4.3279   -3.3304 H   0  0  0  0  0  0  0  0  0  0  0  0
    5.5929   -5.2784   -1.0928 H   0  0  0  0  0  0  0  0  0  0  0  0
    3.0267   -5.0153   -0.4891 H   0  0  0  0  0  0  0  0  0  0  0  0
    4.0015   -4.3617    0.8471 H   0  0  0  0  0  0  0  0  0  0  0  0
    2.5228   -2.4106   -0.1554 H   0  0  0  0  0  0  0  0  0  0  0  0
    2.3042   -4.4054   -2.7182 H   0  0  0  0  0  0  0  0  0  0  0  0
    4.2234    0.3118    1.8192 H   0  0  0  0  0  0  0  0  0  0  0  0
    2.9970   -0.4776    0.8356 H   0  0  0  0  0  0  0  0  0  0  0  0
    4.2139    0.5512    0.0791 H   0  0  0  0  0  0  0  0  0  0  0  0
    6.7539   -3.0643   -0.2275 H   0  0  0  0  0  0  0  0  0  0  0  0
  1  2  1  0
  1 16  1  0
  1 17  1  0
  1 18  1  0
  2  3  1  0
  2 19  1  0
  2 20  1  0
  3 10  1  0
  3  4  1  0
  3 21  1  1
  4 12  1  0
  4  5  1  0
  4 22  1  1
  5 15  1  0
  5  6  1  0
  5 23  1  6
  6 10  1  0
  6  7  1  0
  6 24  1  6
  7 15  1  0
  7  8  1  0
  7 25  1  6
  8  9  1  0
  8 26  1  0
  8 27  1  0
  9 10  1  0
  9 12  1  0
  9 28  1  1
 10 11  1  1
 11 29  1  0
 12 13  1  1
 12 15  1  0
 13 14  1  0
 14 30  1  0
 14 31  1  0
 14 32  1  0
 15 33  1  1
M  END
>  <i_m_ct_stereo_status>  (274) 
1

>  <s_m_source_file>  (274) 
/var/tmp/pbs.5076255.sched01/tmpt7uccrld/92zpefy4ut.sdf

>  <i_m_source_file_index>  (274) 
27

>  <i_lp_mmshare_version>  (274) 
48012

>  <i_f3d_flags>  (274) 
0

>  <s_epik_input>  (274) 
W09IXVtDQEBdMTJbQ0BIXTNbQ0BIXTRbQ0BASF0oW0NASF0xW0NIMl1bQ0gzXSlbQ0BAXTUoT1tDSDNdKVtDQEBIXTJbQ0gyXVtDQEBIXTNbQ0BASF00NQ==

>  <s_epik_cmdline>  (274) 
J2VwaWtfcHl0aG9uJywgJy1waHQnLCAnMi4wJywgJy1waCcsICc3LjAnLCAnLXRuJywgJzgnLCAnLW1hJywgJzIwMCcsICctaW1hZScsICc8aW5maWxlLm1hZT4nLCAnLW9tYWUnLCAnPG91dGZpbGUubWFlPic=

>  <r_lp_tautomer_probability>  (274) 
1

>  <r_epik_Ionization_Penalty>  (274) 
1.15351e-06

>  <r_epik_Ionization_Penalty_Charging>  (274) 
0

>  <r_epik_Ionization_Penalty_Neutral>  (274) 
1.15351e-06

>  <r_epik_State_Penalty>  (274) 
-0

>  <r_epik_Charging_Adjusted_Penalty>  (274) 
0

>  <i_epik_Tot_Q>  (274) 
0

>  <i_epik_Tot_abs_Q>  (274) 
0

>  <s_lp_Force_Field>  (274) 
OPLS3e

>  <r_lp_Energy>  (274) 
76.894

>  <b_lp_Chiralities_Consistent>  (274) 
1

>  <s_lp_Variant>  (274) 
83:0-1

>  <s_i_glide_gridfile>  (274) 
pfpi4k_grid

>  <i_i_glide_lignum>  (274) 
27

>  <i_i_glide_rotatable_bonds>  (274) 
3

>  <r_i_docking_score>  (274) 
-4.17334

>  <r_i_glide_ligand_efficiency>  (274) 
-0.278223

>  <r_i_glide_ligand_efficiency_sa>  (274) 
-0.686156

>  <r_i_glide_ligand_efficiency_ln>  (274) 
-1.12548

>  <r_i_glide_gscore>  (274) 
-4.17334

>  <r_i_glide_lipo>  (274) 
-0.320765

>  <r_i_glide_hbond>  (274) 
-0.32

>  <r_i_glide_metal>  (274) 
-0

>  <r_i_glide_rewards>  (274) 
-2.00263

>  <r_i_glide_evdw>  (274) 
-19.1399

>  <r_i_glide_ecoul>  (274) 
-3.81965

>  <r_i_glide_erotb>  (274) 
0

>  <r_i_glide_esite>  (274) 
0

>  <r_i_glide_emodel>  (274) 
-27.5042

>  <r_i_glide_energy>  (274) 
-22.9596

>  <r_i_glide_einternal>  (274) 
2.22695

>  <r_i_glide_intrahb_reward>  (274) 
-0

>  <i_i_glide_confnum>  (274) 
2

>  <i_i_glide_posenum>  (274) 
9

>  <r_i_glide_eff_state_penalty>  (274) 
0

>  <ligand_id>  (274) 
83

>  <original_smiles>  (274) 
CCC1C2C3C4C5CC(C14O)C2(OC)C53

>  <smiles>  (274) 
[H]OC12C([H])(C([H])([H])C([H])([H])[H])C3([H])C4([H])C1([H])C1([H])C([H])([H])C2([H])C3(OC([H])([H])[H])C14[H]

$$$$
84:0:0
     RDKit          3D

 49 53  0  0  1  0  0  0  0  0999 V2000
    2.3055   -2.7811   -3.3275 C   0  0  0  0  0  0  0  0  0  0  0  0
    3.7875   -2.5276   -3.0141 C   0  0  0  0  0  0  0  0  0  0  0  0
    4.4176   -1.8132   -3.8254 O   0  0  0  0  0  0  0  0  0  0  0  0
    4.3425   -3.0786   -1.9371 N   0  0  0  0  0  0  0  0  0  0  0  0
    3.5861   -3.8087   -0.9072 C   0  0  0  0  0  0  0  0  0  0  0  0
    3.8164   -3.1586    0.4560 C   0  0  0  0  0  0  0  0  0  0  0  0
    5.2939   -3.3408    0.8479 C   0  0  1  0  0  0  0  0  0  0  0  0
    5.5186   -2.7768    2.1375 O   0  0  0  0  0  0  0  0  0  0  0  0
    5.3756   -3.9466    3.0901 O   0  0  0  0  0  0  0  0  0  0  0  0
    5.2820   -5.1200    2.2838 C   0  0  2  0  0  0  0  0  0  0  0  0
    5.6248   -4.7433    0.9411 O   0  0  0  0  0  0  0  0  0  0  0  0
    3.8540   -5.7664    2.4057 C   0  0  1  0  0  0  0  0  0  0  0  0
    3.7801   -6.9884    1.4937 C   0  0  0  0  0  0  0  0  0  0  0  0
    4.7601   -8.0602    1.9960 C   0  0  2  0  0  0  0  0  0  0  0  0
    4.4269   -8.4165    3.4641 C   0  0  0  0  0  0  0  0  0  0  0  0
    4.5496   -7.1576    4.3559 C   0  0  2  0  0  0  0  0  0  0  0  0
    3.5614   -6.1109    3.8560 C   0  0  0  0  0  0  0  0  0  0  0  0
    5.9765   -6.5707    4.2549 C   0  0  0  0  0  0  0  0  0  0  0  0
    6.3135   -6.1937    2.7846 C   0  0  1  0  0  0  0  0  0  0  0  0
    6.1934   -7.4766    1.9167 C   0  0  0  0  0  0  0  0  0  0  0  0
    6.1274   -2.5612   -0.2169 C   0  0  1  0  0  0  0  0  0  0  0  0
    7.6454   -2.5701    0.0352 C   0  0  0  0  0  0  0  0  0  0  0  0
    8.2219   -3.6897    0.1089 O   0  0  0  0  0  0  0  0  0  0  0  0
    8.2084   -1.4744    0.0831 O   0  0  0  0  0  0  0  0  0  0  0  0
    5.7995   -3.0559   -1.6518 C   0  0  0  0  0  0  0  0  0  0  0  0
    1.6680   -2.2655   -2.6101 H   0  0  0  0  0  0  0  0  0  0  0  0
    2.0810   -3.8491   -3.2903 H   0  0  0  0  0  0  0  0  0  0  0  0
    2.0538   -2.4230   -4.3232 H   0  0  0  0  0  0  0  0  0  0  0  0
    2.5120   -3.8227   -1.0521 H   0  0  0  0  0  0  0  0  0  0  0  0
    3.8894   -4.8568   -0.9322 H   0  0  0  0  0  0  0  0  0  0  0  0
    3.5169   -2.1030    0.4821 H   0  0  0  0  0  0  0  0  0  0  0  0
    3.1385   -3.6012    1.1720 H   0  0  0  0  0  0  0  0  0  0  0  0
    2.9598   -5.1820    2.2017 H   0  0  0  0  0  0  0  0  0  0  0  0
    2.7611   -7.3602    1.4802 H   0  0  0  0  0  0  0  0  0  0  0  0
    4.0158   -6.7239    0.4607 H   0  0  0  0  0  0  0  0  0  0  0  0
    4.6648   -8.9580    1.3659 H   0  0  0  0  0  0  0  0  0  0  0  0
    3.4197   -8.8392    3.5401 H   0  0  0  0  0  0  0  0  0  0  0  0
    5.1164   -9.1741    3.8243 H   0  0  0  0  0  0  0  0  0  0  0  0
    4.2980   -7.3993    5.3930 H   0  0  0  0  0  0  0  0  0  0  0  0
    3.5923   -5.2064    4.4596 H   0  0  0  0  0  0  0  0  0  0  0  0
    2.5371   -6.4648    3.9146 H   0  0  0  0  0  0  0  0  0  0  0  0
    6.0586   -5.6946    4.8969 H   0  0  0  0  0  0  0  0  0  0  0  0
    6.6819   -7.3042    4.6334 H   0  0  0  0  0  0  0  0  0  0  0  0
    7.3478   -5.8180    2.7315 H   0  0  0  0  0  0  0  0  0  0  0  0
    6.8970   -8.2348    2.2458 H   0  0  0  0  0  0  0  0  0  0  0  0
    6.4380   -7.2543    0.8816 H   0  0  0  0  0  0  0  0  0  0  0  0
    5.7998   -1.5103   -0.1782 H   0  0  0  0  0  0  0  0  0  0  0  0
    6.1660   -4.0672   -1.7593 H   0  0  0  0  0  0  0  0  0  0  0  0
    6.3306   -2.4576   -2.3846 H   0  0  0  0  0  0  0  0  0  0  0  0
  1  2  1  0
  1 26  1  0
  1 27  1  0
  1 28  1  0
  2  3  2  0
  2  4  1  0
  4 25  1  0
  4  5  1  0
  5  6  1  0
  5 29  1  0
  5 30  1  0
  6  7  1  0
  6 31  1  0
  6 32  1  0
  7 11  1  1
  7  8  1  0
  7 21  1  0
  8  9  1  0
 10  9  1  1
 10 19  1  0
 10 11  1  0
 10 12  1  0
 12 17  1  0
 12 13  1  0
 12 33  1  6
 13 14  1  0
 13 34  1  0
 13 35  1  0
 14 20  1  0
 14 15  1  0
 14 36  1  6
 15 16  1  0
 15 37  1  0
 15 38  1  0
 16 17  1  0
 16 18  1  0
 16 39  1  1
 17 40  1  0
 17 41  1  0
 18 19  1  0
 18 42  1  0
 18 43  1  0
 19 20  1  0
 19 44  1  1
 20 45  1  0
 20 46  1  0
 21 22  1  0
 21 25  1  0
 21 47  1  6
 22 23  2  0
 22 24  1  0
 25 48  1  0
 25 49  1  0
M  CHG  1  24  -1
M  END
>  <i_m_ct_stereo_status>  (275) 
1

>  <s_m_source_file>  (275) 
/var/tmp/pbs.5076255.sched01/tmpt7uccrld/92zpefy4ut.sdf

>  <i_m_source_file_index>  (275) 
28

>  <i_lp_mmshare_version>  (275) 
48012

>  <i_f3d_flags>  (275) 
0

>  <s_epik_input>  (275) 
Tz1DKFtPSF0pW0NASF0xW0NIMl1OKEMoPU8pW0NIM10pW0NIMl1bQ0gyXVtDQF0xMk9PW0NAXTMoTzIpW0NASF00W0NIMl1bQ0BASF01W0NIMl1bQ0BIXShbQ0gyXTQpW0NIMl1bQ0BIXTNbQ0gyXTU=

>  <s_epik_cmdline>  (275) 
J2VwaWtfcHl0aG9uJywgJy1waHQnLCAnMi4wJywgJy1waCcsICc3LjAnLCAnLXRuJywgJzgnLCAnLW1hJywgJzIwMCcsICctaW1hZScsICc8aW5maWxlLm1hZT4nLCAnLW9tYWUnLCAnPG91dGZpbGUubWFlPic=

>  <r_lp_tautomer_probability>  (275) 
1

>  <r_epik_Ionization_Penalty>  (275) 
0.000118391

>  <r_epik_Ionization_Penalty_Charging>  (275) 
0.000117888

>  <r_epik_Ionization_Penalty_Neutral>  (275) 
5.02963e-07

>  <r_epik_State_Penalty>  (275) 
-0

>  <r_epik_Charging_Adjusted_Penalty>  (275) 
0.000117888

>  <i_epik_Tot_Q>  (275) 
-1

>  <i_epik_Tot_abs_Q>  (275) 
1

>  <s_lp_Force_Field>  (275) 
OPLS3e

>  <r_lp_Energy>  (275) 
-12.1793

>  <b_lp_Chiralities_Consistent>  (275) 
1

>  <s_lp_Variant>  (275) 
84:0-1

>  <s_i_glide_gridfile>  (275) 
pfpi4k_grid

>  <i_i_glide_lignum>  (275) 
28

>  <i_i_glide_rotatable_bonds>  (275) 
2

>  <r_i_docking_score>  (275) 
-3.81946

>  <r_i_glide_ligand_efficiency>  (275) 
-0.152778

>  <r_i_glide_ligand_efficiency_sa>  (275) 
-0.446727

>  <r_i_glide_ligand_efficiency_ln>  (275) 
-0.905326

>  <r_i_glide_gscore>  (275) 
-3.81946

>  <r_i_glide_lipo>  (275) 
-0.414498

>  <r_i_glide_hbond>  (275) 
-0.119899

>  <r_i_glide_metal>  (275) 
-0

>  <r_i_glide_rewards>  (275) 
-1.34839

>  <r_i_glide_evdw>  (275) 
-26.4132

>  <r_i_glide_ecoul>  (275) 
-4.04107

>  <r_i_glide_erotb>  (275) 
0

>  <r_i_glide_esite>  (275) 
-0.00985422

>  <r_i_glide_emodel>  (275) 
-37.6518

>  <r_i_glide_energy>  (275) 
-30.4542

>  <r_i_glide_einternal>  (275) 
0.24153

>  <r_i_glide_intrahb_reward>  (275) 
-0

>  <i_i_glide_confnum>  (275) 
1

>  <i_i_glide_posenum>  (275) 
33

>  <r_i_glide_eff_state_penalty>  (275) 
0

>  <ligand_id>  (275) 
84

>  <original_smiles>  (275) 
CC(=O)N1CCC2(OOC3(O2)C2CC4CC(C2)CC3C4)C(C(=O)O)C1

>  <smiles>  (275) 
[H]C([H])([H])C(=O)N1C([H])([H])C([H])([H])C2(OOC3(O2)C2([H])C([H])([H])C4([H])C([H])([H])C([H])(C2([H])[H])C([H])([H])C3([H])C4([H])[H])C([H])(C(=O)[O-])C1([H])[H]

$$$$
84:0:1
     RDKit          3D

 49 53  0  0  1  0  0  0  0  0999 V2000
    3.5898   -0.6488   -3.6206 C   0  0  0  0  0  0  0  0  0  0  0  0
    3.1099   -2.0214   -3.0889 C   0  0  0  0  0  0  0  0  0  0  0  0
    2.2326   -2.6138   -3.7049 O   0  0  0  0  0  0  0  0  0  0  0  0
    3.6740   -2.4792   -1.9660 N   0  0  0  0  0  0  0  0  0  0  0  0
    3.1290   -3.6425   -1.2571 C   0  0  0  0  0  0  0  0  0  0  0  0
    2.7513   -3.2458    0.1750 C   0  0  0  0  0  0  0  0  0  0  0  0
    4.0370   -2.8344    0.9439 C   0  0  1  0  0  0  0  0  0  0  0  0
    3.6637   -2.4992    2.2723 O   0  0  0  0  0  0  0  0  0  0  0  0
    3.9063   -3.7611    3.0830 O   0  0  0  0  0  0  0  0  0  0  0  0
    4.5083   -4.6935    2.1824 C   0  0  2  0  0  0  0  0  0  0  0  0
    4.9359   -3.9640    1.0348 O   0  0  0  0  0  0  0  0  0  0  0  0
    3.4948   -5.8795    1.8693 C   0  0  1  0  0  0  0  0  0  0  0  0
    4.1827   -6.8478    0.8954 C   0  0  0  0  0  0  0  0  0  0  0  0
    5.3912   -7.4997    1.5712 C   0  0  2  0  0  0  0  0  0  0  0  0
    4.9441   -8.2176    2.8659 C   0  0  0  0  0  0  0  0  0  0  0  0
    4.3025   -7.2010    3.8406 C   0  0  2  0  0  0  0  0  0  0  0  0
    3.0921   -6.5747    3.1619 C   0  0  0  0  0  0  0  0  0  0  0  0
    5.3113   -6.0770    4.1674 C   0  0  0  0  0  0  0  0  0  0  0  0
    5.7486   -5.3482    2.8722 C   0  0  1  0  0  0  0  0  0  0  0  0
    6.4035   -6.3821    1.9140 C   0  0  0  0  0  0  0  0  0  0  0  0
    4.6378   -1.6191    0.1832 C   0  0  1  0  0  0  0  0  0  0  0  0
    5.9273   -1.0627    0.8240 C   0  0  0  0  0  0  0  0  0  0  0  0
    5.8209   -0.6267    1.9992 O   0  0  0  0  0  0  0  0  0  0  0  0
    6.9646   -1.0572    0.1351 O   0  0  0  0  0  0  0  0  0  0  0  0
    4.8809   -1.9557   -1.3081 C   0  0  0  0  0  0  0  0  0  0  0  0
    4.5953   -0.7315   -4.0256 H   0  0  0  0  0  0  0  0  0  0  0  0
    3.5920    0.0767   -2.8100 H   0  0  0  0  0  0  0  0  0  0  0  0
    2.9186   -0.2848   -4.3903 H   0  0  0  0  0  0  0  0  0  0  0  0
    2.2270   -4.0441   -1.7106 H   0  0  0  0  0  0  0  0  0  0  0  0
    3.8528   -4.4602   -1.2687 H   0  0  0  0  0  0  0  0  0  0  0  0
    2.0201   -2.4359    0.2008 H   0  0  0  0  0  0  0  0  0  0  0  0
    2.2122   -4.0195    0.6347 H   0  0  0  0  0  0  0  0  0  0  0  0
    2.5254   -5.6982    1.4782 H   0  0  0  0  0  0  0  0  0  0  0  0
    3.4544   -7.5923    0.5895 H   0  0  0  0  0  0  0  0  0  0  0  0
    4.4836   -6.3316   -0.0158 H   0  0  0  0  0  0  0  0  0  0  0  0
    5.8381   -8.2294    0.8843 H   0  0  0  0  0  0  0  0  0  0  0  0
    4.2382   -9.0213    2.6360 H   0  0  0  0  0  0  0  0  0  0  0  0
    5.8032   -8.6771    3.3462 H   0  0  0  0  0  0  0  0  0  0  0  0
    3.9702   -7.7031    4.7510 H   0  0  0  0  0  0  0  0  0  0  0  0
    2.5878   -5.8610    3.8138 H   0  0  0  0  0  0  0  0  0  0  0  0
    2.3399   -7.3208    2.9168 H   0  0  0  0  0  0  0  0  0  0  0  0
    4.8606   -5.3706    4.8671 H   0  0  0  0  0  0  0  0  0  0  0  0
    6.1687   -6.5102    4.6734 H   0  0  0  0  0  0  0  0  0  0  0  0
    6.5001   -4.5955    3.1220 H   0  0  0  0  0  0  0  0  0  0  0  0
    7.2800   -6.8290    2.3759 H   0  0  0  0  0  0  0  0  0  0  0  0
    6.7419   -5.8962    0.9990 H   0  0  0  0  0  0  0  0  0  0  0  0
    3.8977   -0.8080    0.2106 H   0  0  0  0  0  0  0  0  0  0  0  0
    5.6612   -2.7069   -1.3924 H   0  0  0  0  0  0  0  0  0  0  0  0
    5.2684   -1.0746   -1.8103 H   0  0  0  0  0  0  0  0  0  0  0  0
  1  2  1  0
  1 26  1  0
  1 27  1  0
  1 28  1  0
  2  3  2  0
  2  4  1  0
  4 25  1  0
  4  5  1  0
  5  6  1  0
  5 29  1  0
  5 30  1  0
  6  7  1  0
  6 31  1  0
  6 32  1  0
  7 11  1  1
  7  8  1  0
  7 21  1  0
  8  9  1  0
 10  9  1  1
 10 19  1  0
 10 11  1  0
 10 12  1  0
 12 17  1  0
 12 13  1  0
 12 33  1  6
 13 14  1  0
 13 34  1  0
 13 35  1  0
 14 20  1  0
 14 15  1  0
 14 36  1  6
 15 16  1  0
 15 37  1  0
 15 38  1  0
 16 17  1  0
 16 18  1  0
 16 39  1  1
 17 40  1  0
 17 41  1  0
 18 19  1  0
 18 42  1  0
 18 43  1  0
 19 20  1  0
 19 44  1  1
 20 45  1  0
 20 46  1  0
 21 22  1  0
 21 25  1  0
 21 47  1  6
 22 23  2  0
 22 24  1  0
 25 48  1  0
 25 49  1  0
M  CHG  1  24  -1
M  END
>  <i_m_ct_stereo_status>  (276) 
1

>  <s_m_source_file>  (276) 
/var/tmp/pbs.5076255.sched01/tmpt7uccrld/92zpefy4ut.sdf

>  <i_m_source_file_index>  (276) 
28

>  <i_lp_mmshare_version>  (276) 
48012

>  <i_f3d_flags>  (276) 
0

>  <s_epik_input>  (276) 
Tz1DKFtPSF0pW0NASF0xW0NIMl1OKEMoPU8pW0NIM10pW0NIMl1bQ0gyXVtDQF0xMk9PW0NAXTMoTzIpW0NASF00W0NIMl1bQ0BASF01W0NIMl1bQ0BIXShbQ0gyXTQpW0NIMl1bQ0BIXTNbQ0gyXTU=

>  <s_epik_cmdline>  (276) 
J2VwaWtfcHl0aG9uJywgJy1waHQnLCAnMi4wJywgJy1waCcsICc3LjAnLCAnLXRuJywgJzgnLCAnLW1hJywgJzIwMCcsICctaW1hZScsICc8aW5maWxlLm1hZT4nLCAnLW9tYWUnLCAnPG91dGZpbGUubWFlPic=

>  <r_lp_tautomer_probability>  (276) 
1

>  <r_epik_Ionization_Penalty>  (276) 
0.000118391

>  <r_epik_Ionization_Penalty_Charging>  (276) 
0.000117888

>  <r_epik_Ionization_Penalty_Neutral>  (276) 
5.02963e-07

>  <r_epik_State_Penalty>  (276) 
-0

>  <r_epik_Charging_Adjusted_Penalty>  (276) 
0.000117888

>  <i_epik_Tot_Q>  (276) 
-1

>  <i_epik_Tot_abs_Q>  (276) 
1

>  <s_lp_Force_Field>  (276) 
OPLS3e

>  <r_lp_Energy>  (276) 
-12.1793

>  <b_lp_Chiralities_Consistent>  (276) 
1

>  <s_lp_Variant>  (276) 
84:0-1

>  <s_i_glide_gridfile>  (276) 
pfpi4k_grid

>  <i_i_glide_lignum>  (276) 
28

>  <i_i_glide_rotatable_bonds>  (276) 
2

>  <r_i_docking_score>  (276) 
-3.17934

>  <r_i_glide_ligand_efficiency>  (276) 
-0.127174

>  <r_i_glide_ligand_efficiency_sa>  (276) 
-0.371858

>  <r_i_glide_ligand_efficiency_ln>  (276) 
-0.753599

>  <r_i_glide_gscore>  (276) 
-3.17934

>  <r_i_glide_lipo>  (276) 
-0.588333

>  <r_i_glide_hbond>  (276) 
-0.0960556

>  <r_i_glide_metal>  (276) 
-0

>  <r_i_glide_rewards>  (276) 
-1.24365

>  <r_i_glide_evdw>  (276) 
-25.1501

>  <r_i_glide_ecoul>  (276) 
0.221577

>  <r_i_glide_erotb>  (276) 
0

>  <r_i_glide_esite>  (276) 
-0.0270308

>  <r_i_glide_emodel>  (276) 
-29.7677

>  <r_i_glide_energy>  (276) 
-24.9285

>  <r_i_glide_einternal>  (276) 
0.93143

>  <r_i_glide_intrahb_reward>  (276) 
-0

>  <i_i_glide_confnum>  (276) 
1

>  <i_i_glide_posenum>  (276) 
1

>  <r_i_glide_eff_state_penalty>  (276) 
0

>  <ligand_id>  (276) 
84

>  <original_smiles>  (276) 
CC(=O)N1CCC2(OOC3(O2)C2CC4CC(C2)CC3C4)C(C(=O)O)C1

>  <smiles>  (276) 
[H]C([H])([H])C(=O)N1C([H])([H])C([H])([H])C2(OOC3(O2)C2([H])C([H])([H])C4([H])C([H])([H])C([H])(C2([H])[H])C([H])([H])C3([H])C4([H])[H])C([H])(C(=O)[O-])C1([H])[H]

$$$$
84:0:2
     RDKit          3D

 49 53  0  0  1  0  0  0  0  0999 V2000
    0.4021   -3.3034    7.7726 C   0  0  0  0  0  0  0  0  0  0  0  0
    0.2963   -2.7919    6.3161 C   0  0  0  0  0  0  0  0  0  0  0  0
   -0.7895   -2.3282    5.9574 O   0  0  0  0  0  0  0  0  0  0  0  0
    1.3711   -2.9031    5.5363 N   0  0  0  0  0  0  0  0  0  0  0  0
    1.2985   -2.6170    4.0844 C   0  0  0  0  0  0  0  0  0  0  0  0
    1.6955   -3.8846    3.3145 C   0  0  0  0  0  0  0  0  0  0  0  0
    3.1818   -4.2282    3.6049 C   0  0  1  0  0  0  0  0  0  0  0  0
    3.5310   -5.3735    2.8540 O   0  0  0  0  0  0  0  0  0  0  0  0
    4.2146   -4.8357    1.6042 O   0  0  0  0  0  0  0  0  0  0  0  0
    4.2939   -3.4154    1.7937 C   0  0  2  0  0  0  0  0  0  0  0  0
    4.0254   -3.1378    3.1552 O   0  0  0  0  0  0  0  0  0  0  0  0
    3.3170   -2.6762    0.7851 C   0  0  1  0  0  0  0  0  0  0  0  0
    3.4273   -1.1658    1.0365 C   0  0  0  0  0  0  0  0  0  0  0  0
    4.8354   -0.6867    0.6691 C   0  0  2  0  0  0  0  0  0  0  0  0
    5.1396   -1.0531   -0.8014 C   0  0  0  0  0  0  0  0  0  0  0  0
    5.0652   -2.5872   -0.9973 C   0  0  2  0  0  0  0  0  0  0  0  0
    3.6540   -3.0440   -0.6460 C   0  0  0  0  0  0  0  0  0  0  0  0
    6.0614   -3.2876   -0.0445 C   0  0  0  0  0  0  0  0  0  0  0  0
    5.7477   -2.9416    1.4308 C   0  0  1  0  0  0  0  0  0  0  0  0
    5.8420   -1.3973    1.6065 C   0  0  0  0  0  0  0  0  0  0  0  0
    3.2804   -4.5016    5.1383 C   0  0  1  0  0  0  0  0  0  0  0  0
    4.6961   -4.9003    5.6488 C   0  0  0  0  0  0  0  0  0  0  0  0
    5.6282   -5.0165    4.8340 O   0  0  0  0  0  0  0  0  0  0  0  0
    4.8046   -5.0694    6.8852 O   0  0  0  0  0  0  0  0  0  0  0  0
    2.7375   -3.3033    5.9502 C   0  0  0  0  0  0  0  0  0  0  0  0
    1.0466   -2.6470    8.3530 H   0  0  0  0  0  0  0  0  0  0  0  0
    0.8174   -4.3086    7.7772 H   0  0  0  0  0  0  0  0  0  0  0  0
   -0.5768   -3.3480    8.2341 H   0  0  0  0  0  0  0  0  0  0  0  0
    0.3052   -2.3421    3.7441 H   0  0  0  0  0  0  0  0  0  0  0  0
    1.9368   -1.7637    3.8453 H   0  0  0  0  0  0  0  0  0  0  0  0
    1.0559   -4.7442    3.5435 H   0  0  0  0  0  0  0  0  0  0  0  0
    1.5176   -3.7483    2.2797 H   0  0  0  0  0  0  0  0  0  0  0  0
    2.2732   -2.8980    0.7750 H   0  0  0  0  0  0  0  0  0  0  0  0
    2.6657   -0.6589    0.4497 H   0  0  0  0  0  0  0  0  0  0  0  0
    3.2047   -0.9227    2.0736 H   0  0  0  0  0  0  0  0  0  0  0  0
    4.8862    0.4049    0.7991 H   0  0  0  0  0  0  0  0  0  0  0  0
    4.4491   -0.5446   -1.4782 H   0  0  0  0  0  0  0  0  0  0  0  0
    6.1374   -0.7179   -1.0529 H   0  0  0  0  0  0  0  0  0  0  0  0
    5.2671   -2.8484   -2.0372 H   0  0  0  0  0  0  0  0  0  0  0  0
    3.5363   -4.1193   -0.7852 H   0  0  0  0  0  0  0  0  0  0  0  0
    2.9099   -2.5851   -1.2909 H   0  0  0  0  0  0  0  0  0  0  0  0
    6.0095   -4.3676   -0.1985 H   0  0  0  0  0  0  0  0  0  0  0  0
    7.0719   -2.9855   -0.3057 H   0  0  0  0  0  0  0  0  0  0  0  0
    6.4876   -3.4230    2.0874 H   0  0  0  0  0  0  0  0  0  0  0  0
    6.8469   -1.0508    1.3739 H   0  0  0  0  0  0  0  0  0  0  0  0
    5.6450   -1.1138    2.6392 H   0  0  0  0  0  0  0  0  0  0  0  0
    2.6330   -5.3571    5.3605 H   0  0  0  0  0  0  0  0  0  0  0  0
    3.4044   -2.4540    5.8300 H   0  0  0  0  0  0  0  0  0  0  0  0
    2.7834   -3.5399    7.0122 H   0  0  0  0  0  0  0  0  0  0  0  0
  1  2  1  0
  1 26  1  0
  1 27  1  0
  1 28  1  0
  2  3  2  0
  2  4  1  0
  4 25  1  0
  4  5  1  0
  5  6  1  0
  5 29  1  0
  5 30  1  0
  6  7  1  0
  6 31  1  0
  6 32  1  0
  7 11  1  6
  7  8  1  0
  7 21  1  0
  8  9  1  0
 10  9  1  1
 10 19  1  0
 10 11  1  0
 10 12  1  0
 12 17  1  0
 12 13  1  0
 12 33  1  1
 13 14  1  0
 13 34  1  0
 13 35  1  0
 14 20  1  0
 14 15  1  0
 14 36  1  6
 15 16  1  0
 15 37  1  0
 15 38  1  0
 16 17  1  0
 16 18  1  0
 16 39  1  6
 17 40  1  0
 17 41  1  0
 18 19  1  0
 18 42  1  0
 18 43  1  0
 19 20  1  0
 19 44  1  1
 20 45  1  0
 20 46  1  0
 21 22  1  0
 21 25  1  0
 21 47  1  6
 22 23  2  0
 22 24  1  0
 25 48  1  0
 25 49  1  0
M  CHG  1  24  -1
M  END
>  <i_m_ct_stereo_status>  (277) 
1

>  <s_m_source_file>  (277) 
/var/tmp/pbs.5076255.sched01/tmpt7uccrld/92zpefy4ut.sdf

>  <i_m_source_file_index>  (277) 
28

>  <i_lp_mmshare_version>  (277) 
48012

>  <i_f3d_flags>  (277) 
0

>  <s_epik_input>  (277) 
Tz1DKFtPSF0pW0NASF0xW0NIMl1OKEMoPU8pW0NIM10pW0NIMl1bQ0gyXVtDQF0xMk9PW0NAXTMoTzIpW0NASF00W0NIMl1bQ0BASF01W0NIMl1bQ0BIXShbQ0gyXTQpW0NIMl1bQ0BIXTNbQ0gyXTU=

>  <s_epik_cmdline>  (277) 
J2VwaWtfcHl0aG9uJywgJy1waHQnLCAnMi4wJywgJy1waCcsICc3LjAnLCAnLXRuJywgJzgnLCAnLW1hJywgJzIwMCcsICctaW1hZScsICc8aW5maWxlLm1hZT4nLCAnLW9tYWUnLCAnPG91dGZpbGUubWFlPic=

>  <r_lp_tautomer_probability>  (277) 
1

>  <r_epik_Ionization_Penalty>  (277) 
0.000118391

>  <r_epik_Ionization_Penalty_Charging>  (277) 
0.000117888

>  <r_epik_Ionization_Penalty_Neutral>  (277) 
5.02963e-07

>  <r_epik_State_Penalty>  (277) 
-0

>  <r_epik_Charging_Adjusted_Penalty>  (277) 
0.000117888

>  <i_epik_Tot_Q>  (277) 
-1

>  <i_epik_Tot_abs_Q>  (277) 
1

>  <s_lp_Force_Field>  (277) 
OPLS3e

>  <r_lp_Energy>  (277) 
-12.1793

>  <b_lp_Chiralities_Consistent>  (277) 
1

>  <s_lp_Variant>  (277) 
84:0-1

>  <s_i_glide_gridfile>  (277) 
pfpi4k_grid

>  <i_i_glide_lignum>  (277) 
28

>  <i_i_glide_rotatable_bonds>  (277) 
2

>  <r_i_docking_score>  (277) 
-2.70052

>  <r_i_glide_ligand_efficiency>  (277) 
-0.108021

>  <r_i_glide_ligand_efficiency_sa>  (277) 
-0.315854

>  <r_i_glide_ligand_efficiency_ln>  (277) 
-0.640104

>  <r_i_glide_gscore>  (277) 
-2.70052

>  <r_i_glide_lipo>  (277) 
-0.467759

>  <r_i_glide_hbond>  (277) 
0

>  <r_i_glide_metal>  (277) 
-0

>  <r_i_glide_rewards>  (277) 
-1.0372

>  <r_i_glide_evdw>  (277) 
-21.0533

>  <r_i_glide_ecoul>  (277) 
-0.859109

>  <r_i_glide_erotb>  (277) 
0

>  <r_i_glide_esite>  (277) 
-0.014033

>  <r_i_glide_emodel>  (277) 
-26.1745

>  <r_i_glide_energy>  (277) 
-21.9124

>  <r_i_glide_einternal>  (277) 
0.557976

>  <r_i_glide_intrahb_reward>  (277) 
-0

>  <i_i_glide_confnum>  (277) 
1

>  <i_i_glide_posenum>  (277) 
10

>  <r_i_glide_eff_state_penalty>  (277) 
0

>  <ligand_id>  (277) 
84

>  <original_smiles>  (277) 
CC(=O)N1CCC2(OOC3(O2)C2CC4CC(C2)CC3C4)C(C(=O)O)C1

>  <smiles>  (277) 
[H]C([H])([H])C(=O)N1C([H])([H])C([H])([H])C2(OOC3(O2)C2([H])C([H])([H])C4([H])C([H])([H])C([H])(C2([H])[H])C([H])([H])C3([H])C4([H])[H])C([H])(C(=O)[O-])C1([H])[H]

$$$$
85:0:0
     RDKit          3D

 77 82  0  0  1  0  0  0  0  0999 V2000
   -0.0652   -1.4258    5.1246 C   0  0  0  0  0  0  0  0  0  0  0  0
    0.8474   -2.4341    4.4051 C   0  0  2  0  0  0  0  0  0  0  0  0
    1.1563   -3.6617    5.2821 C   0  0  0  0  0  0  0  0  0  0  0  0
    2.3825   -4.4118    4.7403 C   0  0  2  0  0  0  0  0  0  0  0  0
    2.5964   -5.8634    5.2588 C   0  0  1  0  0  0  0  0  0  0  0  0
    3.1178   -5.8570    6.6866 C   0  0  2  0  0  0  0  0  0  0  0  0
    4.5194   -5.2371    6.6961 C   0  0  0  0  0  0  0  0  0  0  0  0
    4.4288   -3.7689    6.2567 C   0  0  0  0  0  0  0  0  0  0  0  0
    3.6629   -3.5274    4.9164 C   0  0  2  0  0  0  0  0  0  0  0  0
    3.4312   -1.9927    4.5841 C   0  0  1  0  0  0  0  0  0  0  0  0
    3.3631   -1.0988    5.8514 C   0  0  0  0  0  0  0  0  0  0  0  0
    4.6322   -1.4957    3.7253 C   0  0  0  0  0  0  0  0  0  0  0  0
    4.3696   -0.1716    2.9987 C   0  0  0  0  0  0  0  0  0  0  0  0
    3.1686   -0.2967    2.0548 C   0  0  0  0  0  0  0  0  0  0  0  0
    2.0184   -1.0430    2.6962 C   0  0  0  0  0  0  0  0  0  0  0  0
    2.1023   -1.7701    3.8291 C   0  0  0  0  0  0  0  0  0  0  0  0
    3.0145   -7.3113    7.1518 C   0  0  0  0  0  0  0  0  0  0  0  0
    1.8753   -7.9514    6.3331 C   0  0  2  0  0  0  0  0  0  0  0  0
    2.2554   -9.3068    5.7063 C   0  0  1  0  0  0  0  0  0  0  0  0
    2.7039  -10.1999    6.7181 O   0  0  0  0  0  0  0  0  0  0  0  0
    1.0410   -9.9028    4.9581 C   0  0  1  0  0  0  0  0  0  0  0  0
    0.1950   -8.8378    4.2030 C   0  0  2  0  0  0  0  0  0  0  0  0
   -0.3654   -9.5786    2.9798 C   0  0  0  0  0  0  0  0  0  0  0  0
    0.6642  -10.6511    2.6450 C   0  0  0  0  0  0  0  0  0  0  0  0
    1.3024  -11.0782    3.9718 C   0  0  1  0  0  0  0  0  0  0  0  0
    2.7624  -11.5338    3.7784 C   0  0  0  0  0  0  0  0  0  0  0  0
    0.6209  -12.2360    4.4286 O   0  0  0  0  0  0  0  0  0  0  0  0
    0.9025   -7.4694    3.9246 C   0  0  0  0  0  0  0  0  0  0  0  0
    1.9975   -7.5909    2.8320 C   0  0  0  0  0  0  0  0  0  0  0  0
   -0.1573   -6.5001    3.3713 C   0  0  0  0  0  0  0  0  0  0  0  0
    1.4285   -6.8855    5.2905 C   0  0  2  0  0  0  0  0  0  0  0  0
   -0.3786   -0.6345    4.4415 H   0  0  0  0  0  0  0  0  0  0  0  0
    0.4305   -0.9494    5.9727 H   0  0  0  0  0  0  0  0  0  0  0  0
   -0.9675   -1.9146    5.4964 H   0  0  0  0  0  0  0  0  0  0  0  0
    0.2994   -2.7934    3.5348 H   0  0  0  0  0  0  0  0  0  0  0  0
    1.3278   -3.3608    6.3154 H   0  0  0  0  0  0  0  0  0  0  0  0
    0.2691   -4.2943    5.2945 H   0  0  0  0  0  0  0  0  0  0  0  0
    2.2231   -4.5029    3.6684 H   0  0  0  0  0  0  0  0  0  0  0  0
    3.3883   -6.3038    4.6529 H   0  0  0  0  0  0  0  0  0  0  0  0
    2.4539   -5.2584    7.3136 H   0  0  0  0  0  0  0  0  0  0  0  0
    4.9589   -5.3009    7.6927 H   0  0  0  0  0  0  0  0  0  0  0  0
    5.1884   -5.7852    6.0294 H   0  0  0  0  0  0  0  0  0  0  0  0
    3.9542   -3.2376    7.0794 H   0  0  0  0  0  0  0  0  0  0  0  0
    5.4397   -3.3683    6.1746 H   0  0  0  0  0  0  0  0  0  0  0  0
    4.3416   -3.9279    4.1611 H   0  0  0  0  0  0  0  0  0  0  0  0
    4.3253   -1.0262    6.3604 H   0  0  0  0  0  0  0  0  0  0  0  0
    2.6337   -1.4638    6.5736 H   0  0  0  0  0  0  0  0  0  0  0  0
    3.0642   -0.0807    5.6012 H   0  0  0  0  0  0  0  0  0  0  0  0
    5.5227   -1.4011    4.3460 H   0  0  0  0  0  0  0  0  0  0  0  0
    4.8739   -2.2253    2.9524 H   0  0  0  0  0  0  0  0  0  0  0  0
    4.1932    0.6323    3.7163 H   0  0  0  0  0  0  0  0  0  0  0  0
    5.2501    0.1258    2.4267 H   0  0  0  0  0  0  0  0  0  0  0  0
    2.8248    0.6969    1.7648 H   0  0  0  0  0  0  0  0  0  0  0  0
    3.4469   -0.8255    1.1427 H   0  0  0  0  0  0  0  0  0  0  0  0
    1.0736   -0.9399    2.1836 H   0  0  0  0  0  0  0  0  0  0  0  0
    3.9573   -7.8390    6.9924 H   0  0  0  0  0  0  0  0  0  0  0  0
    2.7923   -7.3520    8.2197 H   0  0  0  0  0  0  0  0  0  0  0  0
    1.0332   -8.1342    7.0001 H   0  0  0  0  0  0  0  0  0  0  0  0
    3.0965   -9.1412    5.0346 H   0  0  0  0  0  0  0  0  0  0  0  0
    2.0451  -10.8705    6.8964 H   0  0  0  0  0  0  0  0  0  0  0  0
    0.3763  -10.2876    5.7328 H   0  0  0  0  0  0  0  0  0  0  0  0
   -0.6626   -8.6030    4.8357 H   0  0  0  0  0  0  0  0  0  0  0  0
   -1.2923  -10.0662    3.2773 H   0  0  0  0  0  0  0  0  0  0  0  0
   -0.6064   -8.9556    2.1172 H   0  0  0  0  0  0  0  0  0  0  0  0
    0.2118  -11.4824    2.0942 H   0  0  0  0  0  0  0  0  0  0  0  0
    1.4232  -10.2193    1.9933 H   0  0  0  0  0  0  0  0  0  0  0  0
    3.4097  -10.7419    3.4032 H   0  0  0  0  0  0  0  0  0  0  0  0
    2.8188  -12.3481    3.0545 H   0  0  0  0  0  0  0  0  0  0  0  0
    3.1854  -11.9111    4.7096 H   0  0  0  0  0  0  0  0  0  0  0  0
    0.9879  -12.9822    3.9759 H   0  0  0  0  0  0  0  0  0  0  0  0
    2.4589   -6.6278    2.6144 H   0  0  0  0  0  0  0  0  0  0  0  0
    1.5749   -7.9318    1.8865 H   0  0  0  0  0  0  0  0  0  0  0  0
    2.7925   -8.2847    3.0913 H   0  0  0  0  0  0  0  0  0  0  0  0
    0.2734   -5.5150    3.1951 H   0  0  0  0  0  0  0  0  0  0  0  0
   -0.9931   -6.3825    4.0656 H   0  0  0  0  0  0  0  0  0  0  0  0
   -0.5610   -6.8378    2.4159 H   0  0  0  0  0  0  0  0  0  0  0  0
    0.5859   -6.3895    5.7761 H   0  0  0  0  0  0  0  0  0  0  0  0
  1  2  1  0
  1 32  1  0
  1 33  1  0
  1 34  1  0
  2 16  1  0
  2  3  1  0
  2 35  1  6
  3  4  1  0
  3 36  1  0
  3 37  1  0
  4  9  1  0
  4  5  1  0
  4 38  1  6
  5 31  1  0
  5  6  1  0
  5 39  1  6
  6  7  1  0
  6 17  1  0
  6 40  1  1
  7  8  1  0
  7 41  1  0
  7 42  1  0
  8  9  1  0
  8 43  1  0
  8 44  1  0
  9 10  1  0
  9 45  1  6
 10 16  1  0
 10 11  1  1
 10 12  1  0
 11 46  1  0
 11 47  1  0
 11 48  1  0
 12 13  1  0
 12 49  1  0
 12 50  1  0
 13 14  1  0
 13 51  1  0
 13 52  1  0
 14 15  1  0
 14 53  1  0
 14 54  1  0
 15 16  2  0
 15 55  1  0
 17 18  1  0
 17 56  1  0
 17 57  1  0
 18 31  1  0
 18 19  1  0
 18 58  1  1
 19 20  1  0
 19 21  1  0
 19 59  1  6
 20 60  1  0
 21 25  1  0
 21 22  1  0
 21 61  1  1
 22 23  1  0
 22 28  1  0
 22 62  1  1
 23 24  1  0
 23 63  1  0
 23 64  1  0
 24 25  1  0
 24 65  1  0
 24 66  1  0
 25 26  1  0
 25 27  1  1
 26 67  1  0
 26 68  1  0
 26 69  1  0
 27 70  1  0
 28 29  1  0
 28 30  1  0
 28 31  1  0
 29 71  1  0
 29 72  1  0
 29 73  1  0
 30 74  1  0
 30 75  1  0
 30 76  1  0
 31 77  1  1
M  END
>  <i_m_ct_stereo_status>  (278) 
1

>  <s_m_source_file>  (278) 
/var/tmp/pbs.5076255.sched01/tmpt7uccrld/92zpefy4ut.sdf

>  <i_m_source_file_index>  (278) 
29

>  <i_lp_mmshare_version>  (278) 
48012

>  <i_f3d_flags>  (278) 
0

>  <s_epik_input>  (278) 
W0NIMl0xW0NIMl1bQ0gyXVtDSF09QzJbQ0BIXShbQ0gzXSlbQ0gyXVtDQEBIXShbQ0BIXTNbQ0BAXTEyW0NIM10pW0NASF00W0NASF0oW0NIMl1bQ0gyXTMpW0NIMl1bQ0BIXTVbQ0BASF00QyhbQ0gzXSkoW0NIM10pW0NAQEhdNltDQEhdKFtDQEBIXTVbT0hdKVtDQEBdKFtDSDNdKShbT0hdKVtDSDJdW0NIMl02

>  <s_epik_cmdline>  (278) 
J2VwaWtfcHl0aG9uJywgJy1waHQnLCAnMi4wJywgJy1waCcsICc3LjAnLCAnLXRuJywgJzgnLCAnLW1hJywgJzIwMCcsICctaW1hZScsICc8aW5maWxlLm1hZT4nLCAnLW9tYWUnLCAnPG91dGZpbGUubWFlPic=

>  <r_lp_tautomer_probability>  (278) 
1

>  <r_epik_Ionization_Penalty>  (278) 
5.2375e-06

>  <r_epik_Ionization_Penalty_Charging>  (278) 
0

>  <r_epik_Ionization_Penalty_Neutral>  (278) 
5.2375e-06

>  <r_epik_State_Penalty>  (278) 
-0

>  <r_epik_Charging_Adjusted_Penalty>  (278) 
0

>  <i_epik_Tot_Q>  (278) 
0

>  <i_epik_Tot_abs_Q>  (278) 
0

>  <s_lp_Force_Field>  (278) 
OPLS3e

>  <r_lp_Energy>  (278) 
68.9454

>  <b_lp_Chiralities_Consistent>  (278) 
1

>  <s_lp_Variant>  (278) 
85:0-1

>  <s_i_glide_gridfile>  (278) 
pfpi4k_grid

>  <i_i_glide_lignum>  (278) 
29

>  <i_i_glide_rotatable_bonds>  (278) 
2

>  <r_i_docking_score>  (278) 
-3.56561

>  <r_i_glide_ligand_efficiency>  (278) 
-0.11502

>  <r_i_glide_ligand_efficiency_sa>  (278) 
-0.36132

>  <r_i_glide_ligand_efficiency_ln>  (278) 
-0.804153

>  <r_i_glide_gscore>  (278) 
-3.56561

>  <r_i_glide_lipo>  (278) 
-0.370926

>  <r_i_glide_hbond>  (278) 
-0.456

>  <r_i_glide_metal>  (278) 
-0

>  <r_i_glide_rewards>  (278) 
-0.499948

>  <r_i_glide_evdw>  (278) 
-25.1171

>  <r_i_glide_ecoul>  (278) 
-6.55252

>  <r_i_glide_erotb>  (278) 
0

>  <r_i_glide_esite>  (278) 
0

>  <r_i_glide_emodel>  (278) 
-38.2802

>  <r_i_glide_energy>  (278) 
-31.6696

>  <r_i_glide_einternal>  (278) 
1.41345

>  <r_i_glide_intrahb_reward>  (278) 
-0

>  <i_i_glide_confnum>  (278) 
1

>  <i_i_glide_posenum>  (278) 
26

>  <r_i_glide_eff_state_penalty>  (278) 
0

>  <ligand_id>  (278) 
85

>  <original_smiles>  (278) 
CC1CC2C3C(CCC2C2(C)CCCC=C12)CC1C(O)C2C(CCC2(C)O)C(C)(C)C13

>  <smiles>  (278) 
[H]OC1([H])C2([H])C([H])([H])C3([H])C([H])([H])C([H])([H])C4([H])C([H])(C([H])([H])C([H])(C([H])([H])[H])C5=C([H])C([H])([H])C([H])([H])C([H])([H])C54C([H])([H])[H])C3([H])C2([H])C(C([H])([H])[H])(C([H])([H])[H])C2([H])C([H])([H])C([H])([H])C(O[H])(C([H])([H])[H])C12[H]

$$$$
85:0:1
     RDKit          3D

 77 82  0  0  1  0  0  0  0  0999 V2000
    4.6180   -0.8532    2.3910 C   0  0  0  0  0  0  0  0  0  0  0  0
    4.0467   -2.1989    1.9094 C   0  0  2  0  0  0  0  0  0  0  0  0
    4.5106   -3.3759    2.7869 C   0  0  0  0  0  0  0  0  0  0  0  0
    4.3025   -4.7063    2.0470 C   0  0  2  0  0  0  0  0  0  0  0  0
    4.3526   -5.9952    2.9122 C   0  0  1  0  0  0  0  0  0  0  0  0
    5.7842   -6.3320    3.2999 C   0  0  2  0  0  0  0  0  0  0  0  0
    6.5655   -6.6961    2.0329 C   0  0  0  0  0  0  0  0  0  0  0  0
    6.6356   -5.4655    1.1156 C   0  0  0  0  0  0  0  0  0  0  0  0
    5.2613   -4.7869    0.8121 C   0  0  2  0  0  0  0  0  0  0  0  0
    5.3913   -3.4210    0.0127 C   0  0  1  0  0  0  0  0  0  0  0  0
    6.7375   -2.6884    0.2628 C   0  0  0  0  0  0  0  0  0  0  0  0
    5.2978   -3.7345   -1.5095 C   0  0  0  0  0  0  0  0  0  0  0  0
    5.0133   -2.5145   -2.3922 C   0  0  0  0  0  0  0  0  0  0  0  0
    3.6839   -1.8674   -1.9946 C   0  0  0  0  0  0  0  0  0  0  0  0
    3.5321   -1.7746   -0.4887 C   0  0  0  0  0  0  0  0  0  0  0  0
    4.2871   -2.4257    0.4133 C   0  0  0  0  0  0  0  0  0  0  0  0
    5.6631   -7.4293    4.3598 C   0  0  0  0  0  0  0  0  0  0  0  0
    4.2849   -7.2319    5.0281 C   0  0  2  0  0  0  0  0  0  0  0  0
    3.4558   -8.5268    5.1172 C   0  0  1  0  0  0  0  0  0  0  0  0
    4.1975   -9.5013    5.8248 O   0  0  0  0  0  0  0  0  0  0  0  0
    2.1357   -8.2605    5.8756 C   0  0  1  0  0  0  0  0  0  0  0  0
    1.5001   -6.8857    5.5203 C   0  0  2  0  0  0  0  0  0  0  0  0
   -0.0065   -7.1270    5.6549 C   0  0  0  0  0  0  0  0  0  0  0  0
   -0.2293   -8.6040    5.3158 C   0  0  0  0  0  0  0  0  0  0  0  0
    1.0150   -9.3533    5.8092 C   0  0  1  0  0  0  0  0  0  0  0  0
    1.2860  -10.5971    4.9434 C   0  0  0  0  0  0  0  0  0  0  0  0
    0.7303   -9.8267    7.1211 O   0  0  0  0  0  0  0  0  0  0  0  0
    1.9939   -6.2094    4.1930 C   0  0  0  0  0  0  0  0  0  0  0  0
    1.4685   -6.9595    2.9407 C   0  0  0  0  0  0  0  0  0  0  0  0
    1.4090   -4.7736    4.1250 C   0  0  0  0  0  0  0  0  0  0  0  0
    3.5665   -6.0937    4.2471 C   0  0  2  0  0  0  0  0  0  0  0  0
    4.1661   -0.0222    1.8457 H   0  0  0  0  0  0  0  0  0  0  0  0
    5.6984   -0.7883    2.2528 H   0  0  0  0  0  0  0  0  0  0  0  0
    4.4093   -0.6971    3.4505 H   0  0  0  0  0  0  0  0  0  0  0  0
    2.9623   -2.1363    2.0152 H   0  0  0  0  0  0  0  0  0  0  0  0
    5.5611   -3.2598    3.0597 H   0  0  0  0  0  0  0  0  0  0  0  0
    3.9535   -3.3391    3.7178 H   0  0  0  0  0  0  0  0  0  0  0  0
    3.2892   -4.6679    1.6458 H   0  0  0  0  0  0  0  0  0  0  0  0
    4.0124   -6.8199    2.2838 H   0  0  0  0  0  0  0  0  0  0  0  0
    6.2478   -5.4629    3.7746 H   0  0  0  0  0  0  0  0  0  0  0  0
    7.5719   -7.0317    2.2866 H   0  0  0  0  0  0  0  0  0  0  0  0
    6.0858   -7.5279    1.5128 H   0  0  0  0  0  0  0  0  0  0  0  0
    7.3181   -4.7720    1.5967 H   0  0  0  0  0  0  0  0  0  0  0  0
    7.1079   -5.7616    0.1768 H   0  0  0  0  0  0  0  0  0  0  0  0
    4.7586   -5.5014    0.1632 H   0  0  0  0  0  0  0  0  0  0  0  0
    7.5852   -3.2220   -0.1653 H   0  0  0  0  0  0  0  0  0  0  0  0
    6.9345   -2.5490    1.3241 H   0  0  0  0  0  0  0  0  0  0  0  0
    6.7319   -1.6925   -0.1782 H   0  0  0  0  0  0  0  0  0  0  0  0
    6.2112   -4.2112   -1.8476 H   0  0  0  0  0  0  0  0  0  0  0  0
    4.4951   -4.4452   -1.6994 H   0  0  0  0  0  0  0  0  0  0  0  0
    5.8173   -1.7830   -2.3049 H   0  0  0  0  0  0  0  0  0  0  0  0
    4.9792   -2.8049   -3.4433 H   0  0  0  0  0  0  0  0  0  0  0  0
    3.6115   -0.8648   -2.4192 H   0  0  0  0  0  0  0  0  0  0  0  0
    2.8434   -2.4433   -2.3836 H   0  0  0  0  0  0  0  0  0  0  0  0
    2.7519   -1.1131   -0.1438 H   0  0  0  0  0  0  0  0  0  0  0  0
    5.7415   -8.4198    3.9055 H   0  0  0  0  0  0  0  0  0  0  0  0
    6.4681   -7.3432    5.0929 H   0  0  0  0  0  0  0  0  0  0  0  0
    4.4524   -6.8825    6.0479 H   0  0  0  0  0  0  0  0  0  0  0  0
    3.2861   -8.9074    4.1114 H   0  0  0  0  0  0  0  0  0  0  0  0
    3.7170  -10.3140    5.8031 H   0  0  0  0  0  0  0  0  0  0  0  0
    2.4195   -8.1695    6.9236 H   0  0  0  0  0  0  0  0  0  0  0  0
    1.7761   -6.1878    6.3139 H   0  0  0  0  0  0  0  0  0  0  0  0
   -0.2631   -6.9530    6.7006 H   0  0  0  0  0  0  0  0  0  0  0  0
   -0.6341   -6.4641    5.0629 H   0  0  0  0  0  0  0  0  0  0  0  0
   -1.1462   -9.0121    5.7424 H   0  0  0  0  0  0  0  0  0  0  0  0
   -0.3325   -8.7086    4.2350 H   0  0  0  0  0  0  0  0  0  0  0  0
    1.4802  -10.3519    3.9001 H   0  0  0  0  0  0  0  0  0  0  0  0
    0.4187  -11.2605    4.9594 H   0  0  0  0  0  0  0  0  0  0  0  0
    2.1280  -11.1768    5.3212 H   0  0  0  0  0  0  0  0  0  0  0  0
    1.0160  -10.7501    7.2228 H   0  0  0  0  0  0  0  0  0  0  0  0
    1.7886   -6.4786    2.0179 H   0  0  0  0  0  0  0  0  0  0  0  0
    0.3801   -6.9647    2.9108 H   0  0  0  0  0  0  0  0  0  0  0  0
    1.7874   -7.9982    2.8939 H   0  0  0  0  0  0  0  0  0  0  0  0
    1.7483   -4.2422    3.2374 H   0  0  0  0  0  0  0  0  0  0  0  0
    1.6972   -4.1812    4.9957 H   0  0  0  0  0  0  0  0  0  0  0  0
    0.3199   -4.7734    4.0809 H   0  0  0  0  0  0  0  0  0  0  0  0
    3.8032   -5.2007    4.8265 H   0  0  0  0  0  0  0  0  0  0  0  0
  1  2  1  0
  1 32  1  0
  1 33  1  0
  1 34  1  0
  2 16  1  0
  2  3  1  0
  2 35  1  6
  3  4  1  0
  3 36  1  0
  3 37  1  0
  4  9  1  0
  4  5  1  0
  4 38  1  6
  5 31  1  0
  5  6  1  0
  5 39  1  6
  6  7  1  0
  6 17  1  0
  6 40  1  1
  7  8  1  0
  7 41  1  0
  7 42  1  0
  8  9  1  0
  8 43  1  0
  8 44  1  0
  9 10  1  0
  9 45  1  6
 10 16  1  0
 10 11  1  6
 10 12  1  0
 11 46  1  0
 11 47  1  0
 11 48  1  0
 12 13  1  0
 12 49  1  0
 12 50  1  0
 13 14  1  0
 13 51  1  0
 13 52  1  0
 14 15  1  0
 14 53  1  0
 14 54  1  0
 15 16  2  0
 15 55  1  0
 17 18  1  0
 17 56  1  0
 17 57  1  0
 18 31  1  0
 18 19  1  0
 18 58  1  1
 19 20  1  0
 19 21  1  0
 19 59  1  6
 20 60  1  0
 21 25  1  0
 21 22  1  0
 21 61  1  1
 22 23  1  0
 22 28  1  0
 22 62  1  1
 23 24  1  0
 23 63  1  0
 23 64  1  0
 24 25  1  0
 24 65  1  0
 24 66  1  0
 25 26  1  0
 25 27  1  1
 26 67  1  0
 26 68  1  0
 26 69  1  0
 27 70  1  0
 28 29  1  0
 28 30  1  0
 28 31  1  0
 29 71  1  0
 29 72  1  0
 29 73  1  0
 30 74  1  0
 30 75  1  0
 30 76  1  0
 31 77  1  1
M  END
>  <i_m_ct_stereo_status>  (279) 
1

>  <s_m_source_file>  (279) 
/var/tmp/pbs.5076255.sched01/tmpt7uccrld/92zpefy4ut.sdf

>  <i_m_source_file_index>  (279) 
29

>  <i_lp_mmshare_version>  (279) 
48012

>  <i_f3d_flags>  (279) 
0

>  <s_epik_input>  (279) 
W0NIMl0xW0NIMl1bQ0gyXVtDSF09QzJbQ0BIXShbQ0gzXSlbQ0gyXVtDQEBIXShbQ0BIXTNbQ0BAXTEyW0NIM10pW0NASF00W0NASF0oW0NIMl1bQ0gyXTMpW0NIMl1bQ0BIXTVbQ0BASF00QyhbQ0gzXSkoW0NIM10pW0NAQEhdNltDQEhdKFtDQEBIXTVbT0hdKVtDQEBdKFtDSDNdKShbT0hdKVtDSDJdW0NIMl02

>  <s_epik_cmdline>  (279) 
J2VwaWtfcHl0aG9uJywgJy1waHQnLCAnMi4wJywgJy1waCcsICc3LjAnLCAnLXRuJywgJzgnLCAnLW1hJywgJzIwMCcsICctaW1hZScsICc8aW5maWxlLm1hZT4nLCAnLW9tYWUnLCAnPG91dGZpbGUubWFlPic=

>  <r_lp_tautomer_probability>  (279) 
1

>  <r_epik_Ionization_Penalty>  (279) 
5.2375e-06

>  <r_epik_Ionization_Penalty_Charging>  (279) 
0

>  <r_epik_Ionization_Penalty_Neutral>  (279) 
5.2375e-06

>  <r_epik_State_Penalty>  (279) 
-0

>  <r_epik_Charging_Adjusted_Penalty>  (279) 
0

>  <i_epik_Tot_Q>  (279) 
0

>  <i_epik_Tot_abs_Q>  (279) 
0

>  <s_lp_Force_Field>  (279) 
OPLS3e

>  <r_lp_Energy>  (279) 
68.9454

>  <b_lp_Chiralities_Consistent>  (279) 
1

>  <s_lp_Variant>  (279) 
85:0-1

>  <s_i_glide_gridfile>  (279) 
pfpi4k_grid

>  <i_i_glide_lignum>  (279) 
29

>  <i_i_glide_rotatable_bonds>  (279) 
2

>  <r_i_docking_score>  (279) 
-3.52117

>  <r_i_glide_ligand_efficiency>  (279) 
-0.113586

>  <r_i_glide_ligand_efficiency_sa>  (279) 
-0.356817

>  <r_i_glide_ligand_efficiency_ln>  (279) 
-0.794132

>  <r_i_glide_gscore>  (279) 
-3.52117

>  <r_i_glide_lipo>  (279) 
-0.612289

>  <r_i_glide_hbond>  (279) 
-0.16

>  <r_i_glide_metal>  (279) 
-0

>  <r_i_glide_rewards>  (279) 
-0.499948

>  <r_i_glide_evdw>  (279) 
-26.7649

>  <r_i_glide_ecoul>  (279) 
-6.07126

>  <r_i_glide_erotb>  (279) 
0

>  <r_i_glide_esite>  (279) 
0

>  <r_i_glide_emodel>  (279) 
-39.4658

>  <r_i_glide_energy>  (279) 
-32.8362

>  <r_i_glide_einternal>  (279) 
1.53361

>  <r_i_glide_intrahb_reward>  (279) 
-0

>  <i_i_glide_confnum>  (279) 
1

>  <i_i_glide_posenum>  (279) 
35

>  <r_i_glide_eff_state_penalty>  (279) 
0

>  <ligand_id>  (279) 
85

>  <original_smiles>  (279) 
CC1CC2C3C(CCC2C2(C)CCCC=C12)CC1C(O)C2C(CCC2(C)O)C(C)(C)C13

>  <smiles>  (279) 
[H]OC1([H])C2([H])C([H])([H])C3([H])C([H])([H])C([H])([H])C4([H])C([H])(C([H])([H])C([H])(C([H])([H])[H])C5=C([H])C([H])([H])C([H])([H])C([H])([H])C54C([H])([H])[H])C3([H])C2([H])C(C([H])([H])[H])(C([H])([H])[H])C2([H])C([H])([H])C([H])([H])C(O[H])(C([H])([H])[H])C12[H]

$$$$
85:0:2
     RDKit          3D

 77 82  0  0  1  0  0  0  0  0999 V2000
    4.8265   -0.7489    2.5371 C   0  0  0  0  0  0  0  0  0  0  0  0
    4.2058   -2.0146    1.9189 C   0  0  2  0  0  0  0  0  0  0  0  0
    4.5587   -3.2825    2.7176 C   0  0  0  0  0  0  0  0  0  0  0  0
    4.3145   -4.5347    1.8610 C   0  0  2  0  0  0  0  0  0  0  0  0
    4.2469   -5.8902    2.6172 C   0  0  1  0  0  0  0  0  0  0  0  0
    5.6324   -6.3403    3.0548 C   0  0  2  0  0  0  0  0  0  0  0  0
    6.4677   -6.6443    1.8087 C   0  0  0  0  0  0  0  0  0  0  0  0
    6.6619   -5.3488    1.0094 C   0  0  0  0  0  0  0  0  0  0  0  0
    5.3421   -4.5762    0.6819 C   0  0  2  0  0  0  0  0  0  0  0  0
    5.5832   -3.1647    0.0013 C   0  0  1  0  0  0  0  0  0  0  0  0
    6.9492   -2.5326    0.3775 C   0  0  0  0  0  0  0  0  0  0  0  0
    5.5600   -3.3663   -1.5378 C   0  0  0  0  0  0  0  0  0  0  0  0
    5.3814   -2.0652   -2.3182 C   0  0  0  0  0  0  0  0  0  0  0  0
    4.0709   -1.3672   -1.9504 C   0  0  0  0  0  0  0  0  0  0  0  0
    3.8319   -1.3792   -0.4604 C   0  0  0  0  0  0  0  0  0  0  0  0
    4.5081   -2.1379    0.4266 C   0  0  0  0  0  0  0  0  0  0  0  0
    5.3918   -7.5136    4.0061 C   0  0  0  0  0  0  0  0  0  0  0  0
    3.9946   -7.2861    4.6153 C   0  0  2  0  0  0  0  0  0  0  0  0
    3.0927   -8.5292    4.5559 C   0  0  1  0  0  0  0  0  0  0  0  0
    3.7371   -9.5915    5.2324 O   0  0  0  0  0  0  0  0  0  0  0  0
    1.7509   -8.2356    5.2563 C   0  0  1  0  0  0  0  0  0  0  0  0
    1.2128   -6.8061    4.9828 C   0  0  2  0  0  0  0  0  0  0  0  0
   -0.3093   -6.9613    5.0199 C   0  0  0  0  0  0  0  0  0  0  0  0
   -0.6059   -8.3833    4.5501 C   0  0  0  0  0  0  0  0  0  0  0  0
    0.5774   -9.2318    5.0261 C   0  0  1  0  0  0  0  0  0  0  0  0
    0.8322  -10.4384    4.0996 C   0  0  0  0  0  0  0  0  0  0  0  0
    0.2125   -9.7819    6.2708 O   0  0  0  0  0  0  0  0  0  0  0  0
    1.8159   -6.0618    3.7460 C   0  0  0  0  0  0  0  0  0  0  0  0
    1.3217   -6.6807    2.4109 C   0  0  0  0  0  0  0  0  0  0  0  0
    1.3210   -4.5968    3.7747 C   0  0  0  0  0  0  0  0  0  0  0  0
    3.3854   -6.0480    3.8950 C   0  0  2  0  0  0  0  0  0  0  0  0
    4.4507    0.1443    2.0374 H   0  0  0  0  0  0  0  0  0  0  0  0
    5.9144   -0.7358    2.4628 H   0  0  0  0  0  0  0  0  0  0  0  0
    4.5660   -0.6651    3.5926 H   0  0  0  0  0  0  0  0  0  0  0  0
    3.1231   -1.8951    1.9713 H   0  0  0  0  0  0  0  0  0  0  0  0
    5.5952   -3.2497    3.0508 H   0  0  0  0  0  0  0  0  0  0  0  0
    3.9530   -3.2852    3.6191 H   0  0  0  0  0  0  0  0  0  0  0  0
    3.3311   -4.4030    1.4099 H   0  0  0  0  0  0  0  0  0  0  0  0
    3.8999   -6.6401    1.9050 H   0  0  0  0  0  0  0  0  0  0  0  0
    6.1141   -5.5424    3.6260 H   0  0  0  0  0  0  0  0  0  0  0  0
    7.4383   -7.0598    2.0850 H   0  0  0  0  0  0  0  0  0  0  0  0
    5.9740   -7.3979    1.1906 H   0  0  0  0  0  0  0  0  0  0  0  0
    7.3395   -4.7315    1.5968 H   0  0  0  0  0  0  0  0  0  0  0  0
    7.1842   -5.6017    0.0873 H   0  0  0  0  0  0  0  0  0  0  0  0
    4.8441   -5.2127   -0.0491 H   0  0  0  0  0  0  0  0  0  0  0  0
    7.7944   -3.0790   -0.0415 H   0  0  0  0  0  0  0  0  0  0  0  0
    7.0735   -2.4936    1.4549 H   0  0  0  0  0  0  0  0  0  0  0  0
    7.0288   -1.5058    0.0264 H   0  0  0  0  0  0  0  0  0  0  0  0
    6.4741   -3.8584   -1.8695 H   0  0  0  0  0  0  0  0  0  0  0  0
    4.7378   -4.0180   -1.8344 H   0  0  0  0  0  0  0  0  0  0  0  0
    6.2138   -1.3918   -2.1090 H   0  0  0  0  0  0  0  0  0  0  0  0
    5.3963   -2.2667   -3.3835 H   0  0  0  0  0  0  0  0  0  0  0  0
    4.1004   -0.3314   -2.2948 H   0  0  0  0  0  0  0  0  0  0  0  0
    3.2212   -1.8498   -2.4354 H   0  0  0  0  0  0  0  0  0  0  0  0
    3.0632   -0.7003   -0.1146 H   0  0  0  0  0  0  0  0  0  0  0  0
    5.4395   -8.4662    3.4728 H   0  0  0  0  0  0  0  0  0  0  0  0
    6.1580   -7.5352    4.7846 H   0  0  0  0  0  0  0  0  0  0  0  0
    4.1216   -7.0301    5.6680 H   0  0  0  0  0  0  0  0  0  0  0  0
    2.9582   -8.8267    3.5169 H   0  0  0  0  0  0  0  0  0  0  0  0
    3.1724  -10.3495    5.2065 H   0  0  0  0  0  0  0  0  0  0  0  0
    1.9746   -8.2515    6.3240 H   0  0  0  0  0  0  0  0  0  0  0  0
    1.4782   -6.1950    5.8472 H   0  0  0  0  0  0  0  0  0  0  0  0
   -0.5864   -6.8532    6.0686 H   0  0  0  0  0  0  0  0  0  0  0  0
   -0.8704   -6.2204    4.4535 H   0  0  0  0  0  0  0  0  0  0  0  0
   -1.5698   -8.7402    4.9165 H   0  0  0  0  0  0  0  0  0  0  0  0
   -0.6610   -8.4133    3.4627 H   0  0  0  0  0  0  0  0  0  0  0  0
    1.1027  -10.1327    3.0904 H   0  0  0  0  0  0  0  0  0  0  0  0
   -0.0668  -11.0497    4.0103 H   0  0  0  0  0  0  0  0  0  0  0  0
    1.6149  -11.0950    4.4792 H   0  0  0  0  0  0  0  0  0  0  0  0
   -0.4320  -10.4586    6.1011 H   0  0  0  0  0  0  0  0  0  0  0  0
    1.7201   -6.1462    1.5507 H   0  0  0  0  0  0  0  0  0  0  0  0
    0.2386   -6.6187    2.3266 H   0  0  0  0  0  0  0  0  0  0  0  0
    1.5847   -7.7284    2.2950 H   0  0  0  0  0  0  0  0  0  0  0  0
    1.7329   -4.0197    2.9503 H   0  0  0  0  0  0  0  0  0  0  0  0
    1.5996   -4.0964    4.7031 H   0  0  0  0  0  0  0  0  0  0  0  0
    0.2370   -4.5288    3.6841 H   0  0  0  0  0  0  0  0  0  0  0  0
    3.6387   -5.2208    4.5590 H   0  0  0  0  0  0  0  0  0  0  0  0
  1  2  1  0
  1 32  1  0
  1 33  1  0
  1 34  1  0
  2 16  1  0
  2  3  1  0
  2 35  1  6
  3  4  1  0
  3 36  1  0
  3 37  1  0
  4  9  1  0
  4  5  1  0
  4 38  1  6
  5 31  1  0
  5  6  1  0
  5 39  1  6
  6  7  1  0
  6 17  1  0
  6 40  1  1
  7  8  1  0
  7 41  1  0
  7 42  1  0
  8  9  1  0
  8 43  1  0
  8 44  1  0
  9 10  1  0
  9 45  1  6
 10 16  1  0
 10 11  1  1
 10 12  1  0
 11 46  1  0
 11 47  1  0
 11 48  1  0
 12 13  1  0
 12 49  1  0
 12 50  1  0
 13 14  1  0
 13 51  1  0
 13 52  1  0
 14 15  1  0
 14 53  1  0
 14 54  1  0
 15 16  2  0
 15 55  1  0
 17 18  1  0
 17 56  1  0
 17 57  1  0
 18 31  1  0
 18 19  1  0
 18 58  1  1
 19 20  1  0
 19 21  1  0
 19 59  1  6
 20 60  1  0
 21 25  1  0
 21 22  1  0
 21 61  1  1
 22 23  1  0
 22 28  1  0
 22 62  1  1
 23 24  1  0
 23 63  1  0
 23 64  1  0
 24 25  1  0
 24 65  1  0
 24 66  1  0
 25 26  1  0
 25 27  1  1
 26 67  1  0
 26 68  1  0
 26 69  1  0
 27 70  1  0
 28 29  1  0
 28 30  1  0
 28 31  1  0
 29 71  1  0
 29 72  1  0
 29 73  1  0
 30 74  1  0
 30 75  1  0
 30 76  1  0
 31 77  1  1
M  END
>  <i_m_ct_stereo_status>  (280) 
1

>  <s_m_source_file>  (280) 
/var/tmp/pbs.5076255.sched01/tmpt7uccrld/92zpefy4ut.sdf

>  <i_m_source_file_index>  (280) 
29

>  <i_lp_mmshare_version>  (280) 
48012

>  <i_f3d_flags>  (280) 
0

>  <s_epik_input>  (280) 
W0NIMl0xW0NIMl1bQ0gyXVtDSF09QzJbQ0BIXShbQ0gzXSlbQ0gyXVtDQEBIXShbQ0BIXTNbQ0BAXTEyW0NIM10pW0NASF00W0NASF0oW0NIMl1bQ0gyXTMpW0NIMl1bQ0BIXTVbQ0BASF00QyhbQ0gzXSkoW0NIM10pW0NAQEhdNltDQEhdKFtDQEBIXTVbT0hdKVtDQEBdKFtDSDNdKShbT0hdKVtDSDJdW0NIMl02

>  <s_epik_cmdline>  (280) 
J2VwaWtfcHl0aG9uJywgJy1waHQnLCAnMi4wJywgJy1waCcsICc3LjAnLCAnLXRuJywgJzgnLCAnLW1hJywgJzIwMCcsICctaW1hZScsICc8aW5maWxlLm1hZT4nLCAnLW9tYWUnLCAnPG91dGZpbGUubWFlPic=

>  <r_lp_tautomer_probability>  (280) 
1

>  <r_epik_Ionization_Penalty>  (280) 
5.2375e-06

>  <r_epik_Ionization_Penalty_Charging>  (280) 
0

>  <r_epik_Ionization_Penalty_Neutral>  (280) 
5.2375e-06

>  <r_epik_State_Penalty>  (280) 
-0

>  <r_epik_Charging_Adjusted_Penalty>  (280) 
0

>  <i_epik_Tot_Q>  (280) 
0

>  <i_epik_Tot_abs_Q>  (280) 
0

>  <s_lp_Force_Field>  (280) 
OPLS3e

>  <r_lp_Energy>  (280) 
68.9454

>  <b_lp_Chiralities_Consistent>  (280) 
1

>  <s_lp_Variant>  (280) 
85:0-1

>  <s_i_glide_gridfile>  (280) 
pfpi4k_grid

>  <i_i_glide_lignum>  (280) 
29

>  <i_i_glide_rotatable_bonds>  (280) 
2

>  <r_i_docking_score>  (280) 
-3.14732

>  <r_i_glide_ligand_efficiency>  (280) 
-0.101527

>  <r_i_glide_ligand_efficiency_sa>  (280) 
-0.318933

>  <r_i_glide_ligand_efficiency_ln>  (280) 
-0.709818

>  <r_i_glide_gscore>  (280) 
-3.14732

>  <r_i_glide_lipo>  (280) 
-0.664707

>  <r_i_glide_hbond>  (280) 
-0.141994

>  <r_i_glide_metal>  (280) 
-0

>  <r_i_glide_rewards>  (280) 
-0.499948

>  <r_i_glide_evdw>  (280) 
-31.7808

>  <r_i_glide_ecoul>  (280) 
-1.67757

>  <r_i_glide_erotb>  (280) 
0

>  <r_i_glide_esite>  (280) 
0

>  <r_i_glide_emodel>  (280) 
-39.946

>  <r_i_glide_energy>  (280) 
-33.4583

>  <r_i_glide_einternal>  (280) 
0.420326

>  <r_i_glide_intrahb_reward>  (280) 
-0

>  <i_i_glide_confnum>  (280) 
1

>  <i_i_glide_posenum>  (280) 
1

>  <r_i_glide_eff_state_penalty>  (280) 
0

>  <ligand_id>  (280) 
85

>  <original_smiles>  (280) 
CC1CC2C3C(CCC2C2(C)CCCC=C12)CC1C(O)C2C(CCC2(C)O)C(C)(C)C13

>  <smiles>  (280) 
[H]OC1([H])C2([H])C([H])([H])C3([H])C([H])([H])C([H])([H])C4([H])C([H])(C([H])([H])C([H])(C([H])([H])[H])C5=C([H])C([H])([H])C([H])([H])C([H])([H])C54C([H])([H])[H])C3([H])C2([H])C(C([H])([H])[H])(C([H])([H])[H])C2([H])C([H])([H])C([H])([H])C(O[H])(C([H])([H])[H])C12[H]

$$$$
86:0:0
     RDKit          3D

 80 87  0  0  1  0  0  0  0  0999 V2000
    5.3125   -6.5917    0.5435 C   0  0  0  0  0  0  0  0  0  0  0  0
    4.8106   -6.2048    1.9541 C   0  0  0  0  0  0  0  0  0  0  0  0
    4.7663   -7.3230    2.8995 N   0  0  2  0  0  0  0  0  0  0  0  0
    3.8315   -8.4254    2.4482 C   0  0  0  0  0  0  0  0  0  0  0  0
    3.3235   -9.6216    3.3788 C   0  0  1  0  0  0  0  0  0  0  0  0
    2.8235  -10.6209    2.5162 O   0  0  0  0  0  0  0  0  0  0  0  0
    4.5646  -10.3002    4.0934 C   0  0  0  0  0  0  0  0  0  0  0  0
    5.8907   -9.4868    4.3834 C   0  0  1  0  0  0  0  0  0  0  0  0
    6.6135   -9.3814    3.1707 O   0  0  0  0  0  0  0  0  0  0  0  0
    5.8695   -8.0911    5.1312 C   0  0  2  0  0  0  0  0  0  0  0  0
    5.5069   -8.3192    6.6963 C   0  0  1  0  0  0  0  0  0  0  0  0
    6.6369   -8.0147    7.5177 O   0  0  0  0  0  0  0  0  0  0  0  0
    7.7026   -8.9611    7.4643 C   0  0  0  0  0  0  0  0  0  0  0  0
    4.2290   -7.5449    7.2842 C   0  0  1  0  0  0  0  0  0  0  0  0
    4.3864   -6.1503    6.7177 C   0  0  1  0  0  0  0  0  0  0  0  0
    5.6995   -5.5876    6.8159 O   0  0  0  0  0  0  0  0  0  0  0  0
    5.7887   -4.2111    6.4803 C   0  0  0  0  0  0  0  0  0  0  0  0
    3.8694   -6.4094    5.2725 C   0  0  2  0  0  0  0  0  0  0  0  0
    2.7365   -5.3590    5.0885 C   0  0  1  0  0  0  0  0  0  0  0  0
    2.3401   -5.2749    3.7332 O   0  0  0  0  0  0  0  0  0  0  0  0
    1.5164   -5.6799    6.0935 C   0  0  1  0  0  0  0  0  0  0  0  0
    0.1553   -5.0484    5.6664 C   0  0  0  0  0  0  0  0  0  0  0  0
    0.2041   -3.5759    5.6401 N   0  0  0  0  0  0  0  0  0  0  0  0
    0.4999   -2.8222    4.4394 C   0  0  0  0  0  0  0  0  0  0  0  0
    0.3221   -1.3731    4.8993 C   0  0  0  0  0  0  0  0  0  0  0  0
   -0.1045   -1.5154    6.2487 O   0  0  0  0  0  0  0  0  0  0  0  0
   -0.1848   -2.7699    6.6785 C   0  0  0  0  0  0  0  0  0  0  0  0
   -0.5779   -3.1141    7.7964 O   0  0  0  0  0  0  0  0  0  0  0  0
    1.4408   -7.1712    6.7403 C   0  0  1  0  0  0  0  0  0  0  0  0
    0.4788   -8.3083    6.1360 C   0  0  1  0  0  0  0  0  0  0  0  0
   -0.5101   -7.9107    5.1935 O   0  0  0  0  0  0  0  0  0  0  0  0
    1.3705   -9.5230    5.6254 C   0  0  1  0  0  0  0  0  0  0  0  0
    1.9523   -9.1843    4.1569 C   0  0  1  0  0  0  0  0  0  0  0  0
    2.1736   -7.8316    4.2937 O   0  0  0  0  0  0  0  0  0  0  0  0
    3.1067   -7.6582    5.3275 C   0  0  2  0  0  0  0  0  0  0  0  0
    2.7905   -7.9739    6.7165 C   0  0  1  0  0  0  0  0  0  0  0  0
    2.4266   -9.4815    6.7508 C   0  0  1  0  0  0  0  0  0  0  0  0
    1.9104   -9.8474    8.0156 O   0  0  0  0  0  0  0  0  0  0  0  0
    5.0505   -6.9448    4.3484 C   0  0  2  0  0  0  0  0  0  0  0  0
    5.4025   -5.7151   -0.1016 H   0  0  0  0  0  0  0  0  0  0  0  0
    4.6295   -7.2803    0.0295 H   0  0  0  0  0  0  0  0  0  0  0  0
    6.3020   -7.0524    0.6069 H   0  0  0  0  0  0  0  0  0  0  0  0
    5.4643   -5.3946    2.2913 H   0  0  0  0  0  0  0  0  0  0  0  0
    3.8287   -5.7547    1.8101 H   0  0  0  0  0  0  0  0  0  0  0  0
    2.9540   -7.9858    1.9632 H   0  0  0  0  0  0  0  0  0  0  0  0
    4.3584   -8.9205    1.6222 H   0  0  0  0  0  0  0  0  0  0  0  0
    3.4902  -10.9746    1.9433 H   0  0  0  0  0  0  0  0  0  0  0  0
    4.2461  -10.8314    4.9854 H   0  0  0  0  0  0  0  0  0  0  0  0
    4.8937  -11.1394    3.4747 H   0  0  0  0  0  0  0  0  0  0  0  0
    6.4986  -10.1495    5.0054 H   0  0  0  0  0  0  0  0  0  0  0  0
    6.7964  -10.2514    2.8577 H   0  0  0  0  0  0  0  0  0  0  0  0
    6.9000   -7.7394    5.1058 H   0  0  0  0  0  0  0  0  0  0  0  0
    5.3013   -9.3787    6.8673 H   0  0  0  0  0  0  0  0  0  0  0  0
    8.5324   -8.6025    8.0721 H   0  0  0  0  0  0  0  0  0  0  0  0
    8.0940   -9.1154    6.4597 H   0  0  0  0  0  0  0  0  0  0  0  0
    7.3894   -9.9276    7.8629 H   0  0  0  0  0  0  0  0  0  0  0  0
    4.2453   -7.5603    8.3760 H   0  0  0  0  0  0  0  0  0  0  0  0
    3.7409   -5.5077    7.3170 H   0  0  0  0  0  0  0  0  0  0  0  0
    6.8180   -3.8811    6.6122 H   0  0  0  0  0  0  0  0  0  0  0  0
    5.1549   -3.5857    7.1102 H   0  0  0  0  0  0  0  0  0  0  0  0
    5.5230   -4.0421    5.4377 H   0  0  0  0  0  0  0  0  0  0  0  0
    3.1154   -4.3681    5.3439 H   0  0  0  0  0  0  0  0  0  0  0  0
    3.0512   -4.9103    3.2476 H   0  0  0  0  0  0  0  0  0  0  0  0
    1.7352   -5.0863    6.9822 H   0  0  0  0  0  0  0  0  0  0  0  0
   -0.1482   -5.4077    4.6849 H   0  0  0  0  0  0  0  0  0  0  0  0
   -0.6292   -5.3756    6.3511 H   0  0  0  0  0  0  0  0  0  0  0  0
    1.5288   -2.9507    4.1295 H   0  0  0  0  0  0  0  0  0  0  0  0
   -0.1803   -3.0694    3.6344 H   0  0  0  0  0  0  0  0  0  0  0  0
    1.2650   -0.8281    4.8442 H   0  0  0  0  0  0  0  0  0  0  0  0
   -0.4181   -0.8395    4.3025 H   0  0  0  0  0  0  0  0  0  0  0  0
    1.1433   -7.0448    7.7834 H   0  0  0  0  0  0  0  0  0  0  0  0
   -0.1151   -8.6754    6.9739 H   0  0  0  0  0  0  0  0  0  0  0  0
   -1.0445   -8.6660    5.0075 H   0  0  0  0  0  0  0  0  0  0  0  0
    0.8174  -10.4628    5.6159 H   0  0  0  0  0  0  0  0  0  0  0  0
    1.1283   -9.2620    3.4496 H   0  0  0  0  0  0  0  0  0  0  0  0
    3.7156   -8.4822    5.2526 H   0  0  0  0  0  0  0  0  0  0  0  0
    3.2486  -10.1562    6.5896 H   0  0  0  0  0  0  0  0  0  0  0  0
    1.7184  -10.8100    7.9908 H   0  0  0  0  0  0  0  0  0  0  0  0
    5.7556   -6.1120    4.3027 H   0  0  0  0  0  0  0  0  0  0  0  0
    5.6606   -7.7980    2.7289 H   0  0  0  0  0  0  0  0  0  0  0  0
  1  2  1  0
  1 40  1  0
  1 41  1  0
  1 42  1  0
  2  3  1  0
  2 43  1  0
  2 44  1  0
  3 39  1  0
  3  4  1  0
  3 80  1  6
  4  5  1  0
  4 45  1  0
  4 46  1  0
  5 33  1  0
  5  6  1  6
  5  7  1  0
  6 47  1  0
  7  8  1  0
  7 48  1  0
  7 49  1  0
  8  9  1  0
  8 10  1  0
  8 50  1  1
  9 51  1  0
 10 39  1  0
 10 11  1  0
 10 52  1  1
 11 12  1  0
 11 14  1  0
 11 53  1  6
 12 13  1  0
 13 54  1  0
 13 55  1  0
 13 56  1  0
 14 36  1  0
 14 15  1  0
 14 57  1  1
 15 16  1  0
 15 18  1  0
 15 58  1  1
 16 17  1  0
 17 59  1  0
 17 60  1  0
 17 61  1  0
 18 35  1  0
 18 19  1  6
 18 39  1  0
 19 20  1  0
 19 21  1  0
 19 62  1  1
 20 63  1  0
 21 22  1  0
 21 29  1  0
 21 64  1  1
 22 23  1  0
 22 65  1  0
 22 66  1  0
 23 27  1  0
 23 24  1  0
 24 25  1  0
 24 67  1  0
 24 68  1  0
 25 26  1  0
 25 69  1  0
 25 70  1  0
 26 27  1  0
 27 28  2  0
 29 36  1  0
 29 30  1  0
 29 71  1  1
 30 31  1  0
 30 32  1  0
 30 72  1  1
 31 73  1  0
 32 37  1  0
 32 33  1  0
 32 74  1  6
 33 34  1  0
 33 75  1  6
 34 35  1  0
 35 36  1  0
 35 76  1  6
 36 37  1  6
 37 38  1  0
 37 77  1  6
 38 78  1  0
 39 79  1  6
M  CHG  1   3   1
M  END
>  <i_m_ct_stereo_status>  (281) 
1

>  <s_m_source_file>  (281) 
/var/tmp/pbs.5076255.sched01/tmpt7uccrld/92zpefy4ut.sdf

>  <i_m_source_file_index>  (281) 
30

>  <i_lp_mmshare_version>  (281) 
48012

>  <i_f3d_flags>  (281) 
0

>  <s_epik_input>  (281) 
W0NIM11PW0NAQEhdMVtDQEBIXShbQ0BdMjNbQ0BIXTRbQ0BdMTU2KVtDQEhdKE9bQ0gzXSlbQ0BASF03W0NASF02TihbQ0gyXVtDSDNdKVtDSDJdW0NAQF0oW09IXSkoW0NIMl1bQ0BIXTdbT0hdKVtDQEhdKE80KVtDQEBIXShbQ0BASF0zW09IXSlbQ0BIXShbT0hdKVtDSF0yW0NAQEhdKFtDQEBIXTVbT0hdKVtDSDJdTjhbQ0gyXVtDSDJdT0M4PU8=

>  <s_epik_cmdline>  (281) 
J2VwaWtfcHl0aG9uJywgJy1waHQnLCAnMi4wJywgJy1waCcsICc3LjAnLCAnLXRuJywgJzgnLCAnLW1hJywgJzIwMCcsICctaW1hZScsICc8aW5maWxlLm1hZT4nLCAnLW9tYWUnLCAnPG91dGZpbGUubWFlPic=

>  <r_epik_Ionization_Penalty>  (281) 
0.00210516

>  <r_epik_Ionization_Penalty_Charging>  (281) 
0.00210146

>  <r_epik_Ionization_Penalty_Neutral>  (281) 
3.70392e-06

>  <r_epik_State_Penalty>  (281) 
0.00144031

>  <r_epik_Charging_Adjusted_Penalty>  (281) 
0.00354177

>  <i_epik_Tot_Q>  (281) 
1

>  <i_epik_Tot_abs_Q>  (281) 
1

>  <s_epik_Chemistry_Notes>  (281) 
This compound has an ester and may undergo hydrolysis at high or low pH.

>  <s_lp_Force_Field>  (281) 
OPLS3e

>  <r_lp_Energy>  (281) 
225.319

>  <b_lp_Chiralities_Consistent>  (281) 
1

>  <s_lp_Variant>  (281) 
86:0-1

>  <s_i_glide_gridfile>  (281) 
pfpi4k_grid

>  <i_i_glide_lignum>  (281) 
30

>  <i_i_glide_rotatable_bonds>  (281) 
10

>  <r_i_docking_score>  (281) 
-3.59453

>  <r_i_glide_ligand_efficiency>  (281) 
-0.0921673

>  <r_i_glide_ligand_efficiency_sa>  (281) 
-0.312559

>  <r_i_glide_ligand_efficiency_ln>  (281) 
-0.770768

>  <r_i_glide_gscore>  (281) 
-3.59453

>  <r_i_glide_lipo>  (281) 
-0.170168

>  <r_i_glide_hbond>  (281) 
-0.225888

>  <r_i_glide_metal>  (281) 
-0

>  <r_i_glide_rewards>  (281) 
-0.5

>  <r_i_glide_evdw>  (281) 
-15.7228

>  <r_i_glide_ecoul>  (281) 
-12.9009

>  <r_i_glide_erotb>  (281) 
0.0628015

>  <r_i_glide_esite>  (281) 
-0.0399983

>  <r_i_glide_emodel>  (281) 
-42.4664

>  <r_i_glide_energy>  (281) 
-28.6237

>  <r_i_glide_einternal>  (281) 
2.06082

>  <r_i_glide_intrahb_reward>  (281) 
-0.5

>  <i_i_glide_confnum>  (281) 
1

>  <i_i_glide_posenum>  (281) 
17

>  <r_i_glide_eff_state_penalty>  (281) 
0

>  <ligand_id>  (281) 
86

>  <original_smiles>  (281) 
CCN1CC2(O)CC(O)C3C(OC)C4C(OC)C5(C(O)C(CN6CCOC6=O)C6C(O)C7C2OC5C64C7O)C31

>  <smiles>  (281) 
[H]OC1([H])C2([H])C3([H])OC4([H])C5(C2([H])O[H])C2([H])C([H])(OC([H])([H])[H])C6([H])C([H])(O[H])C([H])([H])C3(O[H])C([H])([H])[N+]([H])(C([H])([H])C([H])([H])[H])C6([H])C4(C([H])(O[H])C([H])(C([H])([H])N3C(=O)OC([H])([H])C3([H])[H])C15[H])C2([H])OC([H])([H])[H]

$$$$
86:0:1
     RDKit          3D

 80 87  0  0  1  0  0  0  0  0999 V2000
    6.5659   -5.4752    2.2209 C   0  0  0  0  0  0  0  0  0  0  0  0
    5.6492   -5.7946    3.4305 C   0  0  0  0  0  0  0  0  0  0  0  0
    5.2952   -7.2441    3.5141 N   0  0  2  0  0  0  0  0  0  0  0  0
    4.6954   -7.7634    2.1972 C   0  0  0  0  0  0  0  0  0  0  0  0
    3.9477   -9.1592    2.0486 C   0  0  1  0  0  0  0  0  0  0  0  0
    3.9554   -9.4381    0.6700 O   0  0  0  0  0  0  0  0  0  0  0  0
    4.8463  -10.3144    2.6610 C   0  0  0  0  0  0  0  0  0  0  0  0
    5.8904  -10.0184    3.8272 C   0  0  1  0  0  0  0  0  0  0  0  0
    7.1450   -9.5212    3.3638 O   0  0  0  0  0  0  0  0  0  0  0  0
    5.4506   -9.2751    5.1451 C   0  0  2  0  0  0  0  0  0  0  0  0
    4.4944  -10.2541    6.0344 C   0  0  1  0  0  0  0  0  0  0  0  0
    5.2706  -10.6430    7.1680 O   0  0  0  0  0  0  0  0  0  0  0  0
    4.8348  -11.8298    7.8202 C   0  0  0  0  0  0  0  0  0  0  0  0
    3.0482   -9.6854    6.4438 C   0  0  1  0  0  0  0  0  0  0  0  0
    3.3295   -8.2624    6.8692 C   0  0  1  0  0  0  0  0  0  0  0  0
    4.4450   -8.0381    7.7390 O   0  0  0  0  0  0  0  0  0  0  0  0
    4.2449   -8.5065    9.0694 C   0  0  0  0  0  0  0  0  0  0  0  0
    3.4696   -7.5930    5.4685 C   0  0  2  0  0  0  0  0  0  0  0  0
    2.4529   -6.4185    5.4840 C   0  0  1  0  0  0  0  0  0  0  0  0
    2.6485   -5.6087    4.3510 O   0  0  0  0  0  0  0  0  0  0  0  0
    0.9511   -7.0063    5.5819 C   0  0  1  0  0  0  0  0  0  0  0  0
   -0.1519   -6.0173    5.1251 C   0  0  0  0  0  0  0  0  0  0  0  0
   -0.0922   -4.7241    5.8151 N   0  0  0  0  0  0  0  0  0  0  0  0
    0.3082   -3.5057    5.1530 C   0  0  0  0  0  0  0  0  0  0  0  0
    0.1373   -2.4571    6.2466 C   0  0  0  0  0  0  0  0  0  0  0  0
   -0.4009   -3.2038    7.3348 O   0  0  0  0  0  0  0  0  0  0  0  0
   -0.5297   -4.5062    7.0999 C   0  0  0  0  0  0  0  0  0  0  0  0
   -0.9733   -5.3284    7.9030 O   0  0  0  0  0  0  0  0  0  0  0  0
    0.7222   -8.5797    5.2121 C   0  0  1  0  0  0  0  0  0  0  0  0
    0.1597   -9.0264    3.7751 C   0  0  1  0  0  0  0  0  0  0  0  0
   -0.3777   -8.0304    2.9212 O   0  0  0  0  0  0  0  0  0  0  0  0
    1.2616   -9.9255    3.0566 C   0  0  1  0  0  0  0  0  0  0  0  0
    2.3517   -8.9689    2.3605 C   0  0  1  0  0  0  0  0  0  0  0  0
    2.3965   -7.9440    3.2926 O   0  0  0  0  0  0  0  0  0  0  0  0
    2.8442   -8.5170    4.5116 C   0  0  2  0  0  0  0  0  0  0  0  0
    2.0167   -9.4647    5.2413 C   0  0  1  0  0  0  0  0  0  0  0  0
    1.7638  -10.6757    4.3148 C   0  0  1  0  0  0  0  0  0  0  0  0
    0.8040  -11.5448    4.8718 O   0  0  0  0  0  0  0  0  0  0  0  0
    4.9404   -7.7458    4.9182 C   0  0  2  0  0  0  0  0  0  0  0  0
    6.8561   -4.4209    2.2586 H   0  0  0  0  0  0  0  0  0  0  0  0
    6.0521   -5.5987    1.2600 H   0  0  0  0  0  0  0  0  0  0  0  0
    7.4880   -6.0689    2.2021 H   0  0  0  0  0  0  0  0  0  0  0  0
    6.1909   -5.5058    4.3372 H   0  0  0  0  0  0  0  0  0  0  0  0
    4.7832   -5.1424    3.3470 H   0  0  0  0  0  0  0  0  0  0  0  0
    4.0558   -6.9984    1.7508 H   0  0  0  0  0  0  0  0  0  0  0  0
    5.5527   -7.8574    1.5252 H   0  0  0  0  0  0  0  0  0  0  0  0
    3.8482  -10.3967    0.5676 H   0  0  0  0  0  0  0  0  0  0  0  0
    4.2395  -11.1932    2.8883 H   0  0  0  0  0  0  0  0  0  0  0  0
    5.4665  -10.7051    1.8537 H   0  0  0  0  0  0  0  0  0  0  0  0
    6.1821  -11.0212    4.1583 H   0  0  0  0  0  0  0  0  0  0  0  0
    7.0581   -8.8565    2.6826 H   0  0  0  0  0  0  0  0  0  0  0  0
    6.3724   -9.1878    5.7134 H   0  0  0  0  0  0  0  0  0  0  0  0
    4.3325  -11.1717    5.4624 H   0  0  0  0  0  0  0  0  0  0  0  0
    5.4851  -12.0101    8.6758 H   0  0  0  0  0  0  0  0  0  0  0  0
    4.8811  -12.6987    7.1638 H   0  0  0  0  0  0  0  0  0  0  0  0
    3.8214  -11.7413    8.2059 H   0  0  0  0  0  0  0  0  0  0  0  0
    2.5635  -10.2576    7.2356 H   0  0  0  0  0  0  0  0  0  0  0  0
    2.4584   -7.8960    7.4005 H   0  0  0  0  0  0  0  0  0  0  0  0
    5.1596   -8.3645    9.6407 H   0  0  0  0  0  0  0  0  0  0  0  0
    4.0096   -9.5659    9.1070 H   0  0  0  0  0  0  0  0  0  0  0  0
    3.4383   -7.9766    9.5731 H   0  0  0  0  0  0  0  0  0  0  0  0
    2.6657   -5.8070    6.3635 H   0  0  0  0  0  0  0  0  0  0  0  0
    2.4462   -6.1688    3.6027 H   0  0  0  0  0  0  0  0  0  0  0  0
    0.7732   -7.0379    6.6547 H   0  0  0  0  0  0  0  0  0  0  0  0
   -0.0694   -5.8041    4.0597 H   0  0  0  0  0  0  0  0  0  0  0  0
   -1.1291   -6.4763    5.2796 H   0  0  0  0  0  0  0  0  0  0  0  0
    1.3490   -3.5369    4.8379 H   0  0  0  0  0  0  0  0  0  0  0  0
   -0.3107   -3.3040    4.2779 H   0  0  0  0  0  0  0  0  0  0  0  0
    1.0998   -2.0147    6.5143 H   0  0  0  0  0  0  0  0  0  0  0  0
   -0.5359   -1.6513    5.9470 H   0  0  0  0  0  0  0  0  0  0  0  0
    0.0086   -8.9688    5.9386 H   0  0  0  0  0  0  0  0  0  0  0  0
   -0.6829   -9.6835    3.9715 H   0  0  0  0  0  0  0  0  0  0  0  0
   -0.7294   -8.4899    2.1667 H   0  0  0  0  0  0  0  0  0  0  0  0
    0.8318  -10.6034    2.3217 H   0  0  0  0  0  0  0  0  0  0  0  0
    1.8885   -8.5130    1.4814 H   0  0  0  0  0  0  0  0  0  0  0  0
    3.4755   -9.2726    4.2154 H   0  0  0  0  0  0  0  0  0  0  0  0
    2.6329  -11.2913    4.1228 H   0  0  0  0  0  0  0  0  0  0  0  0
    1.0920  -11.8211    5.7418 H   0  0  0  0  0  0  0  0  0  0  0  0
    5.5546   -7.1631    5.6065 H   0  0  0  0  0  0  0  0  0  0  0  0
    6.2107   -7.6274    3.5017 H   0  0  0  0  0  0  0  0  0  0  0  0
  1  2  1  0
  1 40  1  0
  1 41  1  0
  1 42  1  0
  2  3  1  0
  2 43  1  0
  2 44  1  0
  3 39  1  0
  3  4  1  0
  3 80  1  6
  4  5  1  0
  4 45  1  0
  4 46  1  0
  5 33  1  0
  5  6  1  6
  5  7  1  0
  6 47  1  0
  7  8  1  0
  7 48  1  0
  7 49  1  0
  8  9  1  0
  8 10  1  0
  8 50  1  1
  9 51  1  0
 10 39  1  0
 10 11  1  0
 10 52  1  1
 11 12  1  0
 11 14  1  0
 11 53  1  6
 12 13  1  0
 13 54  1  0
 13 55  1  0
 13 56  1  0
 14 36  1  0
 14 15  1  0
 14 57  1  1
 15 16  1  0
 15 18  1  0
 15 58  1  1
 16 17  1  0
 17 59  1  0
 17 60  1  0
 17 61  1  0
 18 35  1  0
 18 19  1  1
 18 39  1  0
 19 20  1  0
 19 21  1  0
 19 62  1  1
 20 63  1  0
 21 22  1  0
 21 29  1  0
 21 64  1  1
 22 23  1  0
 22 65  1  0
 22 66  1  0
 23 27  1  0
 23 24  1  0
 24 25  1  0
 24 67  1  0
 24 68  1  0
 25 26  1  0
 25 69  1  0
 25 70  1  0
 26 27  1  0
 27 28  2  0
 29 36  1  0
 29 30  1  0
 29 71  1  1
 30 31  1  0
 30 32  1  0
 30 72  1  1
 31 73  1  0
 32 37  1  0
 32 33  1  0
 32 74  1  6
 33 34  1  0
 33 75  1  6
 34 35  1  0
 35 36  1  0
 35 76  1  6
 36 37  1  6
 37 38  1  0
 37 77  1  6
 38 78  1  0
 39 79  1  1
M  CHG  1   3   1
M  END
>  <i_m_ct_stereo_status>  (282) 
1

>  <s_m_source_file>  (282) 
/var/tmp/pbs.5076255.sched01/tmpt7uccrld/92zpefy4ut.sdf

>  <i_m_source_file_index>  (282) 
30

>  <i_lp_mmshare_version>  (282) 
48012

>  <i_f3d_flags>  (282) 
0

>  <s_epik_input>  (282) 
W0NIM11PW0NAQEhdMVtDQEBIXShbQ0BdMjNbQ0BIXTRbQ0BdMTU2KVtDQEhdKE9bQ0gzXSlbQ0BASF03W0NASF02TihbQ0gyXVtDSDNdKVtDSDJdW0NAQF0oW09IXSkoW0NIMl1bQ0BIXTdbT0hdKVtDQEhdKE80KVtDQEBIXShbQ0BASF0zW09IXSlbQ0BIXShbT0hdKVtDSF0yW0NAQEhdKFtDQEBIXTVbT0hdKVtDSDJdTjhbQ0gyXVtDSDJdT0M4PU8=

>  <s_epik_cmdline>  (282) 
J2VwaWtfcHl0aG9uJywgJy1waHQnLCAnMi4wJywgJy1waCcsICc3LjAnLCAnLXRuJywgJzgnLCAnLW1hJywgJzIwMCcsICctaW1hZScsICc8aW5maWxlLm1hZT4nLCAnLW9tYWUnLCAnPG91dGZpbGUubWFlPic=

>  <r_epik_Ionization_Penalty>  (282) 
0.00210516

>  <r_epik_Ionization_Penalty_Charging>  (282) 
0.00210146

>  <r_epik_Ionization_Penalty_Neutral>  (282) 
3.70392e-06

>  <r_epik_State_Penalty>  (282) 
0.00144031

>  <r_epik_Charging_Adjusted_Penalty>  (282) 
0.00354177

>  <i_epik_Tot_Q>  (282) 
1

>  <i_epik_Tot_abs_Q>  (282) 
1

>  <s_epik_Chemistry_Notes>  (282) 
This compound has an ester and may undergo hydrolysis at high or low pH.

>  <s_lp_Force_Field>  (282) 
OPLS3e

>  <r_lp_Energy>  (282) 
225.319

>  <b_lp_Chiralities_Consistent>  (282) 
1

>  <s_lp_Variant>  (282) 
86:0-1

>  <s_i_glide_gridfile>  (282) 
pfpi4k_grid

>  <i_i_glide_lignum>  (282) 
30

>  <i_i_glide_rotatable_bonds>  (282) 
10

>  <r_i_docking_score>  (282) 
-3.58959

>  <r_i_glide_ligand_efficiency>  (282) 
-0.0920408

>  <r_i_glide_ligand_efficiency_sa>  (282) 
-0.31213

>  <r_i_glide_ligand_efficiency_ln>  (282) 
-0.76971

>  <r_i_glide_gscore>  (282) 
-3.58959

>  <r_i_glide_lipo>  (282) 
-0.139062

>  <r_i_glide_hbond>  (282) 
-0.152

>  <r_i_glide_metal>  (282) 
-0

>  <r_i_glide_rewards>  (282) 
-0.5

>  <r_i_glide_evdw>  (282) 
-22.73

>  <r_i_glide_ecoul>  (282) 
-11.4154

>  <r_i_glide_erotb>  (282) 
0.0628015

>  <r_i_glide_esite>  (282) 
-0.0125227

>  <r_i_glide_emodel>  (282) 
-47.5251

>  <r_i_glide_energy>  (282) 
-34.1454

>  <r_i_glide_einternal>  (282) 
2.10797

>  <r_i_glide_intrahb_reward>  (282) 
-0.5

>  <i_i_glide_confnum>  (282) 
1

>  <i_i_glide_posenum>  (282) 
10

>  <r_i_glide_eff_state_penalty>  (282) 
0

>  <ligand_id>  (282) 
86

>  <original_smiles>  (282) 
CCN1CC2(O)CC(O)C3C(OC)C4C(OC)C5(C(O)C(CN6CCOC6=O)C6C(O)C7C2OC5C64C7O)C31

>  <smiles>  (282) 
[H]OC1([H])C2([H])C3([H])OC4([H])C5(C2([H])O[H])C2([H])C([H])(OC([H])([H])[H])C6([H])C([H])(O[H])C([H])([H])C3(O[H])C([H])([H])[N+]([H])(C([H])([H])C([H])([H])[H])C6([H])C4(C([H])(O[H])C([H])(C([H])([H])N3C(=O)OC([H])([H])C3([H])[H])C15[H])C2([H])OC([H])([H])[H]

$$$$
86:0:2
     RDKit          3D

 80 87  0  0  1  0  0  0  0  0999 V2000
    4.6504   -8.6533    0.3404 C   0  0  0  0  0  0  0  0  0  0  0  0
    4.3914   -7.8808    1.6382 C   0  0  0  0  0  0  0  0  0  0  0  0
    4.2745   -8.7941    2.7894 N   0  0  2  0  0  0  0  0  0  0  0  0
    3.1727   -9.8174    2.5699 C   0  0  0  0  0  0  0  0  0  0  0  0
    2.5695  -10.7115    3.7346 C   0  0  1  0  0  0  0  0  0  0  0  0
    1.8876  -11.7339    3.0524 O   0  0  0  0  0  0  0  0  0  0  0  0
    3.7361  -11.4299    4.5318 C   0  0  0  0  0  0  0  0  0  0  0  0
    5.1825  -10.7588    4.6057 C   0  0  1  0  0  0  0  0  0  0  0  0
    5.9227  -10.9489    3.4045 O   0  0  0  0  0  0  0  0  0  0  0  0
    5.3744   -9.2707    5.0759 C   0  0  2  0  0  0  0  0  0  0  0  0
    5.0610   -9.1420    6.6712 C   0  0  1  0  0  0  0  0  0  0  0  0
    6.2638   -8.8436    7.3829 O   0  0  0  0  0  0  0  0  0  0  0  0
    7.1874   -9.9230    7.4860 C   0  0  0  0  0  0  0  0  0  0  0  0
    3.9422   -8.0834    7.1096 C   0  0  1  0  0  0  0  0  0  0  0  0
    4.2575   -6.8633    6.2749 C   0  0  1  0  0  0  0  0  0  0  0  0
    5.6407   -6.5004    6.2243 O   0  0  0  0  0  0  0  0  0  0  0  0
    5.8873   -5.2398    5.6260 C   0  0  0  0  0  0  0  0  0  0  0  0
    3.6397   -7.3157    4.9163 C   0  0  2  0  0  0  0  0  0  0  0  0
    2.6540   -6.1642    4.5574 C   0  0  1  0  0  0  0  0  0  0  0  0
    2.1749   -6.2860    3.2384 O   0  0  0  0  0  0  0  0  0  0  0  0
    1.4474   -6.1132    5.6299 C   0  0  1  0  0  0  0  0  0  0  0  0
    0.1597   -5.3963    5.1349 C   0  0  0  0  0  0  0  0  0  0  0  0
    0.3442   -3.9388    5.0494 N   0  0  0  0  0  0  0  0  0  0  0  0
    0.9605   -3.2908    3.9189 C   0  0  0  0  0  0  0  0  0  0  0  0
    0.7801   -1.8049    4.2458 C   0  0  0  0  0  0  0  0  0  0  0  0
    0.0529   -1.8337    5.4691 O   0  0  0  0  0  0  0  0  0  0  0  0
   -0.2147   -3.0403    5.9355 C   0  0  0  0  0  0  0  0  0  0  0  0
   -0.8698   -3.2878    6.9421 O   0  0  0  0  0  0  0  0  0  0  0  0
    1.2023   -7.4280    6.5494 C   0  0  1  0  0  0  0  0  0  0  0  0
    0.0808   -8.5226    6.1736 C   0  0  1  0  0  0  0  0  0  0  0  0
   -0.8025   -8.2400    5.1014 O   0  0  0  0  0  0  0  0  0  0  0  0
    0.7865   -9.9173    5.9314 C   0  0  1  0  0  0  0  0  0  0  0  0
    1.3202   -9.9477    4.4292 C   0  0  1  0  0  0  0  0  0  0  0  0
    1.7331   -8.6368    4.2642 O   0  0  0  0  0  0  0  0  0  0  0  0
    2.7239   -8.4037    5.2359 C   0  0  2  0  0  0  0  0  0  0  0  0
    2.4337   -8.3867    6.6522 C   0  0  1  0  0  0  0  0  0  0  0  0
    1.8777   -9.7669    7.0115 C   0  0  1  0  0  0  0  0  0  0  0  0
    1.3494   -9.7720    8.3206 O   0  0  0  0  0  0  0  0  0  0  0  0
    4.6751   -8.1812    4.0979 C   0  0  2  0  0  0  0  0  0  0  0  0
    4.7580   -7.9163   -0.4666 H   0  0  0  0  0  0  0  0  0  0  0  0
    3.8237   -9.3039    0.0373 H   0  0  0  0  0  0  0  0  0  0  0  0
    5.5622   -9.2543    0.4303 H   0  0  0  0  0  0  0  0  0  0  0  0
    5.2420   -7.2035    1.7570 H   0  0  0  0  0  0  0  0  0  0  0  0
    3.5184   -7.2696    1.4535 H   0  0  0  0  0  0  0  0  0  0  0  0
    2.3305   -9.3782    2.0333 H   0  0  0  0  0  0  0  0  0  0  0  0
    3.5893  -10.5568    1.8775 H   0  0  0  0  0  0  0  0  0  0  0  0
    2.1751  -12.5708    3.3709 H   0  0  0  0  0  0  0  0  0  0  0  0
    3.4071  -11.7458    5.5286 H   0  0  0  0  0  0  0  0  0  0  0  0
    3.9290  -12.3965    4.0617 H   0  0  0  0  0  0  0  0  0  0  0  0
    5.7193  -11.3731    5.3429 H   0  0  0  0  0  0  0  0  0  0  0  0
    5.3660  -11.2876    2.7027 H   0  0  0  0  0  0  0  0  0  0  0  0
    6.4347   -9.0742    4.9605 H   0  0  0  0  0  0  0  0  0  0  0  0
    4.7176  -10.1116    7.0527 H   0  0  0  0  0  0  0  0  0  0  0  0
    8.0831   -9.5749    7.9993 H   0  0  0  0  0  0  0  0  0  0  0  0
    7.5054  -10.3067    6.5163 H   0  0  0  0  0  0  0  0  0  0  0  0
    6.7614  -10.7473    8.0632 H   0  0  0  0  0  0  0  0  0  0  0  0
    4.0099   -7.8934    8.1867 H   0  0  0  0  0  0  0  0  0  0  0  0
    3.7248   -6.0368    6.7443 H   0  0  0  0  0  0  0  0  0  0  0  0
    6.9548   -5.0422    5.6757 H   0  0  0  0  0  0  0  0  0  0  0  0
    5.3707   -4.4285    6.1408 H   0  0  0  0  0  0  0  0  0  0  0  0
    5.5973   -5.2339    4.5752 H   0  0  0  0  0  0  0  0  0  0  0  0
    3.2166   -5.2312    4.6128 H   0  0  0  0  0  0  0  0  0  0  0  0
    1.7473   -7.1407    3.1908 H   0  0  0  0  0  0  0  0  0  0  0  0
    1.7997   -5.4144    6.3879 H   0  0  0  0  0  0  0  0  0  0  0  0
   -0.1727   -5.7832    4.1691 H   0  0  0  0  0  0  0  0  0  0  0  0
   -0.6567   -5.6241    5.8214 H   0  0  0  0  0  0  0  0  0  0  0  0
    2.0181   -3.5268    3.8493 H   0  0  0  0  0  0  0  0  0  0  0  0
    0.4805   -3.5685    2.9872 H   0  0  0  0  0  0  0  0  0  0  0  0
    1.7437   -1.3102    4.3890 H   0  0  0  0  0  0  0  0  0  0  0  0
    0.2290   -1.2579    3.4761 H   0  0  0  0  0  0  0  0  0  0  0  0
    0.9588   -7.0700    7.5532 H   0  0  0  0  0  0  0  0  0  0  0  0
   -0.5520   -8.6566    7.0498 H   0  0  0  0  0  0  0  0  0  0  0  0
   -1.4146   -8.9727    5.0705 H   0  0  0  0  0  0  0  0  0  0  0  0
    0.1178  -10.7589    6.1237 H   0  0  0  0  0  0  0  0  0  0  0  0
    0.4573  -10.0597    3.7753 H   0  0  0  0  0  0  0  0  0  0  0  0
    3.2038   -9.3094    5.3174 H   0  0  0  0  0  0  0  0  0  0  0  0
    2.6030  -10.5687    7.0032 H   0  0  0  0  0  0  0  0  0  0  0  0
    1.2156  -10.6858    8.4914 H   0  0  0  0  0  0  0  0  0  0  0  0
    5.4946   -7.4904    3.8772 H   0  0  0  0  0  0  0  0  0  0  0  0
    5.0787   -9.3594    2.6674 H   0  0  0  0  0  0  0  0  0  0  0  0
  1  2  1  0
  1 40  1  0
  1 41  1  0
  1 42  1  0
  2  3  1  0
  2 43  1  0
  2 44  1  0
  3 39  1  0
  3  4  1  0
  3 80  1  6
  4  5  1  0
  4 45  1  0
  4 46  1  0
  5 33  1  0
  5  6  1  6
  5  7  1  0
  6 47  1  0
  7  8  1  0
  7 48  1  0
  7 49  1  0
  8  9  1  0
  8 10  1  0
  8 50  1  1
  9 51  1  0
 10 39  1  0
 10 11  1  0
 10 52  1  1
 11 12  1  0
 11 14  1  0
 11 53  1  1
 12 13  1  0
 13 54  1  0
 13 55  1  0
 13 56  1  0
 14 36  1  0
 14 15  1  0
 14 57  1  1
 15 16  1  0
 15 18  1  0
 15 58  1  1
 16 17  1  0
 17 59  1  0
 17 60  1  0
 17 61  1  0
 18 35  1  0
 18 19  1  6
 18 39  1  0
 19 20  1  0
 19 21  1  0
 19 62  1  6
 20 63  1  0
 21 22  1  0
 21 29  1  0
 21 64  1  1
 22 23  1  0
 22 65  1  0
 22 66  1  0
 23 27  1  0
 23 24  1  0
 24 25  1  0
 24 67  1  0
 24 68  1  0
 25 26  1  0
 25 69  1  0
 25 70  1  0
 26 27  1  0
 27 28  2  0
 29 36  1  0
 29 30  1  0
 29 71  1  1
 30 31  1  0
 30 32  1  0
 30 72  1  1
 31 73  1  0
 32 37  1  0
 32 33  1  0
 32 74  1  1
 33 34  1  0
 33 75  1  6
 34 35  1  0
 35 36  1  0
 35 76  1  1
 36 37  1  1
 37 38  1  0
 37 77  1  1
 38 78  1  0
 39 79  1  6
M  CHG  1   3   1
M  END
>  <i_m_ct_stereo_status>  (283) 
1

>  <s_m_source_file>  (283) 
/var/tmp/pbs.5076255.sched01/tmpt7uccrld/92zpefy4ut.sdf

>  <i_m_source_file_index>  (283) 
30

>  <i_lp_mmshare_version>  (283) 
48012

>  <i_f3d_flags>  (283) 
0

>  <s_epik_input>  (283) 
W0NIM11PW0NAQEhdMVtDQEBIXShbQ0BdMjNbQ0BIXTRbQ0BdMTU2KVtDQEhdKE9bQ0gzXSlbQ0BASF03W0NASF02TihbQ0gyXVtDSDNdKVtDSDJdW0NAQF0oW09IXSkoW0NIMl1bQ0BIXTdbT0hdKVtDQEhdKE80KVtDQEBIXShbQ0BASF0zW09IXSlbQ0BIXShbT0hdKVtDSF0yW0NAQEhdKFtDQEBIXTVbT0hdKVtDSDJdTjhbQ0gyXVtDSDJdT0M4PU8=

>  <s_epik_cmdline>  (283) 
J2VwaWtfcHl0aG9uJywgJy1waHQnLCAnMi4wJywgJy1waCcsICc3LjAnLCAnLXRuJywgJzgnLCAnLW1hJywgJzIwMCcsICctaW1hZScsICc8aW5maWxlLm1hZT4nLCAnLW9tYWUnLCAnPG91dGZpbGUubWFlPic=

>  <r_epik_Ionization_Penalty>  (283) 
0.00210516

>  <r_epik_Ionization_Penalty_Charging>  (283) 
0.00210146

>  <r_epik_Ionization_Penalty_Neutral>  (283) 
3.70392e-06

>  <r_epik_State_Penalty>  (283) 
0.00144031

>  <r_epik_Charging_Adjusted_Penalty>  (283) 
0.00354177

>  <i_epik_Tot_Q>  (283) 
1

>  <i_epik_Tot_abs_Q>  (283) 
1

>  <s_epik_Chemistry_Notes>  (283) 
This compound has an ester and may undergo hydrolysis at high or low pH.

>  <s_lp_Force_Field>  (283) 
OPLS3e

>  <r_lp_Energy>  (283) 
225.319

>  <b_lp_Chiralities_Consistent>  (283) 
1

>  <s_lp_Variant>  (283) 
86:0-1

>  <s_i_glide_gridfile>  (283) 
pfpi4k_grid

>  <i_i_glide_lignum>  (283) 
30

>  <i_i_glide_rotatable_bonds>  (283) 
10

>  <r_i_docking_score>  (283) 
-3.57134

>  <r_i_glide_ligand_efficiency>  (283) 
-0.0915728

>  <r_i_glide_ligand_efficiency_sa>  (283) 
-0.310543

>  <r_i_glide_ligand_efficiency_ln>  (283) 
-0.765796

>  <r_i_glide_gscore>  (283) 
-3.57134

>  <r_i_glide_lipo>  (283) 
-0.063131

>  <r_i_glide_hbond>  (283) 
-0.128048

>  <r_i_glide_metal>  (283) 
-0

>  <r_i_glide_rewards>  (283) 
-0.5

>  <r_i_glide_evdw>  (283) 
-16.9629

>  <r_i_glide_ecoul>  (283) 
-13.765

>  <r_i_glide_erotb>  (283) 
0.0628015

>  <r_i_glide_esite>  (283) 
-0.0300693

>  <r_i_glide_emodel>  (283) 
-42.2877

>  <r_i_glide_energy>  (283) 
-30.7279

>  <r_i_glide_einternal>  (283) 
5.38123

>  <r_i_glide_intrahb_reward>  (283) 
-0.5

>  <i_i_glide_confnum>  (283) 
1

>  <i_i_glide_posenum>  (283) 
29

>  <r_i_glide_eff_state_penalty>  (283) 
0

>  <ligand_id>  (283) 
86

>  <original_smiles>  (283) 
CCN1CC2(O)CC(O)C3C(OC)C4C(OC)C5(C(O)C(CN6CCOC6=O)C6C(O)C7C2OC5C64C7O)C31

>  <smiles>  (283) 
[H]OC1([H])C2([H])C3([H])OC4([H])C5(C2([H])O[H])C2([H])C([H])(OC([H])([H])[H])C6([H])C([H])(O[H])C([H])([H])C3(O[H])C([H])([H])[N+]([H])(C([H])([H])C([H])([H])[H])C6([H])C4(C([H])(O[H])C([H])(C([H])([H])N3C(=O)OC([H])([H])C3([H])[H])C15[H])C2([H])OC([H])([H])[H]

$$$$
86:1:0
     RDKit          3D

 80 87  0  0  1  0  0  0  0  0999 V2000
    3.6445   -1.4901    0.6218 C   0  0  0  0  0  0  0  0  0  0  0  0
    3.8485   -0.2603    1.5347 C   0  0  0  0  0  0  0  0  0  0  0  0
    2.9200   -0.1856    2.7169 N   0  0  1  0  0  0  0  0  0  0  0  0
    2.6681   -1.5730    3.3462 C   0  0  0  0  0  0  0  0  0  0  0  0
    2.2018   -1.8133    4.8366 C   0  0  1  0  0  0  0  0  0  0  0  0
    2.1165   -3.2188    4.9715 O   0  0  0  0  0  0  0  0  0  0  0  0
    3.4272   -1.4284    5.7639 C   0  0  0  0  0  0  0  0  0  0  0  0
    4.4814   -0.3462    5.3040 C   0  0  1  0  0  0  0  0  0  0  0  0
    5.4207   -0.8919    4.3894 O   0  0  0  0  0  0  0  0  0  0  0  0
    4.0479    1.0865    4.8267 C   0  0  2  0  0  0  0  0  0  0  0  0
    3.5139    1.9274    6.1178 C   0  0  1  0  0  0  0  0  0  0  0  0
    4.3887    3.0097    6.4474 O   0  0  0  0  0  0  0  0  0  0  0  0
    5.6534    2.6511    6.9880 C   0  0  0  0  0  0  0  0  0  0  0  0
    2.0244    2.5275    6.0582 C   0  0  1  0  0  0  0  0  0  0  0  0
    1.9736    3.1400    4.6780 C   0  0  1  0  0  0  0  0  0  0  0  0
    3.0996    3.9286    4.2953 O   0  0  0  0  0  0  0  0  0  0  0  0
    2.9267    4.6821    3.1019 C   0  0  0  0  0  0  0  0  0  0  0  0
    1.7485    1.8458    3.8576 C   0  0  2  0  0  0  0  0  0  0  0  0
    0.4712    2.0933    3.0127 C   0  0  1  0  0  0  0  0  0  0  0  0
    0.3617    1.1598    1.9473 O   0  0  0  0  0  0  0  0  0  0  0  0
   -0.7942    2.2017    4.0171 C   0  0  1  0  0  0  0  0  0  0  0  0
   -2.1846    2.0779    3.3280 C   0  0  0  0  0  0  0  0  0  0  0  0
   -2.7769    3.2620    2.7151 N   0  0  0  0  0  0  0  0  0  0  0  0
   -4.0048    3.2134    1.9403 C   0  0  0  0  0  0  0  0  0  0  0  0
   -4.3167    4.6831    1.6595 C   0  0  0  0  0  0  0  0  0  0  0  0
   -3.2475    5.3474    2.3047 O   0  0  0  0  0  0  0  0  0  0  0  0
   -2.3352    4.5451    2.8682 C   0  0  0  0  0  0  0  0  0  0  0  0
   -1.3155    4.9834    3.4074 O   0  0  0  0  0  0  0  0  0  0  0  0
   -0.6569    1.6377    5.5236 C   0  0  1  0  0  0  0  0  0  0  0  0
   -1.2643    0.2250    5.9444 C   0  0  1  0  0  0  0  0  0  0  0  0
   -2.1334   -0.4225    5.0411 O   0  0  0  0  0  0  0  0  0  0  0  0
   -0.0650   -0.7028    6.4008 C   0  0  1  0  0  0  0  0  0  0  0  0
    0.6627   -1.3349    5.0987 C   0  0  1  0  0  0  0  0  0  0  0  0
    0.5734   -0.2684    4.2166 O   0  0  0  0  0  0  0  0  0  0  0  0
    1.2846    0.8082    4.7967 C   0  0  2  0  0  0  0  0  0  0  0  0
    0.8193    1.4598    6.0146 C   0  0  1  0  0  0  0  0  0  0  0  0
    0.7583    0.3873    7.1299 C   0  0  1  0  0  0  0  0  0  0  0  0
    0.1032    0.8939    8.2793 O   0  0  0  0  0  0  0  0  0  0  0  0
    3.0965    1.1256    3.5087 C   0  0  2  0  0  0  0  0  0  0  0  0
    4.2419   -1.4190   -0.2865 H   0  0  0  0  0  0  0  0  0  0  0  0
    2.6097   -1.5670    0.3092 H   0  0  0  0  0  0  0  0  0  0  0  0
    3.9153   -2.4400    1.0904 H   0  0  0  0  0  0  0  0  0  0  0  0
    4.8905   -0.2387    1.8547 H   0  0  0  0  0  0  0  0  0  0  0  0
    3.7120    0.6315    0.9241 H   0  0  0  0  0  0  0  0  0  0  0  0
    1.9414   -2.0428    2.6905 H   0  0  0  0  0  0  0  0  0  0  0  0
    3.5707   -2.1702    3.2313 H   0  0  0  0  0  0  0  0  0  0  0  0
    1.4980   -3.5666    4.3496 H   0  0  0  0  0  0  0  0  0  0  0  0
    3.0933   -1.2294    6.7734 H   0  0  0  0  0  0  0  0  0  0  0  0
    4.0209   -2.3302    5.9287 H   0  0  0  0  0  0  0  0  0  0  0  0
    5.1117   -0.1831    6.1769 H   0  0  0  0  0  0  0  0  0  0  0  0
    4.9882   -1.0809    3.5668 H   0  0  0  0  0  0  0  0  0  0  0  0
    4.9639    1.5812    4.5110 H   0  0  0  0  0  0  0  0  0  0  0  0
    3.5267    1.2737    6.9878 H   0  0  0  0  0  0  0  0  0  0  0  0
    6.1900    3.5586    7.2601 H   0  0  0  0  0  0  0  0  0  0  0  0
    6.2680    2.1181    6.2660 H   0  0  0  0  0  0  0  0  0  0  0  0
    5.5614    2.0413    7.8876 H   0  0  0  0  0  0  0  0  0  0  0  0
    1.8714    3.2643    6.8463 H   0  0  0  0  0  0  0  0  0  0  0  0
    1.1394    3.8327    4.6808 H   0  0  0  0  0  0  0  0  0  0  0  0
    3.8247    5.2647    2.9055 H   0  0  0  0  0  0  0  0  0  0  0  0
    2.0992    5.3877    3.1705 H   0  0  0  0  0  0  0  0  0  0  0  0
    2.7671    4.0318    2.2446 H   0  0  0  0  0  0  0  0  0  0  0  0
    0.5640    3.0538    2.5141 H   0  0  0  0  0  0  0  0  0  0  0  0
   -0.1822    1.5486    1.2748 H   0  0  0  0  0  0  0  0  0  0  0  0
   -0.7350    3.1890    4.3984 H   0  0  0  0  0  0  0  0  0  0  0  0
   -2.1440    1.3411    2.5336 H   0  0  0  0  0  0  0  0  0  0  0  0
   -2.9275    1.7546    4.0500 H   0  0  0  0  0  0  0  0  0  0  0  0
   -3.8417    2.6310    1.0387 H   0  0  0  0  0  0  0  0  0  0  0  0
   -4.8621    2.7758    2.4403 H   0  0  0  0  0  0  0  0  0  0  0  0
   -4.2706    4.9033    0.5919 H   0  0  0  0  0  0  0  0  0  0  0  0
   -5.2864    5.0144    2.0449 H   0  0  0  0  0  0  0  0  0  0  0  0
   -1.1319    2.3706    6.1732 H   0  0  0  0  0  0  0  0  0  0  0  0
   -1.9000    0.4350    6.8054 H   0  0  0  0  0  0  0  0  0  0  0  0
   -2.0666    0.0289    4.2113 H   0  0  0  0  0  0  0  0  0  0  0  0
   -0.4017   -1.4822    7.0771 H   0  0  0  0  0  0  0  0  0  0  0  0
   -0.0116   -2.0836    4.6837 H   0  0  0  0  0  0  0  0  0  0  0  0
    2.0460    0.3555    5.3212 H   0  0  0  0  0  0  0  0  0  0  0  0
    1.7250    0.0386    7.4722 H   0  0  0  0  0  0  0  0  0  0  0  0
    0.6475    1.5616    8.6682 H   0  0  0  0  0  0  0  0  0  0  0  0
    3.5585    1.8159    2.8196 H   0  0  0  0  0  0  0  0  0  0  0  0
    2.0173    0.0101    2.2741 H   0  0  0  0  0  0  0  0  0  0  0  0
  1  2  1  0
  1 40  1  0
  1 41  1  0
  1 42  1  0
  2  3  1  0
  2 43  1  0
  2 44  1  0
  3 39  1  0
  3  4  1  0
  3 80  1  6
  4  5  1  0
  4 45  1  0
  4 46  1  0
  5 33  1  0
  5  6  1  6
  5  7  1  0
  6 47  1  0
  7  8  1  0
  7 48  1  0
  7 49  1  0
  8  9  1  0
  8 10  1  0
  8 50  1  1
  9 51  1  0
 10 39  1  0
 10 11  1  0
 10 52  1  6
 11 12  1  0
 11 14  1  0
 11 53  1  1
 12 13  1  0
 13 54  1  0
 13 55  1  0
 13 56  1  0
 14 36  1  0
 14 15  1  0
 14 57  1  1
 15 16  1  0
 15 18  1  0
 15 58  1  1
 16 17  1  0
 17 59  1  0
 17 60  1  0
 17 61  1  0
 18 35  1  0
 18 19  1  6
 18 39  1  0
 19 20  1  0
 19 21  1  0
 19 62  1  6
 20 63  1  0
 21 22  1  0
 21 29  1  0
 21 64  1  1
 22 23  1  0
 22 65  1  0
 22 66  1  0
 23 27  1  0
 23 24  1  0
 24 25  1  0
 24 67  1  0
 24 68  1  0
 25 26  1  0
 25 69  1  0
 25 70  1  0
 26 27  1  0
 27 28  2  0
 29 36  1  0
 29 30  1  0
 29 71  1  1
 30 31  1  0
 30 32  1  0
 30 72  1  1
 31 73  1  0
 32 37  1  0
 32 33  1  0
 32 74  1  1
 33 34  1  0
 33 75  1  6
 34 35  1  0
 35 36  1  0
 35 76  1  1
 36 37  1  1
 37 38  1  0
 37 77  1  1
 38 78  1  0
 39 79  1  6
M  CHG  1   3   1
M  END
>  <i_m_ct_stereo_status>  (284) 
1

>  <s_m_source_file>  (284) 
/var/tmp/pbs.5076255.sched01/tmpt7uccrld/92zpefy4ut.sdf

>  <i_m_source_file_index>  (284) 
31

>  <i_lp_mmshare_version>  (284) 
48012

>  <i_f3d_flags>  (284) 
0

>  <s_epik_input>  (284) 
W0NIM11PW0NAQEhdMVtDQEBIXShbQ0BdMjNbQ0BIXTRbQ0BdMTU2KVtDQEhdKE9bQ0gzXSlbQ0BASF03W0NASF02TihbQ0gyXVtDSDNdKVtDSDJdW0NAQF0oW09IXSkoW0NIMl1bQ0BIXTdbT0hdKVtDQEhdKE80KVtDQEBIXShbQ0BASF0zW09IXSlbQ0BIXShbT0hdKVtDSF0yW0NAQEhdKFtDQEBIXTVbT0hdKVtDSDJdTjhbQ0gyXVtDSDJdT0M4PU8=

>  <s_epik_cmdline>  (284) 
J2VwaWtfcHl0aG9uJywgJy1waHQnLCAnMi4wJywgJy1waCcsICc3LjAnLCAnLXRuJywgJzgnLCAnLW1hJywgJzIwMCcsICctaW1hZScsICc8aW5maWxlLm1hZT4nLCAnLW9tYWUnLCAnPG91dGZpbGUubWFlPic=

>  <r_epik_Ionization_Penalty>  (284) 
0.00210516

>  <r_epik_Ionization_Penalty_Charging>  (284) 
0.00210146

>  <r_epik_Ionization_Penalty_Neutral>  (284) 
3.70392e-06

>  <r_epik_State_Penalty>  (284) 
0.00144031

>  <r_epik_Charging_Adjusted_Penalty>  (284) 
0.00354177

>  <i_epik_Tot_Q>  (284) 
1

>  <i_epik_Tot_abs_Q>  (284) 
1

>  <s_epik_Chemistry_Notes>  (284) 
This compound has an ester and may undergo hydrolysis at high or low pH.

>  <s_lp_Force_Field>  (284) 
OPLS3e

>  <r_lp_Energy>  (284) 
223.318

>  <b_lp_Chiralities_Consistent>  (284) 
1

>  <s_lp_Variant>  (284) 
86:0-2

>  <s_i_glide_gridfile>  (284) 
pfpi4k_grid

>  <i_i_glide_lignum>  (284) 
31

>  <i_i_glide_rotatable_bonds>  (284) 
10

>  <r_i_docking_score>  (284) 
-3.41779

>  <r_i_glide_ligand_efficiency>  (284) 
-0.0876357

>  <r_i_glide_ligand_efficiency_sa>  (284) 
-0.297191

>  <r_i_glide_ligand_efficiency_ln>  (284) 
-0.732872

>  <r_i_glide_gscore>  (284) 
-3.41779

>  <r_i_glide_lipo>  (284) 
-0.27045

>  <r_i_glide_hbond>  (284) 
-0.271098

>  <r_i_glide_metal>  (284) 
-0

>  <r_i_glide_rewards>  (284) 
-0.5

>  <r_i_glide_evdw>  (284) 
-21.6233

>  <r_i_glide_ecoul>  (284) 
-8.1399

>  <r_i_glide_erotb>  (284) 
0.0628015

>  <r_i_glide_esite>  (284) 
-0.136895

>  <r_i_glide_emodel>  (284) 
-34.0081

>  <r_i_glide_energy>  (284) 
-29.7632

>  <r_i_glide_einternal>  (284) 
12.7185

>  <r_i_glide_intrahb_reward>  (284) 
-0.5

>  <i_i_glide_confnum>  (284) 
1

>  <i_i_glide_posenum>  (284) 
19

>  <r_i_glide_eff_state_penalty>  (284) 
0

>  <ligand_id>  (284) 
86

>  <original_smiles>  (284) 
CCN1CC2(O)CC(O)C3C(OC)C4C(OC)C5(C(O)C(CN6CCOC6=O)C6C(O)C7C2OC5C64C7O)C31

>  <smiles>  (284) 
[H]OC1([H])C2([H])C3([H])OC4([H])C5(C2([H])O[H])C2([H])C([H])(OC([H])([H])[H])C6([H])C([H])(O[H])C([H])([H])C3(O[H])C([H])([H])[N+]([H])(C([H])([H])C([H])([H])[H])C6([H])C4(C([H])(O[H])C([H])(C([H])([H])N3C(=O)OC([H])([H])C3([H])[H])C15[H])C2([H])OC([H])([H])[H]

$$$$
86:1:1
     RDKit          3D

 80 87  0  0  1  0  0  0  0  0999 V2000
    3.6839   -1.1401    0.1685 C   0  0  0  0  0  0  0  0  0  0  0  0
    3.8672   -0.0287    1.2249 C   0  0  0  0  0  0  0  0  0  0  0  0
    2.9153   -0.1020    2.3910 N   0  0  1  0  0  0  0  0  0  0  0  0
    2.6807   -1.5534    2.8562 C   0  0  0  0  0  0  0  0  0  0  0  0
    2.2123   -1.9619    4.3025 C   0  0  1  0  0  0  0  0  0  0  0  0
    2.0915   -3.3698    4.2502 O   0  0  0  0  0  0  0  0  0  0  0  0
    3.4268   -1.6805    5.2844 C   0  0  0  0  0  0  0  0  0  0  0  0
    4.4737   -0.5468    4.9564 C   0  0  1  0  0  0  0  0  0  0  0  0
    5.4032   -0.9820    3.9828 O   0  0  0  0  0  0  0  0  0  0  0  0
    4.0246    0.9213    4.6434 C   0  0  2  0  0  0  0  0  0  0  0  0
    3.4802    1.6103    6.0186 C   0  0  1  0  0  0  0  0  0  0  0  0
    4.3462    2.6542    6.4686 O   0  0  0  0  0  0  0  0  0  0  0  0
    5.6067    2.2416    6.9820 C   0  0  0  0  0  0  0  0  0  0  0  0
    1.9880    2.1976    6.0153 C   0  0  1  0  0  0  0  0  0  0  0  0
    1.9480    2.9581    4.7142 C   0  0  1  0  0  0  0  0  0  0  0  0
    3.0695    3.7936    4.4274 O   0  0  0  0  0  0  0  0  0  0  0  0
    2.9090    4.6584    3.3109 C   0  0  0  0  0  0  0  0  0  0  0  0
    1.7345    1.7669    3.7508 C   0  0  2  0  0  0  0  0  0  0  0  0
    0.4748    2.1107    2.9257 C   0  0  1  0  0  0  0  0  0  0  0  0
    0.4011    1.3299    1.7448 O   0  0  0  0  0  0  0  0  0  0  0  0
   -0.7969    2.1132    3.9253 C   0  0  1  0  0  0  0  0  0  0  0  0
   -2.1816    2.0603    3.2107 C   0  0  0  0  0  0  0  0  0  0  0  0
   -2.7534    3.2775    2.6427 N   0  0  0  0  0  0  0  0  0  0  0  0
   -4.0153    3.2908    1.9326 C   0  0  0  0  0  0  0  0  0  0  0  0
   -4.2983    4.7727    1.7073 C   0  0  0  0  0  0  0  0  0  0  0  0
   -3.1998    5.3836    2.3539 O   0  0  0  0  0  0  0  0  0  0  0  0
   -2.2810    4.5413    2.8768 C   0  0  0  0  0  0  0  0  0  0  0  0
   -1.2921    4.9089    3.4670 O   0  0  0  0  0  0  0  0  0  0  0  0
   -0.6750    1.3503    5.3455 C   0  0  1  0  0  0  0  0  0  0  0  0
   -1.2780   -0.1062    5.5953 C   0  0  1  0  0  0  0  0  0  0  0  0
   -2.1482   -0.6595    4.6338 O   0  0  0  0  0  0  0  0  0  0  0  0
   -0.0704   -1.0696    5.9564 C   0  0  1  0  0  0  0  0  0  0  0  0
    0.6718   -1.5335    4.5992 C   0  0  1  0  0  0  0  0  0  0  0  0
    0.5771   -0.3744    3.8446 O   0  0  0  0  0  0  0  0  0  0  0  0
    1.2719    0.6305    4.5581 C   0  0  2  0  0  0  0  0  0  0  0  0
    0.7931    1.1295    5.8371 C   0  0  1  0  0  0  0  0  0  0  0  0
    0.7373   -0.0688    6.8189 C   0  0  1  0  0  0  0  0  0  0  0  0
    0.0539    0.2954    8.0023 O   0  0  0  0  0  0  0  0  0  0  0  0
    3.0799    1.1007    3.3373 C   0  0  2  0  0  0  0  0  0  0  0  0
    4.2900   -0.9411   -0.7198 H   0  0  0  0  0  0  0  0  0  0  0  0
    2.6437   -1.2069   -0.1401 H   0  0  0  0  0  0  0  0  0  0  0  0
    3.9817   -2.1365    0.5125 H   0  0  0  0  0  0  0  0  0  0  0  0
    4.9053   -0.0413    1.5507 H   0  0  0  0  0  0  0  0  0  0  0  0
    3.7445    0.9355    0.7388 H   0  0  0  0  0  0  0  0  0  0  0  0
    1.9597   -1.9522    2.1498 H   0  0  0  0  0  0  0  0  0  0  0  0
    3.5934   -2.1179    2.6858 H   0  0  0  0  0  0  0  0  0  0  0  0
    2.9409   -3.7486    4.0813 H   0  0  0  0  0  0  0  0  0  0  0  0
    3.0885   -1.6126    6.3087 H   0  0  0  0  0  0  0  0  0  0  0  0
    4.0282   -2.5877    5.3360 H   0  0  0  0  0  0  0  0  0  0  0  0
    5.0975   -0.4741    5.8444 H   0  0  0  0  0  0  0  0  0  0  0  0
    4.9865   -1.0728    3.1422 H   0  0  0  0  0  0  0  0  0  0  0  0
    4.9368    1.4568    4.3967 H   0  0  0  0  0  0  0  0  0  0  0  0
    3.4882    0.8606    6.8053 H   0  0  0  0  0  0  0  0  0  0  0  0
    6.1305    3.1147    7.3644 H   0  0  0  0  0  0  0  0  0  0  0  0
    6.2343    1.8015    6.2118 H   0  0  0  0  0  0  0  0  0  0  0  0
    5.5095    1.5303    7.8027 H   0  0  0  0  0  0  0  0  0  0  0  0
    1.8166    2.8429    6.8769 H   0  0  0  0  0  0  0  0  0  0  0  0
    1.1053    3.6342    4.7742 H   0  0  0  0  0  0  0  0  0  0  0  0
    3.8040    5.2702    3.1954 H   0  0  0  0  0  0  0  0  0  0  0  0
    2.0643    5.3381    3.4233 H   0  0  0  0  0  0  0  0  0  0  0  0
    2.7854    4.0904    2.3918 H   0  0  0  0  0  0  0  0  0  0  0  0
    0.5753    3.1275    2.5599 H   0  0  0  0  0  0  0  0  0  0  0  0
   -0.1737    1.7818    1.1408 H   0  0  0  0  0  0  0  0  0  0  0  0
   -0.7645    3.0462    4.4292 H   0  0  0  0  0  0  0  0  0  0  0  0
   -2.1704    1.3577    2.3798 H   0  0  0  0  0  0  0  0  0  0  0  0
   -2.9159    1.7765    3.9526 H   0  0  0  0  0  0  0  0  0  0  0  0
   -3.8847    2.7413    1.0027 H   0  0  0  0  0  0  0  0  0  0  0  0
   -4.8451    2.8612    2.4821 H   0  0  0  0  0  0  0  0  0  0  0  0
   -4.2657    5.0638    0.6569 H   0  0  0  0  0  0  0  0  0  0  0  0
   -5.2352    5.1183    2.1578 H   0  0  0  0  0  0  0  0  0  0  0  0
   -1.1694    1.9855    6.0740 H   0  0  0  0  0  0  0  0  0  0  0  0
   -1.9120    0.0084    6.4781 H   0  0  0  0  0  0  0  0  0  0  0  0
   -2.6749    0.0352    4.2588 H   0  0  0  0  0  0  0  0  0  0  0  0
   -0.4037   -1.9253    6.5337 H   0  0  0  0  0  0  0  0  0  0  0  0
    0.0096   -2.2341    4.0911 H   0  0  0  0  0  0  0  0  0  0  0  0
    2.0265    0.1288    5.0446 H   0  0  0  0  0  0  0  0  0  0  0  0
    1.7103   -0.4404    7.1330 H   0  0  0  0  0  0  0  0  0  0  0  0
    0.5950    0.9048    8.4820 H   0  0  0  0  0  0  0  0  0  0  0  0
    3.5165    1.8743    2.7358 H   0  0  0  0  0  0  0  0  0  0  0  0
    2.0152    0.1401    1.9651 H   0  0  0  0  0  0  0  0  0  0  0  0
  1  2  1  0
  1 40  1  0
  1 41  1  0
  1 42  1  0
  2  3  1  0
  2 43  1  0
  2 44  1  0
  3 39  1  0
  3  4  1  0
  3 80  1  6
  4  5  1  0
  4 45  1  0
  4 46  1  0
  5 33  1  0
  5  6  1  6
  5  7  1  0
  6 47  1  0
  7  8  1  0
  7 48  1  0
  7 49  1  0
  8  9  1  0
  8 10  1  0
  8 50  1  1
  9 51  1  0
 10 39  1  0
 10 11  1  0
 10 52  1  6
 11 12  1  0
 11 14  1  0
 11 53  1  1
 12 13  1  0
 13 54  1  0
 13 55  1  0
 13 56  1  0
 14 36  1  0
 14 15  1  0
 14 57  1  1
 15 16  1  0
 15 18  1  0
 15 58  1  1
 16 17  1  0
 17 59  1  0
 17 60  1  0
 17 61  1  0
 18 35  1  0
 18 19  1  6
 18 39  1  0
 19 20  1  0
 19 21  1  0
 19 62  1  6
 20 63  1  0
 21 22  1  0
 21 29  1  0
 21 64  1  1
 22 23  1  0
 22 65  1  0
 22 66  1  0
 23 27  1  0
 23 24  1  0
 24 25  1  0
 24 67  1  0
 24 68  1  0
 25 26  1  0
 25 69  1  0
 25 70  1  0
 26 27  1  0
 27 28  2  0
 29 36  1  0
 29 30  1  0
 29 71  1  1
 30 31  1  0
 30 32  1  0
 30 72  1  1
 31 73  1  0
 32 37  1  0
 32 33  1  0
 32 74  1  1
 33 34  1  0
 33 75  1  6
 34 35  1  0
 35 36  1  0
 35 76  1  1
 36 37  1  1
 37 38  1  0
 37 77  1  1
 38 78  1  0
 39 79  1  6
M  CHG  1   3   1
M  END
>  <i_m_ct_stereo_status>  (285) 
1

>  <s_m_source_file>  (285) 
/var/tmp/pbs.5076255.sched01/tmpt7uccrld/92zpefy4ut.sdf

>  <i_m_source_file_index>  (285) 
31

>  <i_lp_mmshare_version>  (285) 
48012

>  <i_f3d_flags>  (285) 
0

>  <s_epik_input>  (285) 
W0NIM11PW0NAQEhdMVtDQEBIXShbQ0BdMjNbQ0BIXTRbQ0BdMTU2KVtDQEhdKE9bQ0gzXSlbQ0BASF03W0NASF02TihbQ0gyXVtDSDNdKVtDSDJdW0NAQF0oW09IXSkoW0NIMl1bQ0BIXTdbT0hdKVtDQEhdKE80KVtDQEBIXShbQ0BASF0zW09IXSlbQ0BIXShbT0hdKVtDSF0yW0NAQEhdKFtDQEBIXTVbT0hdKVtDSDJdTjhbQ0gyXVtDSDJdT0M4PU8=

>  <s_epik_cmdline>  (285) 
J2VwaWtfcHl0aG9uJywgJy1waHQnLCAnMi4wJywgJy1waCcsICc3LjAnLCAnLXRuJywgJzgnLCAnLW1hJywgJzIwMCcsICctaW1hZScsICc8aW5maWxlLm1hZT4nLCAnLW9tYWUnLCAnPG91dGZpbGUubWFlPic=

>  <r_epik_Ionization_Penalty>  (285) 
0.00210516

>  <r_epik_Ionization_Penalty_Charging>  (285) 
0.00210146

>  <r_epik_Ionization_Penalty_Neutral>  (285) 
3.70392e-06

>  <r_epik_State_Penalty>  (285) 
0.00144031

>  <r_epik_Charging_Adjusted_Penalty>  (285) 
0.00354177

>  <i_epik_Tot_Q>  (285) 
1

>  <i_epik_Tot_abs_Q>  (285) 
1

>  <s_epik_Chemistry_Notes>  (285) 
This compound has an ester and may undergo hydrolysis at high or low pH.

>  <s_lp_Force_Field>  (285) 
OPLS3e

>  <r_lp_Energy>  (285) 
223.318

>  <b_lp_Chiralities_Consistent>  (285) 
1

>  <s_lp_Variant>  (285) 
86:0-2

>  <s_i_glide_gridfile>  (285) 
pfpi4k_grid

>  <i_i_glide_lignum>  (285) 
31

>  <i_i_glide_rotatable_bonds>  (285) 
10

>  <r_i_docking_score>  (285) 
-3.37825

>  <r_i_glide_ligand_efficiency>  (285) 
-0.0866219

>  <r_i_glide_ligand_efficiency_sa>  (285) 
-0.293753

>  <r_i_glide_ligand_efficiency_ln>  (285) 
-0.724393

>  <r_i_glide_gscore>  (285) 
-3.37825

>  <r_i_glide_lipo>  (285) 
-0.260888

>  <r_i_glide_hbond>  (285) 
-0.272633

>  <r_i_glide_metal>  (285) 
-0

>  <r_i_glide_rewards>  (285) 
-0.5

>  <r_i_glide_evdw>  (285) 
-21.6125

>  <r_i_glide_ecoul>  (285) 
-7.93988

>  <r_i_glide_erotb>  (285) 
0.0628015

>  <r_i_glide_esite>  (285) 
-0.135925

>  <r_i_glide_emodel>  (285) 
-34.6785

>  <r_i_glide_energy>  (285) 
-29.5524

>  <r_i_glide_einternal>  (285) 
11.9343

>  <r_i_glide_intrahb_reward>  (285) 
-0.5

>  <i_i_glide_confnum>  (285) 
1

>  <i_i_glide_posenum>  (285) 
6

>  <r_i_glide_eff_state_penalty>  (285) 
0

>  <ligand_id>  (285) 
86

>  <original_smiles>  (285) 
CCN1CC2(O)CC(O)C3C(OC)C4C(OC)C5(C(O)C(CN6CCOC6=O)C6C(O)C7C2OC5C64C7O)C31

>  <smiles>  (285) 
[H]OC1([H])C2([H])C3([H])OC4([H])C5(C2([H])O[H])C2([H])C([H])(OC([H])([H])[H])C6([H])C([H])(O[H])C([H])([H])C3(O[H])C([H])([H])[N+]([H])(C([H])([H])C([H])([H])[H])C6([H])C4(C([H])(O[H])C([H])(C([H])([H])N3C(=O)OC([H])([H])C3([H])[H])C15[H])C2([H])OC([H])([H])[H]

$$$$
86:1:2
     RDKit          3D

 80 87  0  0  1  0  0  0  0  0999 V2000
    5.0176   -1.0017    0.2441 C   0  0  0  0  0  0  0  0  0  0  0  0
    3.5526   -0.6663    0.5652 C   0  0  0  0  0  0  0  0  0  0  0  0
    3.0461   -1.1520    1.8850 N   0  0  1  0  0  0  0  0  0  0  0  0
    2.6422   -2.6419    1.8279 C   0  0  0  0  0  0  0  0  0  0  0  0
    2.4561   -3.5760    3.0948 C   0  0  1  0  0  0  0  0  0  0  0  0
    2.0359   -4.8098    2.5502 O   0  0  0  0  0  0  0  0  0  0  0  0
    3.8943   -3.8431    3.6982 C   0  0  0  0  0  0  0  0  0  0  0  0
    5.0468   -2.7629    3.5390 C   0  0  1  0  0  0  0  0  0  0  0  0
    5.6416   -2.9035    2.2877 O   0  0  0  0  0  0  0  0  0  0  0  0
    4.8224   -1.2510    3.8985 C   0  0  2  0  0  0  0  0  0  0  0  0
    4.7753   -1.1404    5.5292 C   0  0  1  0  0  0  0  0  0  0  0  0
    5.9741   -0.5148    5.9704 O   0  0  0  0  0  0  0  0  0  0  0  0
    6.4019   -0.9148    7.2652 C   0  0  0  0  0  0  0  0  0  0  0  0
    3.4809   -0.4698    6.2287 C   0  0  1  0  0  0  0  0  0  0  0  0
    3.2293    0.7580    5.3804 C   0  0  1  0  0  0  0  0  0  0  0  0
    4.3617    1.5704    5.0620 O   0  0  0  0  0  0  0  0  0  0  0  0
    4.8625    2.3370    6.1520 C   0  0  0  0  0  0  0  0  0  0  0  0
    2.5763    0.0761    4.1457 C   0  0  2  0  0  0  0  0  0  0  0  0
    1.2203    0.8018    3.9360 C   0  0  1  0  0  0  0  0  0  0  0  0
    0.6634    0.4759    2.6680 O   0  0  0  0  0  0  0  0  0  0  0  0
    0.2534    0.5287    5.2084 C   0  0  1  0  0  0  0  0  0  0  0  0
   -1.2484    0.7993    4.9282 C   0  0  0  0  0  0  0  0  0  0  0  0
   -1.5058    2.1250    4.3633 N   0  0  0  0  0  0  0  0  0  0  0  0
   -1.5115    2.3922    2.9464 C   0  0  0  0  0  0  0  0  0  0  0  0
   -1.9605    3.8429    2.8789 C   0  0  0  0  0  0  0  0  0  0  0  0
   -2.1897    4.1783    4.2356 O   0  0  0  0  0  0  0  0  0  0  0  0
   -1.9657    3.1936    5.1101 C   0  0  0  0  0  0  0  0  0  0  0  0
   -2.1678    3.2598    6.3168 O   0  0  0  0  0  0  0  0  0  0  0  0
    0.6312   -0.7306    6.1880 C   0  0  1  0  0  0  0  0  0  0  0  0
   -0.1378   -2.1324    6.0606 C   0  0  1  0  0  0  0  0  0  0  0  0
   -1.3245   -2.1155    5.3093 O   0  0  0  0  0  0  0  0  0  0  0  0
    0.8917   -3.2645    5.6172 C   0  0  1  0  0  0  0  0  0  0  0  0
    1.1490   -3.2111    4.0196 C   0  0  1  0  0  0  0  0  0  0  0  0
    1.0745   -1.8421    3.8326 O   0  0  0  0  0  0  0  0  0  0  0  0
    2.1215   -1.2507    4.5882 C   0  0  2  0  0  0  0  0  0  0  0  0
    2.1015   -1.2668    6.0491 C   0  0  1  0  0  0  0  0  0  0  0  0
    2.0746   -2.7578    6.4741 C   0  0  1  0  0  0  0  0  0  0  0  0
    1.8280   -2.8767    7.8556 O   0  0  0  0  0  0  0  0  0  0  0  0
    3.6528   -0.4473    3.1155 C   0  0  2  0  0  0  0  0  0  0  0  0
    5.2992   -0.5139   -0.6967 H   0  0  0  0  0  0  0  0  0  0  0  0
    5.2007   -2.0824    0.2307 H   0  0  0  0  0  0  0  0  0  0  0  0
    5.6885   -0.5919    1.0003 H   0  0  0  0  0  0  0  0  0  0  0  0
    3.4074    0.4172    0.4830 H   0  0  0  0  0  0  0  0  0  0  0  0
    2.9262   -1.0872   -0.2148 H   0  0  0  0  0  0  0  0  0  0  0  0
    1.6968   -2.5893    1.3013 H   0  0  0  0  0  0  0  0  0  0  0  0
    3.3271   -3.1330    1.1412 H   0  0  0  0  0  0  0  0  0  0  0  0
    2.7570   -5.1745    2.0657 H   0  0  0  0  0  0  0  0  0  0  0  0
    3.8352   -4.1912    4.7303 H   0  0  0  0  0  0  0  0  0  0  0  0
    4.2948   -4.7147    3.2049 H   0  0  0  0  0  0  0  0  0  0  0  0
    5.7826   -3.0847    4.2898 H   0  0  0  0  0  0  0  0  0  0  0  0
    6.3258   -2.2410    2.1631 H   0  0  0  0  0  0  0  0  0  0  0  0
    5.7320   -0.7163    3.6318 H   0  0  0  0  0  0  0  0  0  0  0  0
    4.7992   -2.1574    5.9104 H   0  0  0  0  0  0  0  0  0  0  0  0
    7.2228   -0.2783    7.5975 H   0  0  0  0  0  0  0  0  0  0  0  0
    6.7532   -1.9465    7.2439 H   0  0  0  0  0  0  0  0  0  0  0  0
    5.6125   -0.8365    8.0131 H   0  0  0  0  0  0  0  0  0  0  0  0
    3.6097   -0.2170    7.2882 H   0  0  0  0  0  0  0  0  0  0  0  0
    2.5302    1.4037    5.9147 H   0  0  0  0  0  0  0  0  0  0  0  0
    5.7511    2.8824    5.8409 H   0  0  0  0  0  0  0  0  0  0  0  0
    5.1523    1.7095    6.9917 H   0  0  0  0  0  0  0  0  0  0  0  0
    4.1324    3.0630    6.5056 H   0  0  0  0  0  0  0  0  0  0  0  0
    1.4235    1.8723    3.8653 H   0  0  0  0  0  0  0  0  0  0  0  0
    0.9885    1.0905    2.0153 H   0  0  0  0  0  0  0  0  0  0  0  0
    0.4778    1.3655    5.8656 H   0  0  0  0  0  0  0  0  0  0  0  0
   -1.6693    0.0963    4.2159 H   0  0  0  0  0  0  0  0  0  0  0  0
   -1.7918    0.6565    5.8584 H   0  0  0  0  0  0  0  0  0  0  0  0
   -0.5263    2.3123    2.5088 H   0  0  0  0  0  0  0  0  0  0  0  0
   -2.2016    1.7338    2.4193 H   0  0  0  0  0  0  0  0  0  0  0  0
   -1.1462    4.4459    2.5043 H   0  0  0  0  0  0  0  0  0  0  0  0
   -2.8299    4.0122    2.2323 H   0  0  0  0  0  0  0  0  0  0  0  0
    0.4667   -0.3898    7.2097 H   0  0  0  0  0  0  0  0  0  0  0  0
   -0.4805   -2.3902    7.0563 H   0  0  0  0  0  0  0  0  0  0  0  0
   -1.0644   -1.9198    4.4210 H   0  0  0  0  0  0  0  0  0  0  0  0
    0.5678   -4.2608    5.9157 H   0  0  0  0  0  0  0  0  0  0  0  0
    0.2537   -3.6006    3.5325 H   0  0  0  0  0  0  0  0  0  0  0  0
    2.8658   -1.9559    4.5725 H   0  0  0  0  0  0  0  0  0  0  0  0
    2.9971   -3.2980    6.2974 H   0  0  0  0  0  0  0  0  0  0  0  0
    2.6109   -2.6283    8.3160 H   0  0  0  0  0  0  0  0  0  0  0  0
    4.0834    0.4674    2.7266 H   0  0  0  0  0  0  0  0  0  0  0  0
    2.1183   -0.7503    1.9289 H   0  0  0  0  0  0  0  0  0  0  0  0
  1  2  1  0
  1 40  1  0
  1 41  1  0
  1 42  1  0
  2  3  1  0
  2 43  1  0
  2 44  1  0
  3 39  1  0
  3  4  1  0
  3 80  1  6
  4  5  1  0
  4 45  1  0
  4 46  1  0
  5 33  1  0
  5  6  1  6
  5  7  1  0
  6 47  1  0
  7  8  1  0
  7 48  1  0
  7 49  1  0
  8  9  1  0
  8 10  1  0
  8 50  1  1
  9 51  1  0
 10 39  1  0
 10 11  1  0
 10 52  1  6
 11 12  1  0
 11 14  1  0
 11 53  1  1
 12 13  1  0
 13 54  1  0
 13 55  1  0
 13 56  1  0
 14 36  1  0
 14 15  1  0
 14 57  1  1
 15 16  1  0
 15 18  1  0
 15 58  1  1
 16 17  1  0
 17 59  1  0
 17 60  1  0
 17 61  1  0
 18 35  1  0
 18 19  1  6
 18 39  1  0
 19 20  1  0
 19 21  1  0
 19 62  1  6
 20 63  1  0
 21 22  1  0
 21 29  1  0
 21 64  1  1
 22 23  1  0
 22 65  1  0
 22 66  1  0
 23 27  1  0
 23 24  1  0
 24 25  1  0
 24 67  1  0
 24 68  1  0
 25 26  1  0
 25 69  1  0
 25 70  1  0
 26 27  1  0
 27 28  2  0
 29 36  1  0
 29 30  1  0
 29 71  1  1
 30 31  1  0
 30 32  1  0
 30 72  1  1
 31 73  1  0
 32 37  1  0
 32 33  1  0
 32 74  1  1
 33 34  1  0
 33 75  1  6
 34 35  1  0
 35 36  1  0
 35 76  1  6
 36 37  1  6
 37 38  1  0
 37 77  1  6
 38 78  1  0
 39 79  1  6
M  CHG  1   3   1
M  END
>  <i_m_ct_stereo_status>  (286) 
1

>  <s_m_source_file>  (286) 
/var/tmp/pbs.5076255.sched01/tmpt7uccrld/92zpefy4ut.sdf

>  <i_m_source_file_index>  (286) 
31

>  <i_lp_mmshare_version>  (286) 
48012

>  <i_f3d_flags>  (286) 
0

>  <s_epik_input>  (286) 
W0NIM11PW0NAQEhdMVtDQEBIXShbQ0BdMjNbQ0BIXTRbQ0BdMTU2KVtDQEhdKE9bQ0gzXSlbQ0BASF03W0NASF02TihbQ0gyXVtDSDNdKVtDSDJdW0NAQF0oW09IXSkoW0NIMl1bQ0BIXTdbT0hdKVtDQEhdKE80KVtDQEBIXShbQ0BASF0zW09IXSlbQ0BIXShbT0hdKVtDSF0yW0NAQEhdKFtDQEBIXTVbT0hdKVtDSDJdTjhbQ0gyXVtDSDJdT0M4PU8=

>  <s_epik_cmdline>  (286) 
J2VwaWtfcHl0aG9uJywgJy1waHQnLCAnMi4wJywgJy1waCcsICc3LjAnLCAnLXRuJywgJzgnLCAnLW1hJywgJzIwMCcsICctaW1hZScsICc8aW5maWxlLm1hZT4nLCAnLW9tYWUnLCAnPG91dGZpbGUubWFlPic=

>  <r_epik_Ionization_Penalty>  (286) 
0.00210516

>  <r_epik_Ionization_Penalty_Charging>  (286) 
0.00210146

>  <r_epik_Ionization_Penalty_Neutral>  (286) 
3.70392e-06

>  <r_epik_State_Penalty>  (286) 
0.00144031

>  <r_epik_Charging_Adjusted_Penalty>  (286) 
0.00354177

>  <i_epik_Tot_Q>  (286) 
1

>  <i_epik_Tot_abs_Q>  (286) 
1

>  <s_epik_Chemistry_Notes>  (286) 
This compound has an ester and may undergo hydrolysis at high or low pH.

>  <s_lp_Force_Field>  (286) 
OPLS3e

>  <r_lp_Energy>  (286) 
223.318

>  <b_lp_Chiralities_Consistent>  (286) 
1

>  <s_lp_Variant>  (286) 
86:0-2

>  <s_i_glide_gridfile>  (286) 
pfpi4k_grid

>  <i_i_glide_lignum>  (286) 
31

>  <i_i_glide_rotatable_bonds>  (286) 
10

>  <r_i_docking_score>  (286) 
-2.51088

>  <r_i_glide_ligand_efficiency>  (286) 
-0.0643815

>  <r_i_glide_ligand_efficiency_sa>  (286) 
-0.218331

>  <r_i_glide_ligand_efficiency_ln>  (286) 
-0.538404

>  <r_i_glide_gscore>  (286) 
-2.51088

>  <r_i_glide_lipo>  (286) 
-0.277029

>  <r_i_glide_hbond>  (286) 
-0.072904

>  <r_i_glide_metal>  (286) 
-0

>  <r_i_glide_rewards>  (286) 
0

>  <r_i_glide_evdw>  (286) 
-24.1122

>  <r_i_glide_ecoul>  (286) 
-6.39667

>  <r_i_glide_erotb>  (286) 
0.0628015

>  <r_i_glide_esite>  (286) 
-0.0586353

>  <r_i_glide_emodel>  (286) 
-31.6108

>  <r_i_glide_energy>  (286) 
-30.5089

>  <r_i_glide_einternal>  (286) 
4.55551

>  <r_i_glide_intrahb_reward>  (286) 
-0

>  <i_i_glide_confnum>  (286) 
2

>  <i_i_glide_posenum>  (286) 
12

>  <r_i_glide_eff_state_penalty>  (286) 
0

>  <ligand_id>  (286) 
86

>  <original_smiles>  (286) 
CCN1CC2(O)CC(O)C3C(OC)C4C(OC)C5(C(O)C(CN6CCOC6=O)C6C(O)C7C2OC5C64C7O)C31

>  <smiles>  (286) 
[H]OC1([H])C2([H])C3([H])OC4([H])C5(C2([H])O[H])C2([H])C([H])(OC([H])([H])[H])C6([H])C([H])(O[H])C([H])([H])C3(O[H])C([H])([H])[N+]([H])(C([H])([H])C([H])([H])[H])C6([H])C4(C([H])(O[H])C([H])(C([H])([H])N3C(=O)OC([H])([H])C3([H])[H])C15[H])C2([H])OC([H])([H])[H]

$$$$
86:2:0
     RDKit          3D

 80 87  0  0  1  0  0  0  0  0999 V2000
   -0.5235   -5.3540    6.5354 C   0  0  0  0  0  0  0  0  0  0  0  0
    0.4925   -4.5097    5.7237 C   0  0  0  0  0  0  0  0  0  0  0  0
    0.6552   -3.1452    6.2651 N   0  0  2  0  0  0  0  0  0  0  0  0
   -0.5654   -2.2698    5.9658 C   0  0  0  0  0  0  0  0  0  0  0  0
   -0.5548   -0.6674    6.0306 C   0  0  1  0  0  0  0  0  0  0  0  0
   -1.9125   -0.2740    6.0588 O   0  0  0  0  0  0  0  0  0  0  0  0
   -0.0034   -0.2113    7.4480 C   0  0  0  0  0  0  0  0  0  0  0  0
    0.9926   -1.1359    8.2722 C   0  0  1  0  0  0  0  0  0  0  0  0
    0.3029   -2.2158    8.8759 O   0  0  0  0  0  0  0  0  0  0  0  0
    2.3266   -1.6696    7.6386 C   0  0  2  0  0  0  0  0  0  0  0  0
    3.3302   -0.4156    7.4284 C   0  0  1  0  0  0  0  0  0  0  0  0
    4.4021   -0.4972    8.3619 O   0  0  0  0  0  0  0  0  0  0  0  0
    4.1086   -0.2298    9.7184 C   0  0  0  0  0  0  0  0  0  0  0  0
    3.9232   -0.2144    5.9421 C   0  0  1  0  0  0  0  0  0  0  0  0
    4.2816   -1.6259    5.5351 C   0  0  1  0  0  0  0  0  0  0  0  0
    4.9323   -2.4570    6.5111 O   0  0  0  0  0  0  0  0  0  0  0  0
    6.2592   -2.0925    6.8744 C   0  0  0  0  0  0  0  0  0  0  0  0
    2.8628   -2.1076    5.1105 C   0  0  2  0  0  0  0  0  0  0  0  0
    3.0683   -2.5681    3.6238 C   0  0  1  0  0  0  0  0  0  0  0  0
    1.9055   -3.2052    3.1082 O   0  0  0  0  0  0  0  0  0  0  0  0
    3.5102   -1.2905    2.7001 C   0  0  1  0  0  0  0  0  0  0  0  0
    3.4197   -1.5597    1.1530 C   0  0  0  0  0  0  0  0  0  0  0  0
    4.4413   -2.5188    0.7001 N   0  0  0  0  0  0  0  0  0  0  0  0
    4.1858   -3.9348    0.5880 C   0  0  0  0  0  0  0  0  0  0  0  0
    5.5285   -4.4747    0.0657 C   0  0  0  0  0  0  0  0  0  0  0  0
    6.2801   -3.2942   -0.1707 O   0  0  0  0  0  0  0  0  0  0  0  0
    5.6807   -2.1679    0.2016 C   0  0  0  0  0  0  0  0  0  0  0  0
    6.1641   -1.0427    0.0908 O   0  0  0  0  0  0  0  0  0  0  0  0
    2.9403    0.1274    3.2182 C   0  0  2  0  0  0  0  0  0  0  0  0
    1.6917    1.0847    2.8598 C   0  0  1  0  0  0  0  0  0  0  0  0
    0.8420    0.7627    1.7559 O   0  0  0  0  0  0  0  0  0  0  0  0
    0.8512    1.2803    4.2084 C   0  0  1  0  0  0  0  0  0  0  0  0
   -0.0380   -0.0392    4.5965 C   0  0  1  0  0  0  0  0  0  0  0  0
    0.8008   -1.0800    4.2357 O   0  0  0  0  0  0  0  0  0  0  0  0
    2.0023   -0.9190    4.9724 C   0  0  2  0  0  0  0  0  0  0  0  0
    2.8731    0.2427    4.8034 C   0  0  1  0  0  0  0  0  0  0  0  0
    2.0490    1.4989    5.1441 C   0  0  1  0  0  0  0  0  0  0  0  0
    2.7718    2.6941    4.9228 O   0  0  0  0  0  0  0  0  0  0  0  0
    2.1051   -2.6798    6.3839 C   0  0  2  0  0  0  0  0  0  0  0  0
   -0.5467   -6.3686    6.1381 H   0  0  0  0  0  0  0  0  0  0  0  0
   -1.5436   -4.9638    6.4794 H   0  0  0  0  0  0  0  0  0  0  0  0
   -0.2503   -5.4249    7.5932 H   0  0  0  0  0  0  0  0  0  0  0  0
    1.4380   -5.0609    5.7206 H   0  0  0  0  0  0  0  0  0  0  0  0
    0.1734   -4.4774    4.6812 H   0  0  0  0  0  0  0  0  0  0  0  0
   -0.9867   -2.5553    4.9965 H   0  0  0  0  0  0  0  0  0  0  0  0
   -1.3145   -2.5935    6.6990 H   0  0  0  0  0  0  0  0  0  0  0  0
   -2.2116   -0.1632    5.1983 H   0  0  0  0  0  0  0  0  0  0  0  0
    0.3793    0.8107    7.4084 H   0  0  0  0  0  0  0  0  0  0  0  0
   -0.8454   -0.0635    8.1196 H   0  0  0  0  0  0  0  0  0  0  0  0
    1.2779   -0.5163    9.1253 H   0  0  0  0  0  0  0  0  0  0  0  0
    0.8064   -2.5064    9.6244 H   0  0  0  0  0  0  0  0  0  0  0  0
    2.7780   -2.3012    8.3987 H   0  0  0  0  0  0  0  0  0  0  0  0
    2.8139    0.5179    7.6771 H   0  0  0  0  0  0  0  0  0  0  0  0
    5.0108   -0.3843   10.2999 H   0  0  0  0  0  0  0  0  0  0  0  0
    3.3525   -0.8831   10.1415 H   0  0  0  0  0  0  0  0  0  0  0  0
    3.7989    0.8029    9.8577 H   0  0  0  0  0  0  0  0  0  0  0  0
    4.7930    0.4458    5.9679 H   0  0  0  0  0  0  0  0  0  0  0  0
    4.9931   -1.5750    4.7188 H   0  0  0  0  0  0  0  0  0  0  0  0
    6.5790   -2.7416    7.6753 H   0  0  0  0  0  0  0  0  0  0  0  0
    6.3681   -1.0679    7.1982 H   0  0  0  0  0  0  0  0  0  0  0  0
    6.9831   -2.2344    6.0909 H   0  0  0  0  0  0  0  0  0  0  0  0
    3.8640   -3.3202    3.6027 H   0  0  0  0  0  0  0  0  0  0  0  0
    1.2381   -2.5392    3.0269 H   0  0  0  0  0  0  0  0  0  0  0  0
    4.5788   -1.1478    2.8182 H   0  0  0  0  0  0  0  0  0  0  0  0
    2.4290   -1.9132    0.8681 H   0  0  0  0  0  0  0  0  0  0  0  0
    3.5555   -0.6236    0.6151 H   0  0  0  0  0  0  0  0  0  0  0  0
    3.9332   -4.3777    1.5445 H   0  0  0  0  0  0  0  0  0  0  0  0
    3.3816   -4.1173   -0.1213 H   0  0  0  0  0  0  0  0  0  0  0  0
    6.0327   -5.0909    0.8115 H   0  0  0  0  0  0  0  0  0  0  0  0
    5.4119   -5.0618   -0.8445 H   0  0  0  0  0  0  0  0  0  0  0  0
    2.2065   -0.5104    2.7737 H   0  0  0  0  0  0  0  0  0  0  0  0
    2.1196    2.0464    2.5899 H   0  0  0  0  0  0  0  0  0  0  0  0
    1.3486    0.6837    0.9646 H   0  0  0  0  0  0  0  0  0  0  0  0
    0.2075    2.1583    4.1767 H   0  0  0  0  0  0  0  0  0  0  0  0
   -0.8628   -0.0916    3.8792 H   0  0  0  0  0  0  0  0  0  0  0  0
    1.6595   -0.5645    5.8746 H   0  0  0  0  0  0  0  0  0  0  0  0
    1.7471    1.5794    6.1704 H   0  0  0  0  0  0  0  0  0  0  0  0
    3.0482    2.7268    4.0243 H   0  0  0  0  0  0  0  0  0  0  0  0
    2.6755   -3.5747    6.6659 H   0  0  0  0  0  0  0  0  0  0  0  0
    0.5001   -3.2822    7.2620 H   0  0  0  0  0  0  0  0  0  0  0  0
  1  2  1  0
  1 40  1  0
  1 41  1  0
  1 42  1  0
  2  3  1  0
  2 43  1  0
  2 44  1  0
  3 39  1  0
  3  4  1  0
  3 80  1  1
  4  5  1  0
  4 45  1  0
  4 46  1  0
  5 33  1  0
  5  6  1  1
  5  7  1  0
  6 47  1  0
  7  8  1  0
  7 48  1  0
  7 49  1  0
  8  9  1  0
  8 10  1  0
  8 50  1  1
  9 51  1  0
 10 39  1  0
 10 11  1  0
 10 52  1  1
 11 12  1  0
 11 14  1  0
 11 53  1  1
 12 13  1  0
 13 54  1  0
 13 55  1  0
 13 56  1  0
 14 36  1  0
 14 15  1  0
 14 57  1  1
 15 16  1  0
 15 18  1  0
 15 58  1  6
 16 17  1  0
 17 59  1  0
 17 60  1  0
 17 61  1  0
 18 35  1  0
 18 19  1  6
 18 39  1  0
 19 20  1  0
 19 21  1  0
 19 62  1  1
 20 63  1  0
 21 22  1  0
 21 29  1  0
 21 64  1  1
 22 23  1  0
 22 65  1  0
 22 66  1  0
 23 27  1  0
 23 24  1  0
 24 25  1  0
 24 67  1  0
 24 68  1  0
 25 26  1  0
 25 69  1  0
 25 70  1  0
 26 27  1  0
 27 28  2  0
 29 36  1  0
 29 30  1  0
 29 71  1  6
 30 31  1  0
 30 32  1  0
 30 72  1  6
 31 73  1  0
 32 37  1  0
 32 33  1  0
 32 74  1  6
 33 34  1  0
 33 75  1  6
 34 35  1  0
 35 36  1  0
 35 76  1  1
 36 37  1  6
 37 38  1  0
 37 77  1  1
 38 78  1  0
 39 79  1  1
M  CHG  1   3   1
M  END
>  <i_m_ct_stereo_status>  (287) 
1

>  <s_m_source_file>  (287) 
/var/tmp/pbs.5076255.sched01/tmpt7uccrld/92zpefy4ut.sdf

>  <i_m_source_file_index>  (287) 
32

>  <i_lp_mmshare_version>  (287) 
48012

>  <i_f3d_flags>  (287) 
0

>  <s_epik_input>  (287) 
W0NIM11PW0NAQEhdMVtDQEBIXShbQ0BdMjNbQ0BIXTRbQ0BdMTU2KVtDQEhdKE9bQ0gzXSlbQ0BASF03W0NASF02TihbQ0gyXVtDSDNdKVtDSDJdW0NAQF0oW09IXSkoW0NIMl1bQ0BIXTdbT0hdKVtDQEhdKE80KVtDQEBIXShbQ0BASF0zW09IXSlbQ0BIXShbT0hdKVtDSF0yW0NAQEhdKFtDQEBIXTVbT0hdKVtDSDJdTjhbQ0gyXVtDSDJdT0M4PU8=

>  <s_epik_cmdline>  (287) 
J2VwaWtfcHl0aG9uJywgJy1waHQnLCAnMi4wJywgJy1waCcsICc3LjAnLCAnLXRuJywgJzgnLCAnLW1hJywgJzIwMCcsICctaW1hZScsICc8aW5maWxlLm1hZT4nLCAnLW9tYWUnLCAnPG91dGZpbGUubWFlPic=

>  <r_epik_Ionization_Penalty>  (287) 
0.00210516

>  <r_epik_Ionization_Penalty_Charging>  (287) 
0.00210146

>  <r_epik_Ionization_Penalty_Neutral>  (287) 
3.70392e-06

>  <r_epik_State_Penalty>  (287) 
0.00144031

>  <r_epik_Charging_Adjusted_Penalty>  (287) 
0.00354177

>  <i_epik_Tot_Q>  (287) 
1

>  <i_epik_Tot_abs_Q>  (287) 
1

>  <s_epik_Chemistry_Notes>  (287) 
This compound has an ester and may undergo hydrolysis at high or low pH.

>  <s_lp_Force_Field>  (287) 
OPLS3e

>  <r_lp_Energy>  (287) 
293.257

>  <b_lp_Chiralities_Consistent>  (287) 
1

>  <s_lp_Variant>  (287) 
86:0-3

>  <s_i_glide_gridfile>  (287) 
pfpi4k_grid

>  <i_i_glide_lignum>  (287) 
32

>  <i_i_glide_rotatable_bonds>  (287) 
10

>  <r_i_docking_score>  (287) 
-3.37838

>  <r_i_glide_ligand_efficiency>  (287) 
-0.0866251

>  <r_i_glide_ligand_efficiency_sa>  (287) 
-0.293764

>  <r_i_glide_ligand_efficiency_ln>  (287) 
-0.724421

>  <r_i_glide_gscore>  (287) 
-3.37838

>  <r_i_glide_lipo>  (287) 
-0.185711

>  <r_i_glide_hbond>  (287) 
-0.0848278

>  <r_i_glide_metal>  (287) 
-0

>  <r_i_glide_rewards>  (287) 
-1.03798

>  <r_i_glide_evdw>  (287) 
-22.2272

>  <r_i_glide_ecoul>  (287) 
-6.76659

>  <r_i_glide_erotb>  (287) 
0.0628015

>  <r_i_glide_esite>  (287) 
-0.0063147

>  <r_i_glide_emodel>  (287) 
-45.4152

>  <r_i_glide_energy>  (287) 
-28.9938

>  <r_i_glide_einternal>  (287) 
4.763

>  <r_i_glide_intrahb_reward>  (287) 
-1

>  <i_i_glide_confnum>  (287) 
4

>  <i_i_glide_posenum>  (287) 
5

>  <r_i_glide_eff_state_penalty>  (287) 
0

>  <ligand_id>  (287) 
86

>  <original_smiles>  (287) 
CCN1CC2(O)CC(O)C3C(OC)C4C(OC)C5(C(O)C(CN6CCOC6=O)C6C(O)C7C2OC5C64C7O)C31

>  <smiles>  (287) 
[H]OC1([H])C2([H])C3([H])OC4([H])C5(C2([H])O[H])C2([H])C([H])(OC([H])([H])[H])C6([H])C([H])(O[H])C([H])([H])C3(O[H])C([H])([H])[N+]([H])(C([H])([H])C([H])([H])[H])C6([H])C4(C([H])(O[H])C([H])(C([H])([H])N3C(=O)OC([H])([H])C3([H])[H])C15[H])C2([H])OC([H])([H])[H]

$$$$
86:2:1
     RDKit          3D

 80 87  0  0  1  0  0  0  0  0999 V2000
    3.1350   -3.5047    8.1752 C   0  0  0  0  0  0  0  0  0  0  0  0
    2.2596   -2.9505    7.0332 C   0  0  0  0  0  0  0  0  0  0  0  0
    2.0712   -1.4808    7.0861 N   0  0  2  0  0  0  0  0  0  0  0  0
    0.5906   -1.0842    6.9412 C   0  0  0  0  0  0  0  0  0  0  0  0
    0.0875    0.3772    6.5291 C   0  0  1  0  0  0  0  0  0  0  0  0
   -1.2893    0.4306    6.8734 O   0  0  0  0  0  0  0  0  0  0  0  0
    0.7470    1.4430    7.5073 C   0  0  0  0  0  0  0  0  0  0  0  0
    2.1495    1.1598    8.1973 C   0  0  1  0  0  0  0  0  0  0  0  0
    1.9581    0.2699    9.2833 O   0  0  0  0  0  0  0  0  0  0  0  0
    3.4197    0.7404    7.3552 C   0  0  2  0  0  0  0  0  0  0  0  0
    3.8987    2.0132    6.4691 C   0  0  1  0  0  0  0  0  0  0  0  0
    5.1081    2.4943    7.0542 O   0  0  0  0  0  0  0  0  0  0  0  0
    5.4334    3.8510    6.7712 C   0  0  0  0  0  0  0  0  0  0  0  0
    4.0293    1.7866    4.8801 C   0  0  1  0  0  0  0  0  0  0  0  0
    4.7344    0.4526    4.8029 C   0  0  1  0  0  0  0  0  0  0  0  0
    5.8125    0.1886    5.7087 O   0  0  0  0  0  0  0  0  0  0  0  0
    7.0361    0.8669    5.4276 C   0  0  0  0  0  0  0  0  0  0  0  0
    3.4952   -0.4642    5.0153 C   0  0  2  0  0  0  0  0  0  0  0  0
    3.5091   -1.3741    3.7315 C   0  0  1  0  0  0  0  0  0  0  0  0
    2.5338   -2.4029    3.7891 O   0  0  0  0  0  0  0  0  0  0  0  0
    3.2958   -0.4551    2.3992 C   0  0  1  0  0  0  0  0  0  0  0  0
    2.9817   -1.2850    1.1112 C   0  0  0  0  0  0  0  0  0  0  0  0
    4.0733   -2.2017    0.7448 N   0  0  0  0  0  0  0  0  0  0  0  0
    3.9917   -3.6304    0.9343 C   0  0  0  0  0  0  0  0  0  0  0  0
    5.3472   -4.1134    0.4036 C   0  0  0  0  0  0  0  0  0  0  0  0
    5.9358   -2.9320   -0.1189 O   0  0  0  0  0  0  0  0  0  0  0  0
    5.2262   -1.8225    0.0874 C   0  0  0  0  0  0  0  0  0  0  0  0
    5.5727   -0.6950   -0.2583 O   0  0  0  0  0  0  0  0  0  0  0  0
    2.4163    0.8759    2.6416 C   0  0  2  0  0  0  0  0  0  0  0  0
    0.8848    1.3388    2.4358 C   0  0  1  0  0  0  0  0  0  0  0  0
   -0.0447    0.5163    1.7325 O   0  0  0  0  0  0  0  0  0  0  0  0
    0.3323    1.7866    3.8745 C   0  0  1  0  0  0  0  0  0  0  0  0
    0.0424    0.5304    4.8878 C   0  0  1  0  0  0  0  0  0  0  0  0
    1.0759   -0.3433    4.5909 O   0  0  0  0  0  0  0  0  0  0  0  0
    2.2850    0.3555    4.8304 C   0  0  2  0  0  0  0  0  0  0  0  0
    2.6610    1.5383    4.0633 C   0  0  1  0  0  0  0  0  0  0  0  0
    1.5676    2.6073    4.2773 C   0  0  1  0  0  0  0  0  0  0  0  0
    1.7776    3.7892    3.5186 O   0  0  0  0  0  0  0  0  0  0  0  0
    3.2772   -0.6829    6.5828 C   0  0  2  0  0  0  0  0  0  0  0  0
    3.2873   -4.5743    8.0249 H   0  0  0  0  0  0  0  0  0  0  0  0
    2.6560   -3.3793    9.1478 H   0  0  0  0  0  0  0  0  0  0  0  0
    4.1231   -3.0463    8.2153 H   0  0  0  0  0  0  0  0  0  0  0  0
    2.6825   -3.2591    6.0796 H   0  0  0  0  0  0  0  0  0  0  0  0
    1.3027   -3.4741    7.1110 H   0  0  0  0  0  0  0  0  0  0  0  0
    0.0894   -1.7912    6.2788 H   0  0  0  0  0  0  0  0  0  0  0  0
    0.1686   -1.2971    7.9268 H   0  0  0  0  0  0  0  0  0  0  0  0
   -1.6151    1.2783    6.6167 H   0  0  0  0  0  0  0  0  0  0  0  0
    0.7433    2.4374    7.0663 H   0  0  0  0  0  0  0  0  0  0  0  0
    0.0706    1.5902    8.3526 H   0  0  0  0  0  0  0  0  0  0  0  0
    2.4279    2.0963    8.6893 H   0  0  0  0  0  0  0  0  0  0  0  0
    1.4765    0.7197    9.9622 H   0  0  0  0  0  0  0  0  0  0  0  0
    4.2050    0.5791    8.0948 H   0  0  0  0  0  0  0  0  0  0  0  0
    3.1776    2.8158    6.6236 H   0  0  0  0  0  0  0  0  0  0  0  0
    6.3773    4.0996    7.2568 H   0  0  0  0  0  0  0  0  0  0  0  0
    4.6729    4.5323    7.1505 H   0  0  0  0  0  0  0  0  0  0  0  0
    5.5680    4.0369    5.7067 H   0  0  0  0  0  0  0  0  0  0  0  0
    4.5721    2.5994    4.4127 H   0  0  0  0  0  0  0  0  0  0  0  0
    5.1955    0.3695    3.8273 H   0  0  0  0  0  0  0  0  0  0  0  0
    7.7513    0.6589    6.2212 H   0  0  0  0  0  0  0  0  0  0  0  0
    6.9153    1.9432    5.4065 H   0  0  0  0  0  0  0  0  0  0  0  0
    7.4787    0.5582    4.4820 H   0  0  0  0  0  0  0  0  0  0  0  0
    4.4776   -1.8754    3.6591 H   0  0  0  0  0  0  0  0  0  0  0  0
    1.6878   -1.9851    3.8362 H   0  0  0  0  0  0  0  0  0  0  0  0
    4.2567   -0.0257    2.1294 H   0  0  0  0  0  0  0  0  0  0  0  0
    2.0574   -1.8519    1.2310 H   0  0  0  0  0  0  0  0  0  0  0  0
    2.8048   -0.6090    0.2762 H   0  0  0  0  0  0  0  0  0  0  0  0
    3.8625   -3.8867    1.9834 H   0  0  0  0  0  0  0  0  0  0  0  0
    3.1689   -4.0456    0.3527 H   0  0  0  0  0  0  0  0  0  0  0  0
    5.9723   -4.5153    1.2021 H   0  0  0  0  0  0  0  0  0  0  0  0
    5.2461   -4.8754   -0.3702 H   0  0  0  0  0  0  0  0  0  0  0  0
    1.8267   -0.0192    2.6496 H   0  0  0  0  0  0  0  0  0  0  0  0
    0.9200    2.2229    1.8030 H   0  0  0  0  0  0  0  0  0  0  0  0
    0.1129    0.5580    0.7926 H   0  0  0  0  0  0  0  0  0  0  0  0
   -0.5559    2.4137    3.8003 H   0  0  0  0  0  0  0  0  0  0  0  0
   -0.8557    0.0252    4.5252 H   0  0  0  0  0  0  0  0  0  0  0  0
    2.0536    0.9256    5.6565 H   0  0  0  0  0  0  0  0  0  0  0  0
    1.4991    2.9781    5.2849 H   0  0  0  0  0  0  0  0  0  0  0  0
    1.4879    3.6697    2.6275 H   0  0  0  0  0  0  0  0  0  0  0  0
    4.1543   -1.2581    6.8915 H   0  0  0  0  0  0  0  0  0  0  0  0
    2.1687   -1.2774    8.0787 H   0  0  0  0  0  0  0  0  0  0  0  0
  1  2  1  0
  1 40  1  0
  1 41  1  0
  1 42  1  0
  2  3  1  0
  2 43  1  0
  2 44  1  0
  3 39  1  0
  3  4  1  0
  3 80  1  1
  4  5  1  0
  4 45  1  0
  4 46  1  0
  5 33  1  0
  5  6  1  1
  5  7  1  0
  6 47  1  0
  7  8  1  0
  7 48  1  0
  7 49  1  0
  8  9  1  0
  8 10  1  0
  8 50  1  1
  9 51  1  0
 10 39  1  0
 10 11  1  0
 10 52  1  1
 11 12  1  0
 11 14  1  0
 11 53  1  6
 12 13  1  0
 13 54  1  0
 13 55  1  0
 13 56  1  0
 14 36  1  0
 14 15  1  0
 14 57  1  6
 15 16  1  0
 15 18  1  0
 15 58  1  6
 16 17  1  0
 17 59  1  0
 17 60  1  0
 17 61  1  0
 18 35  1  0
 18 19  1  6
 18 39  1  0
 19 20  1  0
 19 21  1  0
 19 62  1  6
 20 63  1  0
 21 22  1  0
 21 29  1  0
 21 64  1  6
 22 23  1  0
 22 65  1  0
 22 66  1  0
 23 27  1  0
 23 24  1  0
 24 25  1  0
 24 67  1  0
 24 68  1  0
 25 26  1  0
 25 69  1  0
 25 70  1  0
 26 27  1  0
 27 28  2  0
 29 36  1  0
 29 30  1  0
 29 71  1  6
 30 31  1  0
 30 32  1  0
 30 72  1  6
 31 73  1  0
 32 37  1  0
 32 33  1  0
 32 74  1  6
 33 34  1  0
 33 75  1  6
 34 35  1  0
 35 36  1  0
 35 76  1  1
 36 37  1  1
 37 38  1  0
 37 77  1  1
 38 78  1  0
 39 79  1  1
M  CHG  1   3   1
M  END
>  <i_m_ct_stereo_status>  (288) 
1

>  <s_m_source_file>  (288) 
/var/tmp/pbs.5076255.sched01/tmpt7uccrld/92zpefy4ut.sdf

>  <i_m_source_file_index>  (288) 
32

>  <i_lp_mmshare_version>  (288) 
48012

>  <i_f3d_flags>  (288) 
0

>  <s_epik_input>  (288) 
W0NIM11PW0NAQEhdMVtDQEBIXShbQ0BdMjNbQ0BIXTRbQ0BdMTU2KVtDQEhdKE9bQ0gzXSlbQ0BASF03W0NASF02TihbQ0gyXVtDSDNdKVtDSDJdW0NAQF0oW09IXSkoW0NIMl1bQ0BIXTdbT0hdKVtDQEhdKE80KVtDQEBIXShbQ0BASF0zW09IXSlbQ0BIXShbT0hdKVtDSF0yW0NAQEhdKFtDQEBIXTVbT0hdKVtDSDJdTjhbQ0gyXVtDSDJdT0M4PU8=

>  <s_epik_cmdline>  (288) 
J2VwaWtfcHl0aG9uJywgJy1waHQnLCAnMi4wJywgJy1waCcsICc3LjAnLCAnLXRuJywgJzgnLCAnLW1hJywgJzIwMCcsICctaW1hZScsICc8aW5maWxlLm1hZT4nLCAnLW9tYWUnLCAnPG91dGZpbGUubWFlPic=

>  <r_epik_Ionization_Penalty>  (288) 
0.00210516

>  <r_epik_Ionization_Penalty_Charging>  (288) 
0.00210146

>  <r_epik_Ionization_Penalty_Neutral>  (288) 
3.70392e-06

>  <r_epik_State_Penalty>  (288) 
0.00144031

>  <r_epik_Charging_Adjusted_Penalty>  (288) 
0.00354177

>  <i_epik_Tot_Q>  (288) 
1

>  <i_epik_Tot_abs_Q>  (288) 
1

>  <s_epik_Chemistry_Notes>  (288) 
This compound has an ester and may undergo hydrolysis at high or low pH.

>  <s_lp_Force_Field>  (288) 
OPLS3e

>  <r_lp_Energy>  (288) 
293.257

>  <b_lp_Chiralities_Consistent>  (288) 
1

>  <s_lp_Variant>  (288) 
86:0-3

>  <s_i_glide_gridfile>  (288) 
pfpi4k_grid

>  <i_i_glide_lignum>  (288) 
32

>  <i_i_glide_rotatable_bonds>  (288) 
10

>  <r_i_docking_score>  (288) 
-3.31506

>  <r_i_glide_ligand_efficiency>  (288) 
-0.0850016

>  <r_i_glide_ligand_efficiency_sa>  (288) 
-0.288259

>  <r_i_glide_ligand_efficiency_ln>  (288) 
-0.710844

>  <r_i_glide_gscore>  (288) 
-3.31506

>  <r_i_glide_lipo>  (288) 
-0.350666

>  <r_i_glide_hbond>  (288) 
-0.00386347

>  <r_i_glide_metal>  (288) 
-0

>  <r_i_glide_rewards>  (288) 
-1.01512

>  <r_i_glide_evdw>  (288) 
-20.3851

>  <r_i_glide_ecoul>  (288) 
-6.52979

>  <r_i_glide_erotb>  (288) 
0.0628015

>  <r_i_glide_esite>  (288) 
-0.00949611

>  <r_i_glide_emodel>  (288) 
-43.3509

>  <r_i_glide_energy>  (288) 
-26.9149

>  <r_i_glide_einternal>  (288) 
4.89968

>  <r_i_glide_intrahb_reward>  (288) 
-1

>  <i_i_glide_confnum>  (288) 
4

>  <i_i_glide_posenum>  (288) 
11

>  <r_i_glide_eff_state_penalty>  (288) 
0

>  <ligand_id>  (288) 
86

>  <original_smiles>  (288) 
CCN1CC2(O)CC(O)C3C(OC)C4C(OC)C5(C(O)C(CN6CCOC6=O)C6C(O)C7C2OC5C64C7O)C31

>  <smiles>  (288) 
[H]OC1([H])C2([H])C3([H])OC4([H])C5(C2([H])O[H])C2([H])C([H])(OC([H])([H])[H])C6([H])C([H])(O[H])C([H])([H])C3(O[H])C([H])([H])[N+]([H])(C([H])([H])C([H])([H])[H])C6([H])C4(C([H])(O[H])C([H])(C([H])([H])N3C(=O)OC([H])([H])C3([H])[H])C15[H])C2([H])OC([H])([H])[H]

$$$$
86:2:2
     RDKit          3D

 80 87  0  0  1  0  0  0  0  0999 V2000
    6.2063   -9.8702    1.0730 C   0  0  0  0  0  0  0  0  0  0  0  0
    4.7492   -9.3955    1.2834 C   0  0  0  0  0  0  0  0  0  0  0  0
    4.2130   -9.8010    2.6090 N   0  0  2  0  0  0  0  0  0  0  0  0
    2.8823  -10.5719    2.4870 C   0  0  0  0  0  0  0  0  0  0  0  0
    1.8575  -10.7904    3.6919 C   0  0  1  0  0  0  0  0  0  0  0  0
    0.9848  -11.8357    3.2880 O   0  0  0  0  0  0  0  0  0  0  0  0
    2.6371  -11.4169    4.9198 C   0  0  0  0  0  0  0  0  0  0  0  0
    4.1899  -11.1584    5.1345 C   0  0  1  0  0  0  0  0  0  0  0  0
    5.0113  -11.9813    4.3138 O   0  0  0  0  0  0  0  0  0  0  0  0
    4.7826   -9.6994    5.1558 C   0  0  2  0  0  0  0  0  0  0  0  0
    4.2933   -8.9361    6.5094 C   0  0  1  0  0  0  0  0  0  0  0  0
    5.3891   -8.7510    7.4073 O   0  0  0  0  0  0  0  0  0  0  0  0
    5.8414   -9.9374    8.0561 C   0  0  0  0  0  0  0  0  0  0  0  0
    3.5477   -7.5291    6.3145 C   0  0  1  0  0  0  0  0  0  0  0  0
    4.4060   -6.8482    5.2753 C   0  0  1  0  0  0  0  0  0  0  0  0
    5.8249   -6.9488    5.4495 O   0  0  0  0  0  0  0  0  0  0  0  0
    6.5776   -6.1210    4.5711 C   0  0  0  0  0  0  0  0  0  0  0  0
    3.8295   -7.5348    4.0067 C   0  0  2  0  0  0  0  0  0  0  0  0
    3.3623   -6.3027    3.1452 C   0  0  1  0  0  0  0  0  0  0  0  0
    2.9515   -6.6651    1.8392 O   0  0  0  0  0  0  0  0  0  0  0  0
    2.1779   -5.4984    3.9228 C   0  0  1  0  0  0  0  0  0  0  0  0
    1.4278   -4.4767    3.0094 C   0  0  0  0  0  0  0  0  0  0  0  0
    2.2797   -3.3445    2.6117 N   0  0  0  0  0  0  0  0  0  0  0  0
    2.9179   -3.2439    1.3227 C   0  0  0  0  0  0  0  0  0  0  0  0
    3.6546   -1.9010    1.4161 C   0  0  0  0  0  0  0  0  0  0  0  0
    3.2312   -1.3883    2.6721 O   0  0  0  0  0  0  0  0  0  0  0  0
    2.4519   -2.2089    3.3722 C   0  0  0  0  0  0  0  0  0  0  0  0
    1.9839   -1.9735    4.4846 O   0  0  0  0  0  0  0  0  0  0  0  0
    1.2700   -6.4280    4.8791 C   0  0  2  0  0  0  0  0  0  0  0  0
   -0.1451   -7.1932    4.7756 C   0  0  1  0  0  0  0  0  0  0  0  0
   -1.0017   -7.0015    3.6456 O   0  0  0  0  0  0  0  0  0  0  0  0
    0.1287   -8.7445    5.0645 C   0  0  1  0  0  0  0  0  0  0  0  0
    0.8331   -9.5070    3.8066 C   0  0  1  0  0  0  0  0  0  0  0  0
    1.6979   -8.5392    3.3310 O   0  0  0  0  0  0  0  0  0  0  0  0
    2.5685   -8.1917    4.3876 C   0  0  2  0  0  0  0  0  0  0  0  0
    2.0906   -7.5724    5.6155 C   0  0  1  0  0  0  0  0  0  0  0  0
    1.0729   -8.5431    6.2581 C   0  0  1  0  0  0  0  0  0  0  0  0
    0.4554   -7.9705    7.3932 O   0  0  0  0  0  0  0  0  0  0  0  0
    4.6215   -8.8869    3.7543 C   0  0  2  0  0  0  0  0  0  0  0  0
    6.5807   -9.4869    0.1199 H   0  0  0  0  0  0  0  0  0  0  0  0
    6.2686  -10.9623    1.0222 H   0  0  0  0  0  0  0  0  0  0  0  0
    6.8963   -9.5138    1.8419 H   0  0  0  0  0  0  0  0  0  0  0  0
    4.7060   -8.3188    1.1458 H   0  0  0  0  0  0  0  0  0  0  0  0
    4.1725   -9.8374    0.4707 H   0  0  0  0  0  0  0  0  0  0  0  0
    2.3022  -10.1782    1.6522 H   0  0  0  0  0  0  0  0  0  0  0  0
    3.1777  -11.5748    2.1838 H   0  0  0  0  0  0  0  0  0  0  0  0
    1.4449  -12.6700    3.2937 H   0  0  0  0  0  0  0  0  0  0  0  0
    2.0994  -11.2112    5.8402 H   0  0  0  0  0  0  0  0  0  0  0  0
    2.5470  -12.5039    4.8743 H   0  0  0  0  0  0  0  0  0  0  0  0
    4.3714  -11.5681    6.1352 H   0  0  0  0  0  0  0  0  0  0  0  0
    4.5957  -12.1794    3.4847 H   0  0  0  0  0  0  0  0  0  0  0  0
    5.8550   -9.8328    5.2641 H   0  0  0  0  0  0  0  0  0  0  0  0
    3.5842   -9.5667    7.0501 H   0  0  0  0  0  0  0  0  0  0  0  0
    6.7005   -9.7043    8.6844 H   0  0  0  0  0  0  0  0  0  0  0  0
    6.1647  -10.7071    7.3549 H   0  0  0  0  0  0  0  0  0  0  0  0
    5.0622  -10.3586    8.6948 H   0  0  0  0  0  0  0  0  0  0  0  0
    3.5285   -6.9763    7.2595 H   0  0  0  0  0  0  0  0  0  0  0  0
    4.2039   -5.7871    5.3684 H   0  0  0  0  0  0  0  0  0  0  0  0
    7.6345   -6.2302    4.8068 H   0  0  0  0  0  0  0  0  0  0  0  0
    6.3200   -5.0635    4.6716 H   0  0  0  0  0  0  0  0  0  0  0  0
    6.4419   -6.4139    3.5288 H   0  0  0  0  0  0  0  0  0  0  0  0
    4.2075   -5.6246    3.0099 H   0  0  0  0  0  0  0  0  0  0  0  0
    3.6844   -7.0614    1.3971 H   0  0  0  0  0  0  0  0  0  0  0  0
    2.6366   -4.8305    4.6472 H   0  0  0  0  0  0  0  0  0  0  0  0
    1.0391   -4.9819    2.1235 H   0  0  0  0  0  0  0  0  0  0  0  0
    0.5625   -4.0836    3.5416 H   0  0  0  0  0  0  0  0  0  0  0  0
    3.6031   -4.0722    1.1563 H   0  0  0  0  0  0  0  0  0  0  0  0
    2.1751   -3.2219    0.5269 H   0  0  0  0  0  0  0  0  0  0  0  0
    4.7386   -2.0332    1.4131 H   0  0  0  0  0  0  0  0  0  0  0  0
    3.3959   -1.2192    0.6024 H   0  0  0  0  0  0  0  0  0  0  0  0
    1.0892   -6.5832    3.8330 H   0  0  0  0  0  0  0  0  0  0  0  0
   -0.7428   -6.8073    5.5986 H   0  0  0  0  0  0  0  0  0  0  0  0
   -1.7192   -7.6098    3.7416 H   0  0  0  0  0  0  0  0  0  0  0  0
   -0.7696   -9.2733    5.3747 H   0  0  0  0  0  0  0  0  0  0  0  0
    0.0803   -9.6089    3.0265 H   0  0  0  0  0  0  0  0  0  0  0  0
    2.7019   -9.0929    4.8656 H   0  0  0  0  0  0  0  0  0  0  0  0
    1.4784   -9.4745    6.6210 H   0  0  0  0  0  0  0  0  0  0  0  0
    1.0825   -7.9723    8.0999 H   0  0  0  0  0  0  0  0  0  0  0  0
    5.6416   -8.5825    3.5121 H   0  0  0  0  0  0  0  0  0  0  0  0
    4.8359  -10.5612    2.8016 H   0  0  0  0  0  0  0  0  0  0  0  0
  1  2  1  0
  1 40  1  0
  1 41  1  0
  1 42  1  0
  2  3  1  0
  2 43  1  0
  2 44  1  0
  3 39  1  0
  3  4  1  0
  3 80  1  1
  4  5  1  0
  4 45  1  0
  4 46  1  0
  5 33  1  0
  5  6  1  6
  5  7  1  0
  6 47  1  0
  7  8  1  0
  7 48  1  0
  7 49  1  0
  8  9  1  0
  8 10  1  0
  8 50  1  1
  9 51  1  0
 10 39  1  0
 10 11  1  0
 10 52  1  1
 11 12  1  0
 11 14  1  0
 11 53  1  1
 12 13  1  0
 13 54  1  0
 13 55  1  0
 13 56  1  0
 14 36  1  0
 14 15  1  0
 14 57  1  1
 15 16  1  0
 15 18  1  0
 15 58  1  6
 16 17  1  0
 17 59  1  0
 17 60  1  0
 17 61  1  0
 18 35  1  0
 18 19  1  6
 18 39  1  0
 19 20  1  0
 19 21  1  0
 19 62  1  6
 20 63  1  0
 21 22  1  0
 21 29  1  0
 21 64  1  1
 22 23  1  0
 22 65  1  0
 22 66  1  0
 23 27  1  0
 23 24  1  0
 24 25  1  0
 24 67  1  0
 24 68  1  0
 25 26  1  0
 25 69  1  0
 25 70  1  0
 26 27  1  0
 27 28  2  0
 29 36  1  0
 29 30  1  0
 29 71  1  1
 30 31  1  0
 30 32  1  0
 30 72  1  1
 31 73  1  0
 32 37  1  0
 32 33  1  0
 32 74  1  1
 33 34  1  0
 33 75  1  6
 34 35  1  0
 35 36  1  0
 35 76  1  1
 36 37  1  1
 37 38  1  0
 37 77  1  1
 38 78  1  0
 39 79  1  6
M  CHG  1   3   1
M  END
>  <i_m_ct_stereo_status>  (289) 
1

>  <s_m_source_file>  (289) 
/var/tmp/pbs.5076255.sched01/tmpt7uccrld/92zpefy4ut.sdf

>  <i_m_source_file_index>  (289) 
32

>  <i_lp_mmshare_version>  (289) 
48012

>  <i_f3d_flags>  (289) 
0

>  <s_epik_input>  (289) 
W0NIM11PW0NAQEhdMVtDQEBIXShbQ0BdMjNbQ0BIXTRbQ0BdMTU2KVtDQEhdKE9bQ0gzXSlbQ0BASF03W0NASF02TihbQ0gyXVtDSDNdKVtDSDJdW0NAQF0oW09IXSkoW0NIMl1bQ0BIXTdbT0hdKVtDQEhdKE80KVtDQEBIXShbQ0BASF0zW09IXSlbQ0BIXShbT0hdKVtDSF0yW0NAQEhdKFtDQEBIXTVbT0hdKVtDSDJdTjhbQ0gyXVtDSDJdT0M4PU8=

>  <s_epik_cmdline>  (289) 
J2VwaWtfcHl0aG9uJywgJy1waHQnLCAnMi4wJywgJy1waCcsICc3LjAnLCAnLXRuJywgJzgnLCAnLW1hJywgJzIwMCcsICctaW1hZScsICc8aW5maWxlLm1hZT4nLCAnLW9tYWUnLCAnPG91dGZpbGUubWFlPic=

>  <r_epik_Ionization_Penalty>  (289) 
0.00210516

>  <r_epik_Ionization_Penalty_Charging>  (289) 
0.00210146

>  <r_epik_Ionization_Penalty_Neutral>  (289) 
3.70392e-06

>  <r_epik_State_Penalty>  (289) 
0.00144031

>  <r_epik_Charging_Adjusted_Penalty>  (289) 
0.00354177

>  <i_epik_Tot_Q>  (289) 
1

>  <i_epik_Tot_abs_Q>  (289) 
1

>  <s_epik_Chemistry_Notes>  (289) 
This compound has an ester and may undergo hydrolysis at high or low pH.

>  <s_lp_Force_Field>  (289) 
OPLS3e

>  <r_lp_Energy>  (289) 
293.257

>  <b_lp_Chiralities_Consistent>  (289) 
1

>  <s_lp_Variant>  (289) 
86:0-3

>  <s_i_glide_gridfile>  (289) 
pfpi4k_grid

>  <i_i_glide_lignum>  (289) 
32

>  <i_i_glide_rotatable_bonds>  (289) 
10

>  <r_i_docking_score>  (289) 
-2.63811

>  <r_i_glide_ligand_efficiency>  (289) 
-0.067644

>  <r_i_glide_ligand_efficiency_sa>  (289) 
-0.229395

>  <r_i_glide_ligand_efficiency_ln>  (289) 
-0.565687

>  <r_i_glide_gscore>  (289) 
-2.63811

>  <r_i_glide_lipo>  (289) 
-0.0569115

>  <r_i_glide_hbond>  (289) 
0

>  <r_i_glide_metal>  (289) 
-0

>  <r_i_glide_rewards>  (289) 
0

>  <r_i_glide_evdw>  (289) 
-23.4292

>  <r_i_glide_ecoul>  (289) 
-9.4812

>  <r_i_glide_erotb>  (289) 
0.0628015

>  <r_i_glide_esite>  (289) 
-0.0503617

>  <r_i_glide_emodel>  (289) 
-37.5762

>  <r_i_glide_energy>  (289) 
-32.9105

>  <r_i_glide_einternal>  (289) 
4.66843

>  <r_i_glide_intrahb_reward>  (289) 
-0

>  <i_i_glide_confnum>  (289) 
4

>  <i_i_glide_posenum>  (289) 
6

>  <r_i_glide_eff_state_penalty>  (289) 
0

>  <ligand_id>  (289) 
86

>  <original_smiles>  (289) 
CCN1CC2(O)CC(O)C3C(OC)C4C(OC)C5(C(O)C(CN6CCOC6=O)C6C(O)C7C2OC5C64C7O)C31

>  <smiles>  (289) 
[H]OC1([H])C2([H])C3([H])OC4([H])C5(C2([H])O[H])C2([H])C([H])(OC([H])([H])[H])C6([H])C([H])(O[H])C([H])([H])C3(O[H])C([H])([H])[N+]([H])(C([H])([H])C([H])([H])[H])C6([H])C4(C([H])(O[H])C([H])(C([H])([H])N3C(=O)OC([H])([H])C3([H])[H])C15[H])C2([H])OC([H])([H])[H]

$$$$
86:3:0
     RDKit          3D

 80 87  0  0  1  0  0  0  0  0999 V2000
    7.0816   -8.4562    1.6876 C   0  0  0  0  0  0  0  0  0  0  0  0
    5.6528   -7.8448    1.5959 C   0  0  0  0  0  0  0  0  0  0  0  0
    4.6908   -8.2650    2.6623 N   0  0  1  0  0  0  0  0  0  0  0  0
    4.0880   -9.6651    2.3966 C   0  0  0  0  0  0  0  0  0  0  0  0
    3.3952  -10.5852    3.5282 C   0  0  1  0  0  0  0  0  0  0  0  0
    2.9745  -11.7682    2.8828 O   0  0  0  0  0  0  0  0  0  0  0  0
    4.5487  -11.0929    4.4902 C   0  0  0  0  0  0  0  0  0  0  0  0
    5.8755  -10.2469    4.6888 C   0  0  1  0  0  0  0  0  0  0  0  0
    6.7959  -10.4918    3.6569 O   0  0  0  0  0  0  0  0  0  0  0  0
    5.8142   -8.7006    5.0606 C   0  0  2  0  0  0  0  0  0  0  0  0
    5.3291   -8.6022    6.6282 C   0  0  1  0  0  0  0  0  0  0  0  0
    6.3512   -8.2578    7.5681 O   0  0  0  0  0  0  0  0  0  0  0  0
    7.6747   -8.0159    7.1090 C   0  0  0  0  0  0  0  0  0  0  0  0
    3.9925   -7.7568    6.9885 C   0  0  1  0  0  0  0  0  0  0  0  0
    4.2547   -6.4887    6.2330 C   0  0  1  0  0  0  0  0  0  0  0  0
    5.5569   -5.9127    6.2889 O   0  0  0  0  0  0  0  0  0  0  0  0
    5.8997   -5.3172    7.5450 C   0  0  0  0  0  0  0  0  0  0  0  0
    3.8177   -6.9802    4.8252 C   0  0  2  0  0  0  0  0  0  0  0  0
    2.7298   -5.9393    4.4078 C   0  0  1  0  0  0  0  0  0  0  0  0
    2.3944   -6.1321    3.0364 O   0  0  0  0  0  0  0  0  0  0  0  0
    1.4564   -6.0170    5.4266 C   0  0  1  0  0  0  0  0  0  0  0  0
    0.2111   -5.2344    4.9146 C   0  0  0  0  0  0  0  0  0  0  0  0
    0.4090   -3.7730    4.9326 N   0  0  0  0  0  0  0  0  0  0  0  0
    1.0732   -3.0459    3.8636 C   0  0  0  0  0  0  0  0  0  0  0  0
    0.9791   -1.5950    4.3397 C   0  0  0  0  0  0  0  0  0  0  0  0
    0.1550   -1.6790    5.4919 O   0  0  0  0  0  0  0  0  0  0  0  0
   -0.1691   -2.9213    5.8511 C   0  0  0  0  0  0  0  0  0  0  0  0
   -0.8762   -3.1947    6.8286 O   0  0  0  0  0  0  0  0  0  0  0  0
    1.2140   -7.4754    6.0632 C   0  0  2  0  0  0  0  0  0  0  0  0
    0.2660   -8.7476    5.7759 C   0  0  1  0  0  0  0  0  0  0  0  0
   -0.8160   -8.6554    4.8424 O   0  0  0  0  0  0  0  0  0  0  0  0
    1.2217  -10.0027    5.5149 C   0  0  1  0  0  0  0  0  0  0  0  0
    1.9575   -9.9687    4.0493 C   0  0  1  0  0  0  0  0  0  0  0  0
    2.2294   -8.6198    3.8804 O   0  0  0  0  0  0  0  0  0  0  0  0
    3.0426   -8.2292    4.9834 C   0  0  2  0  0  0  0  0  0  0  0  0
    2.5739   -8.2595    6.3657 C   0  0  1  0  0  0  0  0  0  0  0  0
    2.1880   -9.7165    6.6771 C   0  0  1  0  0  0  0  0  0  0  0  0
    1.6051   -9.8505    7.9652 O   0  0  0  0  0  0  0  0  0  0  0  0
    5.0208   -7.7002    4.0538 C   0  0  2  0  0  0  0  0  0  0  0  0
    7.7144   -8.0509    0.8841 H   0  0  0  0  0  0  0  0  0  0  0  0
    7.0447   -9.5503    1.6777 H   0  0  0  0  0  0  0  0  0  0  0  0
    7.5713   -8.1605    2.6218 H   0  0  0  0  0  0  0  0  0  0  0  0
    5.7146   -6.7439    1.5705 H   0  0  0  0  0  0  0  0  0  0  0  0
    5.2333   -8.1368    0.6260 H   0  0  0  0  0  0  0  0  0  0  0  0
    3.3452   -9.4995    1.6089 H   0  0  0  0  0  0  0  0  0  0  0  0
    4.8593  -10.2666    1.9041 H   0  0  0  0  0  0  0  0  0  0  0  0
    3.4243  -11.8548    2.0468 H   0  0  0  0  0  0  0  0  0  0  0  0
    4.1275  -11.4359    5.4373 H   0  0  0  0  0  0  0  0  0  0  0  0
    4.9151  -12.0373    4.0798 H   0  0  0  0  0  0  0  0  0  0  0  0
    6.3452  -10.7067    5.5619 H   0  0  0  0  0  0  0  0  0  0  0  0
    6.4459  -10.1406    2.8341 H   0  0  0  0  0  0  0  0  0  0  0  0
    6.8380   -8.3704    4.9609 H   0  0  0  0  0  0  0  0  0  0  0  0
    5.0873   -9.6072    6.9579 H   0  0  0  0  0  0  0  0  0  0  0  0
    8.3107   -7.7415    7.9143 H   0  0  0  0  0  0  0  0  0  0  0  0
    7.6819   -7.2057    6.3567 H   0  0  0  0  0  0  0  0  0  0  0  0
    8.0880   -8.9079    6.6141 H   0  0  0  0  0  0  0  0  0  0  0  0
    3.8933   -7.6031    8.0666 H   0  0  0  0  0  0  0  0  0  0  0  0
    3.6189   -5.7189    6.6503 H   0  0  0  0  0  0  0  0  0  0  0  0
    6.9349   -4.9790    7.5150 H   0  0  0  0  0  0  0  0  0  0  0  0
    5.8282   -6.0151    8.3777 H   0  0  0  0  0  0  0  0  0  0  0  0
    5.2763   -4.4579    7.7836 H   0  0  0  0  0  0  0  0  0  0  0  0
    3.2105   -4.9631    4.4932 H   0  0  0  0  0  0  0  0  0  0  0  0
    2.0170   -6.9929    2.9605 H   0  0  0  0  0  0  0  0  0  0  0  0
    1.7001   -5.4364    6.3076 H   0  0  0  0  0  0  0  0  0  0  0  0
   -0.0651   -5.5552    3.9158 H   0  0  0  0  0  0  0  0  0  0  0  0
   -0.6428   -5.4914    5.5397 H   0  0  0  0  0  0  0  0  0  0  0  0
    2.1141   -3.3204    3.7493 H   0  0  0  0  0  0  0  0  0  0  0  0
    0.5701   -3.1952    2.9128 H   0  0  0  0  0  0  0  0  0  0  0  0
    1.9649   -1.2156    4.6089 H   0  0  0  0  0  0  0  0  0  0  0  0
    0.5551   -0.9427    3.5775 H   0  0  0  0  0  0  0  0  0  0  0  0
    0.9360   -7.4246    5.0319 H   0  0  0  0  0  0  0  0  0  0  0  0
   -0.2691   -8.9326    6.7077 H   0  0  0  0  0  0  0  0  0  0  0  0
   -1.2983   -9.4876    4.8773 H   0  0  0  0  0  0  0  0  0  0  0  0
    0.7069  -10.9504    5.6538 H   0  0  0  0  0  0  0  0  0  0  0  0
    1.1950  -10.1967    3.3012 H   0  0  0  0  0  0  0  0  0  0  0  0
    3.6271   -9.0627    5.1638 H   0  0  0  0  0  0  0  0  0  0  0  0
    3.0091  -10.4120    6.7306 H   0  0  0  0  0  0  0  0  0  0  0  0
    1.4096  -10.7795    8.0425 H   0  0  0  0  0  0  0  0  0  0  0  0
    5.7031   -6.8711    3.8780 H   0  0  0  0  0  0  0  0  0  0  0  0
    3.8867   -7.6717    2.4472 H   0  0  0  0  0  0  0  0  0  0  0  0
  1  2  1  0
  1 40  1  0
  1 41  1  0
  1 42  1  0
  2  3  1  0
  2 43  1  0
  2 44  1  0
  3 39  1  0
  3  4  1  0
  3 80  1  6
  4  5  1  0
  4 45  1  0
  4 46  1  0
  5 33  1  0
  5  6  1  6
  5  7  1  0
  6 47  1  0
  7  8  1  0
  7 48  1  0
  7 49  1  0
  8  9  1  0
  8 10  1  0
  8 50  1  1
  9 51  1  0
 10 39  1  0
 10 11  1  0
 10 52  1  1
 11 12  1  0
 11 14  1  0
 11 53  1  1
 12 13  1  0
 13 54  1  0
 13 55  1  0
 13 56  1  0
 14 36  1  0
 14 15  1  0
 14 57  1  1
 15 16  1  0
 15 18  1  0
 15 58  1  1
 16 17  1  0
 17 59  1  0
 17 60  1  0
 17 61  1  0
 18 35  1  0
 18 19  1  6
 18 39  1  0
 19 20  1  0
 19 21  1  0
 19 62  1  6
 20 63  1  0
 21 22  1  0
 21 29  1  0
 21 64  1  1
 22 23  1  0
 22 65  1  0
 22 66  1  0
 23 27  1  0
 23 24  1  0
 24 25  1  0
 24 67  1  0
 24 68  1  0
 25 26  1  0
 25 69  1  0
 25 70  1  0
 26 27  1  0
 27 28  2  0
 29 36  1  0
 29 30  1  0
 29 71  1  1
 30 31  1  0
 30 32  1  0
 30 72  1  1
 31 73  1  0
 32 37  1  0
 32 33  1  0
 32 74  1  1
 33 34  1  0
 33 75  1  6
 34 35  1  0
 35 36  1  0
 35 76  1  1
 36 37  1  1
 37 38  1  0
 37 77  1  1
 38 78  1  0
 39 79  1  6
M  CHG  1   3   1
M  END
>  <i_m_ct_stereo_status>  (290) 
1

>  <s_m_source_file>  (290) 
/var/tmp/pbs.5076255.sched01/tmpt7uccrld/92zpefy4ut.sdf

>  <i_m_source_file_index>  (290) 
33

>  <i_lp_mmshare_version>  (290) 
48012

>  <i_f3d_flags>  (290) 
0

>  <s_epik_input>  (290) 
W0NIM11PW0NAQEhdMVtDQEBIXShbQ0BdMjNbQ0BIXTRbQ0BdMTU2KVtDQEhdKE9bQ0gzXSlbQ0BASF03W0NASF02TihbQ0gyXVtDSDNdKVtDSDJdW0NAQF0oW09IXSkoW0NIMl1bQ0BIXTdbT0hdKVtDQEhdKE80KVtDQEBIXShbQ0BASF0zW09IXSlbQ0BIXShbT0hdKVtDSF0yW0NAQEhdKFtDQEBIXTVbT0hdKVtDSDJdTjhbQ0gyXVtDSDJdT0M4PU8=

>  <s_epik_cmdline>  (290) 
J2VwaWtfcHl0aG9uJywgJy1waHQnLCAnMi4wJywgJy1waCcsICc3LjAnLCAnLXRuJywgJzgnLCAnLW1hJywgJzIwMCcsICctaW1hZScsICc8aW5maWxlLm1hZT4nLCAnLW9tYWUnLCAnPG91dGZpbGUubWFlPic=

>  <r_epik_Ionization_Penalty>  (290) 
0.00210516

>  <r_epik_Ionization_Penalty_Charging>  (290) 
0.00210146

>  <r_epik_Ionization_Penalty_Neutral>  (290) 
3.70392e-06

>  <r_epik_State_Penalty>  (290) 
0.00144031

>  <r_epik_Charging_Adjusted_Penalty>  (290) 
0.00354177

>  <i_epik_Tot_Q>  (290) 
1

>  <i_epik_Tot_abs_Q>  (290) 
1

>  <s_epik_Chemistry_Notes>  (290) 
This compound has an ester and may undergo hydrolysis at high or low pH.

>  <s_lp_Force_Field>  (290) 
OPLS3e

>  <r_lp_Energy>  (290) 
293.698

>  <b_lp_Chiralities_Consistent>  (290) 
1

>  <s_lp_Variant>  (290) 
86:0-4

>  <s_i_glide_gridfile>  (290) 
pfpi4k_grid

>  <i_i_glide_lignum>  (290) 
33

>  <i_i_glide_rotatable_bonds>  (290) 
10

>  <r_i_docking_score>  (290) 
-4.19221

>  <r_i_glide_ligand_efficiency>  (290) 
-0.107493

>  <r_i_glide_ligand_efficiency_sa>  (290) 
-0.36453

>  <r_i_glide_ligand_efficiency_ln>  (290) 
-0.898929

>  <r_i_glide_gscore>  (290) 
-4.19221

>  <r_i_glide_lipo>  (290) 
-0.268734

>  <r_i_glide_hbond>  (290) 
-0.144

>  <r_i_glide_metal>  (290) 
-0

>  <r_i_glide_rewards>  (290) 
-0.5

>  <r_i_glide_evdw>  (290) 
-18.1865

>  <r_i_glide_ecoul>  (290) 
-16.0926

>  <r_i_glide_erotb>  (290) 
0.0628015

>  <r_i_glide_esite>  (290) 
-0.0190596

>  <r_i_glide_emodel>  (290) 
-40.1187

>  <r_i_glide_energy>  (290) 
-34.2791

>  <r_i_glide_einternal>  (290) 
18.5583

>  <r_i_glide_intrahb_reward>  (290) 
-0.5

>  <i_i_glide_confnum>  (290) 
4

>  <i_i_glide_posenum>  (290) 
40

>  <r_i_glide_eff_state_penalty>  (290) 
0

>  <ligand_id>  (290) 
86

>  <original_smiles>  (290) 
CCN1CC2(O)CC(O)C3C(OC)C4C(OC)C5(C(O)C(CN6CCOC6=O)C6C(O)C7C2OC5C64C7O)C31

>  <smiles>  (290) 
[H]OC1([H])C2([H])C3([H])OC4([H])C5(C2([H])O[H])C2([H])C([H])(OC([H])([H])[H])C6([H])C([H])(O[H])C([H])([H])C3(O[H])C([H])([H])[N+]([H])(C([H])([H])C([H])([H])[H])C6([H])C4(C([H])(O[H])C([H])(C([H])([H])N3C(=O)OC([H])([H])C3([H])[H])C15[H])C2([H])OC([H])([H])[H]

$$$$
86:3:1
     RDKit          3D

 80 87  0  0  1  0  0  0  0  0999 V2000
    7.0753   -8.4507    1.6631 C   0  0  0  0  0  0  0  0  0  0  0  0
    5.6728   -7.8355    1.5476 C   0  0  0  0  0  0  0  0  0  0  0  0
    4.7003   -8.2829    2.6557 N   0  0  1  0  0  0  0  0  0  0  0  0
    4.0828   -9.6927    2.3680 C   0  0  0  0  0  0  0  0  0  0  0  0
    3.4173  -10.5629    3.4956 C   0  0  1  0  0  0  0  0  0  0  0  0
    2.9995  -11.7563    2.8851 O   0  0  0  0  0  0  0  0  0  0  0  0
    4.5629  -11.0776    4.4598 C   0  0  0  0  0  0  0  0  0  0  0  0
    5.8866  -10.2345    4.6764 C   0  0  1  0  0  0  0  0  0  0  0  0
    6.8265  -10.4577    3.6262 O   0  0  0  0  0  0  0  0  0  0  0  0
    5.7967   -8.7065    5.0868 C   0  0  2  0  0  0  0  0  0  0  0  0
    5.2841   -8.6392    6.6255 C   0  0  1  0  0  0  0  0  0  0  0  0
    6.3683   -8.2683    7.4776 O   0  0  0  0  0  0  0  0  0  0  0  0
    6.3000   -8.7875    8.7993 C   0  0  0  0  0  0  0  0  0  0  0  0
    3.9706   -7.7443    6.9596 C   0  0  1  0  0  0  0  0  0  0  0  0
    4.2675   -6.4953    6.1768 C   0  0  1  0  0  0  0  0  0  0  0  0
    5.6028   -5.9819    6.2591 O   0  0  0  0  0  0  0  0  0  0  0  0
    5.7951   -4.6969    5.6748 C   0  0  0  0  0  0  0  0  0  0  0  0
    3.8387   -6.9960    4.7885 C   0  0  2  0  0  0  0  0  0  0  0  0
    2.7466   -5.9492    4.3737 C   0  0  1  0  0  0  0  0  0  0  0  0
    2.3683   -6.0755    3.0165 O   0  0  0  0  0  0  0  0  0  0  0  0
    1.4676   -6.0125    5.3987 C   0  0  1  0  0  0  0  0  0  0  0  0
    0.2258   -5.2199    4.8947 C   0  0  0  0  0  0  0  0  0  0  0  0
    0.4174   -3.7712    4.9262 N   0  0  0  0  0  0  0  0  0  0  0  0
    1.0750   -3.0195    3.8798 C   0  0  0  0  0  0  0  0  0  0  0  0
    0.9834   -1.5850    4.3662 C   0  0  0  0  0  0  0  0  0  0  0  0
    0.1533   -1.6715    5.5114 O   0  0  0  0  0  0  0  0  0  0  0  0
   -0.1720   -2.9372    5.8538 C   0  0  0  0  0  0  0  0  0  0  0  0
   -0.8888   -3.2151    6.8247 O   0  0  0  0  0  0  0  0  0  0  0  0
    1.2255   -7.4741    6.0290 C   0  0  2  0  0  0  0  0  0  0  0  0
    0.2741   -8.7411    5.7463 C   0  0  1  0  0  0  0  0  0  0  0  0
   -0.8172   -8.6586    4.8375 O   0  0  0  0  0  0  0  0  0  0  0  0
    1.2259  -10.0014    5.4820 C   0  0  1  0  0  0  0  0  0  0  0  0
    1.9716   -9.9753    4.0217 C   0  0  1  0  0  0  0  0  0  0  0  0
    2.2498   -8.6255    3.8509 O   0  0  0  0  0  0  0  0  0  0  0  0
    3.0586   -8.2253    4.9549 C   0  0  2  0  0  0  0  0  0  0  0  0
    2.5682   -8.2540    6.3320 C   0  0  1  0  0  0  0  0  0  0  0  0
    2.1876   -9.7251    6.6545 C   0  0  1  0  0  0  0  0  0  0  0  0
    1.6152   -9.8569    7.9192 O   0  0  0  0  0  0  0  0  0  0  0  0
    5.0484   -7.6857    4.0614 C   0  0  2  0  0  0  0  0  0  0  0  0
    7.7207   -8.0800    0.8400 H   0  0  0  0  0  0  0  0  0  0  0  0
    7.0450   -9.5505    1.6704 H   0  0  0  0  0  0  0  0  0  0  0  0
    7.5746   -8.1515    2.5864 H   0  0  0  0  0  0  0  0  0  0  0  0
    5.7207   -6.7670    1.5403 H   0  0  0  0  0  0  0  0  0  0  0  0
    5.2332   -8.1323    0.6102 H   0  0  0  0  0  0  0  0  0  0  0  0
    3.3621   -9.4940    1.5960 H   0  0  0  0  0  0  0  0  0  0  0  0
    4.8424  -10.2609    1.8694 H   0  0  0  0  0  0  0  0  0  0  0  0
    3.4160  -11.8570    2.0271 H   0  0  0  0  0  0  0  0  0  0  0  0
    4.1515  -11.4266    5.3923 H   0  0  0  0  0  0  0  0  0  0  0  0
    4.9336  -12.0152    4.0447 H   0  0  0  0  0  0  0  0  0  0  0  0
    6.3864  -10.7133    5.5263 H   0  0  0  0  0  0  0  0  0  0  0  0
    6.4143  -10.1495    2.7942 H   0  0  0  0  0  0  0  0  0  0  0  0
    6.8238   -8.3559    5.1125 H   0  0  0  0  0  0  0  0  0  0  0  0
    5.0392   -9.6535    6.9155 H   0  0  0  0  0  0  0  0  0  0  0  0
    7.0827   -8.3531    9.4214 H   0  0  0  0  0  0  0  0  0  0  0  0
    6.4444   -9.8641    8.7866 H   0  0  0  0  0  0  0  0  0  0  0  0
    5.3509   -8.5872    9.3006 H   0  0  0  0  0  0  0  0  0  0  0  0
    3.8529   -7.5522    8.0285 H   0  0  0  0  0  0  0  0  0  0  0  0
    3.6658   -5.7154    6.6220 H   0  0  0  0  0  0  0  0  0  0  0  0
    6.8348   -4.3968    5.7926 H   0  0  0  0  0  0  0  0  0  0  0  0
    5.1727   -3.9299    6.1407 H   0  0  0  0  0  0  0  0  0  0  0  0
    5.5820   -4.7105    4.6080 H   0  0  0  0  0  0  0  0  0  0  0  0
    3.2147   -4.9690    4.4729 H   0  0  0  0  0  0  0  0  0  0  0  0
    3.1362   -5.9129    2.4737 H   0  0  0  0  0  0  0  0  0  0  0  0
    1.7232   -5.4349    6.2876 H   0  0  0  0  0  0  0  0  0  0  0  0
   -0.0482   -5.5389    3.8877 H   0  0  0  0  0  0  0  0  0  0  0  0
   -0.6367   -5.4972    5.5073 H   0  0  0  0  0  0  0  0  0  0  0  0
    2.1308   -3.2898    3.7654 H   0  0  0  0  0  0  0  0  0  0  0  0
    0.5791   -3.1630    2.9156 H   0  0  0  0  0  0  0  0  0  0  0  0
    1.9646   -1.1979    4.6496 H   0  0  0  0  0  0  0  0  0  0  0  0
    0.5629   -0.9173    3.6119 H   0  0  0  0  0  0  0  0  0  0  0  0
    0.9450   -7.4277    4.9860 H   0  0  0  0  0  0  0  0  0  0  0  0
   -0.2549   -8.9279    6.6848 H   0  0  0  0  0  0  0  0  0  0  0  0
   -1.3020   -9.4720    4.8839 H   0  0  0  0  0  0  0  0  0  0  0  0
    0.7105  -10.9469    5.6265 H   0  0  0  0  0  0  0  0  0  0  0  0
    1.2019  -10.1906    3.2756 H   0  0  0  0  0  0  0  0  0  0  0  0
    3.6300   -9.0547    5.1220 H   0  0  0  0  0  0  0  0  0  0  0  0
    3.0264  -10.4226    6.6875 H   0  0  0  0  0  0  0  0  0  0  0  0
    1.4459  -10.8153    8.0134 H   0  0  0  0  0  0  0  0  0  0  0  0
    5.7357   -6.9009    3.8370 H   0  0  0  0  0  0  0  0  0  0  0  0
    3.8820   -7.7219    2.4471 H   0  0  0  0  0  0  0  0  0  0  0  0
  1  2  1  0
  1 40  1  0
  1 41  1  0
  1 42  1  0
  2  3  1  0
  2 43  1  0
  2 44  1  0
  3 39  1  0
  3  4  1  0
  3 80  1  6
  4  5  1  0
  4 45  1  0
  4 46  1  0
  5 33  1  0
  5  6  1  6
  5  7  1  0
  6 47  1  0
  7  8  1  0
  7 48  1  0
  7 49  1  0
  8  9  1  0
  8 10  1  0
  8 50  1  1
  9 51  1  0
 10 39  1  0
 10 11  1  0
 10 52  1  1
 11 12  1  0
 11 14  1  0
 11 53  1  1
 12 13  1  0
 13 54  1  0
 13 55  1  0
 13 56  1  0
 14 36  1  0
 14 15  1  0
 14 57  1  1
 15 16  1  0
 15 18  1  0
 15 58  1  1
 16 17  1  0
 17 59  1  0
 17 60  1  0
 17 61  1  0
 18 35  1  0
 18 19  1  6
 18 39  1  0
 19 20  1  0
 19 21  1  0
 19 62  1  6
 20 63  1  0
 21 22  1  0
 21 29  1  0
 21 64  1  1
 22 23  1  0
 22 65  1  0
 22 66  1  0
 23 27  1  0
 23 24  1  0
 24 25  1  0
 24 67  1  0
 24 68  1  0
 25 26  1  0
 25 69  1  0
 25 70  1  0
 26 27  1  0
 27 28  2  0
 29 36  1  0
 29 30  1  0
 29 71  1  1
 30 31  1  0
 30 32  1  0
 30 72  1  1
 31 73  1  0
 32 37  1  0
 32 33  1  0
 32 74  1  1
 33 34  1  0
 33 75  1  6
 34 35  1  0
 35 36  1  0
 35 76  1  1
 36 37  1  1
 37 38  1  0
 37 77  1  1
 38 78  1  0
 39 79  1  6
M  CHG  1   3   1
M  END
>  <i_m_ct_stereo_status>  (291) 
1

>  <s_m_source_file>  (291) 
/var/tmp/pbs.5076255.sched01/tmpt7uccrld/92zpefy4ut.sdf

>  <i_m_source_file_index>  (291) 
33

>  <i_lp_mmshare_version>  (291) 
48012

>  <i_f3d_flags>  (291) 
0

>  <s_epik_input>  (291) 
W0NIM11PW0NAQEhdMVtDQEBIXShbQ0BdMjNbQ0BIXTRbQ0BdMTU2KVtDQEhdKE9bQ0gzXSlbQ0BASF03W0NASF02TihbQ0gyXVtDSDNdKVtDSDJdW0NAQF0oW09IXSkoW0NIMl1bQ0BIXTdbT0hdKVtDQEhdKE80KVtDQEBIXShbQ0BASF0zW09IXSlbQ0BIXShbT0hdKVtDSF0yW0NAQEhdKFtDQEBIXTVbT0hdKVtDSDJdTjhbQ0gyXVtDSDJdT0M4PU8=

>  <s_epik_cmdline>  (291) 
J2VwaWtfcHl0aG9uJywgJy1waHQnLCAnMi4wJywgJy1waCcsICc3LjAnLCAnLXRuJywgJzgnLCAnLW1hJywgJzIwMCcsICctaW1hZScsICc8aW5maWxlLm1hZT4nLCAnLW9tYWUnLCAnPG91dGZpbGUubWFlPic=

>  <r_epik_Ionization_Penalty>  (291) 
0.00210516

>  <r_epik_Ionization_Penalty_Charging>  (291) 
0.00210146

>  <r_epik_Ionization_Penalty_Neutral>  (291) 
3.70392e-06

>  <r_epik_State_Penalty>  (291) 
0.00144031

>  <r_epik_Charging_Adjusted_Penalty>  (291) 
0.00354177

>  <i_epik_Tot_Q>  (291) 
1

>  <i_epik_Tot_abs_Q>  (291) 
1

>  <s_epik_Chemistry_Notes>  (291) 
This compound has an ester and may undergo hydrolysis at high or low pH.

>  <s_lp_Force_Field>  (291) 
OPLS3e

>  <r_lp_Energy>  (291) 
293.698

>  <b_lp_Chiralities_Consistent>  (291) 
1

>  <s_lp_Variant>  (291) 
86:0-4

>  <s_i_glide_gridfile>  (291) 
pfpi4k_grid

>  <i_i_glide_lignum>  (291) 
33

>  <i_i_glide_rotatable_bonds>  (291) 
10

>  <r_i_docking_score>  (291) 
-3.81111

>  <r_i_glide_ligand_efficiency>  (291) 
-0.0977208

>  <r_i_glide_ligand_efficiency_sa>  (291) 
-0.331392

>  <r_i_glide_ligand_efficiency_ln>  (291) 
-0.81721

>  <r_i_glide_gscore>  (291) 
-3.81111

>  <r_i_glide_lipo>  (291) 
-0.278339

>  <r_i_glide_hbond>  (291) 
-0.144

>  <r_i_glide_metal>  (291) 
-0

>  <r_i_glide_rewards>  (291) 
0

>  <r_i_glide_evdw>  (291) 
-18.4351

>  <r_i_glide_ecoul>  (291) 
-16.7397

>  <r_i_glide_erotb>  (291) 
0.0628015

>  <r_i_glide_esite>  (291) 
-0.0188662

>  <r_i_glide_emodel>  (291) 
-41.1635

>  <r_i_glide_energy>  (291) 
-35.1748

>  <r_i_glide_einternal>  (291) 
6.04818

>  <r_i_glide_intrahb_reward>  (291) 
-0

>  <i_i_glide_confnum>  (291) 
4

>  <i_i_glide_posenum>  (291) 
1

>  <r_i_glide_eff_state_penalty>  (291) 
0

>  <ligand_id>  (291) 
86

>  <original_smiles>  (291) 
CCN1CC2(O)CC(O)C3C(OC)C4C(OC)C5(C(O)C(CN6CCOC6=O)C6C(O)C7C2OC5C64C7O)C31

>  <smiles>  (291) 
[H]OC1([H])C2([H])C3([H])OC4([H])C5(C2([H])O[H])C2([H])C([H])(OC([H])([H])[H])C6([H])C([H])(O[H])C([H])([H])C3(O[H])C([H])([H])[N+]([H])(C([H])([H])C([H])([H])[H])C6([H])C4(C([H])(O[H])C([H])(C([H])([H])N3C(=O)OC([H])([H])C3([H])[H])C15[H])C2([H])OC([H])([H])[H]

$$$$
86:3:2
     RDKit          3D

 80 87  0  0  1  0  0  0  0  0999 V2000
    1.3726   -5.3797    5.7504 C   0  0  0  0  0  0  0  0  0  0  0  0
    0.6330   -4.2653    6.5103 C   0  0  0  0  0  0  0  0  0  0  0  0
    0.8270   -2.9232    5.8815 N   0  0  1  0  0  0  0  0  0  0  0  0
   -0.5067   -2.1397    5.8495 C   0  0  0  0  0  0  0  0  0  0  0  0
   -0.6079   -0.5538    5.7468 C   0  0  1  0  0  0  0  0  0  0  0  0
   -2.0066   -0.3118    5.7479 O   0  0  0  0  0  0  0  0  0  0  0  0
   -0.1396    0.0218    7.1518 C   0  0  0  0  0  0  0  0  0  0  0  0
    0.8785   -0.7982    8.0493 C   0  0  1  0  0  0  0  0  0  0  0  0
    0.2323   -1.8673    8.7249 O   0  0  0  0  0  0  0  0  0  0  0  0
    2.2570   -1.2567    7.4692 C   0  0  2  0  0  0  0  0  0  0  0  0
    3.1691    0.0792    7.2458 C   0  0  1  0  0  0  0  0  0  0  0  0
    4.2362    0.1234    8.1806 O   0  0  0  0  0  0  0  0  0  0  0  0
    3.9106    0.3849    9.5343 C   0  0  0  0  0  0  0  0  0  0  0  0
    3.8054    0.2841    5.7763 C   0  0  1  0  0  0  0  0  0  0  0  0
    4.3222   -1.0898    5.4430 C   0  0  1  0  0  0  0  0  0  0  0  0
    5.0331   -1.8009    6.4666 O   0  0  0  0  0  0  0  0  0  0  0  0
    6.3099   -1.2650    6.8459 C   0  0  0  0  0  0  0  0  0  0  0  0
    2.9759   -1.7316    4.9976 C   0  0  2  0  0  0  0  0  0  0  0  0
    3.2427   -2.2515    3.5390 C   0  0  1  0  0  0  0  0  0  0  0  0
    2.1289   -3.0108    3.0891 O   0  0  0  0  0  0  0  0  0  0  0  0
    3.5991   -0.9918    2.5630 C   0  0  1  0  0  0  0  0  0  0  0  0
    3.5915   -1.3528    1.0461 C   0  0  0  0  0  0  0  0  0  0  0  0
    4.5721   -2.3953    0.7085 N   0  0  0  0  0  0  0  0  0  0  0  0
    4.2517   -3.7975    0.6411 C   0  0  0  0  0  0  0  0  0  0  0  0
    5.5784   -4.4360    0.2489 C   0  0  0  0  0  0  0  0  0  0  0  0
    6.4199   -3.3182    0.0081 O   0  0  0  0  0  0  0  0  0  0  0  0
    5.8608   -2.1319    0.2753 C   0  0  0  0  0  0  0  0  0  0  0  0
    6.4181   -1.0536    0.1347 O   0  0  0  0  0  0  0  0  0  0  0  0
    2.9001    0.3997    2.9989 C   0  0  2  0  0  0  0  0  0  0  0  0
    1.5946    1.2393    2.5589 C   0  0  1  0  0  0  0  0  0  0  0  0
    0.7745    0.8292    1.4701 O   0  0  0  0  0  0  0  0  0  0  0  0
    0.6858    1.4104    3.8632 C   0  0  1  0  0  0  0  0  0  0  0  0
   -0.1041    0.0416    4.2911 C   0  0  1  0  0  0  0  0  0  0  0  0
    0.8340   -0.9398    4.0055 O   0  0  0  0  0  0  0  0  0  0  0  0
    2.0012   -0.6385    4.7709 C   0  0  2  0  0  0  0  0  0  0  0  0
    2.7624    0.5846    4.5730 C   0  0  1  0  0  0  0  0  0  0  0  0
    1.8296    1.7898    4.8213 C   0  0  1  0  0  0  0  0  0  0  0  0
    2.4563    3.0318    4.5597 O   0  0  0  0  0  0  0  0  0  0  0  0
    2.2028   -2.3233    6.2343 C   0  0  2  0  0  0  0  0  0  0  0  0
    1.2580   -6.3220    6.2977 H   0  0  0  0  0  0  0  0  0  0  0  0
    2.4417   -5.1882    5.6427 H   0  0  0  0  0  0  0  0  0  0  0  0
    0.9442   -5.5230    4.7533 H   0  0  0  0  0  0  0  0  0  0  0  0
   -0.4211   -4.5525    6.5158 H   0  0  0  0  0  0  0  0  0  0  0  0
    0.9285   -4.2349    7.5649 H   0  0  0  0  0  0  0  0  0  0  0  0
   -1.0474   -2.5604    4.9975 H   0  0  0  0  0  0  0  0  0  0  0  0
   -1.0999   -2.4382    6.7164 H   0  0  0  0  0  0  0  0  0  0  0  0
   -2.2808   -0.1766    4.8523 H   0  0  0  0  0  0  0  0  0  0  0  0
    0.1705    1.0536    7.0737 H   0  0  0  0  0  0  0  0  0  0  0  0
   -1.0081    0.1317    7.7887 H   0  0  0  0  0  0  0  0  0  0  0  0
    1.1166   -0.1255    8.8748 H   0  0  0  0  0  0  0  0  0  0  0  0
    0.8045   -2.1704    9.4185 H   0  0  0  0  0  0  0  0  0  0  0  0
    2.7379   -1.8182    8.2629 H   0  0  0  0  0  0  0  0  0  0  0  0
    2.5516    0.9574    7.4423 H   0  0  0  0  0  0  0  0  0  0  0  0
    4.8523    0.4492   10.0736 H   0  0  0  0  0  0  0  0  0  0  0  0
    3.3388   -0.4036   10.0124 H   0  0  0  0  0  0  0  0  0  0  0  0
    3.4006    1.3318    9.6797 H   0  0  0  0  0  0  0  0  0  0  0  0
    4.5949    1.0278    5.7902 H   0  0  0  0  0  0  0  0  0  0  0  0
    5.0311   -1.0114    4.6391 H   0  0  0  0  0  0  0  0  0  0  0  0
    6.7123   -1.8808    7.6542 H   0  0  0  0  0  0  0  0  0  0  0  0
    6.2696   -0.2318    7.1948 H   0  0  0  0  0  0  0  0  0  0  0  0
    7.0484   -1.2763    6.0764 H   0  0  0  0  0  0  0  0  0  0  0  0
    4.0953   -2.9265    3.5873 H   0  0  0  0  0  0  0  0  0  0  0  0
    1.4384   -2.3926    2.8713 H   0  0  0  0  0  0  0  0  0  0  0  0
    4.6524   -0.7621    2.7000 H   0  0  0  0  0  0  0  0  0  0  0  0
    2.6041   -1.6788    0.7173 H   0  0  0  0  0  0  0  0  0  0  0  0
    3.8024   -0.4567    0.4626 H   0  0  0  0  0  0  0  0  0  0  0  0
    3.9140   -4.1846    1.6018 H   0  0  0  0  0  0  0  0  0  0  0  0
    3.4740   -3.9668   -0.1063 H   0  0  0  0  0  0  0  0  0  0  0  0
    5.9845   -5.0417    1.0608 H   0  0  0  0  0  0  0  0  0  0  0  0
    5.4874   -5.0734   -0.6333 H   0  0  0  0  0  0  0  0  0  0  0  0
    2.2276   -0.3089    2.5635 H   0  0  0  0  0  0  0  0  0  0  0  0
    1.9629    2.2220    2.2600 H   0  0  0  0  0  0  0  0  0  0  0  0
    1.3061    0.4629    0.7744 H   0  0  0  0  0  0  0  0  0  0  0  0
   -0.0245    2.2271    3.7626 H   0  0  0  0  0  0  0  0  0  0  0  0
   -0.8959   -0.1188    3.5556 H   0  0  0  0  0  0  0  0  0  0  0  0
    1.5920   -0.2628    5.6391 H   0  0  0  0  0  0  0  0  0  0  0  0
    1.4885    1.8924    5.8366 H   0  0  0  0  0  0  0  0  0  0  0  0
    2.7376    3.0414    3.6578 H   0  0  0  0  0  0  0  0  0  0  0  0
    2.8252   -3.1541    6.5561 H   0  0  0  0  0  0  0  0  0  0  0  0
    0.9623   -3.1414    4.9067 H   0  0  0  0  0  0  0  0  0  0  0  0
  1  2  1  0
  1 40  1  0
  1 41  1  0
  1 42  1  0
  2  3  1  0
  2 43  1  0
  2 44  1  0
  3 39  1  0
  3  4  1  0
  3 80  1  6
  4  5  1  0
  4 45  1  0
  4 46  1  0
  5 33  1  0
  5  6  1  6
  5  7  1  0
  6 47  1  0
  7  8  1  0
  7 48  1  0
  7 49  1  0
  8  9  1  0
  8 10  1  0
  8 50  1  1
  9 51  1  0
 10 39  1  0
 10 11  1  0
 10 52  1  1
 11 12  1  0
 11 14  1  0
 11 53  1  1
 12 13  1  0
 13 54  1  0
 13 55  1  0
 13 56  1  0
 14 36  1  0
 14 15  1  0
 14 57  1  1
 15 16  1  0
 15 18  1  0
 15 58  1  6
 16 17  1  0
 17 59  1  0
 17 60  1  0
 17 61  1  0
 18 35  1  0
 18 19  1  6
 18 39  1  0
 19 20  1  0
 19 21  1  0
 19 62  1  1
 20 63  1  0
 21 22  1  0
 21 29  1  0
 21 64  1  1
 22 23  1  0
 22 65  1  0
 22 66  1  0
 23 27  1  0
 23 24  1  0
 24 25  1  0
 24 67  1  0
 24 68  1  0
 25 26  1  0
 25 69  1  0
 25 70  1  0
 26 27  1  0
 27 28  2  0
 29 36  1  0
 29 30  1  0
 29 71  1  6
 30 31  1  0
 30 32  1  0
 30 72  1  6
 31 73  1  0
 32 37  1  0
 32 33  1  0
 32 74  1  6
 33 34  1  0
 33 75  1  6
 34 35  1  0
 35 36  1  0
 35 76  1  1
 36 37  1  6
 37 38  1  0
 37 77  1  1
 38 78  1  0
 39 79  1  1
M  CHG  1   3   1
M  END
>  <i_m_ct_stereo_status>  (292) 
1

>  <s_m_source_file>  (292) 
/var/tmp/pbs.5076255.sched01/tmpt7uccrld/92zpefy4ut.sdf

>  <i_m_source_file_index>  (292) 
33

>  <i_lp_mmshare_version>  (292) 
48012

>  <i_f3d_flags>  (292) 
0

>  <s_epik_input>  (292) 
W0NIM11PW0NAQEhdMVtDQEBIXShbQ0BdMjNbQ0BIXTRbQ0BdMTU2KVtDQEhdKE9bQ0gzXSlbQ0BASF03W0NASF02TihbQ0gyXVtDSDNdKVtDSDJdW0NAQF0oW09IXSkoW0NIMl1bQ0BIXTdbT0hdKVtDQEhdKE80KVtDQEBIXShbQ0BASF0zW09IXSlbQ0BIXShbT0hdKVtDSF0yW0NAQEhdKFtDQEBIXTVbT0hdKVtDSDJdTjhbQ0gyXVtDSDJdT0M4PU8=

>  <s_epik_cmdline>  (292) 
J2VwaWtfcHl0aG9uJywgJy1waHQnLCAnMi4wJywgJy1waCcsICc3LjAnLCAnLXRuJywgJzgnLCAnLW1hJywgJzIwMCcsICctaW1hZScsICc8aW5maWxlLm1hZT4nLCAnLW9tYWUnLCAnPG91dGZpbGUubWFlPic=

>  <r_epik_Ionization_Penalty>  (292) 
0.00210516

>  <r_epik_Ionization_Penalty_Charging>  (292) 
0.00210146

>  <r_epik_Ionization_Penalty_Neutral>  (292) 
3.70392e-06

>  <r_epik_State_Penalty>  (292) 
0.00144031

>  <r_epik_Charging_Adjusted_Penalty>  (292) 
0.00354177

>  <i_epik_Tot_Q>  (292) 
1

>  <i_epik_Tot_abs_Q>  (292) 
1

>  <s_epik_Chemistry_Notes>  (292) 
This compound has an ester and may undergo hydrolysis at high or low pH.

>  <s_lp_Force_Field>  (292) 
OPLS3e

>  <r_lp_Energy>  (292) 
293.698

>  <b_lp_Chiralities_Consistent>  (292) 
1

>  <s_lp_Variant>  (292) 
86:0-4

>  <s_i_glide_gridfile>  (292) 
pfpi4k_grid

>  <i_i_glide_lignum>  (292) 
33

>  <i_i_glide_rotatable_bonds>  (292) 
10

>  <r_i_docking_score>  (292) 
-3.06047

>  <r_i_glide_ligand_efficiency>  (292) 
-0.0784735

>  <r_i_glide_ligand_efficiency_sa>  (292) 
-0.26612

>  <r_i_glide_ligand_efficiency_ln>  (292) 
-0.656251

>  <r_i_glide_gscore>  (292) 
-3.06047

>  <r_i_glide_lipo>  (292) 
-0.146444

>  <r_i_glide_hbond>  (292) 
-0.142378

>  <r_i_glide_metal>  (292) 
-0

>  <r_i_glide_rewards>  (292) 
-0.563984

>  <r_i_glide_evdw>  (292) 
-21.4282

>  <r_i_glide_ecoul>  (292) 
-7.96944

>  <r_i_glide_erotb>  (292) 
0.0628015

>  <r_i_glide_esite>  (292) 
-0.00363246

>  <r_i_glide_emodel>  (292) 
-39.0772

>  <r_i_glide_energy>  (292) 
-29.3977

>  <r_i_glide_einternal>  (292) 
6.7911

>  <r_i_glide_intrahb_reward>  (292) 
-0.5

>  <i_i_glide_confnum>  (292) 
4

>  <i_i_glide_posenum>  (292) 
31

>  <r_i_glide_eff_state_penalty>  (292) 
0

>  <ligand_id>  (292) 
86

>  <original_smiles>  (292) 
CCN1CC2(O)CC(O)C3C(OC)C4C(OC)C5(C(O)C(CN6CCOC6=O)C6C(O)C7C2OC5C64C7O)C31

>  <smiles>  (292) 
[H]OC1([H])C2([H])C3([H])OC4([H])C5(C2([H])O[H])C2([H])C([H])(OC([H])([H])[H])C6([H])C([H])(O[H])C([H])([H])C3(O[H])C([H])([H])[N+]([H])(C([H])([H])C([H])([H])[H])C6([H])C4(C([H])(O[H])C([H])(C([H])([H])N3C(=O)OC([H])([H])C3([H])[H])C15[H])C2([H])OC([H])([H])[H]

$$$$
86:4:0
     RDKit          3D

 80 87  0  0  1  0  0  0  0  0999 V2000
    6.1434  -11.6671    2.3578 C   0  0  0  0  0  0  0  0  0  0  0  0
    5.3778  -10.3364    2.3778 C   0  0  0  0  0  0  0  0  0  0  0  0
    4.3511  -10.2981    3.4474 N   0  0  2  0  0  0  0  0  0  0  0  0
    3.0979  -11.0765    3.0586 C   0  0  0  0  0  0  0  0  0  0  0  0
    1.6444  -10.7094    3.6148 C   0  0  1  0  0  0  0  0  0  0  0  0
    0.8429  -11.7923    3.2066 O   0  0  0  0  0  0  0  0  0  0  0  0
    1.6013  -10.8455    5.1556 C   0  0  0  0  0  0  0  0  0  0  0  0
    2.9298  -10.6360    5.9380 C   0  0  1  0  0  0  0  0  0  0  0  0
    3.7931  -11.7588    5.8254 O   0  0  0  0  0  0  0  0  0  0  0  0
    3.6857   -9.3090    5.7359 C   0  0  2  0  0  0  0  0  0  0  0  0
    2.8053   -8.1386    6.3796 C   0  0  1  0  0  0  0  0  0  0  0  0
    3.3673   -7.6904    7.6130 O   0  0  0  0  0  0  0  0  0  0  0  0
    3.2361   -8.5939    8.7093 C   0  0  0  0  0  0  0  0  0  0  0  0
    2.5926   -6.8768    5.4724 C   0  0  1  0  0  0  0  0  0  0  0  0
    3.9389   -6.6051    4.8736 C   0  0  1  0  0  0  0  0  0  0  0  0
    5.0405   -6.6472    5.7772 O   0  0  0  0  0  0  0  0  0  0  0  0
    6.2656   -6.1879    5.2169 C   0  0  0  0  0  0  0  0  0  0  0  0
    3.9274   -7.6752    3.7371 C   0  0  2  0  0  0  0  0  0  0  0  0
    4.2628   -6.7454    2.5227 C   0  0  1  0  0  0  0  0  0  0  0  0
    4.6619   -7.5955    1.4710 O   0  0  0  0  0  0  0  0  0  0  0  0
    2.9628   -5.7667    2.2119 C   0  0  1  0  0  0  0  0  0  0  0  0
    2.8143   -5.3444    0.7173 C   0  0  0  0  0  0  0  0  0  0  0  0
    3.7140   -4.2620    0.2749 N   0  0  0  0  0  0  0  0  0  0  0  0
    3.2014   -2.9434   -0.0062 C   0  0  0  0  0  0  0  0  0  0  0  0
    4.4528   -2.1774   -0.4552 C   0  0  0  0  0  0  0  0  0  0  0  0
    5.4571   -3.1767   -0.4749 O   0  0  0  0  0  0  0  0  0  0  0  0
    5.0542   -4.3624   -0.0606 C   0  0  0  0  0  0  0  0  0  0  0  0
    5.7971   -5.3431   -0.0020 O   0  0  0  0  0  0  0  0  0  0  0  0
    1.5404   -6.1418    2.9884 C   0  0  1  0  0  0  0  0  0  0  0  0
    0.3404   -6.9684    2.2966 C   0  0  1  0  0  0  0  0  0  0  0  0
    0.4124   -7.1726    0.9027 O   0  0  0  0  0  0  0  0  0  0  0  0
    0.0034   -8.2922    3.1492 C   0  0  1  0  0  0  0  0  0  0  0  0
    0.9438   -9.5391    2.7762 C   0  0  1  0  0  0  0  0  0  0  0  0
    2.1243   -8.9454    2.4427 O   0  0  0  0  0  0  0  0  0  0  0  0
    2.5446   -8.1114    3.4746 C   0  0  1  0  0  0  0  0  0  0  0  0
    1.6941   -7.1272    4.2037 C   0  0  1  0  0  0  0  0  0  0  0  0
    0.3293   -7.7290    4.5139 C   0  0  1  0  0  0  0  0  0  0  0  0
   -0.5639   -6.7019    4.9017 O   0  0  0  0  0  0  0  0  0  0  0  0
    4.3854   -9.0693    4.3096 C   0  0  2  0  0  0  0  0  0  0  0  0
    6.9068  -11.6287    1.5769 H   0  0  0  0  0  0  0  0  0  0  0  0
    5.4923  -12.5050    2.1265 H   0  0  0  0  0  0  0  0  0  0  0  0
    6.6431  -11.8681    3.2986 H   0  0  0  0  0  0  0  0  0  0  0  0
    6.1196   -9.5421    2.5038 H   0  0  0  0  0  0  0  0  0  0  0  0
    4.9573  -10.1648    1.3889 H   0  0  0  0  0  0  0  0  0  0  0  0
    2.9983  -11.0664    1.9802 H   0  0  0  0  0  0  0  0  0  0  0  0
    3.2997  -12.1255    3.2947 H   0  0  0  0  0  0  0  0  0  0  0  0
    1.2699  -12.5988    3.4222 H   0  0  0  0  0  0  0  0  0  0  0  0
    0.7744  -10.3381    5.6398 H   0  0  0  0  0  0  0  0  0  0  0  0
    1.3430  -11.8702    5.3799 H   0  0  0  0  0  0  0  0  0  0  0  0
    2.6259  -10.6622    6.9807 H   0  0  0  0  0  0  0  0  0  0  0  0
    3.3547  -12.4758    6.2800 H   0  0  0  0  0  0  0  0  0  0  0  0
    4.5497   -9.3798    6.3952 H   0  0  0  0  0  0  0  0  0  0  0  0
    1.8180   -8.5069    6.6483 H   0  0  0  0  0  0  0  0  0  0  0  0
    3.7178   -8.1725    9.5911 H   0  0  0  0  0  0  0  0  0  0  0  0
    3.7203   -9.5549    8.5341 H   0  0  0  0  0  0  0  0  0  0  0  0
    2.1827   -8.7693    8.9462 H   0  0  0  0  0  0  0  0  0  0  0  0
    2.2116   -6.0384    6.0778 H   0  0  0  0  0  0  0  0  0  0  0  0
    3.8807   -5.5726    4.5485 H   0  0  0  0  0  0  0  0  0  0  0  0
    7.0516   -6.2377    5.9684 H   0  0  0  0  0  0  0  0  0  0  0  0
    6.1950   -5.1504    4.8762 H   0  0  0  0  0  0  0  0  0  0  0  0
    6.5834   -6.8075    4.3748 H   0  0  0  0  0  0  0  0  0  0  0  0
    5.1079   -6.0904    2.7303 H   0  0  0  0  0  0  0  0  0  0  0  0
    3.9273   -8.1005    1.1720 H   0  0  0  0  0  0  0  0  0  0  0  0
    3.1975   -4.8144    2.6953 H   0  0  0  0  0  0  0  0  0  0  0  0
    2.8923   -6.2059    0.0537 H   0  0  0  0  0  0  0  0  0  0  0  0
    1.8037   -4.9751    0.5569 H   0  0  0  0  0  0  0  0  0  0  0  0
    2.4604   -2.9873   -0.8109 H   0  0  0  0  0  0  0  0  0  0  0  0
    2.7436   -2.4988    0.8813 H   0  0  0  0  0  0  0  0  0  0  0  0
    4.3673   -1.7505   -1.4577 H   0  0  0  0  0  0  0  0  0  0  0  0
    4.7486   -1.3981    0.2514 H   0  0  0  0  0  0  0  0  0  0  0  0
    1.1036   -5.2090    3.3425 H   0  0  0  0  0  0  0  0  0  0  0  0
   -0.5399   -6.3443    2.3834 H   0  0  0  0  0  0  0  0  0  0  0  0
    0.2352   -8.0832    0.7039 H   0  0  0  0  0  0  0  0  0  0  0  0
   -1.0495   -8.5803    3.0900 H   0  0  0  0  0  0  0  0  0  0  0  0
    0.5637   -9.9635    1.8520 H   0  0  0  0  0  0  0  0  0  0  0  0
    2.5395   -7.9277    2.4063 H   0  0  0  0  0  0  0  0  0  0  0  0
    0.2609   -8.4663    5.2930 H   0  0  0  0  0  0  0  0  0  0  0  0
   -0.3291   -6.4179    5.7672 H   0  0  0  0  0  0  0  0  0  0  0  0
    5.4539   -8.9310    4.5576 H   0  0  0  0  0  0  0  0  0  0  0  0
    4.6987  -10.9427    4.1124 H   0  0  0  0  0  0  0  0  0  0  0  0
  1  2  1  0
  1 40  1  0
  1 41  1  0
  1 42  1  0
  2  3  1  0
  2 43  1  0
  2 44  1  0
  3 39  1  0
  3  4  1  0
  3 80  1  1
  4  5  1  0
  4 45  1  0
  4 46  1  0
  5 33  1  0
  5  6  1  6
  5  7  1  0
  6 47  1  0
  7  8  1  0
  7 48  1  0
  7 49  1  0
  8  9  1  0
  8 10  1  0
  8 50  1  1
  9 51  1  0
 10 39  1  0
 10 11  1  0
 10 52  1  1
 11 12  1  0
 11 14  1  0
 11 53  1  1
 12 13  1  0
 13 54  1  0
 13 55  1  0
 13 56  1  0
 14 36  1  0
 14 15  1  0
 14 57  1  1
 15 16  1  0
 15 18  1  0
 15 58  1  6
 16 17  1  0
 17 59  1  0
 17 60  1  0
 17 61  1  0
 18 35  1  0
 18 19  1  6
 18 39  1  0
 19 20  1  0
 19 21  1  0
 19 62  1  1
 20 63  1  0
 21 22  1  0
 21 29  1  0
 21 64  1  1
 22 23  1  0
 22 65  1  0
 22 66  1  0
 23 27  1  0
 23 24  1  0
 24 25  1  0
 24 67  1  0
 24 68  1  0
 25 26  1  0
 25 69  1  0
 25 70  1  0
 26 27  1  0
 27 28  2  0
 29 36  1  0
 29 30  1  0
 29 71  1  1
 30 31  1  0
 30 32  1  0
 30 72  1  6
 31 73  1  0
 32 37  1  0
 32 33  1  0
 32 74  1  1
 33 34  1  0
 33 75  1  6
 34 35  1  0
 35 36  1  0
 35 76  1  1
 36 37  1  1
 37 38  1  0
 37 77  1  1
 38 78  1  0
 39 79  1  1
M  CHG  1   3   1
M  END
>  <i_m_ct_stereo_status>  (293) 
1

>  <s_m_source_file>  (293) 
/var/tmp/pbs.5076255.sched01/tmpt7uccrld/92zpefy4ut.sdf

>  <i_m_source_file_index>  (293) 
34

>  <i_lp_mmshare_version>  (293) 
48012

>  <i_f3d_flags>  (293) 
0

>  <s_epik_input>  (293) 
W0NIM11PW0NAQEhdMVtDQEBIXShbQ0BdMjNbQ0BIXTRbQ0BdMTU2KVtDQEhdKE9bQ0gzXSlbQ0BASF03W0NASF02TihbQ0gyXVtDSDNdKVtDSDJdW0NAQF0oW09IXSkoW0NIMl1bQ0BIXTdbT0hdKVtDQEhdKE80KVtDQEBIXShbQ0BASF0zW09IXSlbQ0BIXShbT0hdKVtDSF0yW0NAQEhdKFtDQEBIXTVbT0hdKVtDSDJdTjhbQ0gyXVtDSDJdT0M4PU8=

>  <s_epik_cmdline>  (293) 
J2VwaWtfcHl0aG9uJywgJy1waHQnLCAnMi4wJywgJy1waCcsICc3LjAnLCAnLXRuJywgJzgnLCAnLW1hJywgJzIwMCcsICctaW1hZScsICc8aW5maWxlLm1hZT4nLCAnLW9tYWUnLCAnPG91dGZpbGUubWFlPic=

>  <r_epik_Ionization_Penalty>  (293) 
0.00210516

>  <r_epik_Ionization_Penalty_Charging>  (293) 
0.00210146

>  <r_epik_Ionization_Penalty_Neutral>  (293) 
3.70392e-06

>  <r_epik_State_Penalty>  (293) 
0.00144031

>  <r_epik_Charging_Adjusted_Penalty>  (293) 
0.00354177

>  <i_epik_Tot_Q>  (293) 
1

>  <i_epik_Tot_abs_Q>  (293) 
1

>  <s_epik_Chemistry_Notes>  (293) 
This compound has an ester and may undergo hydrolysis at high or low pH.

>  <s_lp_Force_Field>  (293) 
OPLS3e

>  <r_lp_Energy>  (293) 
265.858

>  <b_lp_Chiralities_Consistent>  (293) 
1

>  <s_lp_Variant>  (293) 
86:0-5

>  <s_i_glide_gridfile>  (293) 
pfpi4k_grid

>  <i_i_glide_lignum>  (293) 
34

>  <i_i_glide_rotatable_bonds>  (293) 
10

>  <r_i_docking_score>  (293) 
-3.8743

>  <r_i_glide_ligand_efficiency>  (293) 
-0.0993411

>  <r_i_glide_ligand_efficiency_sa>  (293) 
-0.336887

>  <r_i_glide_ligand_efficiency_ln>  (293) 
-0.83076

>  <r_i_glide_gscore>  (293) 
-3.8743

>  <r_i_glide_lipo>  (293) 
-0.125703

>  <r_i_glide_hbond>  (293) 
-0.0178602

>  <r_i_glide_metal>  (293) 
-0

>  <r_i_glide_rewards>  (293) 
-0.576835

>  <r_i_glide_evdw>  (293) 
-27.2157

>  <r_i_glide_ecoul>  (293) 
-12.2175

>  <r_i_glide_erotb>  (293) 
0.0628015

>  <r_i_glide_esite>  (293) 
-0.0232966

>  <r_i_glide_emodel>  (293) 
-53.4782

>  <r_i_glide_energy>  (293) 
-39.4332

>  <r_i_glide_einternal>  (293) 
5.08613

>  <r_i_glide_intrahb_reward>  (293) 
-0.5

>  <i_i_glide_confnum>  (293) 
1

>  <i_i_glide_posenum>  (293) 
35

>  <r_i_glide_eff_state_penalty>  (293) 
0

>  <ligand_id>  (293) 
86

>  <original_smiles>  (293) 
CCN1CC2(O)CC(O)C3C(OC)C4C(OC)C5(C(O)C(CN6CCOC6=O)C6C(O)C7C2OC5C64C7O)C31

>  <smiles>  (293) 
[H]OC1([H])C2([H])C3([H])OC4([H])C5(C2([H])O[H])C2([H])C([H])(OC([H])([H])[H])C6([H])C([H])(O[H])C([H])([H])C3(O[H])C([H])([H])[N+]([H])(C([H])([H])C([H])([H])[H])C6([H])C4(C([H])(O[H])C([H])(C([H])([H])N3C(=O)OC([H])([H])C3([H])[H])C15[H])C2([H])OC([H])([H])[H]

$$$$
86:4:1
     RDKit          3D

 80 87  0  0  1  0  0  0  0  0999 V2000
   -0.5947   -2.3380    6.0418 C   0  0  0  0  0  0  0  0  0  0  0  0
   -0.1127   -2.4555    4.6004 C   0  0  0  0  0  0  0  0  0  0  0  0
    1.2783   -2.0128    4.3677 N   0  0  2  0  0  0  0  0  0  0  0  0
    1.4135   -1.1922    3.0674 C   0  0  0  0  0  0  0  0  0  0  0  0
    2.7593   -1.0804    2.2432 C   0  0  1  0  0  0  0  0  0  0  0  0
    2.5103   -0.0355    1.3126 O   0  0  0  0  0  0  0  0  0  0  0  0
    3.8890   -0.4454    3.1236 C   0  0  0  0  0  0  0  0  0  0  0  0
    3.8026   -0.6505    4.6594 C   0  0  1  0  0  0  0  0  0  0  0  0
    2.8069    0.1687    5.2498 O   0  0  0  0  0  0  0  0  0  0  0  0
    3.7104   -2.1006    5.1894 C   0  0  2  0  0  0  0  0  0  0  0  0
    5.1196   -2.8075    4.9247 C   0  0  1  0  0  0  0  0  0  0  0  0
    5.8787   -2.9059    6.1352 O   0  0  0  0  0  0  0  0  0  0  0  0
    6.3006   -1.6804    6.7401 C   0  0  0  0  0  0  0  0  0  0  0  0
    5.0418   -4.2221    4.2557 C   0  0  1  0  0  0  0  0  0  0  0  0
    3.9528   -4.9195    5.0080 C   0  0  1  0  0  0  0  0  0  0  0  0
    3.9794   -4.7987    6.4274 O   0  0  0  0  0  0  0  0  0  0  0  0
    3.0855   -5.6663    7.1173 C   0  0  0  0  0  0  0  0  0  0  0  0
    2.7046   -4.3152    4.2879 C   0  0  2  0  0  0  0  0  0  0  0  0
    1.9998   -5.6759    3.8895 C   0  0  1  0  0  0  0  0  0  0  0  0
    0.6577   -5.4624    3.5412 O   0  0  0  0  0  0  0  0  0  0  0  0
    2.8494   -6.3867    2.6859 C   0  0  1  0  0  0  0  0  0  0  0  0
    1.9599   -7.2022    1.7090 C   0  0  0  0  0  0  0  0  0  0  0  0
    1.2046   -8.2738    2.3603 N   0  0  0  0  0  0  0  0  0  0  0  0
   -0.2370   -8.2856    2.4697 C   0  0  0  0  0  0  0  0  0  0  0  0
   -0.5042   -9.6152    3.1496 C   0  0  0  0  0  0  0  0  0  0  0  0
    0.7894  -10.1890    3.3009 O   0  0  0  0  0  0  0  0  0  0  0  0
    1.7765   -9.4354    2.8158 C   0  0  0  0  0  0  0  0  0  0  0  0
    2.9773   -9.7306    2.8110 O   0  0  0  0  0  0  0  0  0  0  0  0
    4.0557   -5.5020    1.9703 C   0  0  1  0  0  0  0  0  0  0  0  0
    3.8848   -4.7378    0.5609 C   0  0  1  0  0  0  0  0  0  0  0  0
    2.6890   -4.9371   -0.1620 O   0  0  0  0  0  0  0  0  0  0  0  0
    4.2343   -3.1794    0.7411 C   0  0  1  0  0  0  0  0  0  0  0  0
    2.9738   -2.3147    1.2393 C   0  0  1  0  0  0  0  0  0  0  0  0
    2.2856   -3.1855    2.0341 O   0  0  0  0  0  0  0  0  0  0  0  0
    3.1163   -3.7224    3.0143 C   0  0  1  0  0  0  0  0  0  0  0  0
    4.5040   -4.2329    2.7770 C   0  0  1  0  0  0  0  0  0  0  0  0
    5.2768   -3.3213    1.8255 C   0  0  1  0  0  0  0  0  0  0  0  0
    6.4750   -3.9185    1.3643 O   0  0  0  0  0  0  0  0  0  0  0  0
    2.3710   -2.9260    4.9420 C   0  0  2  0  0  0  0  0  0  0  0  0
   -1.5925   -2.7822    6.1049 H   0  0  0  0  0  0  0  0  0  0  0  0
   -0.6675   -1.2882    6.3404 H   0  0  0  0  0  0  0  0  0  0  0  0
    0.0194   -2.8701    6.7666 H   0  0  0  0  0  0  0  0  0  0  0  0
   -0.2590   -3.4657    4.2779 H   0  0  0  0  0  0  0  0  0  0  0  0
   -0.8239   -1.8956    4.0014 H   0  0  0  0  0  0  0  0  0  0  0  0
    0.6448   -1.5043    2.3624 H   0  0  0  0  0  0  0  0  0  0  0  0
    1.1039   -0.1896    3.3455 H   0  0  0  0  0  0  0  0  0  0  0  0
    1.8752   -0.3279    0.6675 H   0  0  0  0  0  0  0  0  0  0  0  0
    4.8854   -0.6230    2.7553 H   0  0  0  0  0  0  0  0  0  0  0  0
    3.8385    0.6360    3.0098 H   0  0  0  0  0  0  0  0  0  0  0  0
    4.7287   -0.2109    5.0280 H   0  0  0  0  0  0  0  0  0  0  0  0
    3.0200    1.0758    5.0619 H   0  0  0  0  0  0  0  0  0  0  0  0
    3.6607   -1.9978    6.2709 H   0  0  0  0  0  0  0  0  0  0  0  0
    5.7332   -2.1911    4.2799 H   0  0  0  0  0  0  0  0  0  0  0  0
    6.8534   -1.8920    7.6533 H   0  0  0  0  0  0  0  0  0  0  0  0
    5.4776   -1.0332    7.0434 H   0  0  0  0  0  0  0  0  0  0  0  0
    6.9500   -1.0985    6.0897 H   0  0  0  0  0  0  0  0  0  0  0  0
    6.0072   -4.7371    4.3348 H   0  0  0  0  0  0  0  0  0  0  0  0
    4.1282   -5.9760    4.8180 H   0  0  0  0  0  0  0  0  0  0  0  0
    3.1882   -5.5182    8.1893 H   0  0  0  0  0  0  0  0  0  0  0  0
    3.2893   -6.7187    6.9058 H   0  0  0  0  0  0  0  0  0  0  0  0
    2.0453   -5.4527    6.8639 H   0  0  0  0  0  0  0  0  0  0  0  0
    1.9684   -6.3782    4.7178 H   0  0  0  0  0  0  0  0  0  0  0  0
    0.2075   -5.2650    4.3450 H   0  0  0  0  0  0  0  0  0  0  0  0
    3.4375   -7.1530    3.1905 H   0  0  0  0  0  0  0  0  0  0  0  0
    1.2456   -6.5635    1.1771 H   0  0  0  0  0  0  0  0  0  0  0  0
    2.6078   -7.6417    0.9525 H   0  0  0  0  0  0  0  0  0  0  0  0
   -0.6006   -7.5058    3.1324 H   0  0  0  0  0  0  0  0  0  0  0  0
   -0.7307   -8.1920    1.4948 H   0  0  0  0  0  0  0  0  0  0  0  0
   -0.9807   -9.4621    4.1222 H   0  0  0  0  0  0  0  0  0  0  0  0
   -1.1422  -10.2594    2.5492 H   0  0  0  0  0  0  0  0  0  0  0  0
    4.8983   -6.1739    1.8692 H   0  0  0  0  0  0  0  0  0  0  0  0
    4.6474   -5.1561   -0.0920 H   0  0  0  0  0  0  0  0  0  0  0  0
    2.9224   -5.2740   -1.0228 H   0  0  0  0  0  0  0  0  0  0  0  0
    4.6599   -2.7410   -0.1574 H   0  0  0  0  0  0  0  0  0  0  0  0
    2.3286   -2.1880    0.3623 H   0  0  0  0  0  0  0  0  0  0  0  0
    2.3801   -4.2286    2.4002 H   0  0  0  0  0  0  0  0  0  0  0  0
    5.5938   -2.3719    2.2170 H   0  0  0  0  0  0  0  0  0  0  0  0
    6.2934   -4.7810    1.0282 H   0  0  0  0  0  0  0  0  0  0  0  0
    2.0338   -3.1844    5.9420 H   0  0  0  0  0  0  0  0  0  0  0  0
    1.3838   -1.2405    4.9968 H   0  0  0  0  0  0  0  0  0  0  0  0
  1  2  1  0
  1 40  1  0
  1 41  1  0
  1 42  1  0
  2  3  1  0
  2 43  1  0
  2 44  1  0
  3 39  1  0
  3  4  1  0
  3 80  1  1
  4  5  1  0
  4 45  1  0
  4 46  1  0
  5 33  1  0
  5  6  1  6
  5  7  1  0
  6 47  1  0
  7  8  1  0
  7 48  1  0
  7 49  1  0
  8  9  1  0
  8 10  1  0
  8 50  1  1
  9 51  1  0
 10 39  1  0
 10 11  1  0
 10 52  1  1
 11 12  1  0
 11 14  1  0
 11 53  1  6
 12 13  1  0
 13 54  1  0
 13 55  1  0
 13 56  1  0
 14 36  1  0
 14 15  1  0
 14 57  1  6
 15 16  1  0
 15 18  1  0
 15 58  1  1
 16 17  1  0
 17 59  1  0
 17 60  1  0
 17 61  1  0
 18 35  1  0
 18 19  1  6
 18 39  1  0
 19 20  1  0
 19 21  1  0
 19 62  1  1
 20 63  1  0
 21 22  1  0
 21 29  1  0
 21 64  1  1
 22 23  1  0
 22 65  1  0
 22 66  1  0
 23 27  1  0
 23 24  1  0
 24 25  1  0
 24 67  1  0
 24 68  1  0
 25 26  1  0
 25 69  1  0
 25 70  1  0
 26 27  1  0
 27 28  2  0
 29 36  1  0
 29 30  1  0
 29 71  1  6
 30 31  1  0
 30 32  1  0
 30 72  1  6
 31 73  1  0
 32 37  1  0
 32 33  1  0
 32 74  1  6
 33 34  1  0
 33 75  1  6
 34 35  1  0
 35 36  1  0
 35 76  1  1
 36 37  1  6
 37 38  1  0
 37 77  1  1
 38 78  1  0
 39 79  1  1
M  CHG  1   3   1
M  END
>  <i_m_ct_stereo_status>  (294) 
1

>  <s_m_source_file>  (294) 
/var/tmp/pbs.5076255.sched01/tmpt7uccrld/92zpefy4ut.sdf

>  <i_m_source_file_index>  (294) 
34

>  <i_lp_mmshare_version>  (294) 
48012

>  <i_f3d_flags>  (294) 
0

>  <s_epik_input>  (294) 
W0NIM11PW0NAQEhdMVtDQEBIXShbQ0BdMjNbQ0BIXTRbQ0BdMTU2KVtDQEhdKE9bQ0gzXSlbQ0BASF03W0NASF02TihbQ0gyXVtDSDNdKVtDSDJdW0NAQF0oW09IXSkoW0NIMl1bQ0BIXTdbT0hdKVtDQEhdKE80KVtDQEBIXShbQ0BASF0zW09IXSlbQ0BIXShbT0hdKVtDSF0yW0NAQEhdKFtDQEBIXTVbT0hdKVtDSDJdTjhbQ0gyXVtDSDJdT0M4PU8=

>  <s_epik_cmdline>  (294) 
J2VwaWtfcHl0aG9uJywgJy1waHQnLCAnMi4wJywgJy1waCcsICc3LjAnLCAnLXRuJywgJzgnLCAnLW1hJywgJzIwMCcsICctaW1hZScsICc8aW5maWxlLm1hZT4nLCAnLW9tYWUnLCAnPG91dGZpbGUubWFlPic=

>  <r_epik_Ionization_Penalty>  (294) 
0.00210516

>  <r_epik_Ionization_Penalty_Charging>  (294) 
0.00210146

>  <r_epik_Ionization_Penalty_Neutral>  (294) 
3.70392e-06

>  <r_epik_State_Penalty>  (294) 
0.00144031

>  <r_epik_Charging_Adjusted_Penalty>  (294) 
0.00354177

>  <i_epik_Tot_Q>  (294) 
1

>  <i_epik_Tot_abs_Q>  (294) 
1

>  <s_epik_Chemistry_Notes>  (294) 
This compound has an ester and may undergo hydrolysis at high or low pH.

>  <s_lp_Force_Field>  (294) 
OPLS3e

>  <r_lp_Energy>  (294) 
265.858

>  <b_lp_Chiralities_Consistent>  (294) 
1

>  <s_lp_Variant>  (294) 
86:0-5

>  <s_i_glide_gridfile>  (294) 
pfpi4k_grid

>  <i_i_glide_lignum>  (294) 
34

>  <i_i_glide_rotatable_bonds>  (294) 
10

>  <r_i_docking_score>  (294) 
-3.30907

>  <r_i_glide_ligand_efficiency>  (294) 
-0.084848

>  <r_i_glide_ligand_efficiency_sa>  (294) 
-0.287738

>  <r_i_glide_ligand_efficiency_ln>  (294) 
-0.709559

>  <r_i_glide_gscore>  (294) 
-3.30907

>  <r_i_glide_lipo>  (294) 
-0.216129

>  <r_i_glide_hbond>  (294) 
0

>  <r_i_glide_metal>  (294) 
-0

>  <r_i_glide_rewards>  (294) 
-0.545456

>  <r_i_glide_evdw>  (294) 
-24.4677

>  <r_i_glide_ecoul>  (294) 
-9.07207

>  <r_i_glide_erotb>  (294) 
0.0628015

>  <r_i_glide_esite>  (294) 
-0.0260949

>  <r_i_glide_emodel>  (294) 
-45.8523

>  <r_i_glide_energy>  (294) 
-33.5398

>  <r_i_glide_einternal>  (294) 
3.78067

>  <r_i_glide_intrahb_reward>  (294) 
-0.5

>  <i_i_glide_confnum>  (294) 
3

>  <i_i_glide_posenum>  (294) 
3

>  <r_i_glide_eff_state_penalty>  (294) 
0

>  <ligand_id>  (294) 
86

>  <original_smiles>  (294) 
CCN1CC2(O)CC(O)C3C(OC)C4C(OC)C5(C(O)C(CN6CCOC6=O)C6C(O)C7C2OC5C64C7O)C31

>  <smiles>  (294) 
[H]OC1([H])C2([H])C3([H])OC4([H])C5(C2([H])O[H])C2([H])C([H])(OC([H])([H])[H])C6([H])C([H])(O[H])C([H])([H])C3(O[H])C([H])([H])[N+]([H])(C([H])([H])C([H])([H])[H])C6([H])C4(C([H])(O[H])C([H])(C([H])([H])N3C(=O)OC([H])([H])C3([H])[H])C15[H])C2([H])OC([H])([H])[H]

$$$$
86:4:2
     RDKit          3D

 80 87  0  0  1  0  0  0  0  0999 V2000
    6.1171   -9.9082    1.1311 C   0  0  0  0  0  0  0  0  0  0  0  0
    4.6511   -9.4889    1.3372 C   0  0  0  0  0  0  0  0  0  0  0  0
    4.0931   -9.9220    2.6501 N   0  0  2  0  0  0  0  0  0  0  0  0
    2.7339  -10.6273    2.4980 C   0  0  0  0  0  0  0  0  0  0  0  0
    1.6402  -10.6675    3.6510 C   0  0  1  0  0  0  0  0  0  0  0  0
    0.6965  -11.6121    3.2024 O   0  0  0  0  0  0  0  0  0  0  0  0
    2.2040  -11.3624    4.9192 C   0  0  0  0  0  0  0  0  0  0  0  0
    3.7287  -11.2934    5.1791 C   0  0  1  0  0  0  0  0  0  0  0  0
    4.4475  -12.1683    4.3267 O   0  0  0  0  0  0  0  0  0  0  0  0
    4.3925   -9.8906    5.2302 C   0  0  2  0  0  0  0  0  0  0  0  0
    3.8675   -9.1486    6.5393 C   0  0  1  0  0  0  0  0  0  0  0  0
    4.8815   -9.1318    7.5468 O   0  0  0  0  0  0  0  0  0  0  0  0
    5.1169  -10.3745    8.2069 C   0  0  0  0  0  0  0  0  0  0  0  0
    3.3613   -7.6845    6.3265 C   0  0  1  0  0  0  0  0  0  0  0  0
    4.3893   -7.0553    5.4371 C   0  0  1  0  0  0  0  0  0  0  0  0
    5.7593   -7.3001    5.7595 O   0  0  0  0  0  0  0  0  0  0  0  0
    6.6939   -6.5327    5.0086 C   0  0  0  0  0  0  0  0  0  0  0  0
    3.9131   -7.6038    4.0577 C   0  0  2  0  0  0  0  0  0  0  0  0
    3.7758   -6.2282    3.2862 C   0  0  1  0  0  0  0  0  0  0  0  0
    3.6960   -6.4441    1.9031 O   0  0  0  0  0  0  0  0  0  0  0  0
    2.4745   -5.4180    3.8732 C   0  0  1  0  0  0  0  0  0  0  0  0
    1.7779   -4.5315    2.7995 C   0  0  0  0  0  0  0  0  0  0  0  0
    2.6648   -3.5213    2.2047 N   0  0  0  0  0  0  0  0  0  0  0  0
    3.1156   -3.5505    0.8276 C   0  0  0  0  0  0  0  0  0  0  0  0
    3.9433   -2.2741    0.7191 C   0  0  0  0  0  0  0  0  0  0  0  0
    3.8628   -1.7114    2.0207 O   0  0  0  0  0  0  0  0  0  0  0  0
    3.1002   -2.3959    2.8759 C   0  0  0  0  0  0  0  0  0  0  0  0
    2.8597   -2.0663    4.0347 O   0  0  0  0  0  0  0  0  0  0  0  0
    1.4504   -6.2393    4.8785 C   0  0  1  0  0  0  0  0  0  0  0  0
    0.0369   -6.8804    4.4134 C   0  0  1  0  0  0  0  0  0  0  0  0
   -0.3944   -6.6698    3.0777 O   0  0  0  0  0  0  0  0  0  0  0  0
    0.0223   -8.4466    4.7820 C   0  0  1  0  0  0  0  0  0  0  0  0
    0.7045   -9.3591    3.6470 C   0  0  1  0  0  0  0  0  0  0  0  0
    1.6651   -8.5242    3.1500 O   0  0  0  0  0  0  0  0  0  0  0  0
    2.5302   -8.1156    4.1696 C   0  0  1  0  0  0  0  0  0  0  0  0
    2.0446   -7.5668    5.4715 C   0  0  1  0  0  0  0  0  0  0  0  0
    0.8792   -8.3795    6.0242 C   0  0  1  0  0  0  0  0  0  0  0  0
    0.2472   -7.7131    7.1024 O   0  0  0  0  0  0  0  0  0  0  0  0
    4.5078   -9.0641    3.8493 C   0  0  2  0  0  0  0  0  0  0  0  0
    6.4724   -9.4692    0.1985 H   0  0  0  0  0  0  0  0  0  0  0  0
    6.2185  -10.9938    1.0529 H   0  0  0  0  0  0  0  0  0  0  0  0
    6.7733   -9.5375    1.9169 H   0  0  0  0  0  0  0  0  0  0  0  0
    4.6022   -8.4259    1.2098 H   0  0  0  0  0  0  0  0  0  0  0  0
    4.0690   -9.8649    0.4942 H   0  0  0  0  0  0  0  0  0  0  0  0
    2.2287  -10.2453    1.6113 H   0  0  0  0  0  0  0  0  0  0  0  0
    2.9950  -11.6552    2.2530 H   0  0  0  0  0  0  0  0  0  0  0  0
    0.0224  -11.6861    3.8621 H   0  0  0  0  0  0  0  0  0  0  0  0
    1.6450  -11.1040    5.8007 H   0  0  0  0  0  0  0  0  0  0  0  0
    2.0046  -12.4330    4.8601 H   0  0  0  0  0  0  0  0  0  0  0  0
    3.8344  -11.7627    6.1588 H   0  0  0  0  0  0  0  0  0  0  0  0
    4.0645  -13.0338    4.4032 H   0  0  0  0  0  0  0  0  0  0  0  0
    5.4381  -10.1075    5.4514 H   0  0  0  0  0  0  0  0  0  0  0  0
    3.0507   -9.7045    6.9921 H   0  0  0  0  0  0  0  0  0  0  0  0
    5.9239  -10.2602    8.9300 H   0  0  0  0  0  0  0  0  0  0  0  0
    5.4310  -11.1643    7.5278 H   0  0  0  0  0  0  0  0  0  0  0  0
    4.2294  -10.7089    8.7470 H   0  0  0  0  0  0  0  0  0  0  0  0
    3.2651   -7.1656    7.2846 H   0  0  0  0  0  0  0  0  0  0  0  0
    4.2562   -5.9870    5.5729 H   0  0  0  0  0  0  0  0  0  0  0  0
    7.7028   -6.7669    5.3414 H   0  0  0  0  0  0  0  0  0  0  0  0
    6.5423   -5.4579    5.1364 H   0  0  0  0  0  0  0  0  0  0  0  0
    6.6428   -6.7679    3.9458 H   0  0  0  0  0  0  0  0  0  0  0  0
    4.6594   -5.6012    3.4319 H   0  0  0  0  0  0  0  0  0  0  0  0
    4.5406   -6.7591    1.6186 H   0  0  0  0  0  0  0  0  0  0  0  0
    2.9092   -4.6892    4.5595 H   0  0  0  0  0  0  0  0  0  0  0  0
    1.3926   -5.1470    1.9876 H   0  0  0  0  0  0  0  0  0  0  0  0
    0.9159   -4.0323    3.2415 H   0  0  0  0  0  0  0  0  0  0  0  0
    3.7682   -4.3939    0.6233 H   0  0  0  0  0  0  0  0  0  0  0  0
    2.2819   -3.5761    0.1234 H   0  0  0  0  0  0  0  0  0  0  0  0
    4.9801   -2.5002    0.4615 H   0  0  0  0  0  0  0  0  0  0  0  0
    3.5393   -1.5933   -0.0299 H   0  0  0  0  0  0  0  0  0  0  0  0
    1.2305   -5.5569    5.6976 H   0  0  0  0  0  0  0  0  0  0  0  0
   -0.7148   -6.3936    5.0325 H   0  0  0  0  0  0  0  0  0  0  0  0
    0.1780   -7.1859    2.5225 H   0  0  0  0  0  0  0  0  0  0  0  0
   -0.9829   -8.8036    5.0011 H   0  0  0  0  0  0  0  0  0  0  0  0
   -0.0224   -9.4396    2.8343 H   0  0  0  0  0  0  0  0  0  0  0  0
    2.1402   -7.5699    3.3218 H   0  0  0  0  0  0  0  0  0  0  0  0
    1.1065   -9.3496    6.4194 H   0  0  0  0  0  0  0  0  0  0  0  0
   -0.3536   -8.3095    7.4995 H   0  0  0  0  0  0  0  0  0  0  0  0
    5.5822   -8.9058    3.7134 H   0  0  0  0  0  0  0  0  0  0  0  0
    4.6225  -10.7617    2.8478 H   0  0  0  0  0  0  0  0  0  0  0  0
  1  2  1  0
  1 40  1  0
  1 41  1  0
  1 42  1  0
  2  3  1  0
  2 43  1  0
  2 44  1  0
  3 39  1  0
  3  4  1  0
  3 80  1  1
  4  5  1  0
  4 45  1  0
  4 46  1  0
  5 33  1  0
  5  6  1  6
  5  7  1  0
  6 47  1  0
  7  8  1  0
  7 48  1  0
  7 49  1  0
  8  9  1  0
  8 10  1  0
  8 50  1  1
  9 51  1  0
 10 39  1  0
 10 11  1  0
 10 52  1  1
 11 12  1  0
 11 14  1  0
 11 53  1  1
 12 13  1  0
 13 54  1  0
 13 55  1  0
 13 56  1  0
 14 36  1  0
 14 15  1  0
 14 57  1  1
 15 16  1  0
 15 18  1  0
 15 58  1  6
 16 17  1  0
 17 59  1  0
 17 60  1  0
 17 61  1  0
 18 35  1  0
 18 19  1  6
 18 39  1  0
 19 20  1  0
 19 21  1  0
 19 62  1  6
 20 63  1  0
 21 22  1  0
 21 29  1  0
 21 64  1  1
 22 23  1  0
 22 65  1  0
 22 66  1  0
 23 27  1  0
 23 24  1  0
 24 25  1  0
 24 67  1  0
 24 68  1  0
 25 26  1  0
 25 69  1  0
 25 70  1  0
 26 27  1  0
 27 28  2  0
 29 36  1  0
 29 30  1  0
 29 71  1  1
 30 31  1  0
 30 32  1  0
 30 72  1  1
 31 73  1  0
 32 37  1  0
 32 33  1  0
 32 74  1  1
 33 34  1  0
 33 75  1  6
 34 35  1  0
 35 36  1  0
 35 76  1  1
 36 37  1  1
 37 38  1  0
 37 77  1  1
 38 78  1  0
 39 79  1  6
M  CHG  1   3   1
M  END
>  <i_m_ct_stereo_status>  (295) 
1

>  <s_m_source_file>  (295) 
/var/tmp/pbs.5076255.sched01/tmpt7uccrld/92zpefy4ut.sdf

>  <i_m_source_file_index>  (295) 
34

>  <i_lp_mmshare_version>  (295) 
48012

>  <i_f3d_flags>  (295) 
0

>  <s_epik_input>  (295) 
W0NIM11PW0NAQEhdMVtDQEBIXShbQ0BdMjNbQ0BIXTRbQ0BdMTU2KVtDQEhdKE9bQ0gzXSlbQ0BASF03W0NASF02TihbQ0gyXVtDSDNdKVtDSDJdW0NAQF0oW09IXSkoW0NIMl1bQ0BIXTdbT0hdKVtDQEhdKE80KVtDQEBIXShbQ0BASF0zW09IXSlbQ0BIXShbT0hdKVtDSF0yW0NAQEhdKFtDQEBIXTVbT0hdKVtDSDJdTjhbQ0gyXVtDSDJdT0M4PU8=

>  <s_epik_cmdline>  (295) 
J2VwaWtfcHl0aG9uJywgJy1waHQnLCAnMi4wJywgJy1waCcsICc3LjAnLCAnLXRuJywgJzgnLCAnLW1hJywgJzIwMCcsICctaW1hZScsICc8aW5maWxlLm1hZT4nLCAnLW9tYWUnLCAnPG91dGZpbGUubWFlPic=

>  <r_epik_Ionization_Penalty>  (295) 
0.00210516

>  <r_epik_Ionization_Penalty_Charging>  (295) 
0.00210146

>  <r_epik_Ionization_Penalty_Neutral>  (295) 
3.70392e-06

>  <r_epik_State_Penalty>  (295) 
0.00144031

>  <r_epik_Charging_Adjusted_Penalty>  (295) 
0.00354177

>  <i_epik_Tot_Q>  (295) 
1

>  <i_epik_Tot_abs_Q>  (295) 
1

>  <s_epik_Chemistry_Notes>  (295) 
This compound has an ester and may undergo hydrolysis at high or low pH.

>  <s_lp_Force_Field>  (295) 
OPLS3e

>  <r_lp_Energy>  (295) 
265.858

>  <b_lp_Chiralities_Consistent>  (295) 
1

>  <s_lp_Variant>  (295) 
86:0-5

>  <s_i_glide_gridfile>  (295) 
pfpi4k_grid

>  <i_i_glide_lignum>  (295) 
34

>  <i_i_glide_rotatable_bonds>  (295) 
10

>  <r_i_docking_score>  (295) 
-3.17638

>  <r_i_glide_ligand_efficiency>  (295) 
-0.0814456

>  <r_i_glide_ligand_efficiency_sa>  (295) 
-0.276199

>  <r_i_glide_ligand_efficiency_ln>  (295) 
-0.681106

>  <r_i_glide_gscore>  (295) 
-3.17638

>  <r_i_glide_lipo>  (295) 
-0.075337

>  <r_i_glide_hbond>  (295) 
0

>  <r_i_glide_metal>  (295) 
-0

>  <r_i_glide_rewards>  (295) 
-1

>  <r_i_glide_evdw>  (295) 
-23.2895

>  <r_i_glide_ecoul>  (295) 
-6.28584

>  <r_i_glide_erotb>  (295) 
0.0628015

>  <r_i_glide_esite>  (295) 
-0.056493

>  <r_i_glide_emodel>  (295) 
-47.2242

>  <r_i_glide_energy>  (295) 
-29.5753

>  <r_i_glide_einternal>  (295) 
2.6945

>  <r_i_glide_intrahb_reward>  (295) 
-1

>  <i_i_glide_confnum>  (295) 
3

>  <i_i_glide_posenum>  (295) 
33

>  <r_i_glide_eff_state_penalty>  (295) 
0

>  <ligand_id>  (295) 
86

>  <original_smiles>  (295) 
CCN1CC2(O)CC(O)C3C(OC)C4C(OC)C5(C(O)C(CN6CCOC6=O)C6C(O)C7C2OC5C64C7O)C31

>  <smiles>  (295) 
[H]OC1([H])C2([H])C3([H])OC4([H])C5(C2([H])O[H])C2([H])C([H])(OC([H])([H])[H])C6([H])C([H])(O[H])C([H])([H])C3(O[H])C([H])([H])[N+]([H])(C([H])([H])C([H])([H])[H])C6([H])C4(C([H])(O[H])C([H])(C([H])([H])N3C(=O)OC([H])([H])C3([H])[H])C15[H])C2([H])OC([H])([H])[H]

$$$$
86:5:0
     RDKit          3D

 80 87  0  0  1  0  0  0  0  0999 V2000
    4.3361   -7.1197    0.5529 C   0  0  0  0  0  0  0  0  0  0  0  0
    4.3010   -8.5746    1.0770 C   0  0  0  0  0  0  0  0  0  0  0  0
    3.5070   -8.7193    2.3283 N   0  0  1  0  0  0  0  0  0  0  0  0
    2.6596  -10.0032    2.3077 C   0  0  0  0  0  0  0  0  0  0  0  0
    2.1105  -10.7165    3.6403 C   0  0  1  0  0  0  0  0  0  0  0  0
    1.3049  -11.8090    3.2269 O   0  0  0  0  0  0  0  0  0  0  0  0
    3.3073  -11.4256    4.3453 C   0  0  0  0  0  0  0  0  0  0  0  0
    4.7349  -10.8329    4.1324 C   0  0  1  0  0  0  0  0  0  0  0  0
    5.3237  -11.1546    2.8826 O   0  0  0  0  0  0  0  0  0  0  0  0
    4.9480   -9.3414    4.4959 C   0  0  2  0  0  0  0  0  0  0  0  0
    4.8191   -9.2036    6.0828 C   0  0  1  0  0  0  0  0  0  0  0  0
    6.1311   -9.0986    6.6461 O   0  0  0  0  0  0  0  0  0  0  0  0
    6.2496   -9.5909    7.9819 C   0  0  0  0  0  0  0  0  0  0  0  0
    3.9234   -8.0305    6.6055 C   0  0  1  0  0  0  0  0  0  0  0  0
    4.3201   -6.8624    5.7491 C   0  0  1  0  0  0  0  0  0  0  0  0
    5.7246   -6.6773    5.5443 O   0  0  0  0  0  0  0  0  0  0  0  0
    6.0843   -5.4632    4.8989 C   0  0  0  0  0  0  0  0  0  0  0  0
    3.4969   -7.1929    4.4735 C   0  0  2  0  0  0  0  0  0  0  0  0
    2.7010   -5.8500    4.3020 C   0  0  1  0  0  0  0  0  0  0  0  0
    2.1667   -5.7967    2.9849 O   0  0  0  0  0  0  0  0  0  0  0  0
    1.6024   -5.7376    5.5307 C   0  0  1  0  0  0  0  0  0  0  0  0
    0.3295   -4.9220    5.1502 C   0  0  0  0  0  0  0  0  0  0  0  0
    0.6072   -3.4866    4.9949 N   0  0  0  0  0  0  0  0  0  0  0  0
    1.1614   -2.9114    3.7903 C   0  0  0  0  0  0  0  0  0  0  0  0
    1.1739   -1.4161    4.1026 C   0  0  0  0  0  0  0  0  0  0  0  0
    0.6265   -1.3501    5.4122 O   0  0  0  0  0  0  0  0  0  0  0  0
    0.2702   -2.5272    5.9277 C   0  0  0  0  0  0  0  0  0  0  0  0
   -0.2725   -2.6823    7.0244 O   0  0  0  0  0  0  0  0  0  0  0  0
    1.3195   -7.0993    6.4304 C   0  0  1  0  0  0  0  0  0  0  0  0
    0.0735   -8.0895    6.1664 C   0  0  1  0  0  0  0  0  0  0  0  0
   -0.8188   -7.7003    5.1305 O   0  0  0  0  0  0  0  0  0  0  0  0
    0.5896   -9.5870    5.9256 C   0  0  1  0  0  0  0  0  0  0  0  0
    0.9700   -9.8704    4.3877 C   0  0  1  0  0  0  0  0  0  0  0  0
    1.4414   -8.6673    3.9589 O   0  0  0  0  0  0  0  0  0  0  0  0
    2.4540   -8.1905    4.7953 C   0  0  1  0  0  0  0  0  0  0  0  0
    2.4033   -8.2092    6.2877 C   0  0  1  0  0  0  0  0  0  0  0  0
    1.8102   -9.5192    6.8051 C   0  0  1  0  0  0  0  0  0  0  0  0
    1.5020   -9.4576    8.1841 O   0  0  0  0  0  0  0  0  0  0  0  0
    4.2787   -8.2143    3.5550 C   0  0  2  0  0  0  0  0  0  0  0  0
    4.9836   -7.0470   -0.3180 H   0  0  0  0  0  0  0  0  0  0  0  0
    4.7201   -6.4145    1.2928 H   0  0  0  0  0  0  0  0  0  0  0  0
    3.3513   -6.7642    0.2431 H   0  0  0  0  0  0  0  0  0  0  0  0
    3.8952   -9.1930    0.2758 H   0  0  0  0  0  0  0  0  0  0  0  0
    5.3157   -8.9429    1.2289 H   0  0  0  0  0  0  0  0  0  0  0  0
    1.7861   -9.7527    1.6994 H   0  0  0  0  0  0  0  0  0  0  0  0
    3.1583  -10.7535    1.7138 H   0  0  0  0  0  0  0  0  0  0  0  0
    1.7947  -12.6149    3.2634 H   0  0  0  0  0  0  0  0  0  0  0  0
    3.1118  -11.6493    5.3887 H   0  0  0  0  0  0  0  0  0  0  0  0
    3.4005  -12.4387    3.9497 H   0  0  0  0  0  0  0  0  0  0  0  0
    5.3765  -11.3943    4.8190 H   0  0  0  0  0  0  0  0  0  0  0  0
    4.6695  -11.4352    2.2486 H   0  0  0  0  0  0  0  0  0  0  0  0
    6.0124   -9.1991    4.3111 H   0  0  0  0  0  0  0  0  0  0  0  0
    4.4366  -10.1425    6.4739 H   0  0  0  0  0  0  0  0  0  0  0  0
    7.2221   -9.3202    8.3956 H   0  0  0  0  0  0  0  0  0  0  0  0
    6.1735  -10.6785    7.9875 H   0  0  0  0  0  0  0  0  0  0  0  0
    5.4915   -9.1967    8.6589 H   0  0  0  0  0  0  0  0  0  0  0  0
    4.0657   -7.8268    7.6680 H   0  0  0  0  0  0  0  0  0  0  0  0
    3.9943   -5.9813    6.2991 H   0  0  0  0  0  0  0  0  0  0  0  0
    7.1694   -5.4079    4.8233 H   0  0  0  0  0  0  0  0  0  0  0  0
    5.7449   -4.5869    5.4533 H   0  0  0  0  0  0  0  0  0  0  0  0
    5.6838   -5.4127    3.8862 H   0  0  0  0  0  0  0  0  0  0  0  0
    3.3787   -4.9973    4.3863 H   0  0  0  0  0  0  0  0  0  0  0  0
    2.8859   -5.6653    2.3837 H   0  0  0  0  0  0  0  0  0  0  0  0
    2.0750   -5.0921    6.2724 H   0  0  0  0  0  0  0  0  0  0  0  0
   -0.1242   -5.3080    4.2382 H   0  0  0  0  0  0  0  0  0  0  0  0
   -0.4265   -5.0637    5.9233 H   0  0  0  0  0  0  0  0  0  0  0  0
    2.1822   -3.2422    3.6307 H   0  0  0  0  0  0  0  0  0  0  0  0
    0.5680   -3.1419    2.9077 H   0  0  0  0  0  0  0  0  0  0  0  0
    2.1905   -1.0203    4.0862 H   0  0  0  0  0  0  0  0  0  0  0  0
    0.5690   -0.8458    3.3977 H   0  0  0  0  0  0  0  0  0  0  0  0
    1.2680   -6.7883    7.4733 H   0  0  0  0  0  0  0  0  0  0  0  0
   -0.4743   -8.1240    7.1053 H   0  0  0  0  0  0  0  0  0  0  0  0
   -1.4625   -8.3920    5.0465 H   0  0  0  0  0  0  0  0  0  0  0  0
   -0.1266  -10.3293    6.2826 H   0  0  0  0  0  0  0  0  0  0  0  0
    0.0229   -9.9964    3.8593 H   0  0  0  0  0  0  0  0  0  0  0  0
    1.6153   -7.6535    4.3676 H   0  0  0  0  0  0  0  0  0  0  0  0
    2.4207  -10.3907    6.7193 H   0  0  0  0  0  0  0  0  0  0  0  0
    1.3898  -10.3691    8.4642 H   0  0  0  0  0  0  0  0  0  0  0  0
    5.1181   -7.6281    3.1752 H   0  0  0  0  0  0  0  0  0  0  0  0
    2.7819   -8.0183    2.2395 H   0  0  0  0  0  0  0  0  0  0  0  0
  1  2  1  0
  1 40  1  0
  1 41  1  0
  1 42  1  0
  2  3  1  0
  2 43  1  0
  2 44  1  0
  3 39  1  0
  3  4  1  0
  3 80  1  6
  4  5  1  0
  4 45  1  0
  4 46  1  0
  5 33  1  0
  5  6  1  6
  5  7  1  0
  6 47  1  0
  7  8  1  0
  7 48  1  0
  7 49  1  0
  8  9  1  0
  8 10  1  0
  8 50  1  1
  9 51  1  0
 10 39  1  0
 10 11  1  0
 10 52  1  1
 11 12  1  0
 11 14  1  0
 11 53  1  1
 12 13  1  0
 13 54  1  0
 13 55  1  0
 13 56  1  0
 14 36  1  0
 14 15  1  0
 14 57  1  1
 15 16  1  0
 15 18  1  0
 15 58  1  1
 16 17  1  0
 17 59  1  0
 17 60  1  0
 17 61  1  0
 18 35  1  0
 18 19  1  6
 18 39  1  0
 19 20  1  0
 19 21  1  0
 19 62  1  6
 20 63  1  0
 21 22  1  0
 21 29  1  0
 21 64  1  1
 22 23  1  0
 22 65  1  0
 22 66  1  0
 23 27  1  0
 23 24  1  0
 24 25  1  0
 24 67  1  0
 24 68  1  0
 25 26  1  0
 25 69  1  0
 25 70  1  0
 26 27  1  0
 27 28  2  0
 29 36  1  0
 29 30  1  0
 29 71  1  1
 30 31  1  0
 30 32  1  0
 30 72  1  1
 31 73  1  0
 32 37  1  0
 32 33  1  0
 32 74  1  1
 33 34  1  0
 33 75  1  6
 34 35  1  0
 35 36  1  0
 35 76  1  1
 36 37  1  6
 37 38  1  0
 37 77  1  1
 38 78  1  0
 39 79  1  6
M  CHG  1   3   1
M  END
>  <i_m_ct_stereo_status>  (296) 
1

>  <s_m_source_file>  (296) 
/var/tmp/pbs.5076255.sched01/tmpt7uccrld/92zpefy4ut.sdf

>  <i_m_source_file_index>  (296) 
35

>  <i_lp_mmshare_version>  (296) 
48012

>  <i_f3d_flags>  (296) 
0

>  <s_epik_input>  (296) 
W0NIM11PW0NAQEhdMVtDQEBIXShbQ0BdMjNbQ0BIXTRbQ0BdMTU2KVtDQEhdKE9bQ0gzXSlbQ0BASF03W0NASF02TihbQ0gyXVtDSDNdKVtDSDJdW0NAQF0oW09IXSkoW0NIMl1bQ0BIXTdbT0hdKVtDQEhdKE80KVtDQEBIXShbQ0BASF0zW09IXSlbQ0BIXShbT0hdKVtDSF0yW0NAQEhdKFtDQEBIXTVbT0hdKVtDSDJdTjhbQ0gyXVtDSDJdT0M4PU8=

>  <s_epik_cmdline>  (296) 
J2VwaWtfcHl0aG9uJywgJy1waHQnLCAnMi4wJywgJy1waCcsICc3LjAnLCAnLXRuJywgJzgnLCAnLW1hJywgJzIwMCcsICctaW1hZScsICc8aW5maWxlLm1hZT4nLCAnLW9tYWUnLCAnPG91dGZpbGUubWFlPic=

>  <r_epik_Ionization_Penalty>  (296) 
0.00210516

>  <r_epik_Ionization_Penalty_Charging>  (296) 
0.00210146

>  <r_epik_Ionization_Penalty_Neutral>  (296) 
3.70392e-06

>  <r_epik_State_Penalty>  (296) 
0.00144031

>  <r_epik_Charging_Adjusted_Penalty>  (296) 
0.00354177

>  <i_epik_Tot_Q>  (296) 
1

>  <i_epik_Tot_abs_Q>  (296) 
1

>  <s_epik_Chemistry_Notes>  (296) 
This compound has an ester and may undergo hydrolysis at high or low pH.

>  <s_lp_Force_Field>  (296) 
OPLS3e

>  <r_lp_Energy>  (296) 
265.395

>  <b_lp_Chiralities_Consistent>  (296) 
1

>  <s_lp_Variant>  (296) 
86:0-6

>  <s_i_glide_gridfile>  (296) 
pfpi4k_grid

>  <i_i_glide_lignum>  (296) 
35

>  <i_i_glide_rotatable_bonds>  (296) 
10

>  <r_i_docking_score>  (296) 
-3.42847

>  <r_i_glide_ligand_efficiency>  (296) 
-0.0879095

>  <r_i_glide_ligand_efficiency_sa>  (296) 
-0.29812

>  <r_i_glide_ligand_efficiency_ln>  (296) 
-0.735161

>  <r_i_glide_gscore>  (296) 
-3.42847

>  <r_i_glide_lipo>  (296) 
-0.218167

>  <r_i_glide_hbond>  (296) 
-0.210877

>  <r_i_glide_metal>  (296) 
-0

>  <r_i_glide_rewards>  (296) 
-0.000827237

>  <r_i_glide_evdw>  (296) 
-18.9636

>  <r_i_glide_ecoul>  (296) 
-13.8961

>  <r_i_glide_erotb>  (296) 
0.0628015

>  <r_i_glide_esite>  (296) 
-0.0288133

>  <r_i_glide_emodel>  (296) 
-37.4974

>  <r_i_glide_energy>  (296) 
-32.8596

>  <r_i_glide_einternal>  (296) 
7.91627

>  <r_i_glide_intrahb_reward>  (296) 
-0

>  <i_i_glide_confnum>  (296) 
1

>  <i_i_glide_posenum>  (296) 
23

>  <r_i_glide_eff_state_penalty>  (296) 
0

>  <ligand_id>  (296) 
86

>  <original_smiles>  (296) 
CCN1CC2(O)CC(O)C3C(OC)C4C(OC)C5(C(O)C(CN6CCOC6=O)C6C(O)C7C2OC5C64C7O)C31

>  <smiles>  (296) 
[H]OC1([H])C2([H])C3([H])OC4([H])C5(C2([H])O[H])C2([H])C([H])(OC([H])([H])[H])C6([H])C([H])(O[H])C([H])([H])C3(O[H])C([H])([H])[N+]([H])(C([H])([H])C([H])([H])[H])C6([H])C4(C([H])(O[H])C([H])(C([H])([H])N3C(=O)OC([H])([H])C3([H])[H])C15[H])C2([H])OC([H])([H])[H]

$$$$
86:5:1
     RDKit          3D

 80 87  0  0  1  0  0  0  0  0999 V2000
    4.7315   -6.4007    0.8307 C   0  0  0  0  0  0  0  0  0  0  0  0
    4.9776   -7.8551    1.2821 C   0  0  0  0  0  0  0  0  0  0  0  0
    4.1570   -8.2438    2.4499 N   0  0  1  0  0  0  0  0  0  0  0  0
    3.5777   -9.6508    2.2653 C   0  0  0  0  0  0  0  0  0  0  0  0
    3.0960  -10.5545    3.5023 C   0  0  1  0  0  0  0  0  0  0  0  0
    2.5704  -11.7193    2.9206 O   0  0  0  0  0  0  0  0  0  0  0  0
    4.3549  -11.1085    4.2318 C   0  0  0  0  0  0  0  0  0  0  0  0
    5.6597  -10.2567    4.1722 C   0  0  1  0  0  0  0  0  0  0  0  0
    6.3681  -10.3724    2.9444 O   0  0  0  0  0  0  0  0  0  0  0  0
    5.5659   -8.7917    4.6542 C   0  0  2  0  0  0  0  0  0  0  0  0
    5.3299   -8.8173    6.2356 C   0  0  1  0  0  0  0  0  0  0  0  0
    6.5164   -8.4570    6.9470 O   0  0  0  0  0  0  0  0  0  0  0  0
    7.5614   -9.4176    6.9802 C   0  0  0  0  0  0  0  0  0  0  0  0
    4.1949   -7.8869    6.7785 C   0  0  1  0  0  0  0  0  0  0  0  0
    4.4082   -6.5899    6.0491 C   0  0  1  0  0  0  0  0  0  0  0  0
    5.7609   -6.1331    5.9598 O   0  0  0  0  0  0  0  0  0  0  0  0
    5.9198   -4.8133    5.4648 C   0  0  0  0  0  0  0  0  0  0  0  0
    3.7342   -6.9568    4.6966 C   0  0  2  0  0  0  0  0  0  0  0  0
    2.7171   -5.7695    4.5705 C   0  0  1  0  0  0  0  0  0  0  0  0
    2.2606   -5.6998    3.2255 O   0  0  0  0  0  0  0  0  0  0  0  0
    1.5496   -5.9609    5.7243 C   0  0  1  0  0  0  0  0  0  0  0  0
    0.1749   -5.3557    5.3173 C   0  0  0  0  0  0  0  0  0  0  0  0
    0.2045   -3.8874    5.3231 N   0  0  0  0  0  0  0  0  0  0  0  0
    0.6990   -3.1037    4.2126 C   0  0  0  0  0  0  0  0  0  0  0  0
    0.3885   -1.6715    4.6473 C   0  0  0  0  0  0  0  0  0  0  0  0
   -0.2539   -1.8410    5.9047 O   0  0  0  0  0  0  0  0  0  0  0  0
   -0.3862   -3.1048    6.2966 C   0  0  0  0  0  0  0  0  0  0  0  0
   -0.9584   -3.4690    7.3239 O   0  0  0  0  0  0  0  0  0  0  0  0
    1.4599   -7.4220    6.4982 C   0  0  1  0  0  0  0  0  0  0  0  0
    0.4204   -8.5896    6.0853 C   0  0  1  0  0  0  0  0  0  0  0  0
   -0.5580   -8.2879    5.0996 O   0  0  0  0  0  0  0  0  0  0  0  0
    1.2331   -9.9375    5.7483 C   0  0  1  0  0  0  0  0  0  0  0  0
    1.7578  -10.0121    4.2239 C   0  0  1  0  0  0  0  0  0  0  0  0
    2.0142   -8.7108    3.9233 O   0  0  0  0  0  0  0  0  0  0  0  0
    2.8659   -8.1433    4.8678 C   0  0  1  0  0  0  0  0  0  0  0  0
    2.7443   -8.3045    6.3485 C   0  0  1  0  0  0  0  0  0  0  0  0
    2.3745   -9.7349    6.7164 C   0  0  1  0  0  0  0  0  0  0  0  0
    1.9823   -9.8346    8.0676 O   0  0  0  0  0  0  0  0  0  0  0  0
    4.7458   -7.7293    3.7560 C   0  0  2  0  0  0  0  0  0  0  0  0
    5.4130   -6.1367    0.0178 H   0  0  0  0  0  0  0  0  0  0  0  0
    4.8900   -5.6792    1.6347 H   0  0  0  0  0  0  0  0  0  0  0  0
    3.7146   -6.2755    0.4498 H   0  0  0  0  0  0  0  0  0  0  0  0
    4.7667   -8.4781    0.4087 H   0  0  0  0  0  0  0  0  0  0  0  0
    6.0406   -8.0088    1.4923 H   0  0  0  0  0  0  0  0  0  0  0  0
    2.7049   -9.5197    1.6180 H   0  0  0  0  0  0  0  0  0  0  0  0
    4.2471  -10.2486    1.6530 H   0  0  0  0  0  0  0  0  0  0  0  0
    3.1652  -12.0535    2.2694 H   0  0  0  0  0  0  0  0  0  0  0  0
    4.1413  -11.4482    5.2413 H   0  0  0  0  0  0  0  0  0  0  0  0
    4.6532  -12.0536    3.7726 H   0  0  0  0  0  0  0  0  0  0  0  0
    6.3461  -10.7630    4.8574 H   0  0  0  0  0  0  0  0  0  0  0  0
    5.7712  -10.3710    2.2227 H   0  0  0  0  0  0  0  0  0  0  0  0
    6.5873   -8.4313    4.5467 H   0  0  0  0  0  0  0  0  0  0  0  0
    5.1111   -9.8296    6.5709 H   0  0  0  0  0  0  0  0  0  0  0  0
    8.3482   -9.0598    7.6438 H   0  0  0  0  0  0  0  0  0  0  0  0
    8.0077   -9.5657    5.9977 H   0  0  0  0  0  0  0  0  0  0  0  0
    7.2171  -10.3773    7.3651 H   0  0  0  0  0  0  0  0  0  0  0  0
    4.2662   -7.7787    7.8634 H   0  0  0  0  0  0  0  0  0  0  0  0
    3.8917   -5.8421    6.6489 H   0  0  0  0  0  0  0  0  0  0  0  0
    6.9786   -4.5588    5.4790 H   0  0  0  0  0  0  0  0  0  0  0  0
    5.3928   -4.0799    6.0775 H   0  0  0  0  0  0  0  0  0  0  0  0
    5.5732   -4.7285    4.4339 H   0  0  0  0  0  0  0  0  0  0  0  0
    3.2177   -4.8197    4.7666 H   0  0  0  0  0  0  0  0  0  0  0  0
    2.9657   -5.3781    2.6945 H   0  0  0  0  0  0  0  0  0  0  0  0
    1.8515   -5.3099    6.5487 H   0  0  0  0  0  0  0  0  0  0  0  0
   -0.1447   -5.7221    4.3400 H   0  0  0  0  0  0  0  0  0  0  0  0
   -0.5885   -5.7085    6.0131 H   0  0  0  0  0  0  0  0  0  0  0  0
    1.7750   -3.2189    4.0972 H   0  0  0  0  0  0  0  0  0  0  0  0
    0.2187   -3.3647    3.2834 H   0  0  0  0  0  0  0  0  0  0  0  0
    1.3056   -1.0903    4.7556 H   0  0  0  0  0  0  0  0  0  0  0  0
   -0.2660   -1.1554    3.9444 H   0  0  0  0  0  0  0  0  0  0  0  0
    1.2975   -7.2150    7.5578 H   0  0  0  0  0  0  0  0  0  0  0  0
   -0.1670   -8.7958    6.9789 H   0  0  0  0  0  0  0  0  0  0  0  0
   -1.1179   -9.0496    5.0045 H   0  0  0  0  0  0  0  0  0  0  0  0
    0.6520  -10.8281    5.9895 H   0  0  0  0  0  0  0  0  0  0  0  0
    0.8941  -10.2718    3.6148 H   0  0  0  0  0  0  0  0  0  0  0  0
    1.9659   -7.7312    4.4305 H   0  0  0  0  0  0  0  0  0  0  0  0
    3.1352  -10.4803    6.6208 H   0  0  0  0  0  0  0  0  0  0  0  0
    1.7545  -10.7642    8.1924 H   0  0  0  0  0  0  0  0  0  0  0  0
    5.4792   -6.9570    3.4919 H   0  0  0  0  0  0  0  0  0  0  0  0
    3.3149   -7.6886    2.3670 H   0  0  0  0  0  0  0  0  0  0  0  0
  1  2  1  0
  1 40  1  0
  1 41  1  0
  1 42  1  0
  2  3  1  0
  2 43  1  0
  2 44  1  0
  3 39  1  0
  3  4  1  0
  3 80  1  6
  4  5  1  0
  4 45  1  0
  4 46  1  0
  5 33  1  0
  5  6  1  6
  5  7  1  0
  6 47  1  0
  7  8  1  0
  7 48  1  0
  7 49  1  0
  8  9  1  0
  8 10  1  0
  8 50  1  1
  9 51  1  0
 10 39  1  0
 10 11  1  0
 10 52  1  1
 11 12  1  0
 11 14  1  0
 11 53  1  1
 12 13  1  0
 13 54  1  0
 13 55  1  0
 13 56  1  0
 14 36  1  0
 14 15  1  0
 14 57  1  1
 15 16  1  0
 15 18  1  0
 15 58  1  1
 16 17  1  0
 17 59  1  0
 17 60  1  0
 17 61  1  0
 18 35  1  0
 18 19  1  6
 18 39  1  0
 19 20  1  0
 19 21  1  0
 19 62  1  1
 20 63  1  0
 21 22  1  0
 21 29  1  0
 21 64  1  1
 22 23  1  0
 22 65  1  0
 22 66  1  0
 23 27  1  0
 23 24  1  0
 24 25  1  0
 24 67  1  0
 24 68  1  0
 25 26  1  0
 25 69  1  0
 25 70  1  0
 26 27  1  0
 27 28  2  0
 29 36  1  0
 29 30  1  0
 29 71  1  1
 30 31  1  0
 30 32  1  0
 30 72  1  1
 31 73  1  0
 32 37  1  0
 32 33  1  0
 32 74  1  1
 33 34  1  0
 33 75  1  6
 34 35  1  0
 35 36  1  0
 35 76  1  6
 36 37  1  6
 37 38  1  0
 37 77  1  6
 38 78  1  0
 39 79  1  6
M  CHG  1   3   1
M  END
>  <i_m_ct_stereo_status>  (297) 
1

>  <s_m_source_file>  (297) 
/var/tmp/pbs.5076255.sched01/tmpt7uccrld/92zpefy4ut.sdf

>  <i_m_source_file_index>  (297) 
35

>  <i_lp_mmshare_version>  (297) 
48012

>  <i_f3d_flags>  (297) 
0

>  <s_epik_input>  (297) 
W0NIM11PW0NAQEhdMVtDQEBIXShbQ0BdMjNbQ0BIXTRbQ0BdMTU2KVtDQEhdKE9bQ0gzXSlbQ0BASF03W0NASF02TihbQ0gyXVtDSDNdKVtDSDJdW0NAQF0oW09IXSkoW0NIMl1bQ0BIXTdbT0hdKVtDQEhdKE80KVtDQEBIXShbQ0BASF0zW09IXSlbQ0BIXShbT0hdKVtDSF0yW0NAQEhdKFtDQEBIXTVbT0hdKVtDSDJdTjhbQ0gyXVtDSDJdT0M4PU8=

>  <s_epik_cmdline>  (297) 
J2VwaWtfcHl0aG9uJywgJy1waHQnLCAnMi4wJywgJy1waCcsICc3LjAnLCAnLXRuJywgJzgnLCAnLW1hJywgJzIwMCcsICctaW1hZScsICc8aW5maWxlLm1hZT4nLCAnLW9tYWUnLCAnPG91dGZpbGUubWFlPic=

>  <r_epik_Ionization_Penalty>  (297) 
0.00210516

>  <r_epik_Ionization_Penalty_Charging>  (297) 
0.00210146

>  <r_epik_Ionization_Penalty_Neutral>  (297) 
3.70392e-06

>  <r_epik_State_Penalty>  (297) 
0.00144031

>  <r_epik_Charging_Adjusted_Penalty>  (297) 
0.00354177

>  <i_epik_Tot_Q>  (297) 
1

>  <i_epik_Tot_abs_Q>  (297) 
1

>  <s_epik_Chemistry_Notes>  (297) 
This compound has an ester and may undergo hydrolysis at high or low pH.

>  <s_lp_Force_Field>  (297) 
OPLS3e

>  <r_lp_Energy>  (297) 
265.395

>  <b_lp_Chiralities_Consistent>  (297) 
1

>  <s_lp_Variant>  (297) 
86:0-6

>  <s_i_glide_gridfile>  (297) 
pfpi4k_grid

>  <i_i_glide_lignum>  (297) 
35

>  <i_i_glide_rotatable_bonds>  (297) 
10

>  <r_i_docking_score>  (297) 
-3.30627

>  <r_i_glide_ligand_efficiency>  (297) 
-0.0847761

>  <r_i_glide_ligand_efficiency_sa>  (297) 
-0.287494

>  <r_i_glide_ligand_efficiency_ln>  (297) 
-0.708958

>  <r_i_glide_gscore>  (297) 
-3.30627

>  <r_i_glide_lipo>  (297) 
-0.217265

>  <r_i_glide_hbond>  (297) 
-0.154508

>  <r_i_glide_metal>  (297) 
-0

>  <r_i_glide_rewards>  (297) 
0

>  <r_i_glide_evdw>  (297) 
-19.9346

>  <r_i_glide_ecoul>  (297) 
-13.1095

>  <r_i_glide_erotb>  (297) 
0.0628015

>  <r_i_glide_esite>  (297) 
-0.0341455

>  <r_i_glide_emodel>  (297) 
-39.5495

>  <r_i_glide_energy>  (297) 
-33.0441

>  <r_i_glide_einternal>  (297) 
4.44883

>  <r_i_glide_intrahb_reward>  (297) 
-0

>  <i_i_glide_confnum>  (297) 
1

>  <i_i_glide_posenum>  (297) 
36

>  <r_i_glide_eff_state_penalty>  (297) 
0

>  <ligand_id>  (297) 
86

>  <original_smiles>  (297) 
CCN1CC2(O)CC(O)C3C(OC)C4C(OC)C5(C(O)C(CN6CCOC6=O)C6C(O)C7C2OC5C64C7O)C31

>  <smiles>  (297) 
[H]OC1([H])C2([H])C3([H])OC4([H])C5(C2([H])O[H])C2([H])C([H])(OC([H])([H])[H])C6([H])C([H])(O[H])C([H])([H])C3(O[H])C([H])([H])[N+]([H])(C([H])([H])C([H])([H])[H])C6([H])C4(C([H])(O[H])C([H])(C([H])([H])N3C(=O)OC([H])([H])C3([H])[H])C15[H])C2([H])OC([H])([H])[H]

$$$$
86:5:2
     RDKit          3D

 80 87  0  0  1  0  0  0  0  0999 V2000
    3.7181   -0.5914    0.5085 C   0  0  0  0  0  0  0  0  0  0  0  0
    3.8967   -1.9930    1.1039 C   0  0  0  0  0  0  0  0  0  0  0  0
    3.1549   -2.1841    2.3803 N   0  0  1  0  0  0  0  0  0  0  0  0
    2.6181   -3.6145    2.4642 C   0  0  0  0  0  0  0  0  0  0  0  0
    2.2109   -4.3063    3.8441 C   0  0  1  0  0  0  0  0  0  0  0  0
    1.6543   -5.5500    3.4494 O   0  0  0  0  0  0  0  0  0  0  0  0
    3.5193   -4.7255    4.5881 C   0  0  0  0  0  0  0  0  0  0  0  0
    4.7984   -3.8793    4.3080 C   0  0  1  0  0  0  0  0  0  0  0  0
    5.4241   -4.2106    3.0782 O   0  0  0  0  0  0  0  0  0  0  0  0
    4.7102   -2.3622    4.5433 C   0  0  2  0  0  0  0  0  0  0  0  0
    4.5663   -2.1234    6.1176 C   0  0  1  0  0  0  0  0  0  0  0  0
    5.7946   -1.6461    6.6628 O   0  0  0  0  0  0  0  0  0  0  0  0
    6.7906   -2.6070    6.9727 C   0  0  0  0  0  0  0  0  0  0  0  0
    3.4541   -1.1265    6.5800 C   0  0  1  0  0  0  0  0  0  0  0  0
    3.5874    0.0346    5.6353 C   0  0  1  0  0  0  0  0  0  0  0  0
    4.8980    0.5403    5.3398 O   0  0  0  0  0  0  0  0  0  0  0  0
    5.5067    1.2683    6.4080 C   0  0  0  0  0  0  0  0  0  0  0  0
    2.8589   -0.5711    4.4012 C   0  0  2  0  0  0  0  0  0  0  0  0
    1.8056    0.5624    4.1187 C   0  0  1  0  0  0  0  0  0  0  0  0
    1.2845    0.3108    2.8229 O   0  0  0  0  0  0  0  0  0  0  0  0
    0.6998    0.5629    5.3575 C   0  0  1  0  0  0  0  0  0  0  0  0
   -0.7131    1.0729    4.9423 C   0  0  0  0  0  0  0  0  0  0  0  0
   -0.7092    2.4827    4.5511 N   0  0  0  0  0  0  0  0  0  0  0  0
   -0.4923    2.9264    3.1924 C   0  0  0  0  0  0  0  0  0  0  0  0
   -0.6727    4.4279    3.2856 C   0  0  0  0  0  0  0  0  0  0  0  0
   -0.9976    4.6381    4.6504 O   0  0  0  0  0  0  0  0  0  0  0  0
   -1.0489    3.5251    5.3856 C   0  0  0  0  0  0  0  0  0  0  0  0
   -1.3514    3.4634    6.5795 O   0  0  0  0  0  0  0  0  0  0  0  0
    0.7039   -0.7414    6.3883 C   0  0  1  0  0  0  0  0  0  0  0  0
   -0.3234   -1.9804    6.2551 C   0  0  1  0  0  0  0  0  0  0  0  0
   -1.3712   -1.8365    5.3231 O   0  0  0  0  0  0  0  0  0  0  0  0
    0.4918   -3.3573    6.0887 C   0  0  1  0  0  0  0  0  0  0  0  0
    0.9130   -3.6798    4.5674 C   0  0  1  0  0  0  0  0  0  0  0  0
    1.1149   -2.4431    4.0359 O   0  0  0  0  0  0  0  0  0  0  0  0
    2.0218   -1.7173    4.8208 C   0  0  1  0  0  0  0  0  0  0  0  0
    1.9924   -1.6254    6.3103 C   0  0  1  0  0  0  0  0  0  0  0  0
    1.6831   -2.9789    6.9349 C   0  0  1  0  0  0  0  0  0  0  0  0
    1.3530   -2.8298    8.2963 O   0  0  0  0  0  0  0  0  0  0  0  0
    3.8256   -1.4592    3.5487 C   0  0  2  0  0  0  0  0  0  0  0  0
    4.3331   -0.4817   -0.3924 H   0  0  0  0  0  0  0  0  0  0  0  0
    4.0065    0.2206    1.1761 H   0  0  0  0  0  0  0  0  0  0  0  0
    2.6800   -0.4217    0.2126 H   0  0  0  0  0  0  0  0  0  0  0  0
    3.5488   -2.6796    0.3372 H   0  0  0  0  0  0  0  0  0  0  0  0
    4.9495   -2.2233    1.2376 H   0  0  0  0  0  0  0  0  0  0  0  0
    1.7181   -3.6035    1.8640 H   0  0  0  0  0  0  0  0  0  0  0  0
    3.2413   -4.3108    1.9129 H   0  0  0  0  0  0  0  0  0  0  0  0
    2.3393   -6.1208    3.1237 H   0  0  0  0  0  0  0  0  0  0  0  0
    3.3843   -4.9005    5.6490 H   0  0  0  0  0  0  0  0  0  0  0  0
    3.8070   -5.7301    4.2724 H   0  0  0  0  0  0  0  0  0  0  0  0
    5.5414   -4.2553    5.0151 H   0  0  0  0  0  0  0  0  0  0  0  0
    4.8823   -3.9545    2.3451 H   0  0  0  0  0  0  0  0  0  0  0  0
    5.7166   -2.0130    4.3212 H   0  0  0  0  0  0  0  0  0  0  0  0
    4.3841   -3.0673    6.6192 H   0  0  0  0  0  0  0  0  0  0  0  0
    7.6098   -2.1005    7.4847 H   0  0  0  0  0  0  0  0  0  0  0  0
    7.1922   -3.0694    6.0768 H   0  0  0  0  0  0  0  0  0  0  0  0
    6.4120   -3.3807    7.6408 H   0  0  0  0  0  0  0  0  0  0  0  0
    3.5874   -0.8378    7.6245 H   0  0  0  0  0  0  0  0  0  0  0  0
    3.0655    0.8701    6.0973 H   0  0  0  0  0  0  0  0  0  0  0  0
    6.5324    1.5236    6.1383 H   0  0  0  0  0  0  0  0  0  0  0  0
    5.5548    0.6998    7.3390 H   0  0  0  0  0  0  0  0  0  0  0  0
    4.9718    2.1951    6.6204 H   0  0  0  0  0  0  0  0  0  0  0  0
    2.2761    1.5450    4.0972 H   0  0  0  0  0  0  0  0  0  0  0  0
    1.8454    0.7513    2.1952 H   0  0  0  0  0  0  0  0  0  0  0  0
    1.0256    1.3583    6.0321 H   0  0  0  0  0  0  0  0  0  0  0  0
   -1.1297    0.4792    4.1216 H   0  0  0  0  0  0  0  0  0  0  0  0
   -1.4067    0.9285    5.7769 H   0  0  0  0  0  0  0  0  0  0  0  0
    0.5340    2.7649    2.8745 H   0  0  0  0  0  0  0  0  0  0  0  0
   -1.1808    2.4583    2.4820 H   0  0  0  0  0  0  0  0  0  0  0  0
    0.2527    4.9532    3.0276 H   0  0  0  0  0  0  0  0  0  0  0  0
   -1.4627    4.7951    2.6229 H   0  0  0  0  0  0  0  0  0  0  0  0
    0.5969   -0.3534    7.3975 H   0  0  0  0  0  0  0  0  0  0  0  0
   -0.8362   -2.0511    7.2075 H   0  0  0  0  0  0  0  0  0  0  0  0
   -0.9729   -1.7182    4.4696 H   0  0  0  0  0  0  0  0  0  0  0  0
   -0.0463   -4.2038    6.5175 H   0  0  0  0  0  0  0  0  0  0  0  0
    0.0105   -4.0524    4.0801 H   0  0  0  0  0  0  0  0  0  0  0  0
    1.0891   -1.3920    4.3865 H   0  0  0  0  0  0  0  0  0  0  0  0
    2.4531   -3.7272    6.9147 H   0  0  0  0  0  0  0  0  0  0  0  0
    2.1413   -2.6407    8.7856 H   0  0  0  0  0  0  0  0  0  0  0  0
    4.5247   -0.7442    3.1258 H   0  0  0  0  0  0  0  0  0  0  0  0
    2.3028   -1.6587    2.2438 H   0  0  0  0  0  0  0  0  0  0  0  0
  1  2  1  0
  1 40  1  0
  1 41  1  0
  1 42  1  0
  2  3  1  0
  2 43  1  0
  2 44  1  0
  3 39  1  0
  3  4  1  0
  3 80  1  6
  4  5  1  0
  4 45  1  0
  4 46  1  0
  5 33  1  0
  5  6  1  6
  5  7  1  0
  6 47  1  0
  7  8  1  0
  7 48  1  0
  7 49  1  0
  8  9  1  0
  8 10  1  0
  8 50  1  1
  9 51  1  0
 10 39  1  0
 10 11  1  0
 10 52  1  6
 11 12  1  0
 11 14  1  0
 11 53  1  1
 12 13  1  0
 13 54  1  0
 13 55  1  0
 13 56  1  0
 14 36  1  0
 14 15  1  0
 14 57  1  1
 15 16  1  0
 15 18  1  0
 15 58  1  1
 16 17  1  0
 17 59  1  0
 17 60  1  0
 17 61  1  0
 18 35  1  0
 18 19  1  6
 18 39  1  0
 19 20  1  0
 19 21  1  0
 19 62  1  6
 20 63  1  0
 21 22  1  0
 21 29  1  0
 21 64  1  1
 22 23  1  0
 22 65  1  0
 22 66  1  0
 23 27  1  0
 23 24  1  0
 24 25  1  0
 24 67  1  0
 24 68  1  0
 25 26  1  0
 25 69  1  0
 25 70  1  0
 26 27  1  0
 27 28  2  0
 29 36  1  0
 29 30  1  0
 29 71  1  1
 30 31  1  0
 30 32  1  0
 30 72  1  1
 31 73  1  0
 32 37  1  0
 32 33  1  0
 32 74  1  1
 33 34  1  0
 33 75  1  6
 34 35  1  0
 35 36  1  0
 35 76  1  1
 36 37  1  1
 37 38  1  0
 37 77  1  1
 38 78  1  0
 39 79  1  6
M  CHG  1   3   1
M  END
>  <i_m_ct_stereo_status>  (298) 
1

>  <s_m_source_file>  (298) 
/var/tmp/pbs.5076255.sched01/tmpt7uccrld/92zpefy4ut.sdf

>  <i_m_source_file_index>  (298) 
35

>  <i_lp_mmshare_version>  (298) 
48012

>  <i_f3d_flags>  (298) 
0

>  <s_epik_input>  (298) 
W0NIM11PW0NAQEhdMVtDQEBIXShbQ0BdMjNbQ0BIXTRbQ0BdMTU2KVtDQEhdKE9bQ0gzXSlbQ0BASF03W0NASF02TihbQ0gyXVtDSDNdKVtDSDJdW0NAQF0oW09IXSkoW0NIMl1bQ0BIXTdbT0hdKVtDQEhdKE80KVtDQEBIXShbQ0BASF0zW09IXSlbQ0BIXShbT0hdKVtDSF0yW0NAQEhdKFtDQEBIXTVbT0hdKVtDSDJdTjhbQ0gyXVtDSDJdT0M4PU8=

>  <s_epik_cmdline>  (298) 
J2VwaWtfcHl0aG9uJywgJy1waHQnLCAnMi4wJywgJy1waCcsICc3LjAnLCAnLXRuJywgJzgnLCAnLW1hJywgJzIwMCcsICctaW1hZScsICc8aW5maWxlLm1hZT4nLCAnLW9tYWUnLCAnPG91dGZpbGUubWFlPic=

>  <r_epik_Ionization_Penalty>  (298) 
0.00210516

>  <r_epik_Ionization_Penalty_Charging>  (298) 
0.00210146

>  <r_epik_Ionization_Penalty_Neutral>  (298) 
3.70392e-06

>  <r_epik_State_Penalty>  (298) 
0.00144031

>  <r_epik_Charging_Adjusted_Penalty>  (298) 
0.00354177

>  <i_epik_Tot_Q>  (298) 
1

>  <i_epik_Tot_abs_Q>  (298) 
1

>  <s_epik_Chemistry_Notes>  (298) 
This compound has an ester and may undergo hydrolysis at high or low pH.

>  <s_lp_Force_Field>  (298) 
OPLS3e

>  <r_lp_Energy>  (298) 
265.395

>  <b_lp_Chiralities_Consistent>  (298) 
1

>  <s_lp_Variant>  (298) 
86:0-6

>  <s_i_glide_gridfile>  (298) 
pfpi4k_grid

>  <i_i_glide_lignum>  (298) 
35

>  <i_i_glide_rotatable_bonds>  (298) 
10

>  <r_i_docking_score>  (298) 
-2.60984

>  <r_i_glide_ligand_efficiency>  (298) 
-0.0669189

>  <r_i_glide_ligand_efficiency_sa>  (298) 
-0.226936

>  <r_i_glide_ligand_efficiency_ln>  (298) 
-0.559623

>  <r_i_glide_gscore>  (298) 
-2.60984

>  <r_i_glide_lipo>  (298) 
-0.110964

>  <r_i_glide_hbond>  (298) 
-0.0185521

>  <r_i_glide_metal>  (298) 
-0

>  <r_i_glide_rewards>  (298) 
-0.5

>  <r_i_glide_evdw>  (298) 
-21.8685

>  <r_i_glide_ecoul>  (298) 
-6.12211

>  <r_i_glide_erotb>  (298) 
0.0628015

>  <r_i_glide_esite>  (298) 
-0.0313825

>  <r_i_glide_emodel>  (298) 
-37.7893

>  <r_i_glide_energy>  (298) 
-27.9906

>  <r_i_glide_einternal>  (298) 
3.61306

>  <r_i_glide_intrahb_reward>  (298) 
-0.5

>  <i_i_glide_confnum>  (298) 
1

>  <i_i_glide_posenum>  (298) 
6

>  <r_i_glide_eff_state_penalty>  (298) 
0

>  <ligand_id>  (298) 
86

>  <original_smiles>  (298) 
CCN1CC2(O)CC(O)C3C(OC)C4C(OC)C5(C(O)C(CN6CCOC6=O)C6C(O)C7C2OC5C64C7O)C31

>  <smiles>  (298) 
[H]OC1([H])C2([H])C3([H])OC4([H])C5(C2([H])O[H])C2([H])C([H])(OC([H])([H])[H])C6([H])C([H])(O[H])C([H])([H])C3(O[H])C([H])([H])[N+]([H])(C([H])([H])C([H])([H])[H])C6([H])C4(C([H])(O[H])C([H])(C([H])([H])N3C(=O)OC([H])([H])C3([H])[H])C15[H])C2([H])OC([H])([H])[H]

$$$$
86:6:0
     RDKit          3D

 80 87  0  0  1  0  0  0  0  0999 V2000
    3.0250   -3.1886    6.1134 C   0  0  0  0  0  0  0  0  0  0  0  0
    4.3685   -3.7091    5.5653 C   0  0  0  0  0  0  0  0  0  0  0  0
    4.4095   -5.1782    5.3678 N   0  0  2  0  0  0  0  0  0  0  0  0
    5.7260   -5.7907    5.8835 C   0  0  0  0  0  0  0  0  0  0  0  0
    6.3557   -7.1505    5.3152 C   0  0  1  0  0  0  0  0  0  0  0  0
    7.3666   -7.4558    6.2593 O   0  0  0  0  0  0  0  0  0  0  0  0
    5.3538   -8.3378    5.5104 C   0  0  0  0  0  0  0  0  0  0  0  0
    3.8248   -8.0254    5.5274 C   0  0  1  0  0  0  0  0  0  0  0  0
    3.4284   -7.4617    6.7678 O   0  0  0  0  0  0  0  0  0  0  0  0
    3.2241   -7.2445    4.3248 C   0  0  2  0  0  0  0  0  0  0  0  0
    3.2974   -8.1993    3.0518 C   0  0  1  0  0  0  0  0  0  0  0  0
    1.9866   -8.7313    2.8815 O   0  0  0  0  0  0  0  0  0  0  0  0
    1.8927   -9.9414    2.1379 C   0  0  0  0  0  0  0  0  0  0  0  0
    3.8759   -7.5423    1.7370 C   0  0  1  0  0  0  0  0  0  0  0  0
    3.1929   -6.2110    1.6813 C   0  0  1  0  0  0  0  0  0  0  0  0
    1.7901   -6.1370    1.9699 O   0  0  0  0  0  0  0  0  0  0  0  0
    0.9371   -6.7291    0.9870 C   0  0  0  0  0  0  0  0  0  0  0  0
    4.1143   -5.4351    2.6720 C   0  0  2  0  0  0  0  0  0  0  0  0
    4.5495   -4.2310    1.7005 C   0  0  1  0  0  0  0  0  0  0  0  0
    5.1752   -3.1469    2.3648 O   0  0  0  0  0  0  0  0  0  0  0  0
    5.5305   -4.8302    0.5305 C   0  0  1  0  0  0  0  0  0  0  0  0
    6.3967   -3.7430   -0.1893 C   0  0  0  0  0  0  0  0  0  0  0  0
    5.5797   -2.8465   -1.0280 N   0  0  0  0  0  0  0  0  0  0  0  0
    5.2938   -3.1290   -2.4156 C   0  0  0  0  0  0  0  0  0  0  0  0
    4.4735   -1.9038   -2.8413 C   0  0  0  0  0  0  0  0  0  0  0  0
    4.3702   -1.1449   -1.6487 O   0  0  0  0  0  0  0  0  0  0  0  0
    5.0230   -1.6542   -0.6088 C   0  0  0  0  0  0  0  0  0  0  0  0
    5.1045   -1.1350    0.5026 O   0  0  0  0  0  0  0  0  0  0  0  0
    6.2632   -6.2330    0.9007 C   0  0  2  0  0  0  0  0  0  0  0  0
    7.7176   -6.7979    1.3050 C   0  0  1  0  0  0  0  0  0  0  0  0
    8.8615   -5.9440    1.3975 O   0  0  0  0  0  0  0  0  0  0  0  0
    7.5191   -7.7156    2.6133 C   0  0  1  0  0  0  0  0  0  0  0  0
    7.2709   -6.9097    3.9929 C   0  0  1  0  0  0  0  0  0  0  0  0
    6.5604   -5.8423    3.5478 O   0  0  0  0  0  0  0  0  0  0  0  0
    5.3349   -6.2328    2.9888 C   0  0  1  0  0  0  0  0  0  0  0  0
    5.4093   -7.1724    1.8415 C   0  0  1  0  0  0  0  0  0  0  0  0
    6.2525   -8.4012    2.1806 C   0  0  1  0  0  0  0  0  0  0  0  0
    6.4056   -9.2741    1.0733 O   0  0  0  0  0  0  0  0  0  0  0  0
    3.6043   -5.6832    4.1643 C   0  0  2  0  0  0  0  0  0  0  0  0
    3.0513   -2.0992    6.1444 H   0  0  0  0  0  0  0  0  0  0  0  0
    2.8445   -3.5411    7.1300 H   0  0  0  0  0  0  0  0  0  0  0  0
    2.1726   -3.4632    5.4931 H   0  0  0  0  0  0  0  0  0  0  0  0
    4.5968   -3.1908    4.6432 H   0  0  0  0  0  0  0  0  0  0  0  0
    5.1376   -3.3793    6.2700 H   0  0  0  0  0  0  0  0  0  0  0  0
    6.5172   -5.0406    5.8337 H   0  0  0  0  0  0  0  0  0  0  0  0
    5.5723   -5.9264    6.9569 H   0  0  0  0  0  0  0  0  0  0  0  0
    7.8008   -8.2481    5.9923 H   0  0  0  0  0  0  0  0  0  0  0  0
    5.5762   -9.1965    4.8842 H   0  0  0  0  0  0  0  0  0  0  0  0
    5.5264   -8.7794    6.4950 H   0  0  0  0  0  0  0  0  0  0  0  0
    3.3247   -8.9984    5.5356 H   0  0  0  0  0  0  0  0  0  0  0  0
    3.5272   -8.1217    7.4384 H   0  0  0  0  0  0  0  0  0  0  0  0
    2.1631   -7.1985    4.5736 H   0  0  0  0  0  0  0  0  0  0  0  0
    3.8872   -9.0761    3.3001 H   0  0  0  0  0  0  0  0  0  0  0  0
    0.8437  -10.2353    2.0867 H   0  0  0  0  0  0  0  0  0  0  0  0
    2.4448  -10.7558    2.6051 H   0  0  0  0  0  0  0  0  0  0  0  0
    2.2445   -9.8247    1.1132 H   0  0  0  0  0  0  0  0  0  0  0  0
    3.6807   -8.1476    0.8513 H   0  0  0  0  0  0  0  0  0  0  0  0
    3.2503   -5.8755    0.6510 H   0  0  0  0  0  0  0  0  0  0  0  0
   -0.0935   -6.6979    1.3389 H   0  0  0  0  0  0  0  0  0  0  0  0
    1.1683   -7.7722    0.8020 H   0  0  0  0  0  0  0  0  0  0  0  0
    0.9937   -6.2134    0.0300 H   0  0  0  0  0  0  0  0  0  0  0  0
    3.6675   -3.7820    1.2376 H   0  0  0  0  0  0  0  0  0  0  0  0
    5.2405   -2.4128    1.7659 H   0  0  0  0  0  0  0  0  0  0  0  0
    4.8883   -5.1560   -0.2836 H   0  0  0  0  0  0  0  0  0  0  0  0
    6.9650   -3.1596    0.5378 H   0  0  0  0  0  0  0  0  0  0  0  0
    7.1612   -4.2116   -0.7985 H   0  0  0  0  0  0  0  0  0  0  0  0
    6.2023   -3.2334   -3.0068 H   0  0  0  0  0  0  0  0  0  0  0  0
    4.7050   -4.0427   -2.4988 H   0  0  0  0  0  0  0  0  0  0  0  0
    4.9827   -1.3066   -3.5978 H   0  0  0  0  0  0  0  0  0  0  0  0
    3.4869   -2.1734   -3.2222 H   0  0  0  0  0  0  0  0  0  0  0  0
    6.7769   -5.4179    1.3806 H   0  0  0  0  0  0  0  0  0  0  0  0
    8.0141   -7.4579    0.4921 H   0  0  0  0  0  0  0  0  0  0  0  0
    9.6132   -6.5306    1.4529 H   0  0  0  0  0  0  0  0  0  0  0  0
    8.3310   -8.4321    2.7386 H   0  0  0  0  0  0  0  0  0  0  0  0
    8.2343   -6.4924    4.2906 H   0  0  0  0  0  0  0  0  0  0  0  0
    5.8051   -5.2676    3.0212 H   0  0  0  0  0  0  0  0  0  0  0  0
    5.8814   -9.0370    2.9531 H   0  0  0  0  0  0  0  0  0  0  0  0
    5.6049   -9.7573    0.9453 H   0  0  0  0  0  0  0  0  0  0  0  0
    2.6470   -5.1570    4.2011 H   0  0  0  0  0  0  0  0  0  0  0  0
    3.8111   -5.5281    6.1114 H   0  0  0  0  0  0  0  0  0  0  0  0
  1  2  1  0
  1 40  1  0
  1 41  1  0
  1 42  1  0
  2  3  1  0
  2 43  1  0
  2 44  1  0
  3 39  1  0
  3  4  1  0
  3 80  1  1
  4  5  1  0
  4 45  1  0
  4 46  1  0
  5 33  1  0
  5  6  1  1
  5  7  1  0
  6 47  1  0
  7  8  1  0
  7 48  1  0
  7 49  1  0
  8  9  1  0
  8 10  1  0
  8 50  1  1
  9 51  1  0
 10 39  1  0
 10 11  1  0
 10 52  1  1
 11 12  1  0
 11 14  1  0
 11 53  1  1
 12 13  1  0
 13 54  1  0
 13 55  1  0
 13 56  1  0
 14 36  1  0
 14 15  1  0
 14 57  1  6
 15 16  1  0
 15 18  1  0
 15 58  1  6
 16 17  1  0
 17 59  1  0
 17 60  1  0
 17 61  1  0
 18 35  1  0
 18 19  1  6
 18 39  1  0
 19 20  1  0
 19 21  1  0
 19 62  1  6
 20 63  1  0
 21 22  1  0
 21 29  1  0
 21 64  1  6
 22 23  1  0
 22 65  1  0
 22 66  1  0
 23 27  1  0
 23 24  1  0
 24 25  1  0
 24 67  1  0
 24 68  1  0
 25 26  1  0
 25 69  1  0
 25 70  1  0
 26 27  1  0
 27 28  2  0
 29 36  1  0
 29 30  1  0
 29 71  1  6
 30 31  1  0
 30 32  1  0
 30 72  1  6
 31 73  1  0
 32 37  1  0
 32 33  1  0
 32 74  1  1
 33 34  1  0
 33 75  1  1
 34 35  1  0
 35 36  1  0
 35 76  1  1
 36 37  1  1
 37 38  1  0
 37 77  1  1
 38 78  1  0
 39 79  1  6
M  CHG  1   3   1
M  END
>  <i_m_ct_stereo_status>  (299) 
1

>  <s_m_source_file>  (299) 
/var/tmp/pbs.5076255.sched01/tmpt7uccrld/92zpefy4ut.sdf

>  <i_m_source_file_index>  (299) 
36

>  <i_lp_mmshare_version>  (299) 
48012

>  <i_f3d_flags>  (299) 
0

>  <s_epik_input>  (299) 
W0NIM11PW0NAQEhdMVtDQEBIXShbQ0BdMjNbQ0BIXTRbQ0BdMTU2KVtDQEhdKE9bQ0gzXSlbQ0BASF03W0NASF02TihbQ0gyXVtDSDNdKVtDSDJdW0NAQF0oW09IXSkoW0NIMl1bQ0BIXTdbT0hdKVtDQEhdKE80KVtDQEBIXShbQ0BASF0zW09IXSlbQ0BIXShbT0hdKVtDSF0yW0NAQEhdKFtDQEBIXTVbT0hdKVtDSDJdTjhbQ0gyXVtDSDJdT0M4PU8=

>  <s_epik_cmdline>  (299) 
J2VwaWtfcHl0aG9uJywgJy1waHQnLCAnMi4wJywgJy1waCcsICc3LjAnLCAnLXRuJywgJzgnLCAnLW1hJywgJzIwMCcsICctaW1hZScsICc8aW5maWxlLm1hZT4nLCAnLW9tYWUnLCAnPG91dGZpbGUubWFlPic=

>  <r_epik_Ionization_Penalty>  (299) 
0.00210516

>  <r_epik_Ionization_Penalty_Charging>  (299) 
0.00210146

>  <r_epik_Ionization_Penalty_Neutral>  (299) 
3.70392e-06

>  <r_epik_State_Penalty>  (299) 
0.00144031

>  <r_epik_Charging_Adjusted_Penalty>  (299) 
0.00354177

>  <i_epik_Tot_Q>  (299) 
1

>  <i_epik_Tot_abs_Q>  (299) 
1

>  <s_epik_Chemistry_Notes>  (299) 
This compound has an ester and may undergo hydrolysis at high or low pH.

>  <s_lp_Force_Field>  (299) 
OPLS3e

>  <r_lp_Energy>  (299) 
327.225

>  <b_lp_Chiralities_Consistent>  (299) 
1

>  <s_lp_Variant>  (299) 
86:0-7

>  <s_i_glide_gridfile>  (299) 
pfpi4k_grid

>  <i_i_glide_lignum>  (299) 
36

>  <i_i_glide_rotatable_bonds>  (299) 
10

>  <r_i_docking_score>  (299) 
-3.95695

>  <r_i_glide_ligand_efficiency>  (299) 
-0.10146

>  <r_i_glide_ligand_efficiency_sa>  (299) 
-0.344073

>  <r_i_glide_ligand_efficiency_ln>  (299) 
-0.848483

>  <r_i_glide_gscore>  (299) 
-3.95695

>  <r_i_glide_lipo>  (299) 
-0.739037

>  <r_i_glide_hbond>  (299) 
0

>  <r_i_glide_metal>  (299) 
-0

>  <r_i_glide_rewards>  (299) 
-1.00872

>  <r_i_glide_evdw>  (299) 
-29.2459

>  <r_i_glide_ecoul>  (299) 
-5.22066

>  <r_i_glide_erotb>  (299) 
0.0628015

>  <r_i_glide_esite>  (299) 
-0.0265991

>  <r_i_glide_emodel>  (299) 
-52.438

>  <r_i_glide_energy>  (299) 
-34.4666

>  <r_i_glide_einternal>  (299) 
6.31663

>  <r_i_glide_intrahb_reward>  (299) 
-1

>  <i_i_glide_confnum>  (299) 
3

>  <i_i_glide_posenum>  (299) 
20

>  <r_i_glide_eff_state_penalty>  (299) 
0

>  <ligand_id>  (299) 
86

>  <original_smiles>  (299) 
CCN1CC2(O)CC(O)C3C(OC)C4C(OC)C5(C(O)C(CN6CCOC6=O)C6C(O)C7C2OC5C64C7O)C31

>  <smiles>  (299) 
[H]OC1([H])C2([H])C3([H])OC4([H])C5(C2([H])O[H])C2([H])C([H])(OC([H])([H])[H])C6([H])C([H])(O[H])C([H])([H])C3(O[H])C([H])([H])[N+]([H])(C([H])([H])C([H])([H])[H])C6([H])C4(C([H])(O[H])C([H])(C([H])([H])N3C(=O)OC([H])([H])C3([H])[H])C15[H])C2([H])OC([H])([H])[H]

$$$$
86:6:1
     RDKit          3D

 80 87  0  0  1  0  0  0  0  0999 V2000
    2.0362   -2.3484    5.3750 C   0  0  0  0  0  0  0  0  0  0  0  0
    3.4258   -2.8289    4.9172 C   0  0  0  0  0  0  0  0  0  0  0  0
    3.5894   -4.3036    4.9406 N   0  0  2  0  0  0  0  0  0  0  0  0
    4.9431   -4.7171    5.5506 C   0  0  0  0  0  0  0  0  0  0  0  0
    5.6935   -6.0913    5.2016 C   0  0  1  0  0  0  0  0  0  0  0  0
    6.6995   -6.1790    6.1964 O   0  0  0  0  0  0  0  0  0  0  0  0
    4.7872   -7.3129    5.5578 C   0  0  0  0  0  0  0  0  0  0  0  0
    3.2380   -7.1330    5.5161 C   0  0  1  0  0  0  0  0  0  0  0  0
    2.7785   -6.4207    6.6545 O   0  0  0  0  0  0  0  0  0  0  0  0
    2.5982   -6.5943    4.2054 C   0  0  2  0  0  0  0  0  0  0  0  0
    2.7713   -7.7186    3.0868 C   0  0  1  0  0  0  0  0  0  0  0  0
    1.5126   -8.3824    2.9824 O   0  0  0  0  0  0  0  0  0  0  0  0
    1.5282   -9.6701    2.3692 C   0  0  0  0  0  0  0  0  0  0  0  0
    3.3230   -7.2131    1.6953 C   0  0  1  0  0  0  0  0  0  0  0  0
    2.5383   -5.9644    1.4405 C   0  0  1  0  0  0  0  0  0  0  0  0
    1.1288   -5.9577    1.7088 O   0  0  0  0  0  0  0  0  0  0  0  0
    0.3445   -6.7478    0.8157 C   0  0  0  0  0  0  0  0  0  0  0  0
    3.3750   -4.9811    2.3138 C   0  0  2  0  0  0  0  0  0  0  0  0
    3.7269   -3.9072    1.1753 C   0  0  1  0  0  0  0  0  0  0  0  0
    4.2473   -2.6853    1.6750 O   0  0  0  0  0  0  0  0  0  0  0  0
    4.7740   -4.5827    0.1074 C   0  0  1  0  0  0  0  0  0  0  0  0
    5.5654   -3.5306   -0.7442 C   0  0  0  0  0  0  0  0  0  0  0  0
    4.6896   -2.7364   -1.6312 N   0  0  0  0  0  0  0  0  0  0  0  0
    4.0431   -1.5109   -1.2182 C   0  0  0  0  0  0  0  0  0  0  0  0
    3.3017   -1.0760   -2.4826 C   0  0  0  0  0  0  0  0  0  0  0  0
    3.7565   -1.9924   -3.4599 O   0  0  0  0  0  0  0  0  0  0  0  0
    4.5275   -2.9673   -2.9879 C   0  0  0  0  0  0  0  0  0  0  0  0
    5.0129   -3.8598   -3.6775 O   0  0  0  0  0  0  0  0  0  0  0  0
    5.6102   -5.8556    0.6885 C   0  0  2  0  0  0  0  0  0  0  0  0
    7.0970   -6.2313    1.1930 C   0  0  1  0  0  0  0  0  0  0  0  0
    8.1545   -5.2692    1.1954 O   0  0  0  0  0  0  0  0  0  0  0  0
    6.9440   -6.9595    2.6194 C   0  0  1  0  0  0  0  0  0  0  0  0
    6.6095   -5.9796    3.8620 C   0  0  1  0  0  0  0  0  0  0  0  0
    5.8259   -5.0486    3.2569 O   0  0  0  0  0  0  0  0  0  0  0  0
    4.6484   -5.6185    2.7521 C   0  0  1  0  0  0  0  0  0  0  0  0
    4.8170   -6.7072    1.7573 C   0  0  1  0  0  0  0  0  0  0  0  0
    5.7457   -7.8002    2.2798 C   0  0  1  0  0  0  0  0  0  0  0  0
    5.9914   -8.7945    1.2992 O   0  0  0  0  0  0  0  0  0  0  0  0
    2.8534   -5.0463    3.8189 C   0  0  2  0  0  0  0  0  0  0  0  0
    1.9775   -1.2678    5.2452 H   0  0  0  0  0  0  0  0  0  0  0  0
    1.8687   -2.5621    6.4318 H   0  0  0  0  0  0  0  0  0  0  0  0
    1.2197   -2.7801    4.7971 H   0  0  0  0  0  0  0  0  0  0  0  0
    3.6305   -2.4348    3.9314 H   0  0  0  0  0  0  0  0  0  0  0  0
    4.1505   -2.3379    5.5720 H   0  0  0  0  0  0  0  0  0  0  0  0
    5.6670   -3.9142    5.3952 H   0  0  0  0  0  0  0  0  0  0  0  0
    4.7731   -4.7073    6.6302 H   0  0  0  0  0  0  0  0  0  0  0  0
    7.3227   -5.4919    6.0589 H   0  0  0  0  0  0  0  0  0  0  0  0
    5.0958   -8.2305    5.0680 H   0  0  0  0  0  0  0  0  0  0  0  0
    4.9805   -7.5889    6.5959 H   0  0  0  0  0  0  0  0  0  0  0  0
    2.8203   -8.1321    5.6693 H   0  0  0  0  0  0  0  0  0  0  0  0
    2.9573   -6.9441    7.4225 H   0  0  0  0  0  0  0  0  0  0  0  0
    1.5327   -6.6016    4.4382 H   0  0  0  0  0  0  0  0  0  0  0  0
    3.4240   -8.4985    3.4671 H   0  0  0  0  0  0  0  0  0  0  0  0
    0.5091  -10.0577    2.3509 H   0  0  0  0  0  0  0  0  0  0  0  0
    2.1530  -10.3800    2.9085 H   0  0  0  0  0  0  0  0  0  0  0  0
    1.8659   -9.6275    1.3345 H   0  0  0  0  0  0  0  0  0  0  0  0
    3.2017   -7.9494    0.8999 H   0  0  0  0  0  0  0  0  0  0  0  0
    2.5908   -5.7825    0.3710 H   0  0  0  0  0  0  0  0  0  0  0  0
   -0.6873   -6.7588    1.1592 H   0  0  0  0  0  0  0  0  0  0  0  0
    0.6665   -7.7805    0.7655 H   0  0  0  0  0  0  0  0  0  0  0  0
    0.3743   -6.3483   -0.1954 H   0  0  0  0  0  0  0  0  0  0  0  0
    2.8120   -3.6157    0.6539 H   0  0  0  0  0  0  0  0  0  0  0  0
    4.2626   -2.0524    0.9797 H   0  0  0  0  0  0  0  0  0  0  0  0
    4.1775   -5.0606   -0.6660 H   0  0  0  0  0  0  0  0  0  0  0  0
    6.1477   -2.8661   -0.1043 H   0  0  0  0  0  0  0  0  0  0  0  0
    6.3059   -4.0450   -1.3514 H   0  0  0  0  0  0  0  0  0  0  0  0
    3.3056   -1.6644   -0.4375 H   0  0  0  0  0  0  0  0  0  0  0  0
    4.7752   -0.7688   -0.8981 H   0  0  0  0  0  0  0  0  0  0  0  0
    2.2245   -1.1844   -2.3518 H   0  0  0  0  0  0  0  0  0  0  0  0
    3.5227   -0.0438   -2.7583 H   0  0  0  0  0  0  0  0  0  0  0  0
    6.0424   -4.9379    1.0441 H   0  0  0  0  0  0  0  0  0  0  0  0
    7.4745   -6.9767    0.4979 H   0  0  0  0  0  0  0  0  0  0  0  0
    8.9376   -5.7162    1.4705 H   0  0  0  0  0  0  0  0  0  0  0  0
    7.8043   -7.5849    2.8576 H   0  0  0  0  0  0  0  0  0  0  0  0
    7.5365   -5.4565    4.1003 H   0  0  0  0  0  0  0  0  0  0  0  0
    5.0408   -4.6246    2.6408 H   0  0  0  0  0  0  0  0  0  0  0  0
    5.4131   -8.3503    3.1328 H   0  0  0  0  0  0  0  0  0  0  0  0
    5.2409   -9.3622    1.2352 H   0  0  0  0  0  0  0  0  0  0  0  0
    1.8559   -4.6028    3.7691 H   0  0  0  0  0  0  0  0  0  0  0  0
    3.0076   -4.5912    5.7224 H   0  0  0  0  0  0  0  0  0  0  0  0
  1  2  1  0
  1 40  1  0
  1 41  1  0
  1 42  1  0
  2  3  1  0
  2 43  1  0
  2 44  1  0
  3 39  1  0
  3  4  1  0
  3 80  1  1
  4  5  1  0
  4 45  1  0
  4 46  1  0
  5 33  1  0
  5  6  1  1
  5  7  1  0
  6 47  1  0
  7  8  1  0
  7 48  1  0
  7 49  1  0
  8  9  1  0
  8 10  1  0
  8 50  1  1
  9 51  1  0
 10 39  1  0
 10 11  1  0
 10 52  1  1
 11 12  1  0
 11 14  1  0
 11 53  1  1
 12 13  1  0
 13 54  1  0
 13 55  1  0
 13 56  1  0
 14 36  1  0
 14 15  1  0
 14 57  1  6
 15 16  1  0
 15 18  1  0
 15 58  1  6
 16 17  1  0
 17 59  1  0
 17 60  1  0
 17 61  1  0
 18 35  1  0
 18 19  1  6
 18 39  1  0
 19 20  1  0
 19 21  1  0
 19 62  1  6
 20 63  1  0
 21 22  1  0
 21 29  1  0
 21 64  1  6
 22 23  1  0
 22 65  1  0
 22 66  1  0
 23 27  1  0
 23 24  1  0
 24 25  1  0
 24 67  1  0
 24 68  1  0
 25 26  1  0
 25 69  1  0
 25 70  1  0
 26 27  1  0
 27 28  2  0
 29 36  1  0
 29 30  1  0
 29 71  1  6
 30 31  1  0
 30 32  1  0
 30 72  1  6
 31 73  1  0
 32 37  1  0
 32 33  1  0
 32 74  1  1
 33 34  1  0
 33 75  1  1
 34 35  1  0
 35 36  1  0
 35 76  1  1
 36 37  1  1
 37 38  1  0
 37 77  1  1
 38 78  1  0
 39 79  1  6
M  CHG  1   3   1
M  END
>  <i_m_ct_stereo_status>  (300) 
1

>  <s_m_source_file>  (300) 
/var/tmp/pbs.5076255.sched01/tmpt7uccrld/92zpefy4ut.sdf

>  <i_m_source_file_index>  (300) 
36

>  <i_lp_mmshare_version>  (300) 
48012

>  <i_f3d_flags>  (300) 
0

>  <s_epik_input>  (300) 
W0NIM11PW0NAQEhdMVtDQEBIXShbQ0BdMjNbQ0BIXTRbQ0BdMTU2KVtDQEhdKE9bQ0gzXSlbQ0BASF03W0NASF02TihbQ0gyXVtDSDNdKVtDSDJdW0NAQF0oW09IXSkoW0NIMl1bQ0BIXTdbT0hdKVtDQEhdKE80KVtDQEBIXShbQ0BASF0zW09IXSlbQ0BIXShbT0hdKVtDSF0yW0NAQEhdKFtDQEBIXTVbT0hdKVtDSDJdTjhbQ0gyXVtDSDJdT0M4PU8=

>  <s_epik_cmdline>  (300) 
J2VwaWtfcHl0aG9uJywgJy1waHQnLCAnMi4wJywgJy1waCcsICc3LjAnLCAnLXRuJywgJzgnLCAnLW1hJywgJzIwMCcsICctaW1hZScsICc8aW5maWxlLm1hZT4nLCAnLW9tYWUnLCAnPG91dGZpbGUubWFlPic=

>  <r_epik_Ionization_Penalty>  (300) 
0.00210516

>  <r_epik_Ionization_Penalty_Charging>  (300) 
0.00210146

>  <r_epik_Ionization_Penalty_Neutral>  (300) 
3.70392e-06

>  <r_epik_State_Penalty>  (300) 
0.00144031

>  <r_epik_Charging_Adjusted_Penalty>  (300) 
0.00354177

>  <i_epik_Tot_Q>  (300) 
1

>  <i_epik_Tot_abs_Q>  (300) 
1

>  <s_epik_Chemistry_Notes>  (300) 
This compound has an ester and may undergo hydrolysis at high or low pH.

>  <s_lp_Force_Field>  (300) 
OPLS3e

>  <r_lp_Energy>  (300) 
327.225

>  <b_lp_Chiralities_Consistent>  (300) 
1

>  <s_lp_Variant>  (300) 
86:0-7

>  <s_i_glide_gridfile>  (300) 
pfpi4k_grid

>  <i_i_glide_lignum>  (300) 
36

>  <i_i_glide_rotatable_bonds>  (300) 
10

>  <r_i_docking_score>  (300) 
-3.75713

>  <r_i_glide_ligand_efficiency>  (300) 
-0.0963366

>  <r_i_glide_ligand_efficiency_sa>  (300) 
-0.326698

>  <r_i_glide_ligand_efficiency_ln>  (300) 
-0.805635

>  <r_i_glide_gscore>  (300) 
-3.75713

>  <r_i_glide_lipo>  (300) 
-0.529522

>  <r_i_glide_hbond>  (300) 
-0.136374

>  <r_i_glide_metal>  (300) 
-0

>  <r_i_glide_rewards>  (300) 
-0.647351

>  <r_i_glide_evdw>  (300) 
-32.0647

>  <r_i_glide_ecoul>  (300) 
-5.94937

>  <r_i_glide_erotb>  (300) 
0.0628015

>  <r_i_glide_esite>  (300) 
-0.0110396

>  <r_i_glide_emodel>  (300) 
-50.6447

>  <r_i_glide_energy>  (300) 
-38.0141

>  <r_i_glide_einternal>  (300) 
6.14145

>  <r_i_glide_intrahb_reward>  (300) 
-0.5

>  <i_i_glide_confnum>  (300) 
3

>  <i_i_glide_posenum>  (300) 
2

>  <r_i_glide_eff_state_penalty>  (300) 
0

>  <ligand_id>  (300) 
86

>  <original_smiles>  (300) 
CCN1CC2(O)CC(O)C3C(OC)C4C(OC)C5(C(O)C(CN6CCOC6=O)C6C(O)C7C2OC5C64C7O)C31

>  <smiles>  (300) 
[H]OC1([H])C2([H])C3([H])OC4([H])C5(C2([H])O[H])C2([H])C([H])(OC([H])([H])[H])C6([H])C([H])(O[H])C([H])([H])C3(O[H])C([H])([H])[N+]([H])(C([H])([H])C([H])([H])[H])C6([H])C4(C([H])(O[H])C([H])(C([H])([H])N3C(=O)OC([H])([H])C3([H])[H])C15[H])C2([H])OC([H])([H])[H]

$$$$
86:6:2
     RDKit          3D

 80 87  0  0  1  0  0  0  0  0999 V2000
   -1.1258   -9.6078    2.4774 C   0  0  0  0  0  0  0  0  0  0  0  0
   -0.6495   -8.2433    2.9884 C   0  0  0  0  0  0  0  0  0  0  0  0
    0.3915   -8.3040    4.0080 N   0  0  2  0  0  0  0  0  0  0  0  0
    0.0124   -7.5836    5.2855 C   0  0  0  0  0  0  0  0  0  0  0  0
    1.0528   -6.9406    6.3275 C   0  0  1  0  0  0  0  0  0  0  0  0
    0.2408   -6.6415    7.4531 O   0  0  0  0  0  0  0  0  0  0  0  0
    1.9861   -8.0610    6.8851 C   0  0  0  0  0  0  0  0  0  0  0  0
    2.2779   -9.3190    6.0048 C   0  0  1  0  0  0  0  0  0  0  0  0
    1.2045  -10.2461    6.0083 O   0  0  0  0  0  0  0  0  0  0  0  0
    2.8262   -9.0775    4.5633 C   0  0  2  0  0  0  0  0  0  0  0  0
    4.3018   -8.4888    4.6838 C   0  0  1  0  0  0  0  0  0  0  0  0
    5.1943   -9.5702    4.4169 O   0  0  0  0  0  0  0  0  0  0  0  0
    6.5354   -9.4011    4.8670 C   0  0  0  0  0  0  0  0  0  0  0  0
    4.6177   -7.2174    3.8111 C   0  0  1  0  0  0  0  0  0  0  0  0
    4.0274   -7.5759    2.4884 C   0  0  1  0  0  0  0  0  0  0  0  0
    4.2023   -8.8903    1.9557 O   0  0  0  0  0  0  0  0  0  0  0  0
    5.5118   -9.1591    1.4398 C   0  0  0  0  0  0  0  0  0  0  0  0
    2.5413   -7.2039    2.7756 C   0  0  2  0  0  0  0  0  0  0  0  0
    2.3384   -6.1591    1.5697 C   0  0  1  0  0  0  0  0  0  0  0  0
    0.9901   -5.8690    1.2968 O   0  0  0  0  0  0  0  0  0  0  0  0
    3.2195   -4.8104    1.8925 C   0  0  1  0  0  0  0  0  0  0  0  0
    2.7550   -3.5340    1.1047 C   0  0  0  0  0  0  0  0  0  0  0  0
    3.7830   -2.4884    1.0505 N   0  0  0  0  0  0  0  0  0  0  0  0
    3.6266   -1.2218    1.7284 C   0  0  0  0  0  0  0  0  0  0  0  0
    4.8862   -0.4546    1.2786 C   0  0  0  0  0  0  0  0  0  0  0  0
    5.5638   -1.3934    0.4580 O   0  0  0  0  0  0  0  0  0  0  0  0
    4.9302   -2.5474    0.2824 C   0  0  0  0  0  0  0  0  0  0  0  0
    5.3122   -3.4727   -0.4269 O   0  0  0  0  0  0  0  0  0  0  0  0
    3.6145   -4.5879    3.4472 C   0  0  2  0  0  0  0  0  0  0  0  0
    3.2014   -3.6621    4.6999 C   0  0  1  0  0  0  0  0  0  0  0  0
    2.2115   -2.6363    4.5764 O   0  0  0  0  0  0  0  0  0  0  0  0
    2.9307   -4.6416    5.9439 C   0  0  1  0  0  0  0  0  0  0  0  0
    1.5241   -5.4416    5.8879 C   0  0  1  0  0  0  0  0  0  0  0  0
    1.3803   -5.6499    4.5554 O   0  0  0  0  0  0  0  0  0  0  0  0
    2.4287   -6.4494    4.0588 C   0  0  1  0  0  0  0  0  0  0  0  0
    3.8111   -5.9333    4.2448 C   0  0  1  0  0  0  0  0  0  0  0  0
    4.0778   -5.5830    5.7064 C   0  0  1  0  0  0  0  0  0  0  0  0
    5.3635   -4.9986    5.8889 O   0  0  0  0  0  0  0  0  0  0  0  0
    1.8118   -8.4604    3.4706 C   0  0  2  0  0  0  0  0  0  0  0  0
   -1.8356   -9.4479    1.6721 H   0  0  0  0  0  0  0  0  0  0  0  0
   -1.6345  -10.1529    3.2676 H   0  0  0  0  0  0  0  0  0  0  0  0
   -0.3058  -10.2186    2.0857 H   0  0  0  0  0  0  0  0  0  0  0  0
   -0.3219   -7.6830    2.1220 H   0  0  0  0  0  0  0  0  0  0  0  0
   -1.5629   -7.7261    3.3221 H   0  0  0  0  0  0  0  0  0  0  0  0
   -0.7053   -6.7801    5.0651 H   0  0  0  0  0  0  0  0  0  0  0  0
   -0.5819   -8.3129    5.8472 H   0  0  0  0  0  0  0  0  0  0  0  0
   -0.3721   -5.9751    7.2317 H   0  0  0  0  0  0  0  0  0  0  0  0
    2.8901   -7.6598    7.3312 H   0  0  0  0  0  0  0  0  0  0  0  0
    1.5145   -8.4781    7.7765 H   0  0  0  0  0  0  0  0  0  0  0  0
    3.0633   -9.8690    6.5354 H   0  0  0  0  0  0  0  0  0  0  0  0
    1.3683  -10.9410    6.6576 H   0  0  0  0  0  0  0  0  0  0  0  0
    2.9652  -10.0933    4.1945 H   0  0  0  0  0  0  0  0  0  0  0  0
    4.4990   -8.2598    5.7280 H   0  0  0  0  0  0  0  0  0  0  0  0
    7.0994  -10.3046    4.6342 H   0  0  0  0  0  0  0  0  0  0  0  0
    6.5851   -9.2390    5.9409 H   0  0  0  0  0  0  0  0  0  0  0  0
    7.0440   -8.5790    4.3665 H   0  0  0  0  0  0  0  0  0  0  0  0
    5.6836   -6.9958    3.7445 H   0  0  0  0  0  0  0  0  0  0  0  0
    4.5091   -6.9435    1.7560 H   0  0  0  0  0  0  0  0  0  0  0  0
    5.5887  -10.2055    1.1457 H   0  0  0  0  0  0  0  0  0  0  0  0
    6.3002   -8.9712    2.1618 H   0  0  0  0  0  0  0  0  0  0  0  0
    5.7251   -8.5528    0.5641 H   0  0  0  0  0  0  0  0  0  0  0  0
    2.6962   -6.5946    0.6229 H   0  0  0  0  0  0  0  0  0  0  0  0
    0.5757   -6.6860    1.1171 H   0  0  0  0  0  0  0  0  0  0  0  0
    4.1796   -5.0035    1.4308 H   0  0  0  0  0  0  0  0  0  0  0  0
    2.5133   -3.8181    0.0740 H   0  0  0  0  0  0  0  0  0  0  0  0
    1.8385   -3.1196    1.5140 H   0  0  0  0  0  0  0  0  0  0  0  0
    2.7164   -0.7047    1.4419 H   0  0  0  0  0  0  0  0  0  0  0  0
    3.6519   -1.3881    2.7987 H   0  0  0  0  0  0  0  0  0  0  0  0
    4.6361    0.4314    0.6974 H   0  0  0  0  0  0  0  0  0  0  0  0
    5.5002   -0.1540    2.1249 H   0  0  0  0  0  0  0  0  0  0  0  0
    2.5973   -4.2950    3.2824 H   0  0  0  0  0  0  0  0  0  0  0  0
    4.0895   -3.0812    4.9306 H   0  0  0  0  0  0  0  0  0  0  0  0
    1.4037   -3.0196    4.3191 H   0  0  0  0  0  0  0  0  0  0  0  0
    3.0350   -4.1308    6.8987 H   0  0  0  0  0  0  0  0  0  0  0  0
    0.7444   -4.7250    6.1458 H   0  0  0  0  0  0  0  0  0  0  0  0
    1.6497   -5.9342    3.5256 H   0  0  0  0  0  0  0  0  0  0  0  0
    4.0693   -6.3939    6.3987 H   0  0  0  0  0  0  0  0  0  0  0  0
    5.4536   -4.2520    5.3369 H   0  0  0  0  0  0  0  0  0  0  0  0
    1.7438   -9.2044    2.6689 H   0  0  0  0  0  0  0  0  0  0  0  0
    0.2801   -9.2659    4.3844 H   0  0  0  0  0  0  0  0  0  0  0  0
  1  2  1  0
  1 40  1  0
  1 41  1  0
  1 42  1  0
  2  3  1  0
  2 43  1  0
  2 44  1  0
  3 39  1  0
  3  4  1  0
  3 80  1  1
  4  5  1  0
  4 45  1  0
  4 46  1  0
  5 33  1  0
  5  6  1  1
  5  7  1  0
  6 47  1  0
  7  8  1  0
  7 48  1  0
  7 49  1  0
  8  9  1  0
  8 10  1  0
  8 50  1  1
  9 51  1  0
 10 39  1  0
 10 11  1  0
 10 52  1  6
 11 12  1  0
 11 14  1  0
 11 53  1  1
 12 13  1  0
 13 54  1  0
 13 55  1  0
 13 56  1  0
 14 36  1  0
 14 15  1  0
 14 57  1  6
 15 16  1  0
 15 18  1  0
 15 58  1  6
 16 17  1  0
 17 59  1  0
 17 60  1  0
 17 61  1  0
 18 35  1  0
 18 19  1  6
 18 39  1  0
 19 20  1  0
 19 21  1  0
 19 62  1  6
 20 63  1  0
 21 22  1  0
 21 29  1  0
 21 64  1  6
 22 23  1  0
 22 65  1  0
 22 66  1  0
 23 27  1  0
 23 24  1  0
 24 25  1  0
 24 67  1  0
 24 68  1  0
 25 26  1  0
 25 69  1  0
 25 70  1  0
 26 27  1  0
 27 28  2  0
 29 36  1  0
 29 30  1  0
 29 71  1  6
 30 31  1  0
 30 32  1  0
 30 72  1  1
 31 73  1  0
 32 37  1  0
 32 33  1  0
 32 74  1  1
 33 34  1  0
 33 75  1  1
 34 35  1  0
 35 36  1  0
 35 76  1  1
 36 37  1  1
 37 38  1  0
 37 77  1  1
 38 78  1  0
 39 79  1  6
M  CHG  1   3   1
M  END
>  <i_m_ct_stereo_status>  (301) 
1

>  <s_m_source_file>  (301) 
/var/tmp/pbs.5076255.sched01/tmpt7uccrld/92zpefy4ut.sdf

>  <i_m_source_file_index>  (301) 
36

>  <i_lp_mmshare_version>  (301) 
48012

>  <i_f3d_flags>  (301) 
0

>  <s_epik_input>  (301) 
W0NIM11PW0NAQEhdMVtDQEBIXShbQ0BdMjNbQ0BIXTRbQ0BdMTU2KVtDQEhdKE9bQ0gzXSlbQ0BASF03W0NASF02TihbQ0gyXVtDSDNdKVtDSDJdW0NAQF0oW09IXSkoW0NIMl1bQ0BIXTdbT0hdKVtDQEhdKE80KVtDQEBIXShbQ0BASF0zW09IXSlbQ0BIXShbT0hdKVtDSF0yW0NAQEhdKFtDQEBIXTVbT0hdKVtDSDJdTjhbQ0gyXVtDSDJdT0M4PU8=

>  <s_epik_cmdline>  (301) 
J2VwaWtfcHl0aG9uJywgJy1waHQnLCAnMi4wJywgJy1waCcsICc3LjAnLCAnLXRuJywgJzgnLCAnLW1hJywgJzIwMCcsICctaW1hZScsICc8aW5maWxlLm1hZT4nLCAnLW9tYWUnLCAnPG91dGZpbGUubWFlPic=

>  <r_epik_Ionization_Penalty>  (301) 
0.00210516

>  <r_epik_Ionization_Penalty_Charging>  (301) 
0.00210146

>  <r_epik_Ionization_Penalty_Neutral>  (301) 
3.70392e-06

>  <r_epik_State_Penalty>  (301) 
0.00144031

>  <r_epik_Charging_Adjusted_Penalty>  (301) 
0.00354177

>  <i_epik_Tot_Q>  (301) 
1

>  <i_epik_Tot_abs_Q>  (301) 
1

>  <s_epik_Chemistry_Notes>  (301) 
This compound has an ester and may undergo hydrolysis at high or low pH.

>  <s_lp_Force_Field>  (301) 
OPLS3e

>  <r_lp_Energy>  (301) 
327.225

>  <b_lp_Chiralities_Consistent>  (301) 
1

>  <s_lp_Variant>  (301) 
86:0-7

>  <s_i_glide_gridfile>  (301) 
pfpi4k_grid

>  <i_i_glide_lignum>  (301) 
36

>  <i_i_glide_rotatable_bonds>  (301) 
10

>  <r_i_docking_score>  (301) 
-3.4414

>  <r_i_glide_ligand_efficiency>  (301) 
-0.0882411

>  <r_i_glide_ligand_efficiency_sa>  (301) 
-0.299244

>  <r_i_glide_ligand_efficiency_ln>  (301) 
-0.737935

>  <r_i_glide_gscore>  (301) 
-3.4414

>  <r_i_glide_lipo>  (301) 
-0.326666

>  <r_i_glide_hbond>  (301) 
-0.16

>  <r_i_glide_metal>  (301) 
-0

>  <r_i_glide_rewards>  (301) 
-0.516999

>  <r_i_glide_evdw>  (301) 
-21.3573

>  <r_i_glide_ecoul>  (301) 
-9.3001

>  <r_i_glide_erotb>  (301) 
0.0628015

>  <r_i_glide_esite>  (301) 
-0.0376619

>  <r_i_glide_emodel>  (301) 
-43.1684

>  <r_i_glide_energy>  (301) 
-30.6574

>  <r_i_glide_einternal>  (301) 
4.61605

>  <r_i_glide_intrahb_reward>  (301) 
-0.5

>  <i_i_glide_confnum>  (301) 
3

>  <i_i_glide_posenum>  (301) 
21

>  <r_i_glide_eff_state_penalty>  (301) 
0

>  <ligand_id>  (301) 
86

>  <original_smiles>  (301) 
CCN1CC2(O)CC(O)C3C(OC)C4C(OC)C5(C(O)C(CN6CCOC6=O)C6C(O)C7C2OC5C64C7O)C31

>  <smiles>  (301) 
[H]OC1([H])C2([H])C3([H])OC4([H])C5(C2([H])O[H])C2([H])C([H])(OC([H])([H])[H])C6([H])C([H])(O[H])C([H])([H])C3(O[H])C([H])([H])[N+]([H])(C([H])([H])C([H])([H])[H])C6([H])C4(C([H])(O[H])C([H])(C([H])([H])N3C(=O)OC([H])([H])C3([H])[H])C15[H])C2([H])OC([H])([H])[H]

$$$$
86:7:0
     RDKit          3D

 80 87  0  0  1  0  0  0  0  0999 V2000
    2.3856   -5.5193    6.6019 C   0  0  0  0  0  0  0  0  0  0  0  0
    2.9818   -6.8928    6.9685 C   0  0  0  0  0  0  0  0  0  0  0  0
    3.8574   -7.4291    5.8884 N   0  0  1  0  0  0  0  0  0  0  0  0
    5.0774   -8.1174    6.4867 C   0  0  0  0  0  0  0  0  0  0  0  0
    5.9210   -9.2579    5.7224 C   0  0  1  0  0  0  0  0  0  0  0  0
    6.9807   -9.5378    6.6272 O   0  0  0  0  0  0  0  0  0  0  0  0
    5.0917  -10.5857    5.7818 C   0  0  0  0  0  0  0  0  0  0  0  0
    3.5395  -10.4660    5.8441 C   0  0  1  0  0  0  0  0  0  0  0  0
    3.0209  -10.1923    7.1349 O   0  0  0  0  0  0  0  0  0  0  0  0
    2.8592   -9.5972    4.7621 C   0  0  2  0  0  0  0  0  0  0  0  0
    2.9616  -10.3893    3.3716 C   0  0  1  0  0  0  0  0  0  0  0  0
    1.7022  -10.9621    2.9959 O   0  0  0  0  0  0  0  0  0  0  0  0
    1.0704  -11.8585    3.8972 C   0  0  0  0  0  0  0  0  0  0  0  0
    3.4722   -9.5517    2.1452 C   0  0  1  0  0  0  0  0  0  0  0  0
    2.6357   -8.3143    2.2427 C   0  0  1  0  0  0  0  0  0  0  0  0
    1.2395   -8.4711    2.5327 O   0  0  0  0  0  0  0  0  0  0  0  0
    0.4518   -7.3097    2.3307 C   0  0  0  0  0  0  0  0  0  0  0  0
    3.4690   -7.5574    3.3164 C   0  0  2  0  0  0  0  0  0  0  0  0
    3.7174   -6.2046    2.4979 C   0  0  1  0  0  0  0  0  0  0  0  0
    4.1349   -5.1595    3.3502 O   0  0  0  0  0  0  0  0  0  0  0  0
    4.7562   -6.5338    1.2633 C   0  0  1  0  0  0  0  0  0  0  0  0
    5.4693   -5.2588    0.6817 C   0  0  0  0  0  0  0  0  0  0  0  0
    4.6238   -4.4239   -0.1957 N   0  0  0  0  0  0  0  0  0  0  0  0
    3.1834   -4.3512   -0.1192 C   0  0  0  0  0  0  0  0  0  0  0  0
    2.8196   -3.4126   -1.2629 C   0  0  0  0  0  0  0  0  0  0  0  0
    4.0847   -3.0069   -1.7624 O   0  0  0  0  0  0  0  0  0  0  0  0
    5.1312   -3.5882   -1.1799 C   0  0  0  0  0  0  0  0  0  0  0  0
    6.3029   -3.3860   -1.4624 O   0  0  0  0  0  0  0  0  0  0  0  0
    5.6679   -7.8658    1.4498 C   0  0  2  0  0  0  0  0  0  0  0  0
    7.1903   -8.2825    1.7781 C   0  0  1  0  0  0  0  0  0  0  0  0
    8.2101   -7.2898    1.9475 O   0  0  0  0  0  0  0  0  0  0  0  0
    7.1198   -9.3580    2.9788 C   0  0  1  0  0  0  0  0  0  0  0  0
    6.7897   -8.7519    4.4400 C   0  0  1  0  0  0  0  0  0  0  0  0
    5.9352   -7.7440    4.1549 O   0  0  0  0  0  0  0  0  0  0  0  0
    4.7840   -8.2223    3.5044 C   0  0  1  0  0  0  0  0  0  0  0  0
    4.9588   -9.0143    2.2671 C   0  0  1  0  0  0  0  0  0  0  0  0
    5.9468  -10.1586    2.4695 C   0  0  1  0  0  0  0  0  0  0  0  0
    6.2122  -10.8393    1.2564 O   0  0  0  0  0  0  0  0  0  0  0  0
    3.0321   -8.0037    4.7545 C   0  0  2  0  0  0  0  0  0  0  0  0
    1.6861   -5.1787    7.3832 H   0  0  0  0  0  0  0  0  0  0  0  0
    1.8192   -5.5261    5.6639 H   0  0  0  0  0  0  0  0  0  0  0  0
    3.1652   -4.7506    6.5107 H   0  0  0  0  0  0  0  0  0  0  0  0
    3.5234   -6.7319    7.8959 H   0  0  0  0  0  0  0  0  0  0  0  0
    2.1914   -7.5921    7.2277 H   0  0  0  0  0  0  0  0  0  0  0  0
    5.7866   -7.3167    6.6979 H   0  0  0  0  0  0  0  0  0  0  0  0
    4.8662   -8.5089    7.4840 H   0  0  0  0  0  0  0  0  0  0  0  0
    7.4844  -10.2727    6.2831 H   0  0  0  0  0  0  0  0  0  0  0  0
    5.4097  -11.3175    5.0476 H   0  0  0  0  0  0  0  0  0  0  0  0
    5.3442  -11.1216    6.7020 H   0  0  0  0  0  0  0  0  0  0  0  0
    3.1914  -11.4911    5.7137 H   0  0  0  0  0  0  0  0  0  0  0  0
    2.3987  -10.8891    7.3539 H   0  0  0  0  0  0  0  0  0  0  0  0
    1.8152   -9.6109    5.0508 H   0  0  0  0  0  0  0  0  0  0  0  0
    3.6200  -11.2477    3.4857 H   0  0  0  0  0  0  0  0  0  0  0  0
    0.2764  -12.3911    3.3843 H   0  0  0  0  0  0  0  0  0  0  0  0
    0.5828  -11.3724    4.7331 H   0  0  0  0  0  0  0  0  0  0  0  0
    1.7733  -12.5774    4.3078 H   0  0  0  0  0  0  0  0  0  0  0  0
    3.3105  -10.0858    1.2086 H   0  0  0  0  0  0  0  0  0  0  0  0
    2.6405   -7.8996    1.2389 H   0  0  0  0  0  0  0  0  0  0  0  0
   -0.5895   -7.5405    2.5502 H   0  0  0  0  0  0  0  0  0  0  0  0
    0.5026   -6.9611    1.2979 H   0  0  0  0  0  0  0  0  0  0  0  0
    0.7544   -6.5007    2.9957 H   0  0  0  0  0  0  0  0  0  0  0  0
    2.7721   -5.8571    2.0931 H   0  0  0  0  0  0  0  0  0  0  0  0
    4.3101   -4.3893    2.8106 H   0  0  0  0  0  0  0  0  0  0  0  0
    4.1719   -6.8670    0.4097 H   0  0  0  0  0  0  0  0  0  0  0  0
    5.8437   -4.6244    1.4882 H   0  0  0  0  0  0  0  0  0  0  0  0
    6.3700   -5.5547    0.1380 H   0  0  0  0  0  0  0  0  0  0  0  0
    2.7049   -5.3208   -0.2709 H   0  0  0  0  0  0  0  0  0  0  0  0
    2.8935   -3.9128    0.8375 H   0  0  0  0  0  0  0  0  0  0  0  0
    2.2424   -3.9133   -2.0422 H   0  0  0  0  0  0  0  0  0  0  0  0
    2.2347   -2.5642   -0.9104 H   0  0  0  0  0  0  0  0  0  0  0  0
    6.0957   -7.0529    2.0168 H   0  0  0  0  0  0  0  0  0  0  0  0
    7.5225   -8.7985    0.8786 H   0  0  0  0  0  0  0  0  0  0  0  0
    9.0801   -7.6459    1.7322 H   0  0  0  0  0  0  0  0  0  0  0  0
    8.0074   -9.9814    3.0390 H   0  0  0  0  0  0  0  0  0  0  0  0
    7.6946   -8.2488    4.7901 H   0  0  0  0  0  0  0  0  0  0  0  0
    5.1436   -7.2168    3.6299 H   0  0  0  0  0  0  0  0  0  0  0  0
    5.6495  -10.9414    3.1377 H   0  0  0  0  0  0  0  0  0  0  0  0
    5.4198  -11.2878    0.9440 H   0  0  0  0  0  0  0  0  0  0  0  0
    2.0299   -7.6144    4.8519 H   0  0  0  0  0  0  0  0  0  0  0  0
    4.2615   -6.6066    5.4721 H   0  0  0  0  0  0  0  0  0  0  0  0
  1  2  1  0
  1 40  1  0
  1 41  1  0
  1 42  1  0
  2  3  1  0
  2 43  1  0
  2 44  1  0
  3 39  1  0
  3  4  1  0
  3 80  1  6
  4  5  1  0
  4 45  1  0
  4 46  1  0
  5 33  1  0
  5  6  1  1
  5  7  1  0
  6 47  1  0
  7  8  1  0
  7 48  1  0
  7 49  1  0
  8  9  1  0
  8 10  1  0
  8 50  1  6
  9 51  1  0
 10 39  1  0
 10 11  1  0
 10 52  1  1
 11 12  1  0
 11 14  1  0
 11 53  1  1
 12 13  1  0
 13 54  1  0
 13 55  1  0
 13 56  1  0
 14 36  1  0
 14 15  1  0
 14 57  1  6
 15 16  1  0
 15 18  1  0
 15 58  1  6
 16 17  1  0
 17 59  1  0
 17 60  1  0
 17 61  1  0
 18 35  1  0
 18 19  1  1
 18 39  1  0
 19 20  1  0
 19 21  1  0
 19 62  1  6
 20 63  1  0
 21 22  1  0
 21 29  1  0
 21 64  1  6
 22 23  1  0
 22 65  1  0
 22 66  1  0
 23 27  1  0
 23 24  1  0
 24 25  1  0
 24 67  1  0
 24 68  1  0
 25 26  1  0
 25 69  1  0
 25 70  1  0
 26 27  1  0
 27 28  2  0
 29 36  1  0
 29 30  1  0
 29 71  1  6
 30 31  1  0
 30 32  1  0
 30 72  1  6
 31 73  1  0
 32 37  1  0
 32 33  1  0
 32 74  1  1
 33 34  1  0
 33 75  1  1
 34 35  1  0
 35 36  1  0
 35 76  1  1
 36 37  1  1
 37 38  1  0
 37 77  1  1
 38 78  1  0
 39 79  1  1
M  CHG  1   3   1
M  END
>  <i_m_ct_stereo_status>  (302) 
1

>  <s_m_source_file>  (302) 
/var/tmp/pbs.5076255.sched01/tmpt7uccrld/92zpefy4ut.sdf

>  <i_m_source_file_index>  (302) 
37

>  <i_lp_mmshare_version>  (302) 
48012

>  <i_f3d_flags>  (302) 
0

>  <s_epik_input>  (302) 
W0NIM11PW0NAQEhdMVtDQEBIXShbQ0BdMjNbQ0BIXTRbQ0BdMTU2KVtDQEhdKE9bQ0gzXSlbQ0BASF03W0NASF02TihbQ0gyXVtDSDNdKVtDSDJdW0NAQF0oW09IXSkoW0NIMl1bQ0BIXTdbT0hdKVtDQEhdKE80KVtDQEBIXShbQ0BASF0zW09IXSlbQ0BIXShbT0hdKVtDSF0yW0NAQEhdKFtDQEBIXTVbT0hdKVtDSDJdTjhbQ0gyXVtDSDJdT0M4PU8=

>  <s_epik_cmdline>  (302) 
J2VwaWtfcHl0aG9uJywgJy1waHQnLCAnMi4wJywgJy1waCcsICc3LjAnLCAnLXRuJywgJzgnLCAnLW1hJywgJzIwMCcsICctaW1hZScsICc8aW5maWxlLm1hZT4nLCAnLW9tYWUnLCAnPG91dGZpbGUubWFlPic=

>  <r_epik_Ionization_Penalty>  (302) 
0.00210516

>  <r_epik_Ionization_Penalty_Charging>  (302) 
0.00210146

>  <r_epik_Ionization_Penalty_Neutral>  (302) 
3.70392e-06

>  <r_epik_State_Penalty>  (302) 
0.00144031

>  <r_epik_Charging_Adjusted_Penalty>  (302) 
0.00354177

>  <i_epik_Tot_Q>  (302) 
1

>  <i_epik_Tot_abs_Q>  (302) 
1

>  <s_epik_Chemistry_Notes>  (302) 
This compound has an ester and may undergo hydrolysis at high or low pH.

>  <s_lp_Force_Field>  (302) 
OPLS3e

>  <r_lp_Energy>  (302) 
327.831

>  <b_lp_Chiralities_Consistent>  (302) 
1

>  <s_lp_Variant>  (302) 
86:0-8

>  <s_i_glide_gridfile>  (302) 
pfpi4k_grid

>  <i_i_glide_lignum>  (302) 
37

>  <i_i_glide_rotatable_bonds>  (302) 
10

>  <r_i_docking_score>  (302) 
-4.28848

>  <r_i_glide_ligand_efficiency>  (302) 
-0.109961

>  <r_i_glide_ligand_efficiency_sa>  (302) 
-0.372901

>  <r_i_glide_ligand_efficiency_ln>  (302) 
-0.919571

>  <r_i_glide_gscore>  (302) 
-4.28848

>  <r_i_glide_lipo>  (302) 
-0.558245

>  <r_i_glide_hbond>  (302) 
-0.288

>  <r_i_glide_metal>  (302) 
-0

>  <r_i_glide_rewards>  (302) 
-0.0742906

>  <r_i_glide_evdw>  (302) 
-25.9275

>  <r_i_glide_ecoul>  (302) 
-14.2289

>  <r_i_glide_erotb>  (302) 
0.0628015

>  <r_i_glide_esite>  (302) 
-3.90652e-05

>  <r_i_glide_emodel>  (302) 
-46.349

>  <r_i_glide_energy>  (302) 
-40.1564

>  <r_i_glide_einternal>  (302) 
11.7733

>  <r_i_glide_intrahb_reward>  (302) 
-0

>  <i_i_glide_confnum>  (302) 
4

>  <i_i_glide_posenum>  (302) 
8

>  <r_i_glide_eff_state_penalty>  (302) 
0

>  <ligand_id>  (302) 
86

>  <original_smiles>  (302) 
CCN1CC2(O)CC(O)C3C(OC)C4C(OC)C5(C(O)C(CN6CCOC6=O)C6C(O)C7C2OC5C64C7O)C31

>  <smiles>  (302) 
[H]OC1([H])C2([H])C3([H])OC4([H])C5(C2([H])O[H])C2([H])C([H])(OC([H])([H])[H])C6([H])C([H])(O[H])C([H])([H])C3(O[H])C([H])([H])[N+]([H])(C([H])([H])C([H])([H])[H])C6([H])C4(C([H])(O[H])C([H])(C([H])([H])N3C(=O)OC([H])([H])C3([H])[H])C15[H])C2([H])OC([H])([H])[H]

$$$$
86:7:1
     RDKit          3D

 80 87  0  0  1  0  0  0  0  0999 V2000
    2.4281   -4.7116    6.4054 C   0  0  0  0  0  0  0  0  0  0  0  0
    2.8047   -6.1805    6.6960 C   0  0  0  0  0  0  0  0  0  0  0  0
    3.6747   -6.7686    5.6496 N   0  0  1  0  0  0  0  0  0  0  0  0
    4.7410   -7.6637    6.2762 C   0  0  0  0  0  0  0  0  0  0  0  0
    5.4805   -8.8567    5.4832 C   0  0  1  0  0  0  0  0  0  0  0  0
    6.4004   -9.3579    6.4382 O   0  0  0  0  0  0  0  0  0  0  0  0
    4.4740  -10.0492    5.3438 C   0  0  0  0  0  0  0  0  0  0  0  0
    2.9487   -9.7133    5.2922 C   0  0  1  0  0  0  0  0  0  0  0  0
    2.3918   -9.4634    6.5764 O   0  0  0  0  0  0  0  0  0  0  0  0
    2.4756   -8.6872    4.2393 C   0  0  2  0  0  0  0  0  0  0  0  0
    2.6458   -9.3671    2.7977 C   0  0  1  0  0  0  0  0  0  0  0  0
    1.3811   -9.7348    2.2640 O   0  0  0  0  0  0  0  0  0  0  0  0
    0.7181  -10.8276    2.8823 C   0  0  0  0  0  0  0  0  0  0  0  0
    3.3572   -8.5056    1.6980 C   0  0  1  0  0  0  0  0  0  0  0  0
    2.6964   -7.1689    1.8443 C   0  0  1  0  0  0  0  0  0  0  0  0
    1.2850   -7.0638    2.0699 O   0  0  0  0  0  0  0  0  0  0  0  0
    0.4846   -7.0232    0.8876 C   0  0  0  0  0  0  0  0  0  0  0  0
    3.5208   -6.6509    3.0565 C   0  0  2  0  0  0  0  0  0  0  0  0
    4.0124   -5.2851    2.4261 C   0  0  1  0  0  0  0  0  0  0  0  0
    4.5308   -4.3864    3.3860 O   0  0  0  0  0  0  0  0  0  0  0  0
    5.1004   -5.6237    1.2310 C   0  0  1  0  0  0  0  0  0  0  0  0
    6.0402   -4.4208    0.8276 C   0  0  0  0  0  0  0  0  0  0  0  0
    5.3586   -3.2697    0.1856 N   0  0  0  0  0  0  0  0  0  0  0  0
    3.9786   -2.9006    0.4190 C   0  0  0  0  0  0  0  0  0  0  0  0
    3.7588   -1.6863   -0.4607 C   0  0  0  0  0  0  0  0  0  0  0  0
    5.0455   -1.4717   -1.0245 O   0  0  0  0  0  0  0  0  0  0  0  0
    5.9683   -2.3793   -0.6907 C   0  0  0  0  0  0  0  0  0  0  0  0
    7.1289   -2.3728   -1.0840 O   0  0  0  0  0  0  0  0  0  0  0  0
    5.8060   -7.1002    1.3308 C   0  0  2  0  0  0  0  0  0  0  0  0
    7.2186   -7.7670    1.7565 C   0  0  1  0  0  0  0  0  0  0  0  0
    8.3440   -6.9537    2.1067 O   0  0  0  0  0  0  0  0  0  0  0  0
    6.9026   -8.9178    2.8433 C   0  0  1  0  0  0  0  0  0  0  0  0
    6.5304   -8.3925    4.3277 C   0  0  1  0  0  0  0  0  0  0  0  0
    5.8614   -7.2530    4.0490 O   0  0  0  0  0  0  0  0  0  0  0  0
    4.7162   -7.5045    3.2843 C   0  0  1  0  0  0  0  0  0  0  0  0
    4.8831   -8.2050    1.9896 C   0  0  1  0  0  0  0  0  0  0  0  0
    5.6865   -9.4942    2.1644 C   0  0  1  0  0  0  0  0  0  0  0  0
    5.9662  -10.1511    0.9390 O   0  0  0  0  0  0  0  0  0  0  0  0
    2.8786   -7.1324    4.4066 C   0  0  2  0  0  0  0  0  0  0  0  0
    1.7262   -4.3433    7.1658 H   0  0  0  0  0  0  0  0  0  0  0  0
    1.9492   -4.5697    5.4329 H   0  0  0  0  0  0  0  0  0  0  0  0
    3.3106   -4.0648    6.4411 H   0  0  0  0  0  0  0  0  0  0  0  0
    3.2967   -6.1714    7.6727 H   0  0  0  0  0  0  0  0  0  0  0  0
    1.9056   -6.7871    6.8320 H   0  0  0  0  0  0  0  0  0  0  0  0
    5.5368   -6.9870    6.6087 H   0  0  0  0  0  0  0  0  0  0  0  0
    4.3736   -8.0981    7.2104 H   0  0  0  0  0  0  0  0  0  0  0  0
    6.7910  -10.1419    6.0822 H   0  0  0  0  0  0  0  0  0  0  0  0
    4.7457  -10.7647    4.5764 H   0  0  0  0  0  0  0  0  0  0  0  0
    4.5565  -10.6812    6.2293 H   0  0  0  0  0  0  0  0  0  0  0  0
    2.4639  -10.6604    5.0419 H   0  0  0  0  0  0  0  0  0  0  0  0
    2.2082  -10.2992    6.9859 H   0  0  0  0  0  0  0  0  0  0  0  0
    1.3975   -8.6438    4.3934 H   0  0  0  0  0  0  0  0  0  0  0  0
    3.1815  -10.3092    2.8848 H   0  0  0  0  0  0  0  0  0  0  0  0
   -0.1603  -11.0480    2.2790 H   0  0  0  0  0  0  0  0  0  0  0  0
    0.3712  -10.5906    3.8870 H   0  0  0  0  0  0  0  0  0  0  0  0
    1.3385  -11.7239    2.9243 H   0  0  0  0  0  0  0  0  0  0  0  0
    3.2223   -8.9467    0.7097 H   0  0  0  0  0  0  0  0  0  0  0  0
    2.8634   -6.6504    0.9078 H   0  0  0  0  0  0  0  0  0  0  0  0
   -0.5745   -7.0832    1.1490 H   0  0  0  0  0  0  0  0  0  0  0  0
    0.7013   -7.8448    0.2206 H   0  0  0  0  0  0  0  0  0  0  0  0
    0.6469   -6.1049    0.3246 H   0  0  0  0  0  0  0  0  0  0  0  0
    3.1091   -4.7959    2.0688 H   0  0  0  0  0  0  0  0  0  0  0  0
    4.7781   -3.5880    2.9433 H   0  0  0  0  0  0  0  0  0  0  0  0
    4.5522   -5.7460    0.3020 H   0  0  0  0  0  0  0  0  0  0  0  0
    6.5878   -4.0626    1.7024 H   0  0  0  0  0  0  0  0  0  0  0  0
    6.8174   -4.7861    0.1496 H   0  0  0  0  0  0  0  0  0  0  0  0
    3.2948   -3.6852    0.1003 H   0  0  0  0  0  0  0  0  0  0  0  0
    3.8303   -2.6319    1.4634 H   0  0  0  0  0  0  0  0  0  0  0  0
    3.0195   -1.9111   -1.2293 H   0  0  0  0  0  0  0  0  0  0  0  0
    3.4029   -0.8308    0.1168 H   0  0  0  0  0  0  0  0  0  0  0  0
    6.2908   -6.4090    1.9959 H   0  0  0  0  0  0  0  0  0  0  0  0
    7.5851   -8.2685    0.8628 H   0  0  0  0  0  0  0  0  0  0  0  0
    9.1514   -7.4083    1.8623 H   0  0  0  0  0  0  0  0  0  0  0  0
    7.7003   -9.6578    2.9003 H   0  0  0  0  0  0  0  0  0  0  0  0
    7.4567   -8.0454    4.7879 H   0  0  0  0  0  0  0  0  0  0  0  0
    5.2112   -6.5846    3.5333 H   0  0  0  0  0  0  0  0  0  0  0  0
    5.2304  -10.2595    2.7525 H   0  0  0  0  0  0  0  0  0  0  0  0
    5.2598  -10.7685    0.7391 H   0  0  0  0  0  0  0  0  0  0  0  0
    1.9315   -6.5948    4.4502 H   0  0  0  0  0  0  0  0  0  0  0  0
    4.2257   -5.9900    5.3287 H   0  0  0  0  0  0  0  0  0  0  0  0
  1  2  1  0
  1 40  1  0
  1 41  1  0
  1 42  1  0
  2  3  1  0
  2 43  1  0
  2 44  1  0
  3 39  1  0
  3  4  1  0
  3 80  1  6
  4  5  1  0
  4 45  1  0
  4 46  1  0
  5 33  1  0
  5  6  1  1
  5  7  1  0
  6 47  1  0
  7  8  1  0
  7 48  1  0
  7 49  1  0
  8  9  1  0
  8 10  1  0
  8 50  1  6
  9 51  1  0
 10 39  1  0
 10 11  1  0
 10 52  1  1
 11 12  1  0
 11 14  1  0
 11 53  1  1
 12 13  1  0
 13 54  1  0
 13 55  1  0
 13 56  1  0
 14 36  1  0
 14 15  1  0
 14 57  1  6
 15 16  1  0
 15 18  1  0
 15 58  1  6
 16 17  1  0
 17 59  1  0
 17 60  1  0
 17 61  1  0
 18 35  1  0
 18 19  1  1
 18 39  1  0
 19 20  1  0
 19 21  1  0
 19 62  1  6
 20 63  1  0
 21 22  1  0
 21 29  1  0
 21 64  1  6
 22 23  1  0
 22 65  1  0
 22 66  1  0
 23 27  1  0
 23 24  1  0
 24 25  1  0
 24 67  1  0
 24 68  1  0
 25 26  1  0
 25 69  1  0
 25 70  1  0
 26 27  1  0
 27 28  2  0
 29 36  1  0
 29 30  1  0
 29 71  1  6
 30 31  1  0
 30 32  1  0
 30 72  1  6
 31 73  1  0
 32 37  1  0
 32 33  1  0
 32 74  1  1
 33 34  1  0
 33 75  1  1
 34 35  1  0
 35 36  1  0
 35 76  1  1
 36 37  1  1
 37 38  1  0
 37 77  1  1
 38 78  1  0
 39 79  1  1
M  CHG  1   3   1
M  END
>  <i_m_ct_stereo_status>  (303) 
1

>  <s_m_source_file>  (303) 
/var/tmp/pbs.5076255.sched01/tmpt7uccrld/92zpefy4ut.sdf

>  <i_m_source_file_index>  (303) 
37

>  <i_lp_mmshare_version>  (303) 
48012

>  <i_f3d_flags>  (303) 
0

>  <s_epik_input>  (303) 
W0NIM11PW0NAQEhdMVtDQEBIXShbQ0BdMjNbQ0BIXTRbQ0BdMTU2KVtDQEhdKE9bQ0gzXSlbQ0BASF03W0NASF02TihbQ0gyXVtDSDNdKVtDSDJdW0NAQF0oW09IXSkoW0NIMl1bQ0BIXTdbT0hdKVtDQEhdKE80KVtDQEBIXShbQ0BASF0zW09IXSlbQ0BIXShbT0hdKVtDSF0yW0NAQEhdKFtDQEBIXTVbT0hdKVtDSDJdTjhbQ0gyXVtDSDJdT0M4PU8=

>  <s_epik_cmdline>  (303) 
J2VwaWtfcHl0aG9uJywgJy1waHQnLCAnMi4wJywgJy1waCcsICc3LjAnLCAnLXRuJywgJzgnLCAnLW1hJywgJzIwMCcsICctaW1hZScsICc8aW5maWxlLm1hZT4nLCAnLW9tYWUnLCAnPG91dGZpbGUubWFlPic=

>  <r_epik_Ionization_Penalty>  (303) 
0.00210516

>  <r_epik_Ionization_Penalty_Charging>  (303) 
0.00210146

>  <r_epik_Ionization_Penalty_Neutral>  (303) 
3.70392e-06

>  <r_epik_State_Penalty>  (303) 
0.00144031

>  <r_epik_Charging_Adjusted_Penalty>  (303) 
0.00354177

>  <i_epik_Tot_Q>  (303) 
1

>  <i_epik_Tot_abs_Q>  (303) 
1

>  <s_epik_Chemistry_Notes>  (303) 
This compound has an ester and may undergo hydrolysis at high or low pH.

>  <s_lp_Force_Field>  (303) 
OPLS3e

>  <r_lp_Energy>  (303) 
327.831

>  <b_lp_Chiralities_Consistent>  (303) 
1

>  <s_lp_Variant>  (303) 
86:0-8

>  <s_i_glide_gridfile>  (303) 
pfpi4k_grid

>  <i_i_glide_lignum>  (303) 
37

>  <i_i_glide_rotatable_bonds>  (303) 
10

>  <r_i_docking_score>  (303) 
-3.95299

>  <r_i_glide_ligand_efficiency>  (303) 
-0.101359

>  <r_i_glide_ligand_efficiency_sa>  (303) 
-0.343729

>  <r_i_glide_ligand_efficiency_ln>  (303) 
-0.847634

>  <r_i_glide_gscore>  (303) 
-3.95299

>  <r_i_glide_lipo>  (303) 
-0.498445

>  <r_i_glide_hbond>  (303) 
-0.340363

>  <r_i_glide_metal>  (303) 
-0

>  <r_i_glide_rewards>  (303) 
-0.0599519

>  <r_i_glide_evdw>  (303) 
-26.5582

>  <r_i_glide_ecoul>  (303) 
-11.7734

>  <r_i_glide_erotb>  (303) 
0.0628015

>  <r_i_glide_esite>  (303) 
-0.0231103

>  <r_i_glide_emodel>  (303) 
-44.5099

>  <r_i_glide_energy>  (303) 
-38.3317

>  <r_i_glide_einternal>  (303) 
10.0726

>  <r_i_glide_intrahb_reward>  (303) 
-0

>  <i_i_glide_confnum>  (303) 
4

>  <i_i_glide_posenum>  (303) 
2

>  <r_i_glide_eff_state_penalty>  (303) 
0

>  <ligand_id>  (303) 
86

>  <original_smiles>  (303) 
CCN1CC2(O)CC(O)C3C(OC)C4C(OC)C5(C(O)C(CN6CCOC6=O)C6C(O)C7C2OC5C64C7O)C31

>  <smiles>  (303) 
[H]OC1([H])C2([H])C3([H])OC4([H])C5(C2([H])O[H])C2([H])C([H])(OC([H])([H])[H])C6([H])C([H])(O[H])C([H])([H])C3(O[H])C([H])([H])[N+]([H])(C([H])([H])C([H])([H])[H])C6([H])C4(C([H])(O[H])C([H])(C([H])([H])N3C(=O)OC([H])([H])C3([H])[H])C15[H])C2([H])OC([H])([H])[H]

$$$$
86:7:2
     RDKit          3D

 80 87  0  0  1  0  0  0  0  0999 V2000
    4.9079   -4.9743    6.5277 C   0  0  0  0  0  0  0  0  0  0  0  0
    5.2853   -5.9282    5.3773 C   0  0  0  0  0  0  0  0  0  0  0  0
    5.2369   -5.2582    4.0392 N   0  0  1  0  0  0  0  0  0  0  0  0
    6.4045   -5.7104    3.1337 C   0  0  0  0  0  0  0  0  0  0  0  0
    6.3619   -5.6456    1.5230 C   0  0  1  0  0  0  0  0  0  0  0  0
    7.6509   -6.0983    1.1795 O   0  0  0  0  0  0  0  0  0  0  0  0
    5.4342   -6.7974    1.0149 C   0  0  0  0  0  0  0  0  0  0  0  0
    4.2811   -7.2720    1.9579 C   0  0  1  0  0  0  0  0  0  0  0  0
    4.6976   -8.1522    2.9883 O   0  0  0  0  0  0  0  0  0  0  0  0
    3.2950   -6.2105    2.4856 C   0  0  2  0  0  0  0  0  0  0  0  0
    2.4328   -5.7192    1.2260 C   0  0  1  0  0  0  0  0  0  0  0  0
    1.0815   -6.1985    1.2623 O   0  0  0  0  0  0  0  0  0  0  0  0
    0.8810   -7.6157    1.2962 C   0  0  0  0  0  0  0  0  0  0  0  0
    2.3436   -4.1700    1.0418 C   0  0  1  0  0  0  0  0  0  0  0  0
    1.9662   -3.7048    2.4256 C   0  0  1  0  0  0  0  0  0  0  0  0
    1.0260   -4.4657    3.2060 O   0  0  0  0  0  0  0  0  0  0  0  0
    0.6128   -3.8546    4.4213 C   0  0  0  0  0  0  0  0  0  0  0  0
    3.3990   -3.6768    3.0063 C   0  0  2  0  0  0  0  0  0  0  0  0
    3.4571   -2.1755    3.5192 C   0  0  1  0  0  0  0  0  0  0  0  0
    4.5544   -1.9796    4.3956 O   0  0  0  0  0  0  0  0  0  0  0  0
    3.4637   -1.1809    2.2246 C   0  0  1  0  0  0  0  0  0  0  0  0
    3.9392    0.2647    2.5790 C   0  0  0  0  0  0  0  0  0  0  0  0
    2.9839    1.0653    3.3689 N   0  0  0  0  0  0  0  0  0  0  0  0
    2.3284    2.2317    2.8075 C   0  0  0  0  0  0  0  0  0  0  0  0
    1.4641    2.7387    3.9652 C   0  0  0  0  0  0  0  0  0  0  0  0
    1.6862    1.7720    4.9873 O   0  0  0  0  0  0  0  0  0  0  0  0
    2.6280    0.8646    4.6882 C   0  0  0  0  0  0  0  0  0  0  0  0
    3.0686    0.0203    5.4787 O   0  0  0  0  0  0  0  0  0  0  0  0
    3.9939   -1.8597    0.8356 C   0  0  2  0  0  0  0  0  0  0  0  0
    5.3023   -1.8648   -0.1094 C   0  0  1  0  0  0  0  0  0  0  0  0
    6.4316   -1.0471    0.1816 O   0  0  0  0  0  0  0  0  0  0  0  0
    5.7061   -3.4027   -0.3559 C   0  0  1  0  0  0  0  0  0  0  0  0
    6.4280   -4.1508    0.8853 C   0  0  1  0  0  0  0  0  0  0  0  0
    5.8081   -3.5658    1.9376 O   0  0  0  0  0  0  0  0  0  0  0  0
    4.4276   -3.8370    1.9241 C   0  0  1  0  0  0  0  0  0  0  0  0
    3.6873   -3.4145    0.7278 C   0  0  1  0  0  0  0  0  0  0  0  0
    4.3110   -3.9329   -0.5630 C   0  0  1  0  0  0  0  0  0  0  0  0
    3.6489   -3.4431   -1.7198 O   0  0  0  0  0  0  0  0  0  0  0  0
    3.7932   -5.1020    3.5535 C   0  0  2  0  0  0  0  0  0  0  0  0
    4.8959   -5.5398    7.4652 H   0  0  0  0  0  0  0  0  0  0  0  0
    3.9249   -4.5175    6.4007 H   0  0  0  0  0  0  0  0  0  0  0  0
    5.6527   -4.1811    6.6261 H   0  0  0  0  0  0  0  0  0  0  0  0
    6.2934   -6.2977    5.5851 H   0  0  0  0  0  0  0  0  0  0  0  0
    4.6347   -6.8138    5.3758 H   0  0  0  0  0  0  0  0  0  0  0  0
    7.2455   -5.0918    3.4540 H   0  0  0  0  0  0  0  0  0  0  0  0
    6.7073   -6.7232    3.4082 H   0  0  0  0  0  0  0  0  0  0  0  0
    7.6683   -6.2054    0.2431 H   0  0  0  0  0  0  0  0  0  0  0  0
    5.0945   -6.6565   -0.0017 H   0  0  0  0  0  0  0  0  0  0  0  0
    6.0418   -7.6908    0.8945 H   0  0  0  0  0  0  0  0  0  0  0  0
    3.6926   -7.9502    1.3355 H   0  0  0  0  0  0  0  0  0  0  0  0
    5.3948   -7.7626    3.4889 H   0  0  0  0  0  0  0  0  0  0  0  0
    2.6045   -6.7718    3.1070 H   0  0  0  0  0  0  0  0  0  0  0  0
    2.8313   -6.1213    0.3011 H   0  0  0  0  0  0  0  0  0  0  0  0
   -0.1893   -7.8296    1.1784 H   0  0  0  0  0  0  0  0  0  0  0  0
    1.2093   -8.0717    2.2396 H   0  0  0  0  0  0  0  0  0  0  0  0
    1.3992   -8.1308    0.5179 H   0  0  0  0  0  0  0  0  0  0  0  0
    1.6903   -3.9178    0.2129 H   0  0  0  0  0  0  0  0  0  0  0  0
    1.4940   -2.7435    2.3185 H   0  0  0  0  0  0  0  0  0  0  0  0
   -0.1460   -4.4810    4.8933 H   0  0  0  0  0  0  0  0  0  0  0  0
    0.1657   -2.8736    4.2448 H   0  0  0  0  0  0  0  0  0  0  0  0
    1.4339   -3.7436    5.1330 H   0  0  0  0  0  0  0  0  0  0  0  0
    2.5901   -1.9706    4.1509 H   0  0  0  0  0  0  0  0  0  0  0  0
    4.5064   -1.0866    4.7225 H   0  0  0  0  0  0  0  0  0  0  0  0
    2.4281   -0.9969    1.9666 H   0  0  0  0  0  0  0  0  0  0  0  0
    4.9134    0.2516    3.0623 H   0  0  0  0  0  0  0  0  0  0  0  0
    4.1111    0.7849    1.6417 H   0  0  0  0  0  0  0  0  0  0  0  0
    3.0611    2.9829    2.5063 H   0  0  0  0  0  0  0  0  0  0  0  0
    1.7363    1.9633    1.9296 H   0  0  0  0  0  0  0  0  0  0  0  0
    1.8102    3.7012    4.3524 H   0  0  0  0  0  0  0  0  0  0  0  0
    0.4035    2.7917    3.7036 H   0  0  0  0  0  0  0  0  0  0  0  0
    4.8144   -1.5841    1.4677 H   0  0  0  0  0  0  0  0  0  0  0  0
    4.9587   -1.4519   -1.0587 H   0  0  0  0  0  0  0  0  0  0  0  0
    6.1117   -0.1631    0.2896 H   0  0  0  0  0  0  0  0  0  0  0  0
    6.2923   -3.5289   -1.2607 H   0  0  0  0  0  0  0  0  0  0  0  0
    7.4445   -3.7576    0.9482 H   0  0  0  0  0  0  0  0  0  0  0  0
    5.0413   -3.1568    2.4747 H   0  0  0  0  0  0  0  0  0  0  0  0
    4.2941   -4.9944   -0.6794 H   0  0  0  0  0  0  0  0  0  0  0  0
    3.3472   -2.5633   -1.5542 H   0  0  0  0  0  0  0  0  0  0  0  0
    3.1478   -5.2490    4.4225 H   0  0  0  0  0  0  0  0  0  0  0  0
    5.4749   -4.2984    4.2400 H   0  0  0  0  0  0  0  0  0  0  0  0
  1  2  1  0
  1 40  1  0
  1 41  1  0
  1 42  1  0
  2  3  1  0
  2 43  1  0
  2 44  1  0
  3 39  1  0
  3  4  1  0
  3 80  1  1
  4  5  1  0
  4 45  1  0
  4 46  1  0
  5 33  1  0
  5  6  1  6
  5  7  1  0
  6 47  1  0
  7  8  1  0
  7 48  1  0
  7 49  1  0
  8  9  1  0
  8 10  1  0
  8 50  1  6
  9 51  1  0
 10 39  1  0
 10 11  1  0
 10 52  1  1
 11 12  1  0
 11 14  1  0
 11 53  1  6
 12 13  1  0
 13 54  1  0
 13 55  1  0
 13 56  1  0
 14 36  1  0
 14 15  1  0
 14 57  1  6
 15 16  1  0
 15 18  1  0
 15 58  1  6
 16 17  1  0
 17 59  1  0
 17 60  1  0
 17 61  1  0
 18 35  1  0
 18 19  1  1
 18 39  1  0
 19 20  1  0
 19 21  1  0
 19 62  1  1
 20 63  1  0
 21 22  1  0
 21 29  1  0
 21 64  1  6
 22 23  1  0
 22 65  1  0
 22 66  1  0
 23 27  1  0
 23 24  1  0
 24 25  1  0
 24 67  1  0
 24 68  1  0
 25 26  1  0
 25 69  1  0
 25 70  1  0
 26 27  1  0
 27 28  2  0
 29 36  1  0
 29 30  1  0
 29 71  1  6
 30 31  1  0
 30 32  1  0
 30 72  1  6
 31 73  1  0
 32 37  1  0
 32 33  1  0
 32 74  1  6
 33 34  1  0
 33 75  1  1
 34 35  1  0
 35 36  1  0
 35 76  1  6
 36 37  1  6
 37 38  1  0
 37 77  1  1
 38 78  1  0
 39 79  1  1
M  CHG  1   3   1
M  END
>  <i_m_ct_stereo_status>  (304) 
1

>  <s_m_source_file>  (304) 
/var/tmp/pbs.5076255.sched01/tmpt7uccrld/92zpefy4ut.sdf

>  <i_m_source_file_index>  (304) 
37

>  <i_lp_mmshare_version>  (304) 
48012

>  <i_f3d_flags>  (304) 
0

>  <s_epik_input>  (304) 
W0NIM11PW0NAQEhdMVtDQEBIXShbQ0BdMjNbQ0BIXTRbQ0BdMTU2KVtDQEhdKE9bQ0gzXSlbQ0BASF03W0NASF02TihbQ0gyXVtDSDNdKVtDSDJdW0NAQF0oW09IXSkoW0NIMl1bQ0BIXTdbT0hdKVtDQEhdKE80KVtDQEBIXShbQ0BASF0zW09IXSlbQ0BIXShbT0hdKVtDSF0yW0NAQEhdKFtDQEBIXTVbT0hdKVtDSDJdTjhbQ0gyXVtDSDJdT0M4PU8=

>  <s_epik_cmdline>  (304) 
J2VwaWtfcHl0aG9uJywgJy1waHQnLCAnMi4wJywgJy1waCcsICc3LjAnLCAnLXRuJywgJzgnLCAnLW1hJywgJzIwMCcsICctaW1hZScsICc8aW5maWxlLm1hZT4nLCAnLW9tYWUnLCAnPG91dGZpbGUubWFlPic=

>  <r_epik_Ionization_Penalty>  (304) 
0.00210516

>  <r_epik_Ionization_Penalty_Charging>  (304) 
0.00210146

>  <r_epik_Ionization_Penalty_Neutral>  (304) 
3.70392e-06

>  <r_epik_State_Penalty>  (304) 
0.00144031

>  <r_epik_Charging_Adjusted_Penalty>  (304) 
0.00354177

>  <i_epik_Tot_Q>  (304) 
1

>  <i_epik_Tot_abs_Q>  (304) 
1

>  <s_epik_Chemistry_Notes>  (304) 
This compound has an ester and may undergo hydrolysis at high or low pH.

>  <s_lp_Force_Field>  (304) 
OPLS3e

>  <r_lp_Energy>  (304) 
327.831

>  <b_lp_Chiralities_Consistent>  (304) 
1

>  <s_lp_Variant>  (304) 
86:0-8

>  <s_i_glide_gridfile>  (304) 
pfpi4k_grid

>  <i_i_glide_lignum>  (304) 
37

>  <i_i_glide_rotatable_bonds>  (304) 
10

>  <r_i_docking_score>  (304) 
-3.38638

>  <r_i_glide_ligand_efficiency>  (304) 
-0.0868302

>  <r_i_glide_ligand_efficiency_sa>  (304) 
-0.294459

>  <r_i_glide_ligand_efficiency_ln>  (304) 
-0.726135

>  <r_i_glide_gscore>  (304) 
-3.38638

>  <r_i_glide_lipo>  (304) 
-0.400995

>  <r_i_glide_hbond>  (304) 
-0.16

>  <r_i_glide_metal>  (304) 
-0

>  <r_i_glide_rewards>  (304) 
-1

>  <r_i_glide_evdw>  (304) 
-22.7881

>  <r_i_glide_ecoul>  (304) 
-4.93567

>  <r_i_glide_erotb>  (304) 
0.0628015

>  <r_i_glide_esite>  (304) 
-0.00842523

>  <r_i_glide_emodel>  (304) 
-43.92

>  <r_i_glide_energy>  (304) 
-27.7238

>  <r_i_glide_einternal>  (304) 
5.17682

>  <r_i_glide_intrahb_reward>  (304) 
-1

>  <i_i_glide_confnum>  (304) 
4

>  <i_i_glide_posenum>  (304) 
4

>  <r_i_glide_eff_state_penalty>  (304) 
0

>  <ligand_id>  (304) 
86

>  <original_smiles>  (304) 
CCN1CC2(O)CC(O)C3C(OC)C4C(OC)C5(C(O)C(CN6CCOC6=O)C6C(O)C7C2OC5C64C7O)C31

>  <smiles>  (304) 
[H]OC1([H])C2([H])C3([H])OC4([H])C5(C2([H])O[H])C2([H])C([H])(OC([H])([H])[H])C6([H])C([H])(O[H])C([H])([H])C3(O[H])C([H])([H])[N+]([H])(C([H])([H])C([H])([H])[H])C6([H])C4(C([H])(O[H])C([H])(C([H])([H])N3C(=O)OC([H])([H])C3([H])[H])C15[H])C2([H])OC([H])([H])[H]

$$$$
87:0:0
     RDKit          3D

 65 73  0  0  1  0  0  0  0  0999 V2000
    0.6157  -10.1948    6.0893 C   0  0  0  0  0  0  0  0  0  0  0  0
    0.6629   -9.5042    4.7430 C   0  0  2  0  0  0  0  0  0  0  0  0
    1.0428  -10.4503    3.5905 C   0  0  0  0  0  0  0  0  0  0  0  0
    1.8583   -9.5466    2.6924 C   0  0  0  0  0  0  0  0  0  0  0  0
    2.1990   -8.4199    3.2876 C   0  0  0  0  0  0  0  0  0  0  0  0
    1.6911   -8.3415    4.6826 C   0  0  1  0  0  0  0  0  0  0  0  0
    1.1010   -7.0919    5.0158 O   0  0  0  0  0  0  0  0  0  0  0  0
    1.3413   -5.8942    4.4283 C   0  0  0  0  0  0  0  0  0  0  0  0
    0.6948   -4.9358    4.8861 O   0  0  0  0  0  0  0  0  0  0  0  0
    2.3350   -5.8186    3.2459 C   0  0  1  0  0  0  0  0  0  0  0  0
    1.8193   -4.9166    2.1423 C   0  0  1  0  0  0  0  0  0  0  0  0
    1.8725   -3.4129    2.5015 C   0  0  0  0  0  0  0  0  0  0  0  0
    3.2154   -2.9410    3.0996 C   0  0  1  0  0  0  0  0  0  0  0  0
    3.4077   -1.4768    2.5935 C   0  0  0  0  0  0  0  0  0  0  0  0
    3.2031   -2.7613    4.6374 C   0  0  0  0  0  0  0  0  0  0  0  0
    4.6662   -2.8441    5.0488 C   0  0  0  0  0  0  0  0  0  0  0  0
    5.4005   -3.4937    3.8729 C   0  0  0  0  0  0  0  0  0  0  0  0
    4.3436   -4.0465    2.8944 C   0  0  1  0  0  0  0  0  0  0  0  0
    3.7858   -5.4285    3.5069 C   0  0  2  0  0  0  0  0  0  0  0  0
    4.2467   -6.7885    2.9954 C   0  0  1  0  0  0  0  0  0  0  0  0
    3.8470   -7.3510    1.7303 O   0  0  0  0  0  0  0  0  0  0  0  0
    2.8190   -7.1852    2.7304 C   0  0  2  0  0  0  0  0  0  0  0  0
    4.8584   -4.1683    1.3649 C   0  0  2  0  0  0  0  0  0  0  0  0
    5.9744   -5.2631    1.2391 C   0  0  0  0  0  0  0  0  0  0  0  0
    5.6183   -2.8974    0.7749 C   0  0  1  0  0  0  0  0  0  0  0  0
    6.9464   -2.7184    1.2236 O   0  0  0  0  0  0  0  0  0  0  0  0
    5.7267   -2.9034   -0.7271 C   0  0  2  0  0  0  0  0  0  0  0  0
    5.0651   -1.8121   -1.3867 O   0  0  0  0  0  0  0  0  0  0  0  0
    4.4713   -3.1217   -1.4980 C   0  0  2  0  0  0  0  0  0  0  0  0
    3.2675   -3.4353   -0.6405 C   0  0  1  0  0  0  0  0  0  0  0  0
    2.2217   -3.8599   -1.4877 O   0  0  0  0  0  0  0  0  0  0  0  0
    3.6409   -4.5400    0.3866 C   0  0  2  0  0  0  0  0  0  0  0  0
    2.4363   -5.1972    0.8691 O   0  0  0  0  0  0  0  0  0  0  0  0
    1.5852  -10.6139    6.3487 H   0  0  0  0  0  0  0  0  0  0  0  0
   -0.1099  -11.0057    6.1101 H   0  0  0  0  0  0  0  0  0  0  0  0
    0.3317   -9.5033    6.8774 H   0  0  0  0  0  0  0  0  0  0  0  0
   -0.3406   -9.1401    4.5174 H   0  0  0  0  0  0  0  0  0  0  0  0
    1.6568  -11.2947    3.9040 H   0  0  0  0  0  0  0  0  0  0  0  0
    0.1708  -10.8561    3.0791 H   0  0  0  0  0  0  0  0  0  0  0  0
    2.0603   -9.8077    1.6530 H   0  0  0  0  0  0  0  0  0  0  0  0
    2.5353   -8.5632    5.3328 H   0  0  0  0  0  0  0  0  0  0  0  0
    0.7728   -5.2156    2.0619 H   0  0  0  0  0  0  0  0  0  0  0  0
    1.6347   -2.8054    1.6268 H   0  0  0  0  0  0  0  0  0  0  0  0
    1.0850   -3.1927    3.2097 H   0  0  0  0  0  0  0  0  0  0  0  0
    4.3650   -1.0410    2.8684 H   0  0  0  0  0  0  0  0  0  0  0  0
    2.6402   -0.8343    3.0220 H   0  0  0  0  0  0  0  0  0  0  0  0
    3.2455   -1.3516    1.5281 H   0  0  0  0  0  0  0  0  0  0  0  0
    2.7562   -1.8187    4.9533 H   0  0  0  0  0  0  0  0  0  0  0  0
    2.6573   -3.5441    5.1559 H   0  0  0  0  0  0  0  0  0  0  0  0
    5.0653   -1.8457    5.2391 H   0  0  0  0  0  0  0  0  0  0  0  0
    4.7690   -3.4129    5.9727 H   0  0  0  0  0  0  0  0  0  0  0  0
    5.9330   -2.6771    3.4000 H   0  0  0  0  0  0  0  0  0  0  0  0
    6.0923   -4.2577    4.2174 H   0  0  0  0  0  0  0  0  0  0  0  0
    3.9528   -5.4712    4.5730 H   0  0  0  0  0  0  0  0  0  0  0  0
    4.8739   -7.3762    3.6817 H   0  0  0  0  0  0  0  0  0  0  0  0
    6.6924   -5.0530    0.4509 H   0  0  0  0  0  0  0  0  0  0  0  0
    5.6230   -6.2404    0.9389 H   0  0  0  0  0  0  0  0  0  0  0  0
    6.5577   -5.3707    2.1575 H   0  0  0  0  0  0  0  0  0  0  0  0
    5.1214   -1.9685    0.9878 H   0  0  0  0  0  0  0  0  0  0  0  0
    7.2015   -1.8292    1.0440 H   0  0  0  0  0  0  0  0  0  0  0  0
    6.6595   -3.2209   -1.1834 H   0  0  0  0  0  0  0  0  0  0  0  0
    4.5915   -3.6263   -2.4500 H   0  0  0  0  0  0  0  0  0  0  0  0
    2.9408   -2.5095   -0.1811 H   0  0  0  0  0  0  0  0  0  0  0  0
    2.5390   -4.6282   -1.9860 H   0  0  0  0  0  0  0  0  0  0  0  0
    4.0345   -5.3226   -0.2645 H   0  0  0  0  0  0  0  0  0  0  0  0
  1  2  1  0
  1 34  1  0
  1 35  1  0
  1 36  1  0
  2  6  1  0
  2  3  1  0
  2 37  1  6
  3  4  1  0
  3 38  1  0
  3 39  1  0
  4  5  2  0
  4 40  1  0
  5 22  1  0
  5  6  1  0
  6  7  1  0
  6 41  1  1
  7  8  1  0
  8  9  2  0
 10  8  1  1
 10 19  1  0
 10 22  1  0
 10 11  1  0
 11 33  1  0
 11 12  1  0
 11 42  1  6
 12 13  1  0
 12 43  1  0
 12 44  1  0
 13 18  1  0
 13 14  1  6
 13 15  1  0
 14 45  1  0
 14 46  1  0
 14 47  1  0
 15 16  1  0
 15 48  1  0
 15 49  1  0
 16 17  1  0
 16 50  1  0
 16 51  1  0
 18 17  1  1
 17 52  1  0
 17 53  1  0
 18 19  1  0
 18 23  1  0
 19 20  1  0
 19 54  1  1
 20 22  1  0
 20 21  1  0
 20 55  1  1
 22 21  1  6
 23 32  1  0
 23 24  1  1
 23 25  1  0
 24 56  1  0
 24 57  1  0
 24 58  1  0
 25 26  1  0
 25 27  1  0
 25 59  1  6
 26 60  1  0
 27 29  1  0
 27 28  1  0
 27 61  1  1
 28 29  1  0
 29 30  1  0
 29 62  1  6
 30 31  1  0
 30 32  1  0
 30 63  1  1
 31 64  1  0
 32 33  1  0
 32 65  1  6
M  END
>  <i_m_ct_stereo_status>  (305) 
1

>  <s_m_source_file>  (305) 
/var/tmp/pbs.5076255.sched01/tmpt7uccrld/92zpefy4ut.sdf

>  <i_m_source_file_index>  (305) 
38

>  <i_lp_mmshare_version>  (305) 
48012

>  <i_f3d_flags>  (305) 
0

>  <s_epik_input>  (305) 
W0NIXT0xW0NIMl1bQ0BASF0oW0NIM10pW0NASF0oT0MyPU8pQzFbQ0BAXTMoW0NAXTI0NSlbQ0BASF0oTzMpW0NASF01W0NAQF02N1tDQF0oW0NIM10pKFtDSDJdW0NIMl1bQ0gyXTYpW0NIMl1bQ0BIXTRPW0NAQEhdOFtDQEBdNyhbQ0gzXSlbQ0BASF0oW09IXSlbQ0BIXTlbQ0BIXShPOSlbQ0BIXThbT0hd

>  <s_epik_cmdline>  (305) 
J2VwaWtfcHl0aG9uJywgJy1waHQnLCAnMi4wJywgJy1waCcsICc3LjAnLCAnLXRuJywgJzgnLCAnLW1hJywgJzIwMCcsICctaW1hZScsICc8aW5maWxlLm1hZT4nLCAnLW9tYWUnLCAnPG91dGZpbGUubWFlPic=

>  <r_lp_tautomer_probability>  (305) 
1

>  <r_epik_Ionization_Penalty>  (305) 
1.77215e-07

>  <r_epik_Ionization_Penalty_Charging>  (305) 
0

>  <r_epik_Ionization_Penalty_Neutral>  (305) 
1.77215e-07

>  <r_epik_State_Penalty>  (305) 
-0

>  <r_epik_Charging_Adjusted_Penalty>  (305) 
0

>  <i_epik_Tot_Q>  (305) 
0

>  <i_epik_Tot_abs_Q>  (305) 
0

>  <s_epik_Chemistry_Notes>  (305) 
This compound has an ester and may undergo hydrolysis at high or low pH.

>  <s_lp_Force_Field>  (305) 
OPLS3e

>  <r_lp_Energy>  (305) 
103.479

>  <b_lp_Chiralities_Consistent>  (305) 
1

>  <s_lp_Variant>  (305) 
87:0-1

>  <s_i_glide_gridfile>  (305) 
pfpi4k_grid

>  <i_i_glide_lignum>  (305) 
38

>  <i_i_glide_rotatable_bonds>  (305) 
2

>  <r_i_docking_score>  (305) 
-2.75498

>  <r_i_glide_ligand_efficiency>  (305) 
-0.0834843

>  <r_i_glide_ligand_efficiency_sa>  (305) 
-0.267779

>  <r_i_glide_ligand_efficiency_ln>  (305) 
-0.612694

>  <r_i_glide_gscore>  (305) 
-2.75498

>  <r_i_glide_lipo>  (305) 
-0.429876

>  <r_i_glide_hbond>  (305) 
0

>  <r_i_glide_metal>  (305) 
-0

>  <r_i_glide_rewards>  (305) 
-0.296399

>  <r_i_glide_evdw>  (305) 
-21.9064

>  <r_i_glide_ecoul>  (305) 
-6.19246

>  <r_i_glide_erotb>  (305) 
0

>  <r_i_glide_esite>  (305) 
-0.00452017

>  <r_i_glide_emodel>  (305) 
-31.5965

>  <r_i_glide_energy>  (305) 
-28.0988

>  <r_i_glide_einternal>  (305) 
0.438961

>  <r_i_glide_intrahb_reward>  (305) 
-0

>  <i_i_glide_confnum>  (305) 
2

>  <i_i_glide_posenum>  (305) 
10

>  <r_i_glide_eff_state_penalty>  (305) 
0

>  <ligand_id>  (305) 
87

>  <original_smiles>  (305) 
CC1CC=C2C1OC(=O)C13C4CC5(C)CCCC5(C1C1OC213)C1(C)C(O)C2OC2C(O)C1O4

>  <smiles>  (305) 
[H]OC1([H])C2([H])OC2([H])C([H])(O[H])C2(C([H])([H])[H])C1([H])OC1([H])C([H])([H])C3(C([H])([H])[H])C([H])([H])C([H])([H])C([H])([H])C32C2([H])C3([H])OC34C3=C([H])C([H])([H])C([H])(C([H])([H])[H])C3([H])OC(=O)C142

$$$$
87:0:1
     RDKit          3D

 65 73  0  0  1  0  0  0  0  0999 V2000
    0.6966   -9.4517    7.4783 C   0  0  0  0  0  0  0  0  0  0  0  0
    0.6630   -8.9474    6.0273 C   0  0  2  0  0  0  0  0  0  0  0  0
    0.9456  -10.0391    4.9774 C   0  0  0  0  0  0  0  0  0  0  0  0
    1.6920   -9.2819    3.8974 C   0  0  0  0  0  0  0  0  0  0  0  0
    2.0862   -8.0878    4.2989 C   0  0  0  0  0  0  0  0  0  0  0  0
    1.6875   -7.8158    5.7070 C   0  0  1  0  0  0  0  0  0  0  0  0
    1.1304   -6.5205    5.9028 O   0  0  0  0  0  0  0  0  0  0  0  0
    1.3325   -5.4078    5.1374 C   0  0  0  0  0  0  0  0  0  0  0  0
    0.7488   -4.3878    5.5029 O   0  0  0  0  0  0  0  0  0  0  0  0
    2.2463   -5.5241    3.8725 C   0  0  1  0  0  0  0  0  0  0  0  0
    1.6494   -4.7609    2.6984 C   0  0  1  0  0  0  0  0  0  0  0  0
    1.7461   -3.2304    2.8610 C   0  0  0  0  0  0  0  0  0  0  0  0
    3.1400   -2.7097    3.2691 C   0  0  1  0  0  0  0  0  0  0  0  0
    3.3075   -1.3374    2.5492 C   0  0  0  0  0  0  0  0  0  0  0  0
    3.2480   -2.3159    4.7623 C   0  0  0  0  0  0  0  0  0  0  0  0
    4.7330   -2.3667    5.0779 C   0  0  0  0  0  0  0  0  0  0  0  0
    5.3597   -3.1923    3.9503 C   0  0  0  0  0  0  0  0  0  0  0  0
    4.2277   -3.8533    3.1328 C   0  0  1  0  0  0  0  0  0  0  0  0
    3.7053   -5.1245    3.9795 C   0  0  2  0  0  0  0  0  0  0  0  0
    4.1204   -6.5548    3.6269 C   0  0  1  0  0  0  0  0  0  0  0  0
    3.6208   -7.2772    2.4959 O   0  0  0  0  0  0  0  0  0  0  0  0
    2.6700   -6.9595    3.5272 C   0  0  2  0  0  0  0  0  0  0  0  0
    4.6419   -4.1968    1.6053 C   0  0  2  0  0  0  0  0  0  0  0  0
    5.7306   -5.3237    1.5498 C   0  0  0  0  0  0  0  0  0  0  0  0
    5.3797   -3.0333    0.8000 C   0  0  1  0  0  0  0  0  0  0  0  0
    6.7423   -2.8090    1.1472 O   0  0  0  0  0  0  0  0  0  0  0  0
    5.3715   -3.2389   -0.6948 C   0  0  2  0  0  0  0  0  0  0  0  0
    4.6551   -2.2304   -1.4343 O   0  0  0  0  0  0  0  0  0  0  0  0
    4.0557   -3.5376   -1.3388 C   0  0  2  0  0  0  0  0  0  0  0  0
    2.9019   -3.7229   -0.3797 C   0  0  1  0  0  0  0  0  0  0  0  0
    1.8115   -4.2580   -1.1295 O   0  0  0  0  0  0  0  0  0  0  0  0
    3.3477   -4.6743    0.7738 C   0  0  2  0  0  0  0  0  0  0  0  0
    2.1794   -5.2258    1.4407 O   0  0  0  0  0  0  0  0  0  0  0  0
    1.6730   -9.8478    7.7397 H   0  0  0  0  0  0  0  0  0  0  0  0
   -0.0367  -10.2350    7.6573 H   0  0  0  0  0  0  0  0  0  0  0  0
    0.4782   -8.6357    8.1687 H   0  0  0  0  0  0  0  0  0  0  0  0
   -0.3463   -8.5950    5.8151 H   0  0  0  0  0  0  0  0  0  0  0  0
    1.5669  -10.8520    5.3540 H   0  0  0  0  0  0  0  0  0  0  0  0
    0.0309  -10.4877    4.5824 H   0  0  0  0  0  0  0  0  0  0  0  0
    1.8065   -9.6928    2.8992 H   0  0  0  0  0  0  0  0  0  0  0  0
    2.5799   -7.9518    6.3130 H   0  0  0  0  0  0  0  0  0  0  0  0
    0.5939   -5.0233    2.6788 H   0  0  0  0  0  0  0  0  0  0  0  0
    1.4141   -2.7571    1.9303 H   0  0  0  0  0  0  0  0  0  0  0  0
    1.0150   -2.8972    3.5853 H   0  0  0  0  0  0  0  0  0  0  0  0
    4.2892   -0.8844    2.6876 H   0  0  0  0  0  0  0  0  0  0  0  0
    2.5840   -0.6185    2.9390 H   0  0  0  0  0  0  0  0  0  0  0  0
    3.0692   -1.3572    1.4900 H   0  0  0  0  0  0  0  0  0  0  0  0
    2.8363   -1.3289    4.9808 H   0  0  0  0  0  0  0  0  0  0  0  0
    2.7387   -3.0100    5.4258 H   0  0  0  0  0  0  0  0  0  0  0  0
    5.1639   -1.3635    5.0930 H   0  0  0  0  0  0  0  0  0  0  0  0
    4.9085   -2.8111    6.0561 H   0  0  0  0  0  0  0  0  0  0  0  0
    5.8876   -2.4688    3.3436 H   0  0  0  0  0  0  0  0  0  0  0  0
    6.0615   -3.9171    4.3550 H   0  0  0  0  0  0  0  0  0  0  0  0
    3.9619   -5.0154    5.0258 H   0  0  0  0  0  0  0  0  0  0  0  0
    4.8035   -7.0501    4.3250 H   0  0  0  0  0  0  0  0  0  0  0  0
    6.3833   -5.2527    0.6840 H   0  0  0  0  0  0  0  0  0  0  0  0
    5.3429   -6.3238    1.4217 H   0  0  0  0  0  0  0  0  0  0  0  0
    6.3783   -5.3209    2.4300 H   0  0  0  0  0  0  0  0  0  0  0  0
    4.9106   -2.0771    0.9149 H   0  0  0  0  0  0  0  0  0  0  0  0
    7.2355   -3.5982    1.0067 H   0  0  0  0  0  0  0  0  0  0  0  0
    6.2501   -3.6339   -1.1791 H   0  0  0  0  0  0  0  0  0  0  0  0
    4.1167   -4.1614   -2.2139 H   0  0  0  0  0  0  0  0  0  0  0  0
    2.6033   -2.7451   -0.0154 H   0  0  0  0  0  0  0  0  0  0  0  0
    2.1717   -4.9219   -1.7176 H   0  0  0  0  0  0  0  0  0  0  0  0
    3.6822   -5.5503    0.2143 H   0  0  0  0  0  0  0  0  0  0  0  0
  1  2  1  0
  1 34  1  0
  1 35  1  0
  1 36  1  0
  2  6  1  0
  2  3  1  0
  2 37  1  6
  3  4  1  0
  3 38  1  0
  3 39  1  0
  4  5  2  0
  4 40  1  0
  5 22  1  0
  5  6  1  0
  6  7  1  0
  6 41  1  1
  7  8  1  0
  8  9  2  0
 10  8  1  1
 10 19  1  0
 10 22  1  0
 10 11  1  0
 11 33  1  0
 11 12  1  0
 11 42  1  6
 12 13  1  0
 12 43  1  0
 12 44  1  0
 13 18  1  0
 13 14  1  6
 13 15  1  0
 14 45  1  0
 14 46  1  0
 14 47  1  0
 15 16  1  0
 15 48  1  0
 15 49  1  0
 16 17  1  0
 16 50  1  0
 16 51  1  0
 18 17  1  1
 17 52  1  0
 17 53  1  0
 18 19  1  0
 18 23  1  0
 19 20  1  0
 19 54  1  1
 20 22  1  0
 20 21  1  0
 20 55  1  1
 22 21  1  6
 23 32  1  0
 23 24  1  1
 23 25  1  0
 24 56  1  0
 24 57  1  0
 24 58  1  0
 25 26  1  0
 25 27  1  0
 25 59  1  6
 26 60  1  0
 27 29  1  0
 27 28  1  0
 27 61  1  6
 28 29  1  0
 29 30  1  0
 29 62  1  6
 30 31  1  0
 30 32  1  0
 30 63  1  1
 31 64  1  0
 32 33  1  0
 32 65  1  6
M  END
>  <i_m_ct_stereo_status>  (306) 
1

>  <s_m_source_file>  (306) 
/var/tmp/pbs.5076255.sched01/tmpt7uccrld/92zpefy4ut.sdf

>  <i_m_source_file_index>  (306) 
38

>  <i_lp_mmshare_version>  (306) 
48012

>  <i_f3d_flags>  (306) 
0

>  <s_epik_input>  (306) 
W0NIXT0xW0NIMl1bQ0BASF0oW0NIM10pW0NASF0oT0MyPU8pQzFbQ0BAXTMoW0NAXTI0NSlbQ0BASF0oTzMpW0NASF01W0NAQF02N1tDQF0oW0NIM10pKFtDSDJdW0NIMl1bQ0gyXTYpW0NIMl1bQ0BIXTRPW0NAQEhdOFtDQEBdNyhbQ0gzXSlbQ0BASF0oW09IXSlbQ0BIXTlbQ0BIXShPOSlbQ0BIXThbT0hd

>  <s_epik_cmdline>  (306) 
J2VwaWtfcHl0aG9uJywgJy1waHQnLCAnMi4wJywgJy1waCcsICc3LjAnLCAnLXRuJywgJzgnLCAnLW1hJywgJzIwMCcsICctaW1hZScsICc8aW5maWxlLm1hZT4nLCAnLW9tYWUnLCAnPG91dGZpbGUubWFlPic=

>  <r_lp_tautomer_probability>  (306) 
1

>  <r_epik_Ionization_Penalty>  (306) 
1.77215e-07

>  <r_epik_Ionization_Penalty_Charging>  (306) 
0

>  <r_epik_Ionization_Penalty_Neutral>  (306) 
1.77215e-07

>  <r_epik_State_Penalty>  (306) 
-0

>  <r_epik_Charging_Adjusted_Penalty>  (306) 
0

>  <i_epik_Tot_Q>  (306) 
0

>  <i_epik_Tot_abs_Q>  (306) 
0

>  <s_epik_Chemistry_Notes>  (306) 
This compound has an ester and may undergo hydrolysis at high or low pH.

>  <s_lp_Force_Field>  (306) 
OPLS3e

>  <r_lp_Energy>  (306) 
103.479

>  <b_lp_Chiralities_Consistent>  (306) 
1

>  <s_lp_Variant>  (306) 
87:0-1

>  <s_i_glide_gridfile>  (306) 
pfpi4k_grid

>  <i_i_glide_lignum>  (306) 
38

>  <i_i_glide_rotatable_bonds>  (306) 
2

>  <r_i_docking_score>  (306) 
-2.74746

>  <r_i_glide_ligand_efficiency>  (306) 
-0.0832563

>  <r_i_glide_ligand_efficiency_sa>  (306) 
-0.267047

>  <r_i_glide_ligand_efficiency_ln>  (306) 
-0.61102

>  <r_i_glide_gscore>  (306) 
-2.74746

>  <r_i_glide_lipo>  (306) 
-0.244542

>  <r_i_glide_hbond>  (306) 
-0.00238903

>  <r_i_glide_metal>  (306) 
-0

>  <r_i_glide_rewards>  (306) 
-0.296399

>  <r_i_glide_evdw>  (306) 
-21.5829

>  <r_i_glide_ecoul>  (306) 
-7.49336

>  <r_i_glide_erotb>  (306) 
0

>  <r_i_glide_esite>  (306) 
-0.000976944

>  <r_i_glide_emodel>  (306) 
-33.1403

>  <r_i_glide_energy>  (306) 
-29.0763

>  <r_i_glide_einternal>  (306) 
0.339556

>  <r_i_glide_intrahb_reward>  (306) 
-0

>  <i_i_glide_confnum>  (306) 
2

>  <i_i_glide_posenum>  (306) 
6

>  <r_i_glide_eff_state_penalty>  (306) 
0

>  <ligand_id>  (306) 
87

>  <original_smiles>  (306) 
CC1CC=C2C1OC(=O)C13C4CC5(C)CCCC5(C1C1OC213)C1(C)C(O)C2OC2C(O)C1O4

>  <smiles>  (306) 
[H]OC1([H])C2([H])OC2([H])C([H])(O[H])C2(C([H])([H])[H])C1([H])OC1([H])C([H])([H])C3(C([H])([H])[H])C([H])([H])C([H])([H])C([H])([H])C32C2([H])C3([H])OC34C3=C([H])C([H])([H])C([H])(C([H])([H])[H])C3([H])OC(=O)C142

$$$$
87:0:2
     RDKit          3D

 65 73  0  0  1  0  0  0  0  0999 V2000
    0.6406  -11.2900    3.5912 C   0  0  0  0  0  0  0  0  0  0  0  0
    0.2770   -9.8048    3.6770 C   0  0  2  0  0  0  0  0  0  0  0  0
   -0.9816   -9.3859    2.8828 C   0  0  0  0  0  0  0  0  0  0  0  0
   -0.6432   -7.9889    2.4339 C   0  0  0  0  0  0  0  0  0  0  0  0
    0.6469   -7.7086    2.6030 C   0  0  0  0  0  0  0  0  0  0  0  0
    1.3967   -8.8441    3.1868 C   0  0  1  0  0  0  0  0  0  0  0  0
    2.2736   -8.4528    4.2425 O   0  0  0  0  0  0  0  0  0  0  0  0
    2.8227   -7.2146    4.4620 C   0  0  0  0  0  0  0  0  0  0  0  0
    3.5742   -7.1090    5.4238 O   0  0  0  0  0  0  0  0  0  0  0  0
    2.4414   -6.0491    3.4891 C   0  0  1  0  0  0  0  0  0  0  0  0
    2.1630   -4.7420    4.2371 C   0  0  1  0  0  0  0  0  0  0  0  0
    3.4570   -4.0859    4.7550 C   0  0  0  0  0  0  0  0  0  0  0  0
    4.6219   -4.0251    3.7220 C   0  0  1  0  0  0  0  0  0  0  0  0
    5.3686   -2.7125    4.0495 C   0  0  0  0  0  0  0  0  0  0  0  0
    5.7368   -5.0988    3.8788 C   0  0  0  0  0  0  0  0  0  0  0  0
    6.4135   -5.2269    2.5009 C   0  0  0  0  0  0  0  0  0  0  0  0
    5.4736   -4.5502    1.5168 C   0  0  0  0  0  0  0  0  0  0  0  0
    4.1291   -4.3283    2.2541 C   0  0  1  0  0  0  0  0  0  0  0  0
    3.3978   -5.7573    2.3279 C   0  0  2  0  0  0  0  0  0  0  0  0
    2.3428   -6.1608    1.3331 C   0  0  1  0  0  0  0  0  0  0  0  0
    1.0036   -5.6208    1.3398 O   0  0  0  0  0  0  0  0  0  0  0  0
    1.3746   -6.4321    2.4640 C   0  0  1  0  0  0  0  0  0  0  0  0
    3.2730   -3.1253    1.6178 C   0  0  2  0  0  0  0  0  0  0  0  0
    2.8138   -3.4895    0.1624 C   0  0  0  0  0  0  0  0  0  0  0  0
    4.0550   -1.7623    1.3378 C   0  0  1  0  0  0  0  0  0  0  0  0
    4.9161   -1.7677    0.1953 O   0  0  0  0  0  0  0  0  0  0  0  0
    3.1186   -0.6016    1.1421 C   0  0  2  0  0  0  0  0  0  0  0  0
    3.2291    0.4475    2.1270 O   0  0  0  0  0  0  0  0  0  0  0  0
    2.0420   -0.3657    2.1667 C   0  0  2  0  0  0  0  0  0  0  0  0
    1.9526   -1.4124    3.2502 C   0  0  1  0  0  0  0  0  0  0  0  0
    0.7015   -1.2228    3.9148 O   0  0  0  0  0  0  0  0  0  0  0  0
    2.0130   -2.8036    2.5690 C   0  0  2  0  0  0  0  0  0  0  0  0
    1.4100   -3.8390    3.3940 O   0  0  0  0  0  0  0  0  0  0  0  0
    0.8046  -11.6064    2.5616 H   0  0  0  0  0  0  0  0  0  0  0  0
   -0.1170  -11.9222    4.0449 H   0  0  0  0  0  0  0  0  0  0  0  0
    1.5504  -11.5045    4.1527 H   0  0  0  0  0  0  0  0  0  0  0  0
    0.0426   -9.5939    4.7193 H   0  0  0  0  0  0  0  0  0  0  0  0
   -1.1931  -10.0177    2.0246 H   0  0  0  0  0  0  0  0  0  0  0  0
   -1.8790   -9.3343    3.4980 H   0  0  0  0  0  0  0  0  0  0  0  0
   -1.4165   -7.3171    2.1049 H   0  0  0  0  0  0  0  0  0  0  0  0
    1.9291   -9.3060    2.3548 H   0  0  0  0  0  0  0  0  0  0  0  0
    1.5472   -4.9968    5.1069 H   0  0  0  0  0  0  0  0  0  0  0  0
    3.2174   -3.1013    5.1781 H   0  0  0  0  0  0  0  0  0  0  0  0
    3.8067   -4.6674    5.5995 H   0  0  0  0  0  0  0  0  0  0  0  0
    6.1216   -2.4778    3.3097 H   0  0  0  0  0  0  0  0  0  0  0  0
    5.8274   -2.8027    5.0291 H   0  0  0  0  0  0  0  0  0  0  0  0
    4.7194   -1.8482    4.1779 H   0  0  0  0  0  0  0  0  0  0  0  0
    6.4492   -4.8582    4.6644 H   0  0  0  0  0  0  0  0  0  0  0  0
    5.3457   -6.0770    4.1414 H   0  0  0  0  0  0  0  0  0  0  0  0
    7.3688   -4.7133    2.4083 H   0  0  0  0  0  0  0  0  0  0  0  0
    6.6105   -6.2709    2.2678 H   0  0  0  0  0  0  0  0  0  0  0  0
    5.9573   -3.6083    1.2782 H   0  0  0  0  0  0  0  0  0  0  0  0
    5.3948   -5.1286    0.5993 H   0  0  0  0  0  0  0  0  0  0  0  0
    4.1011   -6.5727    2.2132 H   0  0  0  0  0  0  0  0  0  0  0  0
    2.5908   -6.8931    0.5720 H   0  0  0  0  0  0  0  0  0  0  0  0
    2.6425   -2.6160   -0.4705 H   0  0  0  0  0  0  0  0  0  0  0  0
    1.8612   -3.9824    0.1063 H   0  0  0  0  0  0  0  0  0  0  0  0
    3.5322   -4.1242   -0.3656 H   0  0  0  0  0  0  0  0  0  0  0  0
    4.6626   -1.4342    2.1583 H   0  0  0  0  0  0  0  0  0  0  0  0
    4.3859   -1.8359   -0.5822 H   0  0  0  0  0  0  0  0  0  0  0  0
    2.8676   -0.3106    0.1338 H   0  0  0  0  0  0  0  0  0  0  0  0
    1.1391    0.0915    1.7822 H   0  0  0  0  0  0  0  0  0  0  0  0
    2.7669   -1.2443    3.9412 H   0  0  0  0  0  0  0  0  0  0  0  0
    0.0127   -1.1969    3.2728 H   0  0  0  0  0  0  0  0  0  0  0  0
    1.2286   -2.5710    1.8652 H   0  0  0  0  0  0  0  0  0  0  0  0
  1  2  1  0
  1 34  1  0
  1 35  1  0
  1 36  1  0
  2  6  1  0
  2  3  1  0
  2 37  1  1
  3  4  1  0
  3 38  1  0
  3 39  1  0
  4  5  2  0
  4 40  1  0
  5 22  1  0
  5  6  1  0
  6  7  1  0
  6 41  1  6
  7  8  1  0
  8  9  2  0
 10  8  1  1
 10 19  1  0
 10 22  1  0
 10 11  1  0
 11 33  1  0
 11 12  1  0
 11 42  1  1
 12 13  1  0
 12 43  1  0
 12 44  1  0
 13 18  1  0
 13 14  1  6
 13 15  1  0
 14 45  1  0
 14 46  1  0
 14 47  1  0
 15 16  1  0
 15 48  1  0
 15 49  1  0
 16 17  1  0
 16 50  1  0
 16 51  1  0
 18 17  1  6
 17 52  1  0
 17 53  1  0
 18 19  1  0
 18 23  1  0
 19 20  1  0
 19 54  1  1
 20 22  1  0
 20 21  1  0
 20 55  1  6
 22 21  1  6
 23 32  1  0
 23 24  1  6
 23 25  1  0
 24 56  1  0
 24 57  1  0
 24 58  1  0
 25 26  1  0
 25 27  1  0
 25 59  1  1
 26 60  1  0
 27 29  1  0
 27 28  1  0
 27 61  1  6
 28 29  1  0
 29 30  1  0
 29 62  1  6
 30 31  1  0
 30 32  1  0
 30 63  1  1
 31 64  1  0
 32 33  1  0
 32 65  1  6
M  END
>  <i_m_ct_stereo_status>  (307) 
1

>  <s_m_source_file>  (307) 
/var/tmp/pbs.5076255.sched01/tmpt7uccrld/92zpefy4ut.sdf

>  <i_m_source_file_index>  (307) 
38

>  <i_lp_mmshare_version>  (307) 
48012

>  <i_f3d_flags>  (307) 
0

>  <s_epik_input>  (307) 
W0NIXT0xW0NIMl1bQ0BASF0oW0NIM10pW0NASF0oT0MyPU8pQzFbQ0BAXTMoW0NAXTI0NSlbQ0BASF0oTzMpW0NASF01W0NAQF02N1tDQF0oW0NIM10pKFtDSDJdW0NIMl1bQ0gyXTYpW0NIMl1bQ0BIXTRPW0NAQEhdOFtDQEBdNyhbQ0gzXSlbQ0BASF0oW09IXSlbQ0BIXTlbQ0BIXShPOSlbQ0BIXThbT0hd

>  <s_epik_cmdline>  (307) 
J2VwaWtfcHl0aG9uJywgJy1waHQnLCAnMi4wJywgJy1waCcsICc3LjAnLCAnLXRuJywgJzgnLCAnLW1hJywgJzIwMCcsICctaW1hZScsICc8aW5maWxlLm1hZT4nLCAnLW9tYWUnLCAnPG91dGZpbGUubWFlPic=

>  <r_lp_tautomer_probability>  (307) 
1

>  <r_epik_Ionization_Penalty>  (307) 
1.77215e-07

>  <r_epik_Ionization_Penalty_Charging>  (307) 
0

>  <r_epik_Ionization_Penalty_Neutral>  (307) 
1.77215e-07

>  <r_epik_State_Penalty>  (307) 
-0

>  <r_epik_Charging_Adjusted_Penalty>  (307) 
0

>  <i_epik_Tot_Q>  (307) 
0

>  <i_epik_Tot_abs_Q>  (307) 
0

>  <s_epik_Chemistry_Notes>  (307) 
This compound has an ester and may undergo hydrolysis at high or low pH.

>  <s_lp_Force_Field>  (307) 
OPLS3e

>  <r_lp_Energy>  (307) 
103.479

>  <b_lp_Chiralities_Consistent>  (307) 
1

>  <s_lp_Variant>  (307) 
87:0-1

>  <s_i_glide_gridfile>  (307) 
pfpi4k_grid

>  <i_i_glide_lignum>  (307) 
38

>  <i_i_glide_rotatable_bonds>  (307) 
2

>  <r_i_docking_score>  (307) 
-2.51213

>  <r_i_glide_ligand_efficiency>  (307) 
-0.0761253

>  <r_i_glide_ligand_efficiency_sa>  (307) 
-0.244174

>  <r_i_glide_ligand_efficiency_ln>  (307) 
-0.558686

>  <r_i_glide_gscore>  (307) 
-2.51213

>  <r_i_glide_lipo>  (307) 
-0.212945

>  <r_i_glide_hbond>  (307) 
-0.13901

>  <r_i_glide_metal>  (307) 
-0

>  <r_i_glide_rewards>  (307) 
-0.296399

>  <r_i_glide_evdw>  (307) 
-20.6129

>  <r_i_glide_ecoul>  (307) 
-5.55425

>  <r_i_glide_erotb>  (307) 
0

>  <r_i_glide_esite>  (307) 
0

>  <r_i_glide_emodel>  (307) 
-29.9681

>  <r_i_glide_energy>  (307) 
-26.1671

>  <r_i_glide_einternal>  (307) 
0.0471048

>  <r_i_glide_intrahb_reward>  (307) 
-0

>  <i_i_glide_confnum>  (307) 
2

>  <i_i_glide_posenum>  (307) 
27

>  <r_i_glide_eff_state_penalty>  (307) 
0

>  <ligand_id>  (307) 
87

>  <original_smiles>  (307) 
CC1CC=C2C1OC(=O)C13C4CC5(C)CCCC5(C1C1OC213)C1(C)C(O)C2OC2C(O)C1O4

>  <smiles>  (307) 
[H]OC1([H])C2([H])OC2([H])C([H])(O[H])C2(C([H])([H])[H])C1([H])OC1([H])C([H])([H])C3(C([H])([H])[H])C([H])([H])C([H])([H])C([H])([H])C32C2([H])C3([H])OC34C3=C([H])C([H])([H])C([H])(C([H])([H])[H])C3([H])OC(=O)C142

$$$$
88:0:0
     RDKit          3D

 68 73  0  0  1  0  0  0  0  0999 V2000
    5.3233   -0.1639    4.1293 C   0  0  0  0  0  0  0  0  0  0  0  0
    4.7438   -0.9749    3.2259 C   0  0  0  0  0  0  0  0  0  0  0  0
    4.5323   -0.5308    1.7823 C   0  0  1  0  0  0  0  0  0  0  0  0
    5.6508   -1.1036    0.8601 C   0  0  0  0  0  0  0  0  0  0  0  0
    5.3380   -2.0434   -0.3275 C   0  0  1  0  0  0  0  0  0  0  0  0
    4.7916   -1.3432   -1.5890 C   0  0  0  0  0  0  0  0  0  0  0  0
    6.6156   -2.4837   -0.7494 O   0  0  0  0  0  0  0  0  0  0  0  0
    4.5694   -3.3251    0.0699 C   0  0  0  0  0  0  0  0  0  0  0  0
    3.0832   -3.1542    0.4335 C   0  0  0  0  0  0  0  0  0  0  0  0
    2.6438   -2.1906    1.5697 C   0  0  2  0  0  0  0  0  0  0  0  0
    3.0410   -0.6925    1.3981 C   0  0  1  0  0  0  0  0  0  0  0  0
    2.1894    0.4802    2.0804 C   0  0  0  0  0  0  0  0  0  0  0  0
    0.6698    0.4313    2.5234 C   0  0  0  0  0  0  0  0  0  0  0  0
    0.1597   -0.2106    3.8777 C   0  0  1  0  0  0  0  0  0  0  0  0
    1.0685   -1.2730    4.3023 C   0  0  2  0  0  0  0  0  0  0  0  0
    2.1420   -0.5126    5.1327 C   0  0  0  0  0  0  0  0  0  0  0  0
    1.2505   -0.2014    6.2693 C   0  0  2  0  0  0  0  0  0  0  0  0
    1.1107   -1.6111    7.0191 C   0  0  0  0  0  0  0  0  0  0  0  0
    0.2133   -1.8216    7.8319 O   0  0  0  0  0  0  0  0  0  0  0  0
    2.0832   -2.5853    6.6246 O   0  0  0  0  0  0  0  0  0  0  0  0
    1.8930   -3.6953    5.6726 C   0  0  0  0  0  0  0  0  0  0  0  0
    2.0016   -3.6340    4.0716 C   0  0  1  0  0  0  0  0  0  0  0  0
    1.6451   -5.0030    3.5168 C   0  0  0  0  0  0  0  0  0  0  0  0
    1.4107   -2.4307    3.5107 C   0  0  2  0  0  0  0  0  0  0  0  0
    2.8031   -2.6752    3.0515 C   0  0  2  0  0  0  0  0  0  0  0  0
    4.1980   -2.3503    3.6128 C   0  0  1  0  0  0  0  0  0  0  0  0
    5.0965   -3.3570    3.2205 O   0  0  0  0  0  0  0  0  0  0  0  0
    0.0934    0.4607    5.3435 C   0  0  0  0  0  0  0  0  0  0  0  0
    0.2856    1.9921    5.2526 C   0  0  0  0  0  0  0  0  0  0  0  0
   -1.2954    0.2244    5.9795 C   0  0  0  0  0  0  0  0  0  0  0  0
    5.4491   -0.4688    5.1582 H   0  0  0  0  0  0  0  0  0  0  0  0
    5.6784    0.8209    3.8538 H   0  0  0  0  0  0  0  0  0  0  0  0
    4.7137    0.5461    1.7656 H   0  0  0  0  0  0  0  0  0  0  0  0
    6.2159   -0.2564    0.4722 H   0  0  0  0  0  0  0  0  0  0  0  0
    6.3740   -1.6158    1.4993 H   0  0  0  0  0  0  0  0  0  0  0  0
    3.7617   -1.0138   -1.4952 H   0  0  0  0  0  0  0  0  0  0  0  0
    4.8214   -2.0089   -2.4529 H   0  0  0  0  0  0  0  0  0  0  0  0
    5.3908   -0.4668   -1.8386 H   0  0  0  0  0  0  0  0  0  0  0  0
    6.4972   -3.1716   -1.3879 H   0  0  0  0  0  0  0  0  0  0  0  0
    4.5939   -4.0099   -0.7810 H   0  0  0  0  0  0  0  0  0  0  0  0
    5.0977   -3.8713    0.8464 H   0  0  0  0  0  0  0  0  0  0  0  0
    2.5801   -2.8221   -0.4768 H   0  0  0  0  0  0  0  0  0  0  0  0
    2.6632   -4.1419    0.6233 H   0  0  0  0  0  0  0  0  0  0  0  0
    1.5931   -2.1301    1.2919 H   0  0  0  0  0  0  0  0  0  0  0  0
    2.9384   -0.4829    0.3393 H   0  0  0  0  0  0  0  0  0  0  0  0
    2.7789    1.0110    2.8179 H   0  0  0  0  0  0  0  0  0  0  0  0
    2.1709    1.2344    1.2930 H   0  0  0  0  0  0  0  0  0  0  0  0
    0.2810    1.4491    2.4887 H   0  0  0  0  0  0  0  0  0  0  0  0
    0.1433   -0.0674    1.7091 H   0  0  0  0  0  0  0  0  0  0  0  0
   -0.8292   -0.6164    3.6559 H   0  0  0  0  0  0  0  0  0  0  0  0
    0.2967   -1.8346    4.8321 H   0  0  0  0  0  0  0  0  0  0  0  0
    3.0633   -0.9798    5.4353 H   0  0  0  0  0  0  0  0  0  0  0  0
    2.4960    0.4124    4.7006 H   0  0  0  0  0  0  0  0  0  0  0  0
    1.6964    0.5299    6.9432 H   0  0  0  0  0  0  0  0  0  0  0  0
    2.6399   -4.4291    5.9750 H   0  0  0  0  0  0  0  0  0  0  0  0
    0.9327   -4.1548    5.9190 H   0  0  0  0  0  0  0  0  0  0  0  0
    1.4636   -4.9455    2.4437 H   0  0  0  0  0  0  0  0  0  0  0  0
    0.7443   -5.3994    3.9873 H   0  0  0  0  0  0  0  0  0  0  0  0
    2.4630   -5.7027    3.6835 H   0  0  0  0  0  0  0  0  0  0  0  0
    0.5562   -2.7127    2.9006 H   0  0  0  0  0  0  0  0  0  0  0  0
    4.1986   -2.4628    4.6938 H   0  0  0  0  0  0  0  0  0  0  0  0
    5.1068   -3.3886    2.2772 H   0  0  0  0  0  0  0  0  0  0  0  0
    0.2592    2.4503    6.2429 H   0  0  0  0  0  0  0  0  0  0  0  0
   -0.5042    2.4553    4.6572 H   0  0  0  0  0  0  0  0  0  0  0  0
    1.2372    2.2641    4.7949 H   0  0  0  0  0  0  0  0  0  0  0  0
   -1.3262    0.6120    6.9989 H   0  0  0  0  0  0  0  0  0  0  0  0
   -1.5432   -0.8370    6.0170 H   0  0  0  0  0  0  0  0  0  0  0  0
   -2.0859    0.7189    5.4113 H   0  0  0  0  0  0  0  0  0  0  0  0
  1  2  2  0
  1 31  1  0
  1 32  1  0
  2 26  1  0
  2  3  1  0
  3 11  1  0
  3  4  1  0
  3 33  1  1
  4  5  1  0
  4 34  1  0
  4 35  1  0
  5  6  1  0
  5  7  1  6
  5  8  1  0
  6 36  1  0
  6 37  1  0
  6 38  1  0
  7 39  1  0
  8  9  1  0
  8 40  1  0
  8 41  1  0
  9 10  1  0
  9 42  1  0
  9 43  1  0
 10 25  1  0
 10 11  1  0
 10 44  1  6
 11 12  1  0
 11 45  1  6
 12 13  1  0
 12 46  1  0
 12 47  1  0
 13 14  1  0
 13 48  1  0
 13 49  1  0
 14 28  1  0
 14 15  1  0
 14 50  1  6
 15 24  1  0
 15 16  1  0
 15 51  1  1
 16 17  1  0
 16 52  1  0
 16 53  1  0
 17 18  1  0
 17 28  1  0
 17 54  1  1
 18 19  2  0
 18 20  1  0
 20 21  1  0
 21 22  1  0
 21 55  1  0
 21 56  1  0
 25 22  1  6
 22 23  1  6
 22 24  1  0
 23 57  1  0
 23 58  1  0
 23 59  1  0
 24 25  1  0
 24 60  1  6
 25 26  1  0
 26 27  1  0
 26 61  1  1
 27 62  1  0
 28 29  1  0
 28 30  1  0
 29 63  1  0
 29 64  1  0
 29 65  1  0
 30 66  1  0
 30 67  1  0
 30 68  1  0
M  END
>  <i_m_ct_stereo_status>  (308) 
1

>  <s_m_source_file>  (308) 
/var/tmp/pbs.5076255.sched01/tmpt7uccrld/92zpefy4ut.sdf

>  <i_m_source_file_index>  (308) 
39

>  <i_lp_mmshare_version>  (308) 
48012

>  <i_f3d_flags>  (308) 
0

>  <s_epik_input>  (308) 
W0NIMl0xW0NIMl1bQ0BdKFtDSDNdKShbT0hdKVtDSDJdW0NIXShDKD1bQ0gyXSlbQ0BASF0yW09IXSlbQ0BASF0oW0NAQEhdMVtDQF0yMzQpW0NIMl1bQ0gyXVtDQEhdNVtDQEhdNltDQEBIXTRbQ0BdMyhbQ0gzXSlbQ0gyXU9DKD1PKVtDQEBIXShbQ0gyXTYpQzUoW0NIM10pW0NIM10=

>  <s_epik_cmdline>  (308) 
J2VwaWtfcHl0aG9uJywgJy1waHQnLCAnMi4wJywgJy1waCcsICc3LjAnLCAnLXRuJywgJzgnLCAnLW1hJywgJzIwMCcsICctaW1hZScsICc8aW5maWxlLm1hZT4nLCAnLW9tYWUnLCAnPG91dGZpbGUubWFlPic=

>  <r_lp_tautomer_probability>  (308) 
1

>  <r_epik_Ionization_Penalty>  (308) 
1.78095e-06

>  <r_epik_Ionization_Penalty_Charging>  (308) 
0

>  <r_epik_Ionization_Penalty_Neutral>  (308) 
1.78095e-06

>  <r_epik_State_Penalty>  (308) 
-0

>  <r_epik_Charging_Adjusted_Penalty>  (308) 
0

>  <i_epik_Tot_Q>  (308) 
0

>  <i_epik_Tot_abs_Q>  (308) 
0

>  <s_epik_Chemistry_Notes>  (308) 
This compound has an ester and may undergo hydrolysis at high or low pH.

>  <s_lp_Force_Field>  (308) 
OPLS3e

>  <r_lp_Energy>  (308) 
200.523

>  <b_lp_Chiralities_Consistent>  (308) 
1

>  <s_lp_Variant>  (308) 
88:0-1

>  <s_i_glide_gridfile>  (308) 
pfpi4k_grid

>  <i_i_glide_lignum>  (308) 
39

>  <i_i_glide_rotatable_bonds>  (308) 
2

>  <r_i_docking_score>  (308) 
-3.17602

>  <r_i_glide_ligand_efficiency>  (308) 
-0.105867

>  <r_i_glide_ligand_efficiency_sa>  (308) 
-0.328954

>  <r_i_glide_ligand_efficiency_ln>  (308) 
-0.721626

>  <r_i_glide_gscore>  (308) 
-3.17602

>  <r_i_glide_lipo>  (308) 
-0.482727

>  <r_i_glide_hbond>  (308) 
-0.0433659

>  <r_i_glide_metal>  (308) 
-0

>  <r_i_glide_rewards>  (308) 
-0.582426

>  <r_i_glide_evdw>  (308) 
-29.6639

>  <r_i_glide_ecoul>  (308) 
-3.85949

>  <r_i_glide_erotb>  (308) 
0

>  <r_i_glide_esite>  (308) 
-0.0053786

>  <r_i_glide_emodel>  (308) 
-40.2104

>  <r_i_glide_energy>  (308) 
-33.5234

>  <r_i_glide_einternal>  (308) 
0.0615176

>  <r_i_glide_intrahb_reward>  (308) 
-0

>  <i_i_glide_confnum>  (308) 
2

>  <i_i_glide_posenum>  (308) 
5

>  <r_i_glide_eff_state_penalty>  (308) 
0

>  <ligand_id>  (308) 
88

>  <original_smiles>  (308) 
C=C1C2CC(C)(O)CCC3C2CCC2C4CC(C(=O)OCC5(C)C4C35C1O)C2(C)C

>  <smiles>  (308) 
[H]OC1([H])C(=C([H])[H])C2([H])C([H])([H])C(O[H])(C([H])([H])[H])C([H])([H])C([H])([H])C3([H])C2([H])C([H])([H])C([H])([H])C2([H])C4([H])C([H])([H])C([H])(C(=O)OC([H])([H])C5(C([H])([H])[H])C4([H])C135)C2(C([H])([H])[H])C([H])([H])[H]

$$$$
88:0:1
     RDKit          3D

 68 73  0  0  1  0  0  0  0  0999 V2000
    5.3275   -0.1697    4.1372 C   0  0  0  0  0  0  0  0  0  0  0  0
    4.7470   -0.9773    3.2310 C   0  0  0  0  0  0  0  0  0  0  0  0
    4.5400   -0.5285    1.7887 C   0  0  1  0  0  0  0  0  0  0  0  0
    5.6618   -1.1005    0.8714 C   0  0  0  0  0  0  0  0  0  0  0  0
    5.3523   -2.0373   -0.3195 C   0  0  1  0  0  0  0  0  0  0  0  0
    4.8122   -1.3336   -1.5812 C   0  0  0  0  0  0  0  0  0  0  0  0
    6.6324   -2.4755   -0.7375 O   0  0  0  0  0  0  0  0  0  0  0  0
    4.5793   -3.3195    0.0678 C   0  0  0  0  0  0  0  0  0  0  0  0
    3.0916   -3.1477    0.4272 C   0  0  0  0  0  0  0  0  0  0  0  0
    2.6519   -2.1870    1.5667 C   0  0  2  0  0  0  0  0  0  0  0  0
    3.0506   -0.6891    1.3990 C   0  0  1  0  0  0  0  0  0  0  0  0
    2.1987    0.4827    2.0813 C   0  0  0  0  0  0  0  0  0  0  0  0
    0.6787    0.4347    2.5223 C   0  0  0  0  0  0  0  0  0  0  0  0
    0.1653   -0.2102    3.8742 C   0  0  1  0  0  0  0  0  0  0  0  0
    1.0721   -1.2752    4.2977 C   0  0  2  0  0  0  0  0  0  0  0  0
    2.1455   -0.5178    5.1319 C   0  0  0  0  0  0  0  0  0  0  0  0
    1.2520   -0.2089    6.2681 C   0  0  2  0  0  0  0  0  0  0  0  0
    1.1101   -1.6202    7.0140 C   0  0  0  0  0  0  0  0  0  0  0  0
    0.2126   -1.8316    7.8265 O   0  0  0  0  0  0  0  0  0  0  0  0
    2.0818   -2.5944    6.6175 O   0  0  0  0  0  0  0  0  0  0  0  0
    1.8912   -3.7024    5.6625 C   0  0  0  0  0  0  0  0  0  0  0  0
    2.0019   -3.6370    4.0628 C   0  0  1  0  0  0  0  0  0  0  0  0
    1.6461   -5.0035    3.5030 C   0  0  0  0  0  0  0  0  0  0  0  0
    1.4132   -2.4311    3.5046 C   0  0  2  0  0  0  0  0  0  0  0  0
    2.8064   -2.6761    3.0465 C   0  0  2  0  0  0  0  0  0  0  0  0
    4.2015   -2.3531    3.6120 C   0  0  1  0  0  0  0  0  0  0  0  0
    5.1037   -3.3552    3.2155 O   0  0  0  0  0  0  0  0  0  0  0  0
    0.0974    0.4569    5.3417 C   0  0  0  0  0  0  0  0  0  0  0  0
    0.2912    1.9883    5.2555 C   0  0  0  0  0  0  0  0  0  0  0  0
   -1.2931    0.2205    5.9745 C   0  0  0  0  0  0  0  0  0  0  0  0
    5.4526   -0.4780    5.1651 H   0  0  0  0  0  0  0  0  0  0  0  0
    5.6848    0.8149    3.8633 H   0  0  0  0  0  0  0  0  0  0  0  0
    4.7224    0.5476    1.7743 H   0  0  0  0  0  0  0  0  0  0  0  0
    6.2243   -0.2521    0.4832 H   0  0  0  0  0  0  0  0  0  0  0  0
    6.3836   -1.6089    1.5147 H   0  0  0  0  0  0  0  0  0  0  0  0
    3.7808   -1.0052   -1.4921 H   0  0  0  0  0  0  0  0  0  0  0  0
    4.8469   -2.0015   -2.4435 H   0  0  0  0  0  0  0  0  0  0  0  0
    5.4124   -0.4574   -1.8306 H   0  0  0  0  0  0  0  0  0  0  0  0
    6.9881   -3.0404   -0.0704 H   0  0  0  0  0  0  0  0  0  0  0  0
    4.6095   -3.9964   -0.7902 H   0  0  0  0  0  0  0  0  0  0  0  0
    5.0991   -3.8744    0.8428 H   0  0  0  0  0  0  0  0  0  0  0  0
    2.5918   -2.8120   -0.4835 H   0  0  0  0  0  0  0  0  0  0  0  0
    2.6703   -4.1353    0.6120 H   0  0  0  0  0  0  0  0  0  0  0  0
    1.6005   -2.1259    1.2881 H   0  0  0  0  0  0  0  0  0  0  0  0
    2.9503   -0.4772    0.3404 H   0  0  0  0  0  0  0  0  0  0  0  0
    2.7876    1.0107    2.8219 H   0  0  0  0  0  0  0  0  0  0  0  0
    2.1831    1.2394    1.2967 H   0  0  0  0  0  0  0  0  0  0  0  0
    0.2911    1.4533    2.4898 H   0  0  0  0  0  0  0  0  0  0  0  0
    0.1529   -0.0611    1.7060 H   0  0  0  0  0  0  0  0  0  0  0  0
   -0.8234   -0.6142    3.6492 H   0  0  0  0  0  0  0  0  0  0  0  0
    0.2990   -1.8358    4.8262 H   0  0  0  0  0  0  0  0  0  0  0  0
    3.0655   -0.9862    5.4348 H   0  0  0  0  0  0  0  0  0  0  0  0
    2.5007    0.4084    4.7033 H   0  0  0  0  0  0  0  0  0  0  0  0
    1.6974    0.5205    6.9446 H   0  0  0  0  0  0  0  0  0  0  0  0
    2.6368   -4.4386    5.9646 H   0  0  0  0  0  0  0  0  0  0  0  0
    0.9300   -4.1603    5.9060 H   0  0  0  0  0  0  0  0  0  0  0  0
    1.4665   -4.9422    2.4295 H   0  0  0  0  0  0  0  0  0  0  0  0
    0.7432   -5.3998    3.9705 H   0  0  0  0  0  0  0  0  0  0  0  0
    2.4625   -5.7049    3.6690 H   0  0  0  0  0  0  0  0  0  0  0  0
    0.5591   -2.7118    2.8917 H   0  0  0  0  0  0  0  0  0  0  0  0
    4.2004   -2.4709    4.6929 H   0  0  0  0  0  0  0  0  0  0  0  0
    5.1096   -3.3834    2.2744 H   0  0  0  0  0  0  0  0  0  0  0  0
    0.2633    2.4440    6.2469 H   0  0  0  0  0  0  0  0  0  0  0  0
   -0.4971    2.4543    4.6597 H   0  0  0  0  0  0  0  0  0  0  0  0
    1.2438    2.2608    4.8002 H   0  0  0  0  0  0  0  0  0  0  0  0
   -1.3255    0.6054    6.9947 H   0  0  0  0  0  0  0  0  0  0  0  0
   -1.5422   -0.8406    6.0087 H   0  0  0  0  0  0  0  0  0  0  0  0
   -2.0820    0.7175    5.4062 H   0  0  0  0  0  0  0  0  0  0  0  0
  1  2  2  0
  1 31  1  0
  1 32  1  0
  2 26  1  0
  2  3  1  0
  3 11  1  0
  3  4  1  0
  3 33  1  1
  4  5  1  0
  4 34  1  0
  4 35  1  0
  5  6  1  0
  5  7  1  6
  5  8  1  0
  6 36  1  0
  6 37  1  0
  6 38  1  0
  7 39  1  0
  8  9  1  0
  8 40  1  0
  8 41  1  0
  9 10  1  0
  9 42  1  0
  9 43  1  0
 10 25  1  0
 10 11  1  0
 10 44  1  6
 11 12  1  0
 11 45  1  6
 12 13  1  0
 12 46  1  0
 12 47  1  0
 13 14  1  0
 13 48  1  0
 13 49  1  0
 14 28  1  0
 14 15  1  0
 14 50  1  6
 15 24  1  0
 15 16  1  0
 15 51  1  1
 16 17  1  0
 16 52  1  0
 16 53  1  0
 17 18  1  0
 17 28  1  0
 17 54  1  1
 18 19  2  0
 18 20  1  0
 20 21  1  0
 21 22  1  0
 21 55  1  0
 21 56  1  0
 25 22  1  6
 22 23  1  6
 22 24  1  0
 23 57  1  0
 23 58  1  0
 23 59  1  0
 24 25  1  0
 24 60  1  6
 25 26  1  0
 26 27  1  0
 26 61  1  1
 27 62  1  0
 28 29  1  0
 28 30  1  0
 29 63  1  0
 29 64  1  0
 29 65  1  0
 30 66  1  0
 30 67  1  0
 30 68  1  0
M  END
>  <i_m_ct_stereo_status>  (309) 
1

>  <s_m_source_file>  (309) 
/var/tmp/pbs.5076255.sched01/tmpt7uccrld/92zpefy4ut.sdf

>  <i_m_source_file_index>  (309) 
39

>  <i_lp_mmshare_version>  (309) 
48012

>  <i_f3d_flags>  (309) 
0

>  <s_epik_input>  (309) 
W0NIMl0xW0NIMl1bQ0BdKFtDSDNdKShbT0hdKVtDSDJdW0NIXShDKD1bQ0gyXSlbQ0BASF0yW09IXSlbQ0BASF0oW0NAQEhdMVtDQF0yMzQpW0NIMl1bQ0gyXVtDQEhdNVtDQEhdNltDQEBIXTRbQ0BdMyhbQ0gzXSlbQ0gyXU9DKD1PKVtDQEBIXShbQ0gyXTYpQzUoW0NIM10pW0NIM10=

>  <s_epik_cmdline>  (309) 
J2VwaWtfcHl0aG9uJywgJy1waHQnLCAnMi4wJywgJy1waCcsICc3LjAnLCAnLXRuJywgJzgnLCAnLW1hJywgJzIwMCcsICctaW1hZScsICc8aW5maWxlLm1hZT4nLCAnLW9tYWUnLCAnPG91dGZpbGUubWFlPic=

>  <r_lp_tautomer_probability>  (309) 
1

>  <r_epik_Ionization_Penalty>  (309) 
1.78095e-06

>  <r_epik_Ionization_Penalty_Charging>  (309) 
0

>  <r_epik_Ionization_Penalty_Neutral>  (309) 
1.78095e-06

>  <r_epik_State_Penalty>  (309) 
-0

>  <r_epik_Charging_Adjusted_Penalty>  (309) 
0

>  <i_epik_Tot_Q>  (309) 
0

>  <i_epik_Tot_abs_Q>  (309) 
0

>  <s_epik_Chemistry_Notes>  (309) 
This compound has an ester and may undergo hydrolysis at high or low pH.

>  <s_lp_Force_Field>  (309) 
OPLS3e

>  <r_lp_Energy>  (309) 
200.523

>  <b_lp_Chiralities_Consistent>  (309) 
1

>  <s_lp_Variant>  (309) 
88:0-1

>  <s_i_glide_gridfile>  (309) 
pfpi4k_grid

>  <i_i_glide_lignum>  (309) 
39

>  <i_i_glide_rotatable_bonds>  (309) 
2

>  <r_i_docking_score>  (309) 
-3.15831

>  <r_i_glide_ligand_efficiency>  (309) 
-0.105277

>  <r_i_glide_ligand_efficiency_sa>  (309) 
-0.32712

>  <r_i_glide_ligand_efficiency_ln>  (309) 
-0.717602

>  <r_i_glide_gscore>  (309) 
-3.15831

>  <r_i_glide_lipo>  (309) 
-0.483869

>  <r_i_glide_hbond>  (309) 
-0.0468942

>  <r_i_glide_metal>  (309) 
-0

>  <r_i_glide_rewards>  (309) 
-0.582426

>  <r_i_glide_evdw>  (309) 
-29.6387

>  <r_i_glide_ecoul>  (309) 
-3.71884

>  <r_i_glide_erotb>  (309) 
0

>  <r_i_glide_esite>  (309) 
-0.00535833

>  <r_i_glide_emodel>  (309) 
-40.0202

>  <r_i_glide_energy>  (309) 
-33.3576

>  <r_i_glide_einternal>  (309) 
0.0382317

>  <r_i_glide_intrahb_reward>  (309) 
-0

>  <i_i_glide_confnum>  (309) 
2

>  <i_i_glide_posenum>  (309) 
8

>  <r_i_glide_eff_state_penalty>  (309) 
0

>  <ligand_id>  (309) 
88

>  <original_smiles>  (309) 
C=C1C2CC(C)(O)CCC3C2CCC2C4CC(C(=O)OCC5(C)C4C35C1O)C2(C)C

>  <smiles>  (309) 
[H]OC1([H])C(=C([H])[H])C2([H])C([H])([H])C(O[H])(C([H])([H])[H])C([H])([H])C([H])([H])C3([H])C2([H])C([H])([H])C([H])([H])C2([H])C4([H])C([H])([H])C([H])(C(=O)OC([H])([H])C5(C([H])([H])[H])C4([H])C135)C2(C([H])([H])[H])C([H])([H])[H]

$$$$
88:0:2
     RDKit          3D

 68 73  0  0  1  0  0  0  0  0999 V2000
    5.3547   -0.4467    2.5474 C   0  0  0  0  0  0  0  0  0  0  0  0
    4.9852   -1.5527    1.8799 C   0  0  0  0  0  0  0  0  0  0  0  0
    3.9045   -1.5009    0.8072 C   0  0  1  0  0  0  0  0  0  0  0  0
    4.5466   -1.4625   -0.6143 C   0  0  0  0  0  0  0  0  0  0  0  0
    4.2920   -2.5705   -1.6647 C   0  0  1  0  0  0  0  0  0  0  0  0
    2.9317   -2.4844   -2.3850 C   0  0  0  0  0  0  0  0  0  0  0  0
    5.2044   -2.2993   -2.7109 O   0  0  0  0  0  0  0  0  0  0  0  0
    4.6677   -3.9853   -1.1820 C   0  0  0  0  0  0  0  0  0  0  0  0
    3.7347   -4.6393   -0.1488 C   0  0  0  0  0  0  0  0  0  0  0  0
    3.4412   -3.9575    1.2110 C   0  0  2  0  0  0  0  0  0  0  0  0
    2.8001   -2.5365    1.1433 C   0  0  1  0  0  0  0  0  0  0  0  0
    1.8989   -1.9723    2.3431 C   0  0  0  0  0  0  0  0  0  0  0  0
    1.1108   -2.8122    3.4310 C   0  0  0  0  0  0  0  0  0  0  0  0
    1.7671   -3.4443    4.7202 C   0  0  1  0  0  0  0  0  0  0  0  0
    3.1773   -3.7324    4.4704 C   0  0  2  0  0  0  0  0  0  0  0  0
    3.8840   -2.3908    4.8221 C   0  0  0  0  0  0  0  0  0  0  0  0
    3.6521   -2.4887    6.2784 C   0  0  2  0  0  0  0  0  0  0  0  0
    4.7073   -3.6068    6.7365 C   0  0  0  0  0  0  0  0  0  0  0  0
    4.6228   -4.1620    7.8264 O   0  0  0  0  0  0  0  0  0  0  0  0
    5.7132   -3.8989    5.7593 O   0  0  0  0  0  0  0  0  0  0  0  0
    5.7403   -5.0439    4.8341 C   0  0  0  0  0  0  0  0  0  0  0  0
    5.0104   -5.1509    3.4097 C   0  0  1  0  0  0  0  0  0  0  0  0
    5.2653   -6.5396    2.8467 C   0  0  0  0  0  0  0  0  0  0  0  0
    3.6702   -4.5903    3.4180 C   0  0  2  0  0  0  0  0  0  0  0  0
    4.5334   -4.0571    2.3274 C   0  0  2  0  0  0  0  0  0  0  0  0
    5.5716   -2.9229    2.2085 C   0  0  1  0  0  0  0  0  0  0  0  0
    6.5466   -3.2684    1.2592 O   0  0  0  0  0  0  0  0  0  0  0  0
    2.0533   -2.7358    6.1390 C   0  0  0  0  0  0  0  0  0  0  0  0
    1.2883   -1.3961    6.2458 C   0  0  0  0  0  0  0  0  0  0  0  0
    1.5490   -3.6285    7.2957 C   0  0  0  0  0  0  0  0  0  0  0  0
    6.1142   -0.4795    3.3141 H   0  0  0  0  0  0  0  0  0  0  0  0
    4.8996    0.5089    2.3248 H   0  0  0  0  0  0  0  0  0  0  0  0
    3.4268   -0.5197    0.8950 H   0  0  0  0  0  0  0  0  0  0  0  0
    4.2733   -0.5107   -1.0688 H   0  0  0  0  0  0  0  0  0  0  0  0
    5.6267   -1.3765   -0.4831 H   0  0  0  0  0  0  0  0  0  0  0  0
    2.0935   -2.7872   -1.7668 H   0  0  0  0  0  0  0  0  0  0  0  0
    2.9054   -3.1264   -3.2664 H   0  0  0  0  0  0  0  0  0  0  0  0
    2.7271   -1.4657   -2.7179 H   0  0  0  0  0  0  0  0  0  0  0  0
    6.0484   -2.6581   -2.4734 H   0  0  0  0  0  0  0  0  0  0  0  0
    4.6507   -4.6392   -2.0564 H   0  0  0  0  0  0  0  0  0  0  0  0
    5.7041   -4.0324   -0.8610 H   0  0  0  0  0  0  0  0  0  0  0  0
    2.7760   -4.7767   -0.6518 H   0  0  0  0  0  0  0  0  0  0  0  0
    4.0879   -5.6552    0.0276 H   0  0  0  0  0  0  0  0  0  0  0  0
    2.5655   -4.5531    1.4656 H   0  0  0  0  0  0  0  0  0  0  0  0
    2.1117   -2.5750    0.3065 H   0  0  0  0  0  0  0  0  0  0  0  0
    2.3610   -1.1054    2.7995 H   0  0  0  0  0  0  0  0  0  0  0  0
    1.0929   -1.4747    1.8025 H   0  0  0  0  0  0  0  0  0  0  0  0
    0.2620   -2.2157    3.7634 H   0  0  0  0  0  0  0  0  0  0  0  0
    0.6480   -3.6387    2.8925 H   0  0  0  0  0  0  0  0  0  0  0  0
    1.2127   -4.3678    4.9077 H   0  0  0  0  0  0  0  0  0  0  0  0
    3.2197   -4.5538    5.1914 H   0  0  0  0  0  0  0  0  0  0  0  0
    4.9147   -2.2061    4.5674 H   0  0  0  0  0  0  0  0  0  0  0  0
    3.4000   -1.4983    4.4542 H   0  0  0  0  0  0  0  0  0  0  0  0
    3.8705   -1.5513    6.7885 H   0  0  0  0  0  0  0  0  0  0  0  0
    6.8000   -5.1772    4.6194 H   0  0  0  0  0  0  0  0  0  0  0  0
    5.4606   -5.9261    5.4155 H   0  0  0  0  0  0  0  0  0  0  0  0
    4.5971   -6.7452    2.0103 H   0  0  0  0  0  0  0  0  0  0  0  0
    5.0964   -7.3082    3.6025 H   0  0  0  0  0  0  0  0  0  0  0  0
    6.2922   -6.6201    2.4895 H   0  0  0  0  0  0  0  0  0  0  0  0
    2.9568   -5.3933    3.2416 H   0  0  0  0  0  0  0  0  0  0  0  0
    6.1848   -2.8636    3.1039 H   0  0  0  0  0  0  0  0  0  0  0  0
    6.1013   -3.4579    0.4481 H   0  0  0  0  0  0  0  0  0  0  0  0
    1.4935   -0.9047    7.1981 H   0  0  0  0  0  0  0  0  0  0  0  0
    0.2096   -1.5494    6.1834 H   0  0  0  0  0  0  0  0  0  0  0  0
    1.5625   -0.6972    5.4552 H   0  0  0  0  0  0  0  0  0  0  0  0
    1.8073   -3.1987    8.2650 H   0  0  0  0  0  0  0  0  0  0  0  0
    1.9873   -4.6269    7.2556 H   0  0  0  0  0  0  0  0  0  0  0  0
    0.4646   -3.7525    7.2653 H   0  0  0  0  0  0  0  0  0  0  0  0
  1  2  2  0
  1 31  1  0
  1 32  1  0
  2 26  1  0
  2  3  1  0
  3 11  1  0
  3  4  1  0
  3 33  1  1
  4  5  1  0
  4 34  1  0
  4 35  1  0
  5  6  1  0
  5  7  1  6
  5  8  1  0
  6 36  1  0
  6 37  1  0
  6 38  1  0
  7 39  1  0
  8  9  1  0
  8 40  1  0
  8 41  1  0
  9 10  1  0
  9 42  1  0
  9 43  1  0
 10 25  1  0
 10 11  1  0
 10 44  1  1
 11 12  1  0
 11 45  1  6
 12 13  1  0
 12 46  1  0
 12 47  1  0
 13 14  1  0
 13 48  1  0
 13 49  1  0
 14 28  1  0
 14 15  1  0
 14 50  1  1
 15 24  1  0
 15 16  1  0
 15 51  1  1
 16 17  1  0
 16 52  1  0
 16 53  1  0
 17 18  1  0
 17 28  1  0
 17 54  1  1
 18 19  2  0
 18 20  1  0
 20 21  1  0
 21 22  1  0
 21 55  1  0
 21 56  1  0
 25 22  1  6
 22 23  1  6
 22 24  1  0
 23 57  1  0
 23 58  1  0
 23 59  1  0
 24 25  1  0
 24 60  1  6
 25 26  1  0
 26 27  1  0
 26 61  1  1
 27 62  1  0
 28 29  1  0
 28 30  1  0
 29 63  1  0
 29 64  1  0
 29 65  1  0
 30 66  1  0
 30 67  1  0
 30 68  1  0
M  END
>  <i_m_ct_stereo_status>  (310) 
1

>  <s_m_source_file>  (310) 
/var/tmp/pbs.5076255.sched01/tmpt7uccrld/92zpefy4ut.sdf

>  <i_m_source_file_index>  (310) 
39

>  <i_lp_mmshare_version>  (310) 
48012

>  <i_f3d_flags>  (310) 
0

>  <s_epik_input>  (310) 
W0NIMl0xW0NIMl1bQ0BdKFtDSDNdKShbT0hdKVtDSDJdW0NIXShDKD1bQ0gyXSlbQ0BASF0yW09IXSlbQ0BASF0oW0NAQEhdMVtDQF0yMzQpW0NIMl1bQ0gyXVtDQEhdNVtDQEhdNltDQEBIXTRbQ0BdMyhbQ0gzXSlbQ0gyXU9DKD1PKVtDQEBIXShbQ0gyXTYpQzUoW0NIM10pW0NIM10=

>  <s_epik_cmdline>  (310) 
J2VwaWtfcHl0aG9uJywgJy1waHQnLCAnMi4wJywgJy1waCcsICc3LjAnLCAnLXRuJywgJzgnLCAnLW1hJywgJzIwMCcsICctaW1hZScsICc8aW5maWxlLm1hZT4nLCAnLW9tYWUnLCAnPG91dGZpbGUubWFlPic=

>  <r_lp_tautomer_probability>  (310) 
1

>  <r_epik_Ionization_Penalty>  (310) 
1.78095e-06

>  <r_epik_Ionization_Penalty_Charging>  (310) 
0

>  <r_epik_Ionization_Penalty_Neutral>  (310) 
1.78095e-06

>  <r_epik_State_Penalty>  (310) 
-0

>  <r_epik_Charging_Adjusted_Penalty>  (310) 
0

>  <i_epik_Tot_Q>  (310) 
0

>  <i_epik_Tot_abs_Q>  (310) 
0

>  <s_epik_Chemistry_Notes>  (310) 
This compound has an ester and may undergo hydrolysis at high or low pH.

>  <s_lp_Force_Field>  (310) 
OPLS3e

>  <r_lp_Energy>  (310) 
200.523

>  <b_lp_Chiralities_Consistent>  (310) 
1

>  <s_lp_Variant>  (310) 
88:0-1

>  <s_i_glide_gridfile>  (310) 
pfpi4k_grid

>  <i_i_glide_lignum>  (310) 
39

>  <i_i_glide_rotatable_bonds>  (310) 
2

>  <r_i_docking_score>  (310) 
-2.29561

>  <r_i_glide_ligand_efficiency>  (310) 
-0.0765205

>  <r_i_glide_ligand_efficiency_sa>  (310) 
-0.237767

>  <r_i_glide_ligand_efficiency_ln>  (310) 
-0.521589

>  <r_i_glide_gscore>  (310) 
-2.29561

>  <r_i_glide_lipo>  (310) 
-0.310608

>  <r_i_glide_hbond>  (310) 
0

>  <r_i_glide_metal>  (310) 
-0

>  <r_i_glide_rewards>  (310) 
-0.582426

>  <r_i_glide_evdw>  (310) 
-22.8894

>  <r_i_glide_ecoul>  (310) 
-1.72073

>  <r_i_glide_erotb>  (310) 
0

>  <r_i_glide_esite>  (310) 
0

>  <r_i_glide_emodel>  (310) 
-29.1242

>  <r_i_glide_energy>  (310) 
-24.6102

>  <r_i_glide_einternal>  (310) 
0.409159

>  <r_i_glide_intrahb_reward>  (310) 
-0

>  <i_i_glide_confnum>  (310) 
1

>  <i_i_glide_posenum>  (310) 
12

>  <r_i_glide_eff_state_penalty>  (310) 
0

>  <ligand_id>  (310) 
88

>  <original_smiles>  (310) 
C=C1C2CC(C)(O)CCC3C2CCC2C4CC(C(=O)OCC5(C)C4C35C1O)C2(C)C

>  <smiles>  (310) 
[H]OC1([H])C(=C([H])[H])C2([H])C([H])([H])C(O[H])(C([H])([H])[H])C([H])([H])C([H])([H])C3([H])C2([H])C([H])([H])C([H])([H])C2([H])C4([H])C([H])([H])C([H])(C(=O)OC([H])([H])C5(C([H])([H])[H])C4([H])C135)C2(C([H])([H])[H])C([H])([H])[H]

$$$$
89:0:0
     RDKit          3D

 34 37  0  0  1  0  0  0  0  0999 V2000
    2.9859   -1.5886    1.0272 C   0  0  0  0  0  0  0  0  0  0  0  0
    4.4252   -2.0924    1.2310 C   0  0  2  0  0  0  0  0  0  0  0  0
    5.3838   -1.7111    0.0744 C   0  0  2  0  0  0  0  0  0  0  0  0
    4.8100   -1.9445   -1.3146 C   0  0  0  0  0  0  0  0  0  0  0  0
    4.7051   -0.8721   -2.1246 N   0  0  0  0  0  0  0  0  0  0  0  0
    4.2014   -1.0753   -3.3394 C   0  0  0  0  0  0  0  0  0  0  0  0
    3.8214   -2.2387   -3.8635 N   0  0  0  0  0  0  0  0  0  0  0  0
    3.9050   -3.3139   -3.0582 C   0  0  0  0  0  0  0  0  0  0  0  0
    4.4147   -3.2269   -1.7439 C   0  0  0  0  0  0  0  0  0  0  0  0
    4.4954   -4.4628   -0.8522 C   0  0  0  0  0  0  0  0  0  0  0  0
    5.2023   -4.3226    0.5228 C   0  0  1  0  0  0  0  0  0  0  0  0
    6.6414   -3.8246    0.4202 C   0  0  0  0  0  0  0  0  0  0  0  0
    7.7803   -4.6350    0.5212 C   0  0  0  0  0  0  0  0  0  0  0  0
    8.9692   -4.0013    0.3775 N   0  0  0  0  0  0  0  0  0  0  0  0
    8.9780   -2.6793    0.1631 C   0  0  0  0  0  0  0  0  0  0  0  0
    7.9200   -1.8603    0.0756 N   0  0  0  0  0  0  0  0  0  0  0  0
    6.7116   -2.4347    0.2051 C   0  0  0  0  0  0  0  0  0  0  0  0
    4.3853   -3.5464    1.4670 N   0  0  0  0  0  0  0  0  0  0  0  0
    4.7679   -3.8486    2.8484 C   0  0  0  0  0  0  0  0  0  0  0  0
    2.9725   -0.5068    0.8957 H   0  0  0  0  0  0  0  0  0  0  0  0
    2.3461   -1.8233    1.8779 H   0  0  0  0  0  0  0  0  0  0  0  0
    2.5332   -2.0324    0.1415 H   0  0  0  0  0  0  0  0  0  0  0  0
    4.8180   -1.6144    2.1298 H   0  0  0  0  0  0  0  0  0  0  0  0
    5.5843   -0.6405    0.1677 H   0  0  0  0  0  0  0  0  0  0  0  0
    4.1411   -0.2165   -3.9900 H   0  0  0  0  0  0  0  0  0  0  0  0
    3.5644   -4.2479   -3.4807 H   0  0  0  0  0  0  0  0  0  0  0  0
    3.4804   -4.8391   -0.7005 H   0  0  0  0  0  0  0  0  0  0  0  0
    5.0160   -5.2303   -1.4277 H   0  0  0  0  0  0  0  0  0  0  0  0
    5.2603   -5.3346    0.9206 H   0  0  0  0  0  0  0  0  0  0  0  0
    7.7687   -5.7007    0.6835 H   0  0  0  0  0  0  0  0  0  0  0  0
    9.9505   -2.2241    0.0902 H   0  0  0  0  0  0  0  0  0  0  0  0
    4.6808   -4.9162    3.0628 H   0  0  0  0  0  0  0  0  0  0  0  0
    4.1209   -3.3227    3.5538 H   0  0  0  0  0  0  0  0  0  0  0  0
    5.8007   -3.5510    3.0528 H   0  0  0  0  0  0  0  0  0  0  0  0
  1  2  1  0
  1 20  1  0
  1 21  1  0
  1 22  1  0
  2 18  1  0
  2  3  1  0
  2 23  1  1
  3 17  1  0
  3  4  1  0
  3 24  1  6
  4  9  2  0
  4  5  1  0
  5  6  2  0
  6  7  1  0
  6 25  1  0
  7  8  2  0
  8  9  1  0
  8 26  1  0
  9 10  1  0
 10 11  1  0
 10 27  1  0
 10 28  1  0
 11 12  1  0
 11 18  1  0
 11 29  1  1
 12 17  2  0
 12 13  1  0
 13 14  2  0
 13 30  1  0
 14 15  1  0
 15 16  2  0
 15 31  1  0
 16 17  1  0
 18 19  1  0
 19 32  1  0
 19 33  1  0
 19 34  1  0
M  END
>  <i_m_ct_stereo_status>  (311) 
1

>  <s_m_source_file>  (311) 
/var/tmp/pbs.5076255.sched01/tmpt7uccrld/92zpefy4ut.sdf

>  <i_m_source_file_index>  (311) 
40

>  <i_lp_mmshare_version>  (311) 
48012

>  <i_f3d_flags>  (311) 
0

>  <s_epik_input>  (311) 
W2NIXTFuW2NIXW5jMmMxW0NAQEhdKE4oW0NIM10pW0NAQEhdM1tDSDNdKVtDSDJdYyhjNFtDQEhdMjMpW2NIXW5bY0hdbjQ=

>  <s_epik_cmdline>  (311) 
J2VwaWtfcHl0aG9uJywgJy1waHQnLCAnMi4wJywgJy1waCcsICc3LjAnLCAnLXRuJywgJzgnLCAnLW1hJywgJzIwMCcsICctaW1hZScsICc8aW5maWxlLm1hZT4nLCAnLW9tYWUnLCAnPG91dGZpbGUubWFlPic=

>  <r_lp_tautomer_probability>  (311) 
1

>  <r_epik_Ionization_Penalty>  (311) 
0.239599

>  <r_epik_Ionization_Penalty_Charging>  (311) 
0

>  <r_epik_Ionization_Penalty_Neutral>  (311) 
0.239599

>  <r_epik_State_Penalty>  (311) 
0.230517

>  <r_epik_Charging_Adjusted_Penalty>  (311) 
0.230517

>  <i_epik_Tot_Q>  (311) 
0

>  <i_epik_Tot_abs_Q>  (311) 
0

>  <s_epik_Chemistry_Notes>  (311) 
This compound contains an electron-poor aromatic ring that is susceptible to covalent hydrolysis at low pH, typically resulting in measured values for nitrogen ring protonation that are around two units higher than predicted values.

>  <s_lp_Force_Field>  (311) 
OPLS3e

>  <r_lp_Energy>  (311) 
47.0895

>  <b_lp_Chiralities_Consistent>  (311) 
1

>  <s_lp_Variant>  (311) 
89:0-1

>  <s_i_glide_gridfile>  (311) 
pfpi4k_grid

>  <i_i_glide_lignum>  (311) 
40

>  <i_i_glide_rotatable_bonds>  (311) 
0

>  <r_i_docking_score>  (311) 
-4.63862

>  <r_i_glide_ligand_efficiency>  (311) 
-0.244138

>  <r_i_glide_ligand_efficiency_sa>  (311) 
-0.651458

>  <r_i_glide_ligand_efficiency_ln>  (311) 
-1.17599

>  <r_i_glide_gscore>  (311) 
-4.63862

>  <r_i_glide_lipo>  (311) 
-0.451762

>  <r_i_glide_hbond>  (311) 
-0.229981

>  <r_i_glide_metal>  (311) 
-0

>  <r_i_glide_rewards>  (311) 
-1.88277

>  <r_i_glide_evdw>  (311) 
-24.5807

>  <r_i_glide_ecoul>  (311) 
-5.40546

>  <r_i_glide_erotb>  (311) 
0

>  <r_i_glide_esite>  (311) 
-0.0342505

>  <r_i_glide_emodel>  (311) 
-39.4729

>  <r_i_glide_energy>  (311) 
-29.9861

>  <r_i_glide_einternal>  (311) 
0

>  <r_i_glide_intrahb_reward>  (311) 
-0

>  <i_i_glide_confnum>  (311) 
1

>  <i_i_glide_posenum>  (311) 
1

>  <r_i_glide_eff_state_penalty>  (311) 
0

>  <ligand_id>  (311) 
89

>  <original_smiles>  (311) 
CC1C2c3ncncc3CC(c3cncnc32)N1C

>  <smiles>  (311) 
[H]c1nc([H])c2c(n1)C1([H])c3nc([H])nc([H])c3C([H])(N(C([H])([H])[H])C1([H])C([H])([H])[H])C2([H])[H]

$$$$
89:0:1
     RDKit          3D

 34 37  0  0  1  0  0  0  0  0999 V2000
    1.4549   -4.1492   -1.2218 C   0  0  0  0  0  0  0  0  0  0  0  0
    2.5837   -3.7567   -0.2352 C   0  0  2  0  0  0  0  0  0  0  0  0
    3.2233   -2.3909   -0.5355 C   0  0  2  0  0  0  0  0  0  0  0  0
    3.4771   -2.1102   -1.9906 C   0  0  0  0  0  0  0  0  0  0  0  0
    2.9873   -0.9838   -2.5466 N   0  0  0  0  0  0  0  0  0  0  0  0
    3.1383   -0.7778   -3.8331 C   0  0  0  0  0  0  0  0  0  0  0  0
    3.8214   -1.5658   -4.6636 N   0  0  0  0  0  0  0  0  0  0  0  0
    4.3410   -2.6776   -4.0987 C   0  0  0  0  0  0  0  0  0  0  0  0
    4.2489   -2.9655   -2.7603 C   0  0  0  0  0  0  0  0  0  0  0  0
    4.9798   -4.1879   -2.2412 C   0  0  0  0  0  0  0  0  0  0  0  0
    4.9108   -4.4344   -0.7133 C   0  0  1  0  0  0  0  0  0  0  0  0
    5.4655   -3.2623    0.0495 C   0  0  0  0  0  0  0  0  0  0  0  0
    6.7480   -3.2362    0.5855 C   0  0  0  0  0  0  0  0  0  0  0  0
    7.0096   -2.0578    1.1631 N   0  0  0  0  0  0  0  0  0  0  0  0
    6.0849   -1.1031    1.3247 C   0  0  0  0  0  0  0  0  0  0  0  0
    4.8475   -1.1622    0.9056 N   0  0  0  0  0  0  0  0  0  0  0  0
    4.5183   -2.2410    0.1923 C   0  0  0  0  0  0  0  0  0  0  0  0
    3.5744   -4.8371   -0.2505 N   0  0  0  0  0  0  0  0  0  0  0  0
    3.6287   -5.6045    0.9718 C   0  0  0  0  0  0  0  0  0  0  0  0
    0.6978   -3.3822   -1.2310 H   0  0  0  0  0  0  0  0  0  0  0  0
    0.9914   -5.1031   -0.9622 H   0  0  0  0  0  0  0  0  0  0  0  0
    1.7719   -4.2308   -2.2665 H   0  0  0  0  0  0  0  0  0  0  0  0
    2.2186   -3.6977    0.7876 H   0  0  0  0  0  0  0  0  0  0  0  0
    2.6165   -1.5914   -0.1294 H   0  0  0  0  0  0  0  0  0  0  0  0
    2.6088    0.0588   -4.2777 H   0  0  0  0  0  0  0  0  0  0  0  0
    4.9169   -3.3772   -4.6834 H   0  0  0  0  0  0  0  0  0  0  0  0
    4.6704   -5.0563   -2.8451 H   0  0  0  0  0  0  0  0  0  0  0  0
    6.0271   -4.0413   -2.5355 H   0  0  0  0  0  0  0  0  0  0  0  0
    5.5703   -5.2750   -0.5361 H   0  0  0  0  0  0  0  0  0  0  0  0
    7.4718   -4.0485    0.5753 H   0  0  0  0  0  0  0  0  0  0  0  0
    6.2961   -0.3110    1.9978 H   0  0  0  0  0  0  0  0  0  0  0  0
    4.3043   -6.4524    0.8668 H   0  0  0  0  0  0  0  0  0  0  0  0
    2.6451   -5.9962    1.2071 H   0  0  0  0  0  0  0  0  0  0  0  0
    3.9751   -4.9911    1.8033 H   0  0  0  0  0  0  0  0  0  0  0  0
  1  2  1  0
  1 20  1  0
  1 21  1  0
  1 22  1  0
  2 18  1  0
  2  3  1  0
  2 23  1  1
  3 17  1  0
  3  4  1  0
  3 24  1  1
  4  9  2  0
  4  5  1  0
  5  6  2  0
  6  7  1  0
  6 25  1  0
  7  8  2  0
  8  9  1  0
  8 26  1  0
  9 10  1  0
 10 11  1  0
 10 27  1  0
 10 28  1  0
 11 12  1  0
 11 18  1  0
 11 29  1  6
 12 17  2  0
 12 13  1  0
 13 14  2  0
 13 30  1  0
 14 15  1  0
 15 16  2  0
 15 31  1  0
 16 17  1  0
 18 19  1  0
 19 32  1  0
 19 33  1  0
 19 34  1  0
M  END
>  <i_m_ct_stereo_status>  (312) 
1

>  <s_m_source_file>  (312) 
/var/tmp/pbs.5076255.sched01/tmpt7uccrld/92zpefy4ut.sdf

>  <i_m_source_file_index>  (312) 
40

>  <i_lp_mmshare_version>  (312) 
48012

>  <i_f3d_flags>  (312) 
0

>  <s_epik_input>  (312) 
W2NIXTFuW2NIXW5jMmMxW0NAQEhdKE4oW0NIM10pW0NAQEhdM1tDSDNdKVtDSDJdYyhjNFtDQEhdMjMpW2NIXW5bY0hdbjQ=

>  <s_epik_cmdline>  (312) 
J2VwaWtfcHl0aG9uJywgJy1waHQnLCAnMi4wJywgJy1waCcsICc3LjAnLCAnLXRuJywgJzgnLCAnLW1hJywgJzIwMCcsICctaW1hZScsICc8aW5maWxlLm1hZT4nLCAnLW9tYWUnLCAnPG91dGZpbGUubWFlPic=

>  <r_lp_tautomer_probability>  (312) 
1

>  <r_epik_Ionization_Penalty>  (312) 
0.239599

>  <r_epik_Ionization_Penalty_Charging>  (312) 
0

>  <r_epik_Ionization_Penalty_Neutral>  (312) 
0.239599

>  <r_epik_State_Penalty>  (312) 
0.230517

>  <r_epik_Charging_Adjusted_Penalty>  (312) 
0.230517

>  <i_epik_Tot_Q>  (312) 
0

>  <i_epik_Tot_abs_Q>  (312) 
0

>  <s_epik_Chemistry_Notes>  (312) 
This compound contains an electron-poor aromatic ring that is susceptible to covalent hydrolysis at low pH, typically resulting in measured values for nitrogen ring protonation that are around two units higher than predicted values.

>  <s_lp_Force_Field>  (312) 
OPLS3e

>  <r_lp_Energy>  (312) 
47.0895

>  <b_lp_Chiralities_Consistent>  (312) 
1

>  <s_lp_Variant>  (312) 
89:0-1

>  <s_i_glide_gridfile>  (312) 
pfpi4k_grid

>  <i_i_glide_lignum>  (312) 
40

>  <i_i_glide_rotatable_bonds>  (312) 
0

>  <r_i_docking_score>  (312) 
-3.64715

>  <r_i_glide_ligand_efficiency>  (312) 
-0.191955

>  <r_i_glide_ligand_efficiency_sa>  (312) 
-0.512213

>  <r_i_glide_ligand_efficiency_ln>  (312) 
-0.92463

>  <r_i_glide_gscore>  (312) 
-3.64715

>  <r_i_glide_lipo>  (312) 
-0.196337

>  <r_i_glide_hbond>  (312) 
-0.32

>  <r_i_glide_metal>  (312) 
-0

>  <r_i_glide_rewards>  (312) 
-2.19623

>  <r_i_glide_evdw>  (312) 
-12.0573

>  <r_i_glide_ecoul>  (312) 
-2.21145

>  <r_i_glide_erotb>  (312) 
0

>  <r_i_glide_esite>  (312) 
0

>  <r_i_glide_emodel>  (312) 
-20.2421

>  <r_i_glide_energy>  (312) 
-14.2688

>  <r_i_glide_einternal>  (312) 
0

>  <r_i_glide_intrahb_reward>  (312) 
-0

>  <i_i_glide_confnum>  (312) 
2

>  <i_i_glide_posenum>  (312) 
7

>  <r_i_glide_eff_state_penalty>  (312) 
0

>  <ligand_id>  (312) 
89

>  <original_smiles>  (312) 
CC1C2c3ncncc3CC(c3cncnc32)N1C

>  <smiles>  (312) 
[H]c1nc([H])c2c(n1)C1([H])c3nc([H])nc([H])c3C([H])(N(C([H])([H])[H])C1([H])C([H])([H])[H])C2([H])[H]

$$$$
89:0:2
     RDKit          3D

 34 37  0  0  1  0  0  0  0  0999 V2000
    2.0514   -3.2026   -2.0769 C   0  0  0  0  0  0  0  0  0  0  0  0
    3.5379   -2.8684   -1.8259 C   0  0  2  0  0  0  0  0  0  0  0  0
    4.2205   -3.7833   -0.7795 C   0  0  2  0  0  0  0  0  0  0  0  0
    3.3951   -4.0203    0.4759 C   0  0  0  0  0  0  0  0  0  0  0  0
    3.0610   -5.2965    0.7522 N   0  0  0  0  0  0  0  0  0  0  0  0
    2.3632   -5.5147    1.8637 C   0  0  0  0  0  0  0  0  0  0  0  0
    1.9171   -4.5979    2.7185 N   0  0  0  0  0  0  0  0  0  0  0  0
    2.2303   -3.3123    2.4487 C   0  0  0  0  0  0  0  0  0  0  0  0
    2.9891   -2.9611    1.3162 C   0  0  0  0  0  0  0  0  0  0  0  0
    3.3092   -1.4997    1.0246 C   0  0  0  0  0  0  0  0  0  0  0  0
    4.2753   -1.2026   -0.1500 C   0  0  1  0  0  0  0  0  0  0  0  0
    5.6196   -1.8976    0.0024 C   0  0  0  0  0  0  0  0  0  0  0  0
    6.7843   -1.2839    0.4534 C   0  0  0  0  0  0  0  0  0  0  0  0
    7.9061   -2.0357    0.4418 N   0  0  0  0  0  0  0  0  0  0  0  0
    7.8153   -3.3213    0.0799 C   0  0  0  0  0  0  0  0  0  0  0  0
    6.7168   -3.9590   -0.3250 N   0  0  0  0  0  0  0  0  0  0  0  0
    5.5805   -3.2465   -0.3838 C   0  0  0  0  0  0  0  0  0  0  0  0
    3.6479   -1.4455   -1.4582 N   0  0  0  0  0  0  0  0  0  0  0  0
    4.2966   -0.6784   -2.5196 C   0  0  0  0  0  0  0  0  0  0  0  0
    1.9245   -4.2315   -2.4019 H   0  0  0  0  0  0  0  0  0  0  0  0
    1.6247   -2.5676   -2.8524 H   0  0  0  0  0  0  0  0  0  0  0  0
    1.4382   -3.0770   -1.1839 H   0  0  0  0  0  0  0  0  0  0  0  0
    4.0807   -3.0082   -2.7627 H   0  0  0  0  0  0  0  0  0  0  0  0
    4.3841   -4.7501   -1.2552 H   0  0  0  0  0  0  0  0  0  0  0  0
    2.1045   -6.5401    2.0771 H   0  0  0  0  0  0  0  0  0  0  0  0
    1.8511   -2.5670    3.1334 H   0  0  0  0  0  0  0  0  0  0  0  0
    2.3733   -0.9606    0.8710 H   0  0  0  0  0  0  0  0  0  0  0  0
    3.7480   -1.0840    1.9347 H   0  0  0  0  0  0  0  0  0  0  0  0
    4.4753   -0.1335   -0.1001 H   0  0  0  0  0  0  0  0  0  0  0  0
    6.8522   -0.2479    0.7057 H   0  0  0  0  0  0  0  0  0  0  0  0
    8.7170   -3.9124    0.1427 H   0  0  0  0  0  0  0  0  0  0  0  0
    4.3002    0.3919   -2.3106 H   0  0  0  0  0  0  0  0  0  0  0  0
    3.7655   -0.8046   -3.4646 H   0  0  0  0  0  0  0  0  0  0  0  0
    5.3311   -1.0004   -2.6562 H   0  0  0  0  0  0  0  0  0  0  0  0
  1  2  1  0
  1 20  1  0
  1 21  1  0
  1 22  1  0
  2 18  1  0
  2  3  1  0
  2 23  1  6
  3 17  1  0
  3  4  1  0
  3 24  1  6
  4  9  2  0
  4  5  1  0
  5  6  2  0
  6  7  1  0
  6 25  1  0
  7  8  2  0
  8  9  1  0
  8 26  1  0
  9 10  1  0
 10 11  1  0
 10 27  1  0
 10 28  1  0
 11 12  1  0
 11 18  1  0
 11 29  1  6
 12 17  2  0
 12 13  1  0
 13 14  2  0
 13 30  1  0
 14 15  1  0
 15 16  2  0
 15 31  1  0
 16 17  1  0
 18 19  1  0
 19 32  1  0
 19 33  1  0
 19 34  1  0
M  END
>  <i_m_ct_stereo_status>  (313) 
1

>  <s_m_source_file>  (313) 
/var/tmp/pbs.5076255.sched01/tmpt7uccrld/92zpefy4ut.sdf

>  <i_m_source_file_index>  (313) 
40

>  <i_lp_mmshare_version>  (313) 
48012

>  <i_f3d_flags>  (313) 
0

>  <s_epik_input>  (313) 
W2NIXTFuW2NIXW5jMmMxW0NAQEhdKE4oW0NIM10pW0NAQEhdM1tDSDNdKVtDSDJdYyhjNFtDQEhdMjMpW2NIXW5bY0hdbjQ=

>  <s_epik_cmdline>  (313) 
J2VwaWtfcHl0aG9uJywgJy1waHQnLCAnMi4wJywgJy1waCcsICc3LjAnLCAnLXRuJywgJzgnLCAnLW1hJywgJzIwMCcsICctaW1hZScsICc8aW5maWxlLm1hZT4nLCAnLW9tYWUnLCAnPG91dGZpbGUubWFlPic=

>  <r_lp_tautomer_probability>  (313) 
1

>  <r_epik_Ionization_Penalty>  (313) 
0.239599

>  <r_epik_Ionization_Penalty_Charging>  (313) 
0

>  <r_epik_Ionization_Penalty_Neutral>  (313) 
0.239599

>  <r_epik_State_Penalty>  (313) 
0.230517

>  <r_epik_Charging_Adjusted_Penalty>  (313) 
0.230517

>  <i_epik_Tot_Q>  (313) 
0

>  <i_epik_Tot_abs_Q>  (313) 
0

>  <s_epik_Chemistry_Notes>  (313) 
This compound contains an electron-poor aromatic ring that is susceptible to covalent hydrolysis at low pH, typically resulting in measured values for nitrogen ring protonation that are around two units higher than predicted values.

>  <s_lp_Force_Field>  (313) 
OPLS3e

>  <r_lp_Energy>  (313) 
47.0895

>  <b_lp_Chiralities_Consistent>  (313) 
1

>  <s_lp_Variant>  (313) 
89:0-1

>  <s_i_glide_gridfile>  (313) 
pfpi4k_grid

>  <i_i_glide_lignum>  (313) 
40

>  <i_i_glide_rotatable_bonds>  (313) 
0

>  <r_i_docking_score>  (313) 
-3.43616

>  <r_i_glide_ligand_efficiency>  (313) 
-0.180851

>  <r_i_glide_ligand_efficiency_sa>  (313) 
-0.482583

>  <r_i_glide_ligand_efficiency_ln>  (313) 
-0.871142

>  <r_i_glide_gscore>  (313) 
-3.43616

>  <r_i_glide_lipo>  (313) 
-0.228612

>  <r_i_glide_hbond>  (313) 
0

>  <r_i_glide_metal>  (313) 
-0

>  <r_i_glide_rewards>  (313) 
-1.97149

>  <r_i_glide_evdw>  (313) 
-20.0227

>  <r_i_glide_ecoul>  (313) 
-1.43084

>  <r_i_glide_erotb>  (313) 
0

>  <r_i_glide_esite>  (313) 
-0.0202982

>  <r_i_glide_emodel>  (313) 
-28.4658

>  <r_i_glide_energy>  (313) 
-21.4536

>  <r_i_glide_einternal>  (313) 
0

>  <r_i_glide_intrahb_reward>  (313) 
-0

>  <i_i_glide_confnum>  (313) 
2

>  <i_i_glide_posenum>  (313) 
4

>  <r_i_glide_eff_state_penalty>  (313) 
0

>  <ligand_id>  (313) 
89

>  <original_smiles>  (313) 
CC1C2c3ncncc3CC(c3cncnc32)N1C

>  <smiles>  (313) 
[H]c1nc([H])c2c(n1)C1([H])c3nc([H])nc([H])c3C([H])(N(C([H])([H])[H])C1([H])C([H])([H])[H])C2([H])[H]

$$$$
89:1:0
     RDKit          3D

 35 38  0  0  1  0  0  0  0  0999 V2000
    3.2379   -0.9423    1.0618 C   0  0  0  0  0  0  0  0  0  0  0  0
    4.5558   -1.7396    1.1258 C   0  0  2  0  0  0  0  0  0  0  0  0
    5.4785   -1.5010   -0.0893 C   0  0  2  0  0  0  0  0  0  0  0  0
    4.8154   -1.7378   -1.4386 C   0  0  0  0  0  0  0  0  0  0  0  0
    4.7105   -0.6692   -2.2527 N   0  0  0  0  0  0  0  0  0  0  0  0
    4.1262   -0.8570   -3.4331 C   0  0  0  0  0  0  0  0  0  0  0  0
    3.6498   -2.0012   -3.9080 N   0  0  0  0  0  0  0  0  0  0  0  0
    3.7163   -3.0689   -3.0946 C   0  0  0  0  0  0  0  0  0  0  0  0
    4.3169   -3.0019   -1.8197 C   0  0  0  0  0  0  0  0  0  0  0  0
    4.3960   -4.2455   -0.9408 C   0  0  0  0  0  0  0  0  0  0  0  0
    5.0656   -4.0908    0.4448 C   0  0  1  0  0  0  0  0  0  0  0  0
    6.5474   -3.7001    0.3697 C   0  0  0  0  0  0  0  0  0  0  0  0
    7.6288   -4.5716    0.5926 C   0  0  0  0  0  0  0  0  0  0  0  0
    8.8657   -4.0334    0.4625 N   0  0  0  0  0  0  0  0  0  0  0  0
    8.9794   -2.7326    0.1518 C   0  0  0  0  0  0  0  0  0  0  0  0
    7.9873   -1.8574   -0.0445 N   0  0  0  0  0  0  0  0  0  0  0  0
    6.7347   -2.3426    0.0444 C   0  0  0  0  0  0  0  0  0  0  0  0
    4.2681   -3.1853    1.3232 N   0  0  1  0  0  0  0  0  0  0  0  0
    4.3123   -3.5833    2.7534 C   0  0  0  0  0  0  0  0  0  0  0  0
    3.4310    0.1261    0.9419 H   0  0  0  0  0  0  0  0  0  0  0  0
    2.6521   -1.0681    1.9761 H   0  0  0  0  0  0  0  0  0  0  0  0
    2.6224   -1.2639    0.2275 H   0  0  0  0  0  0  0  0  0  0  0  0
    5.1105   -1.3860    1.9947 H   0  0  0  0  0  0  0  0  0  0  0  0
    5.7958   -0.4554   -0.0537 H   0  0  0  0  0  0  0  0  0  0  0  0
    4.0802   -0.0066   -4.0934 H   0  0  0  0  0  0  0  0  0  0  0  0
    3.2892   -3.9854   -3.4724 H   0  0  0  0  0  0  0  0  0  0  0  0
    3.3803   -4.6190   -0.7989 H   0  0  0  0  0  0  0  0  0  0  0  0
    4.9213   -5.0203   -1.5042 H   0  0  0  0  0  0  0  0  0  0  0  0
    5.0381   -5.0858    0.8894 H   0  0  0  0  0  0  0  0  0  0  0  0
    7.5336   -5.6177    0.8360 H   0  0  0  0  0  0  0  0  0  0  0  0
    9.9796   -2.3393    0.0908 H   0  0  0  0  0  0  0  0  0  0  0  0
    5.3339   -3.5354    3.1426 H   0  0  0  0  0  0  0  0  0  0  0  0
    3.9398   -4.6017    2.8969 H   0  0  0  0  0  0  0  0  0  0  0  0
    3.6866   -2.9213    3.3590 H   0  0  0  0  0  0  0  0  0  0  0  0
    3.3104   -3.3251    1.0310 H   0  0  0  0  0  0  0  0  0  0  0  0
  1  2  1  0
  1 20  1  0
  1 21  1  0
  1 22  1  0
  2 18  1  0
  2  3  1  0
  2 23  1  1
  3 17  1  0
  3  4  1  0
  3 24  1  6
  4  9  2  0
  4  5  1  0
  5  6  2  0
  6  7  1  0
  6 25  1  0
  7  8  2  0
  8  9  1  0
  8 26  1  0
  9 10  1  0
 10 11  1  0
 10 27  1  0
 10 28  1  0
 11 12  1  0
 11 18  1  0
 11 29  1  1
 12 17  2  0
 12 13  1  0
 13 14  2  0
 13 30  1  0
 14 15  1  0
 15 16  2  0
 15 31  1  0
 16 17  1  0
 18 19  1  0
 18 35  1  6
 19 32  1  0
 19 33  1  0
 19 34  1  0
M  CHG  1  18   1
M  END
>  <i_m_ct_stereo_status>  (314) 
1

>  <s_m_source_file>  (314) 
/var/tmp/pbs.5076255.sched01/tmpt7uccrld/92zpefy4ut.sdf

>  <i_m_source_file_index>  (314) 
41

>  <i_lp_mmshare_version>  (314) 
48012

>  <i_f3d_flags>  (314) 
0

>  <s_epik_input>  (314) 
W2NIXTFuW2NIXW5jMmMxW0NAQEhdKE4oW0NIM10pW0NAQEhdM1tDSDNdKVtDSDJdYyhjNFtDQEhdMjMpW2NIXW5bY0hdbjQ=

>  <s_epik_cmdline>  (314) 
J2VwaWtfcHl0aG9uJywgJy1waHQnLCAnMi4wJywgJy1waCcsICc3LjAnLCAnLXRuJywgJzgnLCAnLW1hJywgJzIwMCcsICctaW1hZScsICc8aW5maWxlLm1hZT4nLCAnLW9tYWUnLCAnPG91dGZpbGUubWFlPic=

>  <r_lp_tautomer_probability>  (314) 
1

>  <r_epik_Ionization_Penalty>  (314) 
0.652219

>  <r_epik_Ionization_Penalty_Charging>  (314) 
0.652219

>  <r_epik_Ionization_Penalty_Neutral>  (314) 
1.78712e-07

>  <r_epik_State_Penalty>  (314) 
0.670835

>  <r_epik_Charging_Adjusted_Penalty>  (314) 
1.32305

>  <i_epik_Tot_Q>  (314) 
1

>  <i_epik_Tot_abs_Q>  (314) 
1

>  <s_epik_Chemistry_Notes>  (314) 
This compound contains an electron-poor aromatic ring that is susceptible to covalent hydrolysis at low pH, typically resulting in measured values for nitrogen ring protonation that are around two units higher than predicted values.

>  <s_lp_Force_Field>  (314) 
OPLS3e

>  <r_lp_Energy>  (314) 
49.8731

>  <b_lp_Chiralities_Consistent>  (314) 
1

>  <s_lp_Variant>  (314) 
89:0-2

>  <s_i_glide_gridfile>  (314) 
pfpi4k_grid

>  <i_i_glide_lignum>  (314) 
41

>  <i_i_glide_rotatable_bonds>  (314) 
0

>  <r_i_docking_score>  (314) 
-4.94996

>  <r_i_glide_ligand_efficiency>  (314) 
-0.260524

>  <r_i_glide_ligand_efficiency_sa>  (314) 
-0.695184

>  <r_i_glide_ligand_efficiency_ln>  (314) 
-1.25492

>  <r_i_glide_gscore>  (314) 
-4.94996

>  <r_i_glide_lipo>  (314) 
-0.403585

>  <r_i_glide_hbond>  (314) 
-0.210452

>  <r_i_glide_metal>  (314) 
-0

>  <r_i_glide_rewards>  (314) 
-1.95976

>  <r_i_glide_evdw>  (314) 
-24.8056

>  <r_i_glide_ecoul>  (314) 
-7.37217

>  <r_i_glide_erotb>  (314) 
0

>  <r_i_glide_esite>  (314) 
-0.0300597

>  <r_i_glide_emodel>  (314) 
-42.8011

>  <r_i_glide_energy>  (314) 
-32.1777

>  <r_i_glide_einternal>  (314) 
0

>  <r_i_glide_intrahb_reward>  (314) 
-0

>  <i_i_glide_confnum>  (314) 
1

>  <i_i_glide_posenum>  (314) 
5

>  <r_i_glide_eff_state_penalty>  (314) 
0

>  <ligand_id>  (314) 
89

>  <original_smiles>  (314) 
CC1C2c3ncncc3CC(c3cncnc32)N1C

>  <smiles>  (314) 
[H]c1nc([H])c2c(n1)C1([H])c3nc([H])nc([H])c3C([H])(C2([H])[H])[N+]([H])(C([H])([H])[H])C1([H])C([H])([H])[H]

$$$$
89:1:1
     RDKit          3D

 35 38  0  0  1  0  0  0  0  0999 V2000
    1.6990   -3.6917   -1.6038 C   0  0  0  0  0  0  0  0  0  0  0  0
    2.9779   -3.3263   -0.8349 C   0  0  2  0  0  0  0  0  0  0  0  0
    3.3763   -1.8455   -0.9629 C   0  0  2  0  0  0  0  0  0  0  0  0
    3.4605   -1.3522   -2.3926 C   0  0  0  0  0  0  0  0  0  0  0  0
    2.6139   -0.3987   -2.7707 N   0  0  0  0  0  0  0  0  0  0  0  0
    2.6639    0.1244   -3.9946 C   0  0  0  0  0  0  0  0  0  0  0  0
    3.4822   -0.2593   -4.9335 N   0  0  0  0  0  0  0  0  0  0  0  0
    4.2960   -1.2416   -4.5722 C   0  0  0  0  0  0  0  0  0  0  0  0
    4.3783   -1.8592   -3.3131 C   0  0  0  0  0  0  0  0  0  0  0  0
    5.3753   -2.9799   -3.0014 C   0  0  0  0  0  0  0  0  0  0  0  0
    5.3624   -3.5202   -1.5556 C   0  0  1  0  0  0  0  0  0  0  0  0
    5.7182   -2.4847   -0.5066 C   0  0  0  0  0  0  0  0  0  0  0  0
    6.9544   -2.4532    0.1659 C   0  0  0  0  0  0  0  0  0  0  0  0
    7.0332   -1.4766    1.0908 N   0  0  0  0  0  0  0  0  0  0  0  0
    6.0012   -0.6780    1.3441 C   0  0  0  0  0  0  0  0  0  0  0  0
    4.8202   -0.6791    0.7372 N   0  0  0  0  0  0  0  0  0  0  0  0
    4.6727   -1.5899   -0.2345 C   0  0  0  0  0  0  0  0  0  0  0  0
    4.0928   -4.2170   -1.2404 N   0  0  1  0  0  0  0  0  0  0  0  0
    4.2513   -5.3965   -0.3639 C   0  0  0  0  0  0  0  0  0  0  0  0
    0.8589   -3.0661   -1.2939 H   0  0  0  0  0  0  0  0  0  0  0  0
    1.3916   -4.7161   -1.4221 H   0  0  0  0  0  0  0  0  0  0  0  0
    1.7976   -3.5514   -2.6796 H   0  0  0  0  0  0  0  0  0  0  0  0
    2.8009   -3.5001    0.2237 H   0  0  0  0  0  0  0  0  0  0  0  0
    2.6412   -1.2513   -0.4285 H   0  0  0  0  0  0  0  0  0  0  0  0
    1.9812    0.8935   -4.3095 H   0  0  0  0  0  0  0  0  0  0  0  0
    4.9932   -1.4190   -5.3407 H   0  0  0  0  0  0  0  0  0  0  0  0
    5.2068   -3.7928   -3.7122 H   0  0  0  0  0  0  0  0  0  0  0  0
    6.4036   -2.6703   -3.1969 H   0  0  0  0  0  0  0  0  0  0  0  0
    6.1664   -4.2438   -1.5224 H   0  0  0  0  0  0  0  0  0  0  0  0
    7.8015   -3.1079   -0.0034 H   0  0  0  0  0  0  0  0  0  0  0  0
    6.1613    0.1013    2.0625 H   0  0  0  0  0  0  0  0  0  0  0  0
    4.6270   -5.1071    0.6166 H   0  0  0  0  0  0  0  0  0  0  0  0
    4.9302   -6.1323   -0.8002 H   0  0  0  0  0  0  0  0  0  0  0  0
    3.2928   -5.9015   -0.2362 H   0  0  0  0  0  0  0  0  0  0  0  0
    3.7971   -4.6253   -2.1237 H   0  0  0  0  0  0  0  0  0  0  0  0
  1  2  1  0
  1 20  1  0
  1 21  1  0
  1 22  1  0
  2 18  1  0
  2  3  1  0
  2 23  1  1
  3 17  1  0
  3  4  1  0
  3 24  1  1
  4  9  2  0
  4  5  1  0
  5  6  2  0
  6  7  1  0
  6 25  1  0
  7  8  2  0
  8  9  1  0
  8 26  1  0
  9 10  1  0
 10 11  1  0
 10 27  1  0
 10 28  1  0
 11 12  1  0
 11 18  1  0
 11 29  1  6
 12 17  2  0
 12 13  1  0
 13 14  2  0
 13 30  1  0
 14 15  1  0
 15 16  2  0
 15 31  1  0
 16 17  1  0
 18 19  1  0
 18 35  1  6
 19 32  1  0
 19 33  1  0
 19 34  1  0
M  CHG  1  18   1
M  END
>  <i_m_ct_stereo_status>  (315) 
1

>  <s_m_source_file>  (315) 
/var/tmp/pbs.5076255.sched01/tmpt7uccrld/92zpefy4ut.sdf

>  <i_m_source_file_index>  (315) 
41

>  <i_lp_mmshare_version>  (315) 
48012

>  <i_f3d_flags>  (315) 
0

>  <s_epik_input>  (315) 
W2NIXTFuW2NIXW5jMmMxW0NAQEhdKE4oW0NIM10pW0NAQEhdM1tDSDNdKVtDSDJdYyhjNFtDQEhdMjMpW2NIXW5bY0hdbjQ=

>  <s_epik_cmdline>  (315) 
J2VwaWtfcHl0aG9uJywgJy1waHQnLCAnMi4wJywgJy1waCcsICc3LjAnLCAnLXRuJywgJzgnLCAnLW1hJywgJzIwMCcsICctaW1hZScsICc8aW5maWxlLm1hZT4nLCAnLW9tYWUnLCAnPG91dGZpbGUubWFlPic=

>  <r_lp_tautomer_probability>  (315) 
1

>  <r_epik_Ionization_Penalty>  (315) 
0.652219

>  <r_epik_Ionization_Penalty_Charging>  (315) 
0.652219

>  <r_epik_Ionization_Penalty_Neutral>  (315) 
1.78712e-07

>  <r_epik_State_Penalty>  (315) 
0.670835

>  <r_epik_Charging_Adjusted_Penalty>  (315) 
1.32305

>  <i_epik_Tot_Q>  (315) 
1

>  <i_epik_Tot_abs_Q>  (315) 
1

>  <s_epik_Chemistry_Notes>  (315) 
This compound contains an electron-poor aromatic ring that is susceptible to covalent hydrolysis at low pH, typically resulting in measured values for nitrogen ring protonation that are around two units higher than predicted values.

>  <s_lp_Force_Field>  (315) 
OPLS3e

>  <r_lp_Energy>  (315) 
49.8731

>  <b_lp_Chiralities_Consistent>  (315) 
1

>  <s_lp_Variant>  (315) 
89:0-2

>  <s_i_glide_gridfile>  (315) 
pfpi4k_grid

>  <i_i_glide_lignum>  (315) 
41

>  <i_i_glide_rotatable_bonds>  (315) 
0

>  <r_i_docking_score>  (315) 
-2.6905

>  <r_i_glide_ligand_efficiency>  (315) 
-0.141605

>  <r_i_glide_ligand_efficiency_sa>  (315) 
-0.37786

>  <r_i_glide_ligand_efficiency_ln>  (315) 
-0.6821

>  <r_i_glide_gscore>  (315) 
-2.6905

>  <r_i_glide_lipo>  (315) 
-0.461037

>  <r_i_glide_hbond>  (315) 
0

>  <r_i_glide_metal>  (315) 
-0

>  <r_i_glide_rewards>  (315) 
-1.7643

>  <r_i_glide_evdw>  (315) 
3.89132

>  <r_i_glide_ecoul>  (315) 
-4.0831

>  <r_i_glide_erotb>  (315) 
0

>  <r_i_glide_esite>  (315) 
-0.0472695

>  <r_i_glide_emodel>  (315) 
-5.89629

>  <r_i_glide_energy>  (315) 
-0.191779

>  <r_i_glide_einternal>  (315) 
0

>  <r_i_glide_intrahb_reward>  (315) 
-0

>  <i_i_glide_confnum>  (315) 
2

>  <i_i_glide_posenum>  (315) 
4

>  <r_i_glide_eff_state_penalty>  (315) 
0

>  <ligand_id>  (315) 
89

>  <original_smiles>  (315) 
CC1C2c3ncncc3CC(c3cncnc32)N1C

>  <smiles>  (315) 
[H]c1nc([H])c2c(n1)C1([H])c3nc([H])nc([H])c3C([H])(C2([H])[H])[N+]([H])(C([H])([H])[H])C1([H])C([H])([H])[H]

$$$$
91:0:0
     RDKit          3D

 62 66  0  0  1  0  0  0  0  0999 V2000
    6.9920   -5.3464    2.0497 C   0  0  0  0  0  0  0  0  0  0  0  0
    6.9459   -4.2256    0.9873 C   0  0  0  0  0  0  0  0  0  0  0  0
    8.4701   -4.0191    0.7132 C   0  0  0  0  0  0  0  0  0  0  0  0
    6.4770   -4.6592   -0.3065 O   0  0  0  0  0  0  0  0  0  0  0  0
    5.2474   -4.3451   -0.8632 C   0  0  0  0  0  0  0  0  0  0  0  0
    4.2421   -3.7662   -0.1580 C   0  0  0  0  0  0  0  0  0  0  0  0
    3.6383   -4.7705    0.9255 C   0  0  2  0  0  0  0  0  0  0  0  0
    4.1775   -6.2596    0.6577 C   0  0  0  0  0  0  0  0  0  0  0  0
    2.1591   -5.1289    1.1428 C   0  0  1  0  0  0  0  0  0  0  0  0
    1.4762   -5.8466    0.1308 O   0  0  0  0  0  0  0  0  0  0  0  0
    2.1503   -5.8521    2.5532 C   0  0  0  0  0  0  0  0  0  0  0  0
    3.4930   -5.3813    3.2723 C   0  0  0  0  0  0  0  0  0  0  0  0
    3.8880   -4.1880    2.3487 C   0  0  2  0  0  0  0  0  0  0  0  0
    2.8860   -3.4743    3.0806 O   0  0  0  0  0  0  0  0  0  0  0  0
    4.8621   -2.9392    2.3356 C   0  0  1  0  0  0  0  0  0  0  0  0
    6.2529   -2.9176    1.4915 C   0  0  2  0  0  0  0  0  0  0  0  0
    6.0375   -1.9576    0.2967 C   0  0  1  0  0  0  0  0  0  0  0  0
    6.8926   -2.0653   -0.8229 O   0  0  0  0  0  0  0  0  0  0  0  0
    4.5413   -2.2236    0.1105 C   0  0  1  0  0  0  0  0  0  0  0  0
    3.9737   -1.3253   -0.8637 O   0  0  0  0  0  0  0  0  0  0  0  0
    4.1741   -1.5985   -2.2576 C   0  0  2  0  0  0  0  0  0  0  0  0
    3.8088   -0.3854   -3.0841 C   0  0  0  0  0  0  0  0  0  0  0  0
    3.5384   -1.0101   -4.4328 C   0  0  0  0  0  0  0  0  0  0  0  0
    2.9814   -2.2842   -4.1631 O   0  0  0  0  0  0  0  0  0  0  0  0
    3.2100   -2.6440   -2.8195 C   0  0  0  0  0  0  0  0  0  0  0  0
    4.1113   -1.7749    1.5280 C   0  0  0  0  0  0  0  0  0  0  0  0
    2.5749   -1.4895    1.4264 C   0  0  0  0  0  0  0  0  0  0  0  0
    4.5746   -0.3941    2.0943 C   0  0  0  0  0  0  0  0  0  0  0  0
    7.6472   -5.0679    2.8724 H   0  0  0  0  0  0  0  0  0  0  0  0
    7.3826   -6.2802    1.6408 H   0  0  0  0  0  0  0  0  0  0  0  0
    6.0387   -5.5583    2.5042 H   0  0  0  0  0  0  0  0  0  0  0  0
    8.9949   -3.6209    1.5849 H   0  0  0  0  0  0  0  0  0  0  0  0
    8.7258   -3.3733   -0.1183 H   0  0  0  0  0  0  0  0  0  0  0  0
    8.9449   -4.9720    0.4745 H   0  0  0  0  0  0  0  0  0  0  0  0
    5.0121   -5.2727   -1.3330 H   0  0  0  0  0  0  0  0  0  0  0  0
    3.8394   -7.0541    1.3168 H   0  0  0  0  0  0  0  0  0  0  0  0
    5.2444   -6.4001    0.6517 H   0  0  0  0  0  0  0  0  0  0  0  0
    3.8289   -6.6174   -0.3115 H   0  0  0  0  0  0  0  0  0  0  0  0
    1.5981   -4.2245    1.2630 H   0  0  0  0  0  0  0  0  0  0  0  0
    1.9424   -5.6793   -0.6973 H   0  0  0  0  0  0  0  0  0  0  0  0
    1.2762   -5.5245    3.1168 H   0  0  0  0  0  0  0  0  0  0  0  0
    2.0740   -6.9394    2.4838 H   0  0  0  0  0  0  0  0  0  0  0  0
    3.3545   -5.1731    4.3442 H   0  0  0  0  0  0  0  0  0  0  0  0
    4.2107   -6.1952    3.2489 H   0  0  0  0  0  0  0  0  0  0  0  0
    2.7240   -2.6614    2.6188 H   0  0  0  0  0  0  0  0  0  0  0  0
    5.0607   -2.6343    3.3640 H   0  0  0  0  0  0  0  0  0  0  0  0
    6.9921   -2.3967    2.0765 H   0  0  0  0  0  0  0  0  0  0  0  0
    6.2901   -0.9358    0.5708 H   0  0  0  0  0  0  0  0  0  0  0  0
    6.7908   -2.9574   -1.1560 H   0  0  0  0  0  0  0  0  0  0  0  0
    5.1914   -1.8488   -2.5480 H   0  0  0  0  0  0  0  0  0  0  0  0
    2.8820    0.0719   -2.7136 H   0  0  0  0  0  0  0  0  0  0  0  0
    4.5851    0.3814   -3.1083 H   0  0  0  0  0  0  0  0  0  0  0  0
    2.8477   -0.4307   -5.0454 H   0  0  0  0  0  0  0  0  0  0  0  0
    4.4700   -1.1508   -4.9798 H   0  0  0  0  0  0  0  0  0  0  0  0
    3.5787   -3.6633   -2.7896 H   0  0  0  0  0  0  0  0  0  0  0  0
    2.2743   -2.5885   -2.2627 H   0  0  0  0  0  0  0  0  0  0  0  0
    2.4098   -0.5877    0.8385 H   0  0  0  0  0  0  0  0  0  0  0  0
    2.0719   -1.2793    2.3706 H   0  0  0  0  0  0  0  0  0  0  0  0
    2.0412   -2.2614    0.8804 H   0  0  0  0  0  0  0  0  0  0  0  0
    4.4834    0.3910    1.3374 H   0  0  0  0  0  0  0  0  0  0  0  0
    5.6002   -0.3873    2.4739 H   0  0  0  0  0  0  0  0  0  0  0  0
    3.9602   -0.0832    2.9411 H   0  0  0  0  0  0  0  0  0  0  0  0
  1  2  1  0
  1 29  1  0
  1 30  1  0
  1 31  1  0
  2 16  1  0
  2  3  1  0
  2  4  1  0
  3 32  1  0
  3 33  1  0
  3 34  1  0
  4  5  1  0
  5  6  2  0
  5 35  1  0
  6 19  1  0
  6  7  1  0
  7 13  1  0
  7  8  1  1
  7  9  1  0
  8 36  1  0
  8 37  1  0
  8 38  1  0
  9 10  1  0
  9 11  1  0
  9 39  1  1
 10 40  1  0
 11 12  1  0
 11 41  1  0
 11 42  1  0
 12 13  1  0
 12 43  1  0
 12 44  1  0
 13 14  1  1
 13 15  1  0
 14 45  1  0
 15 26  1  0
 15 16  1  0
 15 46  1  1
 16 17  1  0
 16 47  1  1
 17 18  1  0
 17 19  1  0
 17 48  1  1
 18 49  1  0
 19 20  1  6
 19 26  1  0
 20 21  1  0
 21 25  1  0
 21 22  1  0
 21 50  1  1
 22 23  1  0
 22 51  1  0
 22 52  1  0
 23 24  1  0
 23 53  1  0
 23 54  1  0
 24 25  1  0
 25 55  1  0
 25 56  1  0
 26 27  1  0
 26 28  1  0
 27 57  1  0
 27 58  1  0
 27 59  1  0
 28 60  1  0
 28 61  1  0
 28 62  1  0
M  END
>  <i_m_ct_stereo_status>  (316) 
1

>  <s_m_source_file>  (316) 
/var/tmp/pbs.5076255.sched01/tmpt7uccrld/92zpefy4ut.sdf

>  <i_m_source_file_index>  (316) 
43

>  <i_lp_mmshare_version>  (316) 
48012

>  <i_f3d_flags>  (316) 
0

>  <s_epik_input>  (316) 
W09IXVtDQEhdMVtDSDJdW0NIMl1bQ0BAXTIoW09IXSlbQ0BIXShDMyhbQ0gzXSlbQ0gzXSlbQ0BASF0oQyhbQ0gzXSkoW0NIM10pT1tDSF09NClbQ0BASF0oW09IXSlbQ0BdMyhDNFtDQF0xMltDSDNdKU9bQ0BASF01W0NIMl1bQ0gyXU9bQ0gyXTU=

>  <s_epik_cmdline>  (316) 
J2VwaWtfcHl0aG9uJywgJy1waHQnLCAnMi4wJywgJy1waCcsICc3LjAnLCAnLXRuJywgJzgnLCAnLW1hJywgJzIwMCcsICctaW1hZScsICc8aW5maWxlLm1hZT4nLCAnLW9tYWUnLCAnPG91dGZpbGUubWFlPic=

>  <r_lp_tautomer_probability>  (316) 
1

>  <r_epik_Ionization_Penalty>  (316) 
3.68474e-07

>  <r_epik_Ionization_Penalty_Charging>  (316) 
0

>  <r_epik_Ionization_Penalty_Neutral>  (316) 
3.68474e-07

>  <r_epik_State_Penalty>  (316) 
-0

>  <r_epik_Charging_Adjusted_Penalty>  (316) 
0

>  <i_epik_Tot_Q>  (316) 
0

>  <i_epik_Tot_abs_Q>  (316) 
0

>  <s_lp_Force_Field>  (316) 
OPLS3e

>  <r_lp_Energy>  (316) 
230.989

>  <b_lp_Chiralities_Consistent>  (316) 
1

>  <s_lp_Variant>  (316) 
91:0-1

>  <s_i_glide_gridfile>  (316) 
pfpi4k_grid

>  <i_i_glide_lignum>  (316) 
43

>  <i_i_glide_rotatable_bonds>  (316) 
5

>  <r_i_docking_score>  (316) 
-4.40413

>  <r_i_glide_ligand_efficiency>  (316) 
-0.15729

>  <r_i_glide_ligand_efficiency_sa>  (316) 
-0.477626

>  <r_i_glide_ligand_efficiency_ln>  (316) 
-1.0166

>  <r_i_glide_gscore>  (316) 
-4.40413

>  <r_i_glide_lipo>  (316) 
-0.890908

>  <r_i_glide_hbond>  (316) 
-0.480739

>  <r_i_glide_metal>  (316) 
-0

>  <r_i_glide_rewards>  (316) 
-0.719306

>  <r_i_glide_evdw>  (316) 
-26.5243

>  <r_i_glide_ecoul>  (316) 
-8.25423

>  <r_i_glide_erotb>  (316) 
0.251177

>  <r_i_glide_esite>  (316) 
0

>  <r_i_glide_emodel>  (316) 
-42.6353

>  <r_i_glide_energy>  (316) 
-34.7786

>  <r_i_glide_einternal>  (316) 
2.66566

>  <r_i_glide_intrahb_reward>  (316) 
-0

>  <i_i_glide_confnum>  (316) 
1

>  <i_i_glide_posenum>  (316) 
8

>  <r_i_glide_eff_state_penalty>  (316) 
0

>  <ligand_id>  (316) 
91

>  <original_smiles>  (316) 
CC1(C)OC=C2C3(C)C(O)CCC3(O)C3C1C(O)C2(OC1CCOC1)C3(C)C

>  <smiles>  (316) 
[H]OC1([H])C2(OC3([H])C([H])([H])OC([H])([H])C3([H])[H])C3=C([H])OC(C([H])([H])[H])(C([H])([H])[H])C1([H])C([H])(C1(O[H])C([H])([H])C([H])([H])C([H])(O[H])C31C([H])([H])[H])C2(C([H])([H])[H])C([H])([H])[H]

$$$$
91:0:1
     RDKit          3D

 62 66  0  0  1  0  0  0  0  0999 V2000
    4.4908   -5.2778    3.6805 C   0  0  0  0  0  0  0  0  0  0  0  0
    4.6023   -5.3474    2.1449 C   0  0  0  0  0  0  0  0  0  0  0  0
    5.0856   -6.8126    1.9279 C   0  0  0  0  0  0  0  0  0  0  0  0
    3.3070   -5.3646    1.4745 O   0  0  0  0  0  0  0  0  0  0  0  0
    2.8079   -4.3174    0.6973 C   0  0  0  0  0  0  0  0  0  0  0  0
    3.3286   -3.0687    0.7206 C   0  0  0  0  0  0  0  0  0  0  0  0
    3.0843   -2.3135    2.1185 C   0  0  2  0  0  0  0  0  0  0  0  0
    2.0358   -3.1725    2.9952 C   0  0  0  0  0  0  0  0  0  0  0  0
    2.4799   -0.8907    2.3583 C   0  0  1  0  0  0  0  0  0  0  0  0
    1.1027   -0.7360    2.0764 O   0  0  0  0  0  0  0  0  0  0  0  0
    2.8386   -0.6426    3.8884 C   0  0  0  0  0  0  0  0  0  0  0  0
    4.0451   -1.6308    4.2395 C   0  0  0  0  0  0  0  0  0  0  0  0
    4.4673   -2.0436    2.7988 C   0  0  2  0  0  0  0  0  0  0  0  0
    5.1138   -0.7647    2.7589 O   0  0  0  0  0  0  0  0  0  0  0  0
    5.6709   -2.7518    2.0382 C   0  0  1  0  0  0  0  0  0  0  0  0
    5.6406   -4.3162    1.5856 C   0  0  2  0  0  0  0  0  0  0  0  0
    5.5126   -4.2813    0.0359 C   0  0  1  0  0  0  0  0  0  0  0  0
    4.9888   -5.3768   -0.6879 O   0  0  0  0  0  0  0  0  0  0  0  0
    4.7217   -2.9780   -0.0723 C   0  0  1  0  0  0  0  0  0  0  0  0
    4.6463   -2.6730   -1.4705 O   0  0  0  0  0  0  0  0  0  0  0  0
    3.4845   -2.0244   -1.9790 C   0  0  2  0  0  0  0  0  0  0  0  0
    2.5427   -3.0501   -2.5662 C   0  0  0  0  0  0  0  0  0  0  0  0
    3.1687   -3.3190   -3.9229 C   0  0  0  0  0  0  0  0  0  0  0  0
    3.8141   -2.1152   -4.3178 O   0  0  0  0  0  0  0  0  0  0  0  0
    3.8858   -1.2216   -3.2163 C   0  0  0  0  0  0  0  0  0  0  0  0
    5.7740   -2.0700    0.5935 C   0  0  0  0  0  0  0  0  0  0  0  0
    5.3970   -0.6143    0.1739 C   0  0  0  0  0  0  0  0  0  0  0  0
    7.2730   -2.1056    0.1298 C   0  0  0  0  0  0  0  0  0  0  0  0
    5.4207   -5.5907    4.1567 H   0  0  0  0  0  0  0  0  0  0  0  0
    3.6921   -5.9240    4.0514 H   0  0  0  0  0  0  0  0  0  0  0  0
    4.3003   -4.2834    4.0428 H   0  0  0  0  0  0  0  0  0  0  0  0
    6.0886   -6.9702    2.3273 H   0  0  0  0  0  0  0  0  0  0  0  0
    5.1008   -7.1414    0.8909 H   0  0  0  0  0  0  0  0  0  0  0  0
    4.4238   -7.5170    2.4367 H   0  0  0  0  0  0  0  0  0  0  0  0
    1.7814   -4.4027    0.9594 H   0  0  0  0  0  0  0  0  0  0  0  0
    1.7688   -2.8126    3.9836 H   0  0  0  0  0  0  0  0  0  0  0  0
    2.2907   -4.2037    3.1926 H   0  0  0  0  0  0  0  0  0  0  0  0
    1.0626   -3.1972    2.5050 H   0  0  0  0  0  0  0  0  0  0  0  0
    2.9585   -0.1166    1.7644 H   0  0  0  0  0  0  0  0  0  0  0  0
    1.0148   -0.6586    1.1288 H   0  0  0  0  0  0  0  0  0  0  0  0
    3.1365    0.3975    4.0342 H   0  0  0  0  0  0  0  0  0  0  0  0
    1.9966   -0.7951    4.5654 H   0  0  0  0  0  0  0  0  0  0  0  0
    4.8057   -1.1733    4.8831 H   0  0  0  0  0  0  0  0  0  0  0  0
    3.6900   -2.4649    4.8398 H   0  0  0  0  0  0  0  0  0  0  0  0
    5.3182   -0.5757    1.8545 H   0  0  0  0  0  0  0  0  0  0  0  0
    6.6005   -2.5682    2.5624 H   0  0  0  0  0  0  0  0  0  0  0  0
    6.6239   -4.7234    1.8167 H   0  0  0  0  0  0  0  0  0  0  0  0
    6.4840   -4.2479   -0.4430 H   0  0  0  0  0  0  0  0  0  0  0  0
    4.7244   -5.0735   -1.5463 H   0  0  0  0  0  0  0  0  0  0  0  0
    3.0141   -1.3741   -1.2432 H   0  0  0  0  0  0  0  0  0  0  0  0
    2.4343   -3.9438   -1.9533 H   0  0  0  0  0  0  0  0  0  0  0  0
    1.5493   -2.6217   -2.6991 H   0  0  0  0  0  0  0  0  0  0  0  0
    3.9199   -4.1055   -3.8557 H   0  0  0  0  0  0  0  0  0  0  0  0
    2.4166   -3.6205   -4.6513 H   0  0  0  0  0  0  0  0  0  0  0  0
    3.1604   -0.4241   -3.3790 H   0  0  0  0  0  0  0  0  0  0  0  0
    4.8694   -0.7600   -3.1219 H   0  0  0  0  0  0  0  0  0  0  0  0
    5.6037   -0.4616   -0.8851 H   0  0  0  0  0  0  0  0  0  0  0  0
    5.9819    0.1589    0.6767 H   0  0  0  0  0  0  0  0  0  0  0  0
    4.3415   -0.3859    0.2788 H   0  0  0  0  0  0  0  0  0  0  0  0
    7.3515   -2.1175   -0.9586 H   0  0  0  0  0  0  0  0  0  0  0  0
    7.8413   -2.9547    0.5132 H   0  0  0  0  0  0  0  0  0  0  0  0
    7.8181   -1.2295    0.4878 H   0  0  0  0  0  0  0  0  0  0  0  0
  1  2  1  0
  1 29  1  0
  1 30  1  0
  1 31  1  0
  2 16  1  0
  2  3  1  0
  2  4  1  0
  3 32  1  0
  3 33  1  0
  3 34  1  0
  4  5  1  0
  5  6  2  0
  5 35  1  0
  6 19  1  0
  6  7  1  0
  7 13  1  0
  7  8  1  1
  7  9  1  0
  8 36  1  0
  8 37  1  0
  8 38  1  0
  9 10  1  0
  9 11  1  0
  9 39  1  6
 10 40  1  0
 11 12  1  0
 11 41  1  0
 11 42  1  0
 12 13  1  0
 12 43  1  0
 12 44  1  0
 13 14  1  6
 13 15  1  0
 14 45  1  0
 15 26  1  0
 15 16  1  0
 15 46  1  1
 16 17  1  0
 16 47  1  6
 17 18  1  0
 17 19  1  0
 17 48  1  6
 18 49  1  0
 19 20  1  6
 19 26  1  0
 20 21  1  0
 21 25  1  0
 21 22  1  0
 21 50  1  1
 22 23  1  0
 22 51  1  0
 22 52  1  0
 23 24  1  0
 23 53  1  0
 23 54  1  0
 24 25  1  0
 25 55  1  0
 25 56  1  0
 26 27  1  0
 26 28  1  0
 27 57  1  0
 27 58  1  0
 27 59  1  0
 28 60  1  0
 28 61  1  0
 28 62  1  0
M  END
>  <i_m_ct_stereo_status>  (317) 
1

>  <s_m_source_file>  (317) 
/var/tmp/pbs.5076255.sched01/tmpt7uccrld/92zpefy4ut.sdf

>  <i_m_source_file_index>  (317) 
43

>  <i_lp_mmshare_version>  (317) 
48012

>  <i_f3d_flags>  (317) 
0

>  <s_epik_input>  (317) 
W09IXVtDQEhdMVtDSDJdW0NIMl1bQ0BAXTIoW09IXSlbQ0BIXShDMyhbQ0gzXSlbQ0gzXSlbQ0BASF0oQyhbQ0gzXSkoW0NIM10pT1tDSF09NClbQ0BASF0oW09IXSlbQ0BdMyhDNFtDQF0xMltDSDNdKU9bQ0BASF01W0NIMl1bQ0gyXU9bQ0gyXTU=

>  <s_epik_cmdline>  (317) 
J2VwaWtfcHl0aG9uJywgJy1waHQnLCAnMi4wJywgJy1waCcsICc3LjAnLCAnLXRuJywgJzgnLCAnLW1hJywgJzIwMCcsICctaW1hZScsICc8aW5maWxlLm1hZT4nLCAnLW9tYWUnLCAnPG91dGZpbGUubWFlPic=

>  <r_lp_tautomer_probability>  (317) 
1

>  <r_epik_Ionization_Penalty>  (317) 
3.68474e-07

>  <r_epik_Ionization_Penalty_Charging>  (317) 
0

>  <r_epik_Ionization_Penalty_Neutral>  (317) 
3.68474e-07

>  <r_epik_State_Penalty>  (317) 
-0

>  <r_epik_Charging_Adjusted_Penalty>  (317) 
0

>  <i_epik_Tot_Q>  (317) 
0

>  <i_epik_Tot_abs_Q>  (317) 
0

>  <s_lp_Force_Field>  (317) 
OPLS3e

>  <r_lp_Energy>  (317) 
230.989

>  <b_lp_Chiralities_Consistent>  (317) 
1

>  <s_lp_Variant>  (317) 
91:0-1

>  <s_i_glide_gridfile>  (317) 
pfpi4k_grid

>  <i_i_glide_lignum>  (317) 
43

>  <i_i_glide_rotatable_bonds>  (317) 
5

>  <r_i_docking_score>  (317) 
-3.91298

>  <r_i_glide_ligand_efficiency>  (317) 
-0.139749

>  <r_i_glide_ligand_efficiency_sa>  (317) 
-0.424361

>  <r_i_glide_ligand_efficiency_ln>  (317) 
-0.90323

>  <r_i_glide_gscore>  (317) 
-3.91298

>  <r_i_glide_lipo>  (317) 
-0.611497

>  <r_i_glide_hbond>  (317) 
-0.452799

>  <r_i_glide_metal>  (317) 
-0

>  <r_i_glide_rewards>  (317) 
-0.719306

>  <r_i_glide_evdw>  (317) 
-29.7974

>  <r_i_glide_ecoul>  (317) 
-5.93786

>  <r_i_glide_erotb>  (317) 
0.251177

>  <r_i_glide_esite>  (317) 
0

>  <r_i_glide_emodel>  (317) 
-41.7721

>  <r_i_glide_energy>  (317) 
-35.7353

>  <r_i_glide_einternal>  (317) 
5.11296

>  <r_i_glide_intrahb_reward>  (317) 
-0

>  <i_i_glide_confnum>  (317) 
6

>  <i_i_glide_posenum>  (317) 
17

>  <r_i_glide_eff_state_penalty>  (317) 
0

>  <ligand_id>  (317) 
91

>  <original_smiles>  (317) 
CC1(C)OC=C2C3(C)C(O)CCC3(O)C3C1C(O)C2(OC1CCOC1)C3(C)C

>  <smiles>  (317) 
[H]OC1([H])C2(OC3([H])C([H])([H])OC([H])([H])C3([H])[H])C3=C([H])OC(C([H])([H])[H])(C([H])([H])[H])C1([H])C([H])(C1(O[H])C([H])([H])C([H])([H])C([H])(O[H])C31C([H])([H])[H])C2(C([H])([H])[H])C([H])([H])[H]

$$$$
91:0:2
     RDKit          3D

 62 66  0  0  1  0  0  0  0  0999 V2000
    4.4825   -5.1586    3.6604 C   0  0  0  0  0  0  0  0  0  0  0  0
    4.6043   -5.2139    2.1238 C   0  0  0  0  0  0  0  0  0  0  0  0
    5.0917   -6.6751    1.8983 C   0  0  0  0  0  0  0  0  0  0  0  0
    3.3237   -5.2329    1.4254 O   0  0  0  0  0  0  0  0  0  0  0  0
    2.8263   -4.1688    0.6779 C   0  0  0  0  0  0  0  0  0  0  0  0
    3.3458   -2.9183    0.7128 C   0  0  0  0  0  0  0  0  0  0  0  0
    3.0907   -2.1764    2.1149 C   0  0  2  0  0  0  0  0  0  0  0  0
    2.0355   -3.0436    2.9778 C   0  0  0  0  0  0  0  0  0  0  0  0
    2.4841   -0.7583    2.3627 C   0  0  1  0  0  0  0  0  0  0  0  0
    1.1068   -0.6102    2.0752 O   0  0  0  0  0  0  0  0  0  0  0  0
    2.8350   -0.5189    3.8972 C   0  0  0  0  0  0  0  0  0  0  0  0
    4.0375   -1.5124    4.2495 C   0  0  0  0  0  0  0  0  0  0  0  0
    4.4682   -1.9124    2.8085 C   0  0  2  0  0  0  0  0  0  0  0  0
    5.1162   -0.6322    2.7895 O   0  0  0  0  0  0  0  0  0  0  0  0
    5.6703   -2.6193    2.0538 C   0  0  1  0  0  0  0  0  0  0  0  0
    5.6433   -4.1777    1.5835 C   0  0  2  0  0  0  0  0  0  0  0  0
    5.5280   -4.1252    0.0331 C   0  0  1  0  0  0  0  0  0  0  0  0
    5.0087   -5.2030   -0.7175 O   0  0  0  0  0  0  0  0  0  0  0  0
    4.7421   -2.8225   -0.0695 C   0  0  1  0  0  0  0  0  0  0  0  0
    4.6829   -2.4912   -1.4627 O   0  0  0  0  0  0  0  0  0  0  0  0
    3.4921   -1.9180   -1.9869 C   0  0  2  0  0  0  0  0  0  0  0  0
    2.5941   -2.9935   -2.5608 C   0  0  0  0  0  0  0  0  0  0  0  0
    3.2294   -3.2686   -3.9125 C   0  0  0  0  0  0  0  0  0  0  0  0
    3.8208   -2.0415   -4.3212 O   0  0  0  0  0  0  0  0  0  0  0  0
    3.8563   -1.1228   -3.2356 C   0  0  0  0  0  0  0  0  0  0  0  0
    5.7854   -1.9251    0.6161 C   0  0  0  0  0  0  0  0  0  0  0  0
    5.4039   -0.4687    0.2016 C   0  0  0  0  0  0  0  0  0  0  0  0
    7.2845   -1.9547    0.1604 C   0  0  0  0  0  0  0  0  0  0  0  0
    5.4105   -5.4743    4.1409 H   0  0  0  0  0  0  0  0  0  0  0  0
    3.6833   -5.8081    4.0232 H   0  0  0  0  0  0  0  0  0  0  0  0
    4.2914   -4.1664    4.0326 H   0  0  0  0  0  0  0  0  0  0  0  0
    6.0924   -6.8370    2.3044 H   0  0  0  0  0  0  0  0  0  0  0  0
    5.1150   -6.9947    0.8580 H   0  0  0  0  0  0  0  0  0  0  0  0
    4.4270   -7.3848    2.3973 H   0  0  0  0  0  0  0  0  0  0  0  0
    1.8044   -4.2561    0.9415 H   0  0  0  0  0  0  0  0  0  0  0  0
    1.7602   -2.6945    3.9693 H   0  0  0  0  0  0  0  0  0  0  0  0
    2.2891   -4.0769    3.1660 H   0  0  0  0  0  0  0  0  0  0  0  0
    1.0632   -3.0667    2.4838 H   0  0  0  0  0  0  0  0  0  0  0  0
    2.9602    0.0191    1.7732 H   0  0  0  0  0  0  0  0  0  0  0  0
    1.0134   -0.5994    1.1240 H   0  0  0  0  0  0  0  0  0  0  0  0
    3.1200    0.5238    4.0627 H   0  0  0  0  0  0  0  0  0  0  0  0
    1.9861   -0.6824    4.5649 H   0  0  0  0  0  0  0  0  0  0  0  0
    4.7918   -1.0654    4.9072 H   0  0  0  0  0  0  0  0  0  0  0  0
    3.6732   -2.3497    4.8409 H   0  0  0  0  0  0  0  0  0  0  0  0
    4.4945    0.0214    3.0747 H   0  0  0  0  0  0  0  0  0  0  0  0
    6.5839   -2.4396    2.5990 H   0  0  0  0  0  0  0  0  0  0  0  0
    6.6270   -4.5822    1.8192 H   0  0  0  0  0  0  0  0  0  0  0  0
    6.5065   -4.0964   -0.4286 H   0  0  0  0  0  0  0  0  0  0  0  0
    4.0752   -5.2351   -0.5960 H   0  0  0  0  0  0  0  0  0  0  0  0
    3.0125   -1.2615   -1.2658 H   0  0  0  0  0  0  0  0  0  0  0  0
    2.5256   -3.8811   -1.9416 H   0  0  0  0  0  0  0  0  0  0  0  0
    1.5837   -2.6129   -2.7022 H   0  0  0  0  0  0  0  0  0  0  0  0
    4.0189   -4.0147   -3.8204 H   0  0  0  0  0  0  0  0  0  0  0  0
    2.4964   -3.6228   -4.6334 H   0  0  0  0  0  0  0  0  0  0  0  0
    3.0964   -0.3626   -3.4203 H   0  0  0  0  0  0  0  0  0  0  0  0
    4.8210   -0.6235   -3.1546 H   0  0  0  0  0  0  0  0  0  0  0  0
    5.6208   -0.2969   -0.8523 H   0  0  0  0  0  0  0  0  0  0  0  0
    5.9744    0.2944    0.7290 H   0  0  0  0  0  0  0  0  0  0  0  0
    4.3491   -0.2437    0.3008 H   0  0  0  0  0  0  0  0  0  0  0  0
    7.3677   -1.9573   -0.9263 H   0  0  0  0  0  0  0  0  0  0  0  0
    7.8512   -2.8063    0.5397 H   0  0  0  0  0  0  0  0  0  0  0  0
    7.8256   -1.0800    0.5273 H   0  0  0  0  0  0  0  0  0  0  0  0
  1  2  1  0
  1 29  1  0
  1 30  1  0
  1 31  1  0
  2 16  1  0
  2  3  1  0
  2  4  1  0
  3 32  1  0
  3 33  1  0
  3 34  1  0
  4  5  1  0
  5  6  2  0
  5 35  1  0
  6 19  1  0
  6  7  1  0
  7 13  1  0
  7  8  1  1
  7  9  1  0
  8 36  1  0
  8 37  1  0
  8 38  1  0
  9 10  1  0
  9 11  1  0
  9 39  1  6
 10 40  1  0
 11 12  1  0
 11 41  1  0
 11 42  1  0
 12 13  1  0
 12 43  1  0
 12 44  1  0
 13 14  1  6
 13 15  1  0
 14 45  1  0
 15 26  1  0
 15 16  1  0
 15 46  1  1
 16 17  1  0
 16 47  1  6
 17 18  1  0
 17 19  1  0
 17 48  1  6
 18 49  1  0
 19 20  1  6
 19 26  1  0
 20 21  1  0
 21 25  1  0
 21 22  1  0
 21 50  1  1
 22 23  1  0
 22 51  1  0
 22 52  1  0
 23 24  1  0
 23 53  1  0
 23 54  1  0
 24 25  1  0
 25 55  1  0
 25 56  1  0
 26 27  1  0
 26 28  1  0
 27 57  1  0
 27 58  1  0
 27 59  1  0
 28 60  1  0
 28 61  1  0
 28 62  1  0
M  END
>  <i_m_ct_stereo_status>  (318) 
1

>  <s_m_source_file>  (318) 
/var/tmp/pbs.5076255.sched01/tmpt7uccrld/92zpefy4ut.sdf

>  <i_m_source_file_index>  (318) 
43

>  <i_lp_mmshare_version>  (318) 
48012

>  <i_f3d_flags>  (318) 
0

>  <s_epik_input>  (318) 
W09IXVtDQEhdMVtDSDJdW0NIMl1bQ0BAXTIoW09IXSlbQ0BIXShDMyhbQ0gzXSlbQ0gzXSlbQ0BASF0oQyhbQ0gzXSkoW0NIM10pT1tDSF09NClbQ0BASF0oW09IXSlbQ0BdMyhDNFtDQF0xMltDSDNdKU9bQ0BASF01W0NIMl1bQ0gyXU9bQ0gyXTU=

>  <s_epik_cmdline>  (318) 
J2VwaWtfcHl0aG9uJywgJy1waHQnLCAnMi4wJywgJy1waCcsICc3LjAnLCAnLXRuJywgJzgnLCAnLW1hJywgJzIwMCcsICctaW1hZScsICc8aW5maWxlLm1hZT4nLCAnLW9tYWUnLCAnPG91dGZpbGUubWFlPic=

>  <r_lp_tautomer_probability>  (318) 
1

>  <r_epik_Ionization_Penalty>  (318) 
3.68474e-07

>  <r_epik_Ionization_Penalty_Charging>  (318) 
0

>  <r_epik_Ionization_Penalty_Neutral>  (318) 
3.68474e-07

>  <r_epik_State_Penalty>  (318) 
-0

>  <r_epik_Charging_Adjusted_Penalty>  (318) 
0

>  <i_epik_Tot_Q>  (318) 
0

>  <i_epik_Tot_abs_Q>  (318) 
0

>  <s_lp_Force_Field>  (318) 
OPLS3e

>  <r_lp_Energy>  (318) 
230.989

>  <b_lp_Chiralities_Consistent>  (318) 
1

>  <s_lp_Variant>  (318) 
91:0-1

>  <s_i_glide_gridfile>  (318) 
pfpi4k_grid

>  <i_i_glide_lignum>  (318) 
43

>  <i_i_glide_rotatable_bonds>  (318) 
5

>  <r_i_docking_score>  (318) 
-3.85494

>  <r_i_glide_ligand_efficiency>  (318) 
-0.137676

>  <r_i_glide_ligand_efficiency_sa>  (318) 
-0.418067

>  <r_i_glide_ligand_efficiency_ln>  (318) 
-0.889833

>  <r_i_glide_gscore>  (318) 
-3.85494

>  <r_i_glide_lipo>  (318) 
-0.637068

>  <r_i_glide_hbond>  (318) 
-0.456

>  <r_i_glide_metal>  (318) 
-0

>  <r_i_glide_rewards>  (318) 
-0.719306

>  <r_i_glide_evdw>  (318) 
-29.5468

>  <r_i_glide_ecoul>  (318) 
-5.44267

>  <r_i_glide_erotb>  (318) 
0.251177

>  <r_i_glide_esite>  (318) 
0

>  <r_i_glide_emodel>  (318) 
-41.4267

>  <r_i_glide_energy>  (318) 
-34.9895

>  <r_i_glide_einternal>  (318) 
4.00897

>  <r_i_glide_intrahb_reward>  (318) 
-0

>  <i_i_glide_confnum>  (318) 
6

>  <i_i_glide_posenum>  (318) 
37

>  <r_i_glide_eff_state_penalty>  (318) 
0

>  <ligand_id>  (318) 
91

>  <original_smiles>  (318) 
CC1(C)OC=C2C3(C)C(O)CCC3(O)C3C1C(O)C2(OC1CCOC1)C3(C)C

>  <smiles>  (318) 
[H]OC1([H])C2(OC3([H])C([H])([H])OC([H])([H])C3([H])[H])C3=C([H])OC(C([H])([H])[H])(C([H])([H])[H])C1([H])C([H])(C1(O[H])C([H])([H])C([H])([H])C([H])(O[H])C31C([H])([H])[H])C2(C([H])([H])[H])C([H])([H])[H]

$$$$
92:0:0
     RDKit          3D

 68 75  0  0  1  0  0  0  0  0999 V2000
    3.4767   -0.2402   -3.2047 C   0  0  0  0  0  0  0  0  0  0  0  0
    4.2160   -1.3387   -2.4523 C   0  0  0  0  0  0  0  0  0  0  0  0
    5.0067   -2.0487   -3.0430 O   0  0  0  0  0  0  0  0  0  0  0  0
    3.8906   -1.3901   -1.1399 O   0  0  0  0  0  0  0  0  0  0  0  0
    4.5810   -2.2626   -0.2369 C   0  0  2  0  0  0  0  0  0  0  0  0
    4.0975   -3.7098   -0.3666 C   0  0  1  0  0  0  0  0  0  0  0  0
    4.7031   -4.3072   -1.4913 O   0  0  0  0  0  0  0  0  0  0  0  0
    4.4318   -4.5930    0.8665 C   0  0  1  0  0  0  0  0  0  0  0  0
    5.3899   -4.0044    1.7403 O   0  0  0  0  0  0  0  0  0  0  0  0
    5.2362   -2.6504    2.1552 C   0  0  2  0  0  0  0  0  0  0  0  0
    4.7852   -2.6151    3.6286 C   0  0  0  0  0  0  0  0  0  0  0  0
    3.3508   -3.1242    3.8458 C   0  0  2  0  0  0  0  0  0  0  0  0
    3.2360   -4.3714    4.5062 O   0  0  0  0  0  0  0  0  0  0  0  0
    4.1025   -5.4494    4.1678 C   0  0  1  0  0  0  0  0  0  0  0  0
    3.7522   -6.3738    5.3388 C   0  0  2  0  0  0  0  0  0  0  0  0
    4.1046   -7.7088    5.1490 O   0  0  0  0  0  0  0  0  0  0  0  0
    2.7339   -7.3176    4.7849 C   0  0  1  0  0  0  0  0  0  0  0  0
    2.0117   -8.6597    4.8250 C   0  0  1  0  0  0  0  0  0  0  0  0
    1.9923   -8.5072    3.2678 C   0  0  2  0  0  0  0  0  0  0  0  0
    2.9350   -9.6194    3.1345 O   0  0  0  0  0  0  0  0  0  0  0  0
    2.5444  -10.0699    4.4651 C   0  0  0  0  0  0  0  0  0  0  0  0
    3.7714  -10.6260    5.1926 C   0  0  0  0  0  0  0  0  0  0  0  0
    1.4707  -11.1628    4.3916 C   0  0  0  0  0  0  0  0  0  0  0  0
    2.4282   -7.0292    3.3656 C   0  0  2  0  0  0  0  0  0  0  0  0
    3.6512   -6.1969    2.8387 C   0  0  2  0  0  0  0  0  0  0  0  0
    4.8185   -7.1362    2.3778 C   0  0  0  0  0  0  0  0  0  0  0  0
    3.2262   -5.2706    1.5949 C   0  0  2  0  0  0  0  0  0  0  0  0
    2.4698   -6.1611    0.5264 C   0  0  0  0  0  0  0  0  0  0  0  0
    1.5163   -5.5130   -0.3300 O   0  0  0  0  0  0  0  0  0  0  0  0
    2.2171   -4.3390    1.9683 O   0  0  0  0  0  0  0  0  0  0  0  0
    2.4763   -3.0775    2.5897 C   0  0  2  0  0  0  0  0  0  0  0  0
    2.8613   -1.8733    1.6839 C   0  0  0  0  0  0  0  0  0  0  0  0
    4.3519   -1.7817    1.2204 C   0  0  2  0  0  0  0  0  0  0  0  0
    4.8054   -0.3007    1.3281 C   0  0  0  0  0  0  0  0  0  0  0  0
    2.3999   -0.3260   -3.0619 H   0  0  0  0  0  0  0  0  0  0  0  0
    3.6974   -0.3062   -4.2731 H   0  0  0  0  0  0  0  0  0  0  0  0
    3.8119    0.7329   -2.8573 H   0  0  0  0  0  0  0  0  0  0  0  0
    5.6504   -2.2222   -0.4396 H   0  0  0  0  0  0  0  0  0  0  0  0
    3.0323   -3.6451   -0.5375 H   0  0  0  0  0  0  0  0  0  0  0  0
    4.1078   -4.9431   -1.8773 H   0  0  0  0  0  0  0  0  0  0  0  0
    5.0337   -5.4135    0.4757 H   0  0  0  0  0  0  0  0  0  0  0  0
    6.2500   -2.2428    2.1138 H   0  0  0  0  0  0  0  0  0  0  0  0
    5.4983   -3.1170    4.2774 H   0  0  0  0  0  0  0  0  0  0  0  0
    4.8250   -1.5786    3.9507 H   0  0  0  0  0  0  0  0  0  0  0  0
    2.8871   -2.4032    4.5209 H   0  0  0  0  0  0  0  0  0  0  0  0
    5.1592   -5.1572    4.1812 H   0  0  0  0  0  0  0  0  0  0  0  0
    3.5889   -5.9749    6.3292 H   0  0  0  0  0  0  0  0  0  0  0  0
    1.0041   -8.6461    5.2561 H   0  0  0  0  0  0  0  0  0  0  0  0
    0.9878   -8.6753    2.8750 H   0  0  0  0  0  0  0  0  0  0  0  0
    3.5695  -10.6677    6.2645 H   0  0  0  0  0  0  0  0  0  0  0  0
    4.6661  -10.0170    5.0375 H   0  0  0  0  0  0  0  0  0  0  0  0
    4.0209  -11.6395    4.8590 H   0  0  0  0  0  0  0  0  0  0  0  0
    1.1449  -11.4498    5.3872 H   0  0  0  0  0  0  0  0  0  0  0  0
    1.8349  -12.0563    3.8985 H   0  0  0  0  0  0  0  0  0  0  0  0
    0.5905  -10.8338    3.8559 H   0  0  0  0  0  0  0  0  0  0  0  0
    1.4877   -6.4479    3.2886 H   0  0  0  0  0  0  0  0  0  0  0  0
    4.6250   -7.5929    1.4100 H   0  0  0  0  0  0  0  0  0  0  0  0
    5.0139   -7.9777    3.0380 H   0  0  0  0  0  0  0  0  0  0  0  0
    5.7672   -6.6004    2.3023 H   0  0  0  0  0  0  0  0  0  0  0  0
    3.2290   -6.6326   -0.0974 H   0  0  0  0  0  0  0  0  0  0  0  0
    1.9094   -6.9819    0.9684 H   0  0  0  0  0  0  0  0  0  0  0  0
    1.9350   -5.2580   -1.1542 H   0  0  0  0  0  0  0  0  0  0  0  0
    1.4672   -2.8420    2.9278 H   0  0  0  0  0  0  0  0  0  0  0  0
    2.1809   -1.7787    0.8435 H   0  0  0  0  0  0  0  0  0  0  0  0
    2.6514   -0.9925    2.3008 H   0  0  0  0  0  0  0  0  0  0  0  0
    4.7635    0.0616    2.3592 H   0  0  0  0  0  0  0  0  0  0  0  0
    4.1605    0.3551    0.7370 H   0  0  0  0  0  0  0  0  0  0  0  0
    5.8289   -0.1691    0.9684 H   0  0  0  0  0  0  0  0  0  0  0  0
  1  2  1  0
  1 35  1  0
  1 36  1  0
  1 37  1  0
  2  3  2  0
  2  4  1  0
  4  5  1  0
  5 33  1  0
  5  6  1  0
  5 38  1  6
  6  7  1  0
  6  8  1  0
  6 39  1  6
  7 40  1  0
  8 27  1  0
  8  9  1  0
  8 41  1  6
  9 10  1  0
 10 33  1  0
 10 11  1  0
 10 42  1  1
 11 12  1  0
 11 43  1  0
 11 44  1  0
 12 31  1  0
 12 13  1  0
 12 45  1  1
 13 14  1  0
 14 25  1  0
 14 15  1  0
 14 46  1  6
 15 17  1  0
 15 16  1  0
 15 47  1  1
 17 16  1  6
 17 24  1  0
 17 18  1  0
 18 21  1  0
 18 19  1  0
 18 48  1  1
 19 20  1  0
 19 24  1  0
 19 49  1  6
 20 21  1  0
 21 22  1  0
 21 23  1  0
 22 50  1  0
 22 51  1  0
 22 52  1  0
 23 53  1  0
 23 54  1  0
 23 55  1  0
 24 25  1  0
 24 56  1  1
 25 26  1  6
 25 27  1  0
 26 57  1  0
 26 58  1  0
 26 59  1  0
 27 28  1  6
 27 30  1  0
 28 29  1  0
 28 60  1  0
 28 61  1  0
 29 62  1  0
 30 31  1  0
 31 32  1  0
 31 63  1  1
 32 33  1  0
 32 64  1  0
 32 65  1  0
 33 34  1  6
 34 66  1  0
 34 67  1  0
 34 68  1  0
M  END
>  <i_m_ct_stereo_status>  (319) 
1

>  <s_m_source_file>  (319) 
/var/tmp/pbs.5076255.sched01/tmpt7uccrld/92zpefy4ut.sdf

>  <i_m_source_file_index>  (319) 
44

>  <i_lp_mmshare_version>  (319) 
48012

>  <i_f3d_flags>  (319) 
0

>  <s_epik_input>  (319) 
TzFbQ0BIXShbQ0gyXTIpW0NAQEhdKE8zKVtDSDJdW0NAQEhdKE80KVtDQEBdMihbQ0gzXSlbQ0BIXShPQyg9TylbQ0gzXSlbQ0BASF0oW09IXSlbQ0BASF00W0NAQF0xKFtDSDJdW09IXSlbQ0BAXShbQ0gzXSkoW0NAQEhdM1tDQEhdKE81KVtDQEBdNTY3KVtDQEhdN1tDQEBIXThbQ0BIXTZDKE84KShbQ0gzXSlbQ0gzXQ==

>  <s_epik_cmdline>  (319) 
J2VwaWtfcHl0aG9uJywgJy1waHQnLCAnMi4wJywgJy1waCcsICc3LjAnLCAnLXRuJywgJzgnLCAnLW1hJywgJzIwMCcsICctaW1hZScsICc8aW5maWxlLm1hZT4nLCAnLW9tYWUnLCAnPG91dGZpbGUubWFlPic=

>  <r_lp_tautomer_probability>  (319) 
1

>  <r_epik_Ionization_Penalty>  (319) 
4.70447e-06

>  <r_epik_Ionization_Penalty_Charging>  (319) 
0

>  <r_epik_Ionization_Penalty_Neutral>  (319) 
4.70447e-06

>  <r_epik_State_Penalty>  (319) 
-0

>  <r_epik_Charging_Adjusted_Penalty>  (319) 
0

>  <i_epik_Tot_Q>  (319) 
0

>  <i_epik_Tot_abs_Q>  (319) 
0

>  <s_epik_Chemistry_Notes>  (319) 
This compound has an ester and may undergo hydrolysis at high or low pH.

>  <s_lp_Force_Field>  (319) 
OPLS3e

>  <r_lp_Energy>  (319) 
107.048

>  <b_lp_Chiralities_Consistent>  (319) 
1

>  <s_lp_Variant>  (319) 
92:0-1

>  <s_i_glide_gridfile>  (319) 
pfpi4k_grid

>  <i_i_glide_lignum>  (319) 
44

>  <i_i_glide_rotatable_bonds>  (319) 
5

>  <r_i_docking_score>  (319) 
-3.21873

>  <r_i_glide_ligand_efficiency>  (319) 
-0.0946684

>  <r_i_glide_ligand_efficiency_sa>  (319) 
-0.306689

>  <r_i_glide_ligand_efficiency_ln>  (319) 
-0.711107

>  <r_i_glide_gscore>  (319) 
-3.21873

>  <r_i_glide_lipo>  (319) 
-0.415213

>  <r_i_glide_hbond>  (319) 
0

>  <r_i_glide_metal>  (319) 
-0

>  <r_i_glide_rewards>  (319) 
-0.146372

>  <r_i_glide_evdw>  (319) 
-22.4423

>  <r_i_glide_ecoul>  (319) 
-11.1358

>  <r_i_glide_erotb>  (319) 
0.176994

>  <r_i_glide_esite>  (319) 
-0.0416461

>  <r_i_glide_emodel>  (319) 
-34.1863

>  <r_i_glide_energy>  (319) 
-33.5781

>  <r_i_glide_einternal>  (319) 
10.1377

>  <r_i_glide_intrahb_reward>  (319) 
-0

>  <i_i_glide_confnum>  (319) 
2

>  <i_i_glide_posenum>  (319) 
14

>  <r_i_glide_eff_state_penalty>  (319) 
0

>  <ligand_id>  (319) 
92

>  <original_smiles>  (319) 
CC(=O)OC1C(O)C2OC3CC4OC5C6OC67C6C(OC6(C)C)C7C5(C)C2(CO)OC4CC31C

>  <smiles>  (319) 
[H]OC([H])([H])C12OC3([H])C([H])([H])C4(C([H])([H])[H])C([H])(OC1([H])C([H])(O[H])C4([H])OC(=O)C([H])([H])[H])C([H])([H])C3([H])OC1([H])C3([H])OC34C3([H])C([H])(OC3(C([H])([H])[H])C([H])([H])[H])C4([H])C12C([H])([H])[H]

$$$$
92:0:1
     RDKit          3D

 68 75  0  0  1  0  0  0  0  0999 V2000
    3.7286   -0.1265   -3.2648 C   0  0  0  0  0  0  0  0  0  0  0  0
    4.3490   -1.3066   -2.5219 C   0  0  0  0  0  0  0  0  0  0  0  0
    5.0177   -2.1246   -3.1309 O   0  0  0  0  0  0  0  0  0  0  0  0
    4.1017   -1.2624   -1.1876 O   0  0  0  0  0  0  0  0  0  0  0  0
    4.7119   -2.1987   -0.2883 C   0  0  2  0  0  0  0  0  0  0  0  0
    4.0653   -3.5863   -0.3773 C   0  0  1  0  0  0  0  0  0  0  0  0
    4.6161   -4.2674   -1.4941 O   0  0  0  0  0  0  0  0  0  0  0  0
    4.3267   -4.5076    0.8587 C   0  0  1  0  0  0  0  0  0  0  0  0
    5.3759   -4.0227    1.6917 O   0  0  0  0  0  0  0  0  0  0  0  0
    5.4120   -2.6482    2.0759 C   0  0  2  0  0  0  0  0  0  0  0  0
    5.0194   -2.5363    3.5598 C   0  0  0  0  0  0  0  0  0  0  0  0
    3.5417   -2.8682    3.8197 C   0  0  2  0  0  0  0  0  0  0  0  0
    3.2995   -4.0798    4.5132 O   0  0  0  0  0  0  0  0  0  0  0  0
    4.0150   -5.2618    4.1751 C   0  0  1  0  0  0  0  0  0  0  0  0
    3.5901   -6.1096    5.3767 C   0  0  2  0  0  0  0  0  0  0  0  0
    3.7852   -7.4797    5.2183 O   0  0  0  0  0  0  0  0  0  0  0  0
    2.4624   -6.9517    4.8767 C   0  0  1  0  0  0  0  0  0  0  0  0
    1.5827   -8.1846    4.9770 C   0  0  1  0  0  0  0  0  0  0  0  0
    1.5069   -8.0462    3.4314 C   0  0  2  0  0  0  0  0  0  0  0  0
    2.3144   -9.2579    3.2655 O   0  0  0  0  0  0  0  0  0  0  0  0
    1.9162   -9.6532    4.6140 C   0  0  0  0  0  0  0  0  0  0  0  0
    3.0956  -10.3502    5.2947 C   0  0  0  0  0  0  0  0  0  0  0  0
    0.7154  -10.6079    4.5846 C   0  0  0  0  0  0  0  0  0  0  0  0
    2.1357   -6.6315    3.4764 C   0  0  2  0  0  0  0  0  0  0  0  0
    3.4208   -5.9687    2.8801 C   0  0  2  0  0  0  0  0  0  0  0  0
    4.4572   -7.0475    2.4032 C   0  0  0  0  0  0  0  0  0  0  0  0
    3.0734   -5.0221    1.6314 C   0  0  2  0  0  0  0  0  0  0  0  0
    2.1882   -5.7830    0.5588 C   0  0  0  0  0  0  0  0  0  0  0  0
    0.9138   -6.2789    0.9539 O   0  0  0  0  0  0  0  0  0  0  0  0
    2.2175   -3.9192    1.9388 O   0  0  0  0  0  0  0  0  0  0  0  0
    2.6405   -2.7183    2.5915 C   0  0  2  0  0  0  0  0  0  0  0  0
    3.1325   -1.5744    1.6706 C   0  0  0  0  0  0  0  0  0  0  0  0
    4.6046   -1.6824    1.1641 C   0  0  2  0  0  0  0  0  0  0  0  0
    5.2430   -0.2713    1.2232 C   0  0  0  0  0  0  0  0  0  0  0  0
    2.6545   -0.0645   -3.0902 H   0  0  0  0  0  0  0  0  0  0  0  0
    3.8857   -0.2435   -4.3395 H   0  0  0  0  0  0  0  0  0  0  0  0
    4.1917    0.8177   -2.9691 H   0  0  0  0  0  0  0  0  0  0  0  0
    5.7639   -2.3119   -0.5372 H   0  0  0  0  0  0  0  0  0  0  0  0
    3.0017   -3.4156   -0.5371 H   0  0  0  0  0  0  0  0  0  0  0  0
    3.9707   -4.8664   -1.8351 H   0  0  0  0  0  0  0  0  0  0  0  0
    4.7935   -5.4114    0.4633 H   0  0  0  0  0  0  0  0  0  0  0  0
    6.4666   -2.3699    1.9908 H   0  0  0  0  0  0  0  0  0  0  0  0
    5.6898   -3.1123    4.1937 H   0  0  0  0  0  0  0  0  0  0  0  0
    5.1987   -1.5081    3.8623 H   0  0  0  0  0  0  0  0  0  0  0  0
    3.1991   -2.0895    4.5013 H   0  0  0  0  0  0  0  0  0  0  0  0
    5.0988   -5.1014    4.1401 H   0  0  0  0  0  0  0  0  0  0  0  0
    3.5428   -5.6892    6.3657 H   0  0  0  0  0  0  0  0  0  0  0  0
    0.5866   -8.0455    5.4169 H   0  0  0  0  0  0  0  0  0  0  0  0
    0.4738   -8.1093    3.0854 H   0  0  0  0  0  0  0  0  0  0  0  0
    2.9320  -10.3572    6.3715 H   0  0  0  0  0  0  0  0  0  0  0  0
    4.0481   -9.8597    5.0937 H   0  0  0  0  0  0  0  0  0  0  0  0
    3.2027  -11.3877    4.9644 H   0  0  0  0  0  0  0  0  0  0  0  0
    0.3931  -10.8407    5.5965 H   0  0  0  0  0  0  0  0  0  0  0  0
    0.9488  -11.5422    4.0862 H   0  0  0  0  0  0  0  0  0  0  0  0
   -0.1330  -10.1718    4.0742 H   0  0  0  0  0  0  0  0  0  0  0  0
    1.2686   -5.9419    3.4281 H   0  0  0  0  0  0  0  0  0  0  0  0
    4.1929   -7.4976    1.4539 H   0  0  0  0  0  0  0  0  0  0  0  0
    4.5842   -7.8991    3.0682 H   0  0  0  0  0  0  0  0  0  0  0  0
    5.4551   -6.6277    2.2831 H   0  0  0  0  0  0  0  0  0  0  0  0
    1.9546   -5.1542   -0.2991 H   0  0  0  0  0  0  0  0  0  0  0  0
    2.7396   -6.6273    0.1453 H   0  0  0  0  0  0  0  0  0  0  0  0
    1.0562   -6.9883    1.5644 H   0  0  0  0  0  0  0  0  0  0  0  0
    1.6751   -2.3708    2.9625 H   0  0  0  0  0  0  0  0  0  0  0  0
    2.4361   -1.4101    0.8490 H   0  0  0  0  0  0  0  0  0  0  0  0
    3.0544   -0.6646    2.2791 H   0  0  0  0  0  0  0  0  0  0  0  0
    5.2864    0.1005    2.2495 H   0  0  0  0  0  0  0  0  0  0  0  0
    4.6595    0.4502    0.6447 H   0  0  0  0  0  0  0  0  0  0  0  0
    6.2612   -0.2752    0.8244 H   0  0  0  0  0  0  0  0  0  0  0  0
  1  2  1  0
  1 35  1  0
  1 36  1  0
  1 37  1  0
  2  3  2  0
  2  4  1  0
  4  5  1  0
  5 33  1  0
  5  6  1  0
  5 38  1  6
  6  7  1  0
  6  8  1  0
  6 39  1  6
  7 40  1  0
  8 27  1  0
  8  9  1  0
  8 41  1  6
  9 10  1  0
 10 33  1  0
 10 11  1  0
 10 42  1  1
 11 12  1  0
 11 43  1  0
 11 44  1  0
 12 31  1  0
 12 13  1  0
 12 45  1  1
 13 14  1  0
 14 25  1  0
 14 15  1  0
 14 46  1  6
 15 17  1  0
 15 16  1  0
 15 47  1  1
 17 16  1  6
 17 24  1  0
 17 18  1  0
 18 21  1  0
 18 19  1  0
 18 48  1  1
 19 20  1  0
 19 24  1  0
 19 49  1  6
 20 21  1  0
 21 22  1  0
 21 23  1  0
 22 50  1  0
 22 51  1  0
 22 52  1  0
 23 53  1  0
 23 54  1  0
 23 55  1  0
 24 25  1  0
 24 56  1  1
 25 26  1  6
 25 27  1  0
 26 57  1  0
 26 58  1  0
 26 59  1  0
 27 28  1  6
 27 30  1  0
 28 29  1  0
 28 60  1  0
 28 61  1  0
 29 62  1  0
 30 31  1  0
 31 32  1  0
 31 63  1  1
 32 33  1  0
 32 64  1  0
 32 65  1  0
 33 34  1  6
 34 66  1  0
 34 67  1  0
 34 68  1  0
M  END
>  <i_m_ct_stereo_status>  (320) 
1

>  <s_m_source_file>  (320) 
/var/tmp/pbs.5076255.sched01/tmpt7uccrld/92zpefy4ut.sdf

>  <i_m_source_file_index>  (320) 
44

>  <i_lp_mmshare_version>  (320) 
48012

>  <i_f3d_flags>  (320) 
0

>  <s_epik_input>  (320) 
TzFbQ0BIXShbQ0gyXTIpW0NAQEhdKE8zKVtDSDJdW0NAQEhdKE80KVtDQEBdMihbQ0gzXSlbQ0BIXShPQyg9TylbQ0gzXSlbQ0BASF0oW09IXSlbQ0BASF00W0NAQF0xKFtDSDJdW09IXSlbQ0BAXShbQ0gzXSkoW0NAQEhdM1tDQEhdKE81KVtDQEBdNTY3KVtDQEhdN1tDQEBIXThbQ0BIXTZDKE84KShbQ0gzXSlbQ0gzXQ==

>  <s_epik_cmdline>  (320) 
J2VwaWtfcHl0aG9uJywgJy1waHQnLCAnMi4wJywgJy1waCcsICc3LjAnLCAnLXRuJywgJzgnLCAnLW1hJywgJzIwMCcsICctaW1hZScsICc8aW5maWxlLm1hZT4nLCAnLW9tYWUnLCAnPG91dGZpbGUubWFlPic=

>  <r_lp_tautomer_probability>  (320) 
1

>  <r_epik_Ionization_Penalty>  (320) 
4.70447e-06

>  <r_epik_Ionization_Penalty_Charging>  (320) 
0

>  <r_epik_Ionization_Penalty_Neutral>  (320) 
4.70447e-06

>  <r_epik_State_Penalty>  (320) 
-0

>  <r_epik_Charging_Adjusted_Penalty>  (320) 
0

>  <i_epik_Tot_Q>  (320) 
0

>  <i_epik_Tot_abs_Q>  (320) 
0

>  <s_epik_Chemistry_Notes>  (320) 
This compound has an ester and may undergo hydrolysis at high or low pH.

>  <s_lp_Force_Field>  (320) 
OPLS3e

>  <r_lp_Energy>  (320) 
107.048

>  <b_lp_Chiralities_Consistent>  (320) 
1

>  <s_lp_Variant>  (320) 
92:0-1

>  <s_i_glide_gridfile>  (320) 
pfpi4k_grid

>  <i_i_glide_lignum>  (320) 
44

>  <i_i_glide_rotatable_bonds>  (320) 
5

>  <r_i_docking_score>  (320) 
-3.05173

>  <r_i_glide_ligand_efficiency>  (320) 
-0.0897569

>  <r_i_glide_ligand_efficiency_sa>  (320) 
-0.290777

>  <r_i_glide_ligand_efficiency_ln>  (320) 
-0.674214

>  <r_i_glide_gscore>  (320) 
-3.05173

>  <r_i_glide_lipo>  (320) 
-0.423119

>  <r_i_glide_hbond>  (320) 
0

>  <r_i_glide_metal>  (320) 
-0

>  <r_i_glide_rewards>  (320) 
-0.146372

>  <r_i_glide_evdw>  (320) 
-25.5414

>  <r_i_glide_ecoul>  (320) 
-8.95547

>  <r_i_glide_erotb>  (320) 
0.176994

>  <r_i_glide_esite>  (320) 
-0.0388456

>  <r_i_glide_emodel>  (320) 
-37.584

>  <r_i_glide_energy>  (320) 
-34.4969

>  <r_i_glide_einternal>  (320) 
5.50837

>  <r_i_glide_intrahb_reward>  (320) 
-0

>  <i_i_glide_confnum>  (320) 
3

>  <i_i_glide_posenum>  (320) 
3

>  <r_i_glide_eff_state_penalty>  (320) 
0

>  <ligand_id>  (320) 
92

>  <original_smiles>  (320) 
CC(=O)OC1C(O)C2OC3CC4OC5C6OC67C6C(OC6(C)C)C7C5(C)C2(CO)OC4CC31C

>  <smiles>  (320) 
[H]OC([H])([H])C12OC3([H])C([H])([H])C4(C([H])([H])[H])C([H])(OC1([H])C([H])(O[H])C4([H])OC(=O)C([H])([H])[H])C([H])([H])C3([H])OC1([H])C3([H])OC34C3([H])C([H])(OC3(C([H])([H])[H])C([H])([H])[H])C4([H])C12C([H])([H])[H]

$$$$
92:0:2
     RDKit          3D

 68 75  0  0  1  0  0  0  0  0999 V2000
    3.7046   -0.8283   -2.8948 C   0  0  0  0  0  0  0  0  0  0  0  0
    4.5762   -1.3637   -1.7426 C   0  0  0  0  0  0  0  0  0  0  0  0
    5.7802   -1.4726   -1.8593 O   0  0  0  0  0  0  0  0  0  0  0  0
    3.8439   -1.6894   -0.6523 O   0  0  0  0  0  0  0  0  0  0  0  0
    4.4459   -2.4342    0.4128 C   0  0  2  0  0  0  0  0  0  0  0  0
    4.0408   -3.9002    0.2267 C   0  0  1  0  0  0  0  0  0  0  0  0
    4.8284   -4.4699   -0.8106 O   0  0  0  0  0  0  0  0  0  0  0  0
    4.1977   -4.7550    1.5171 C   0  0  1  0  0  0  0  0  0  0  0  0
    4.9762   -4.1088    2.5243 O   0  0  0  0  0  0  0  0  0  0  0  0
    4.7127   -2.7493    2.8716 C   0  0  2  0  0  0  0  0  0  0  0  0
    4.0318   -2.6917    4.2485 C   0  0  0  0  0  0  0  0  0  0  0  0
    2.5928   -3.2447    4.2425 C   0  0  2  0  0  0  0  0  0  0  0  0
    2.4050   -4.4801    4.9189 O   0  0  0  0  0  0  0  0  0  0  0  0
    3.3449   -5.5314    4.7576 C   0  0  1  0  0  0  0  0  0  0  0  0
    2.8378   -6.4345    5.8779 C   0  0  2  0  0  0  0  0  0  0  0  0
    3.2490   -7.7615    5.7938 O   0  0  0  0  0  0  0  0  0  0  0  0
    1.9639   -7.4305    5.1962 C   0  0  1  0  0  0  0  0  0  0  0  0
    1.2715   -8.7936    5.1536 C   0  0  1  0  0  0  0  0  0  0  0  0
    1.4958   -8.6839    3.6213 C   0  0  2  0  0  0  0  0  0  0  0  0
    2.4789   -9.7594    3.6708 O   0  0  0  0  0  0  0  0  0  0  0  0
    1.9010  -10.1874    4.9380 C   0  0  0  0  0  0  0  0  0  0  0  0
    3.0108  -10.6742    5.8711 C   0  0  0  0  0  0  0  0  0  0  0  0
    0.8864  -11.3165    4.7250 C   0  0  0  0  0  0  0  0  0  0  0  0
    1.8767   -7.1893    3.7488 C   0  0  2  0  0  0  0  0  0  0  0  0
    3.1380   -6.3367    3.3947 C   0  0  2  0  0  0  0  0  0  0  0  0
    4.3937   -7.2407    3.1585 C   0  0  0  0  0  0  0  0  0  0  0  0
    2.9087   -5.4502    2.0687 C   0  0  2  0  0  0  0  0  0  0  0  0
    2.3556   -6.4046    0.9444 C   0  0  0  0  0  0  0  0  0  0  0  0
    1.5808   -5.7748   -0.0731 O   0  0  0  0  0  0  0  0  0  0  0  0
    1.8164   -4.5438    2.2440 O   0  0  0  0  0  0  0  0  0  0  0  0
    1.9372   -3.2620    2.8613 C   0  0  2  0  0  0  0  0  0  0  0  0
    2.4159   -2.0661    1.9958 C   0  0  0  0  0  0  0  0  0  0  0  0
    3.9605   -1.9275    1.7899 C   0  0  2  0  0  0  0  0  0  0  0  0
    4.3513   -0.4330    1.9173 C   0  0  0  0  0  0  0  0  0  0  0  0
    2.8988   -1.5298   -3.1013 H   0  0  0  0  0  0  0  0  0  0  0  0
    4.3099   -0.7195   -3.7957 H   0  0  0  0  0  0  0  0  0  0  0  0
    3.2716    0.1375   -2.6883 H   0  0  0  0  0  0  0  0  0  0  0  0
    5.5318   -2.3486    0.3928 H   0  0  0  0  0  0  0  0  0  0  0  0
    3.0096   -3.8635   -0.1043 H   0  0  0  0  0  0  0  0  0  0  0  0
    4.3009   -5.0708   -1.3188 H   0  0  0  0  0  0  0  0  0  0  0  0
    4.8789   -5.5590    1.2274 H   0  0  0  0  0  0  0  0  0  0  0  0
    5.7088   -2.3131    2.9856 H   0  0  0  0  0  0  0  0  0  0  0  0
    4.6432   -3.1538    5.0213 H   0  0  0  0  0  0  0  0  0  0  0  0
    3.9826   -1.6480    4.5448 H   0  0  0  0  0  0  0  0  0  0  0  0
    2.0030   -2.5218    4.8178 H   0  0  0  0  0  0  0  0  0  0  0  0
    4.3749   -5.2082    4.9319 H   0  0  0  0  0  0  0  0  0  0  0  0
    2.5041   -6.0245    6.8260 H   0  0  0  0  0  0  0  0  0  0  0  0
    0.2079   -8.8032    5.4295 H   0  0  0  0  0  0  0  0  0  0  0  0
    0.5791   -8.8946    3.0732 H   0  0  0  0  0  0  0  0  0  0  0  0
    2.6409  -10.6663    6.8959 H   0  0  0  0  0  0  0  0  0  0  0  0
    3.9032  -10.0521    5.8262 H   0  0  0  0  0  0  0  0  0  0  0  0
    3.3234  -11.6960    5.6357 H   0  0  0  0  0  0  0  0  0  0  0  0
    0.3916  -11.5783    5.6674 H   0  0  0  0  0  0  0  0  0  0  0  0
    1.3434  -12.2220    4.3345 H   0  0  0  0  0  0  0  0  0  0  0  0
    0.0950  -11.0343    4.0382 H   0  0  0  0  0  0  0  0  0  0  0  0
    0.9419   -6.6360    3.5027 H   0  0  0  0  0  0  0  0  0  0  0  0
    4.3766   -7.7310    2.1891 H   0  0  0  0  0  0  0  0  0  0  0  0
    4.5014   -8.0572    3.8698 H   0  0  0  0  0  0  0  0  0  0  0  0
    5.3275   -6.6733    3.2210 H   0  0  0  0  0  0  0  0  0  0  0  0
    3.1883   -6.9435    0.4878 H   0  0  0  0  0  0  0  0  0  0  0  0
    1.6842   -7.1801    1.3097 H   0  0  0  0  0  0  0  0  0  0  0  0
    2.1368   -5.5367   -0.8075 H   0  0  0  0  0  0  0  0  0  0  0  0
    0.8791   -3.0535    3.0309 H   0  0  0  0  0  0  0  0  0  0  0  0
    1.8718   -2.0066    1.0506 H   0  0  0  0  0  0  0  0  0  0  0  0
    2.0865   -1.1812    2.5443 H   0  0  0  0  0  0  0  0  0  0  0  0
    4.1356   -0.0421    2.9134 H   0  0  0  0  0  0  0  0  0  0  0  0
    3.7942    0.1810    1.2060 H   0  0  0  0  0  0  0  0  0  0  0  0
    5.4142   -0.2763    1.7238 H   0  0  0  0  0  0  0  0  0  0  0  0
  1  2  1  0
  1 35  1  0
  1 36  1  0
  1 37  1  0
  2  3  2  0
  2  4  1  0
  4  5  1  0
  5 33  1  0
  5  6  1  0
  5 38  1  1
  6  7  1  0
  6  8  1  0
  6 39  1  6
  7 40  1  0
  8 27  1  0
  8  9  1  0
  8 41  1  6
  9 10  1  0
 10 33  1  0
 10 11  1  0
 10 42  1  1
 11 12  1  0
 11 43  1  0
 11 44  1  0
 12 31  1  0
 12 13  1  0
 12 45  1  1
 13 14  1  0
 14 25  1  0
 14 15  1  0
 14 46  1  1
 15 17  1  0
 15 16  1  0
 15 47  1  1
 17 16  1  6
 17 24  1  0
 17 18  1  0
 18 21  1  0
 18 19  1  0
 18 48  1  6
 19 20  1  0
 19 24  1  0
 19 49  1  6
 20 21  1  0
 21 22  1  0
 21 23  1  0
 22 50  1  0
 22 51  1  0
 22 52  1  0
 23 53  1  0
 23 54  1  0
 23 55  1  0
 24 25  1  0
 24 56  1  1
 25 26  1  6
 25 27  1  0
 26 57  1  0
 26 58  1  0
 26 59  1  0
 27 28  1  6
 27 30  1  0
 28 29  1  0
 28 60  1  0
 28 61  1  0
 29 62  1  0
 30 31  1  0
 31 32  1  0
 31 63  1  1
 32 33  1  0
 32 64  1  0
 32 65  1  0
 33 34  1  1
 34 66  1  0
 34 67  1  0
 34 68  1  0
M  END
>  <i_m_ct_stereo_status>  (321) 
1

>  <s_m_source_file>  (321) 
/var/tmp/pbs.5076255.sched01/tmpt7uccrld/92zpefy4ut.sdf

>  <i_m_source_file_index>  (321) 
44

>  <i_lp_mmshare_version>  (321) 
48012

>  <i_f3d_flags>  (321) 
0

>  <s_epik_input>  (321) 
TzFbQ0BIXShbQ0gyXTIpW0NAQEhdKE8zKVtDSDJdW0NAQEhdKE80KVtDQEBdMihbQ0gzXSlbQ0BIXShPQyg9TylbQ0gzXSlbQ0BASF0oW09IXSlbQ0BASF00W0NAQF0xKFtDSDJdW09IXSlbQ0BAXShbQ0gzXSkoW0NAQEhdM1tDQEhdKE81KVtDQEBdNTY3KVtDQEhdN1tDQEBIXThbQ0BIXTZDKE84KShbQ0gzXSlbQ0gzXQ==

>  <s_epik_cmdline>  (321) 
J2VwaWtfcHl0aG9uJywgJy1waHQnLCAnMi4wJywgJy1waCcsICc3LjAnLCAnLXRuJywgJzgnLCAnLW1hJywgJzIwMCcsICctaW1hZScsICc8aW5maWxlLm1hZT4nLCAnLW9tYWUnLCAnPG91dGZpbGUubWFlPic=

>  <r_lp_tautomer_probability>  (321) 
1

>  <r_epik_Ionization_Penalty>  (321) 
4.70447e-06

>  <r_epik_Ionization_Penalty_Charging>  (321) 
0

>  <r_epik_Ionization_Penalty_Neutral>  (321) 
4.70447e-06

>  <r_epik_State_Penalty>  (321) 
-0

>  <r_epik_Charging_Adjusted_Penalty>  (321) 
0

>  <i_epik_Tot_Q>  (321) 
0

>  <i_epik_Tot_abs_Q>  (321) 
0

>  <s_epik_Chemistry_Notes>  (321) 
This compound has an ester and may undergo hydrolysis at high or low pH.

>  <s_lp_Force_Field>  (321) 
OPLS3e

>  <r_lp_Energy>  (321) 
107.048

>  <b_lp_Chiralities_Consistent>  (321) 
1

>  <s_lp_Variant>  (321) 
92:0-1

>  <s_i_glide_gridfile>  (321) 
pfpi4k_grid

>  <i_i_glide_lignum>  (321) 
44

>  <i_i_glide_rotatable_bonds>  (321) 
5

>  <r_i_docking_score>  (321) 
-2.85575

>  <r_i_glide_ligand_efficiency>  (321) 
-0.0839928

>  <r_i_glide_ligand_efficiency_sa>  (321) 
-0.272104

>  <r_i_glide_ligand_efficiency_ln>  (321) 
-0.630916

>  <r_i_glide_gscore>  (321) 
-2.85575

>  <r_i_glide_lipo>  (321) 
-0.190489

>  <r_i_glide_hbond>  (321) 
-0.0607139

>  <r_i_glide_metal>  (321) 
-0

>  <r_i_glide_rewards>  (321) 
-0.146372

>  <r_i_glide_evdw>  (321) 
-22.3694

>  <r_i_glide_ecoul>  (321) 
-9.79678

>  <r_i_glide_erotb>  (321) 
0.176994

>  <r_i_glide_esite>  (321) 
-0.0471855

>  <r_i_glide_emodel>  (321) 
-32.974

>  <r_i_glide_energy>  (321) 
-32.1662

>  <r_i_glide_einternal>  (321) 
9.22318

>  <r_i_glide_intrahb_reward>  (321) 
-0

>  <i_i_glide_confnum>  (321) 
2

>  <i_i_glide_posenum>  (321) 
16

>  <r_i_glide_eff_state_penalty>  (321) 
0

>  <ligand_id>  (321) 
92

>  <original_smiles>  (321) 
CC(=O)OC1C(O)C2OC3CC4OC5C6OC67C6C(OC6(C)C)C7C5(C)C2(CO)OC4CC31C

>  <smiles>  (321) 
[H]OC([H])([H])C12OC3([H])C([H])([H])C4(C([H])([H])[H])C([H])(OC1([H])C([H])(O[H])C4([H])OC(=O)C([H])([H])[H])C([H])([H])C3([H])OC1([H])C3([H])OC34C3([H])C([H])(OC3(C([H])([H])[H])C([H])([H])[H])C4([H])C12C([H])([H])[H]

$$$$
94:0:0
     RDKit          3D

 48 53  0  0  1  0  0  0  0  0999 V2000
    0.2065   -0.7698    5.0668 O   0  0  0  0  0  0  0  0  0  0  0  0
    1.3222   -0.7775    4.5488 C   0  0  0  0  0  0  0  0  0  0  0  0
    2.2905    0.3902    4.6702 C   0  0  0  0  0  0  0  0  0  0  0  0
    3.1502    0.5129    3.3934 C   0  0  0  0  0  0  0  0  0  0  0  0
    3.4537   -0.7921    2.5630 C   0  0  1  0  0  0  0  0  0  0  0  0
    4.1921   -0.3131    1.2811 C   0  0  0  0  0  0  0  0  0  0  0  0
    4.2966   -1.3023    0.1265 C   0  0  0  0  0  0  0  0  0  0  0  0
    3.0590   -2.1115   -0.0129 N   0  0  1  0  0  0  0  0  0  0  0  0
    3.0492   -3.0306   -1.1761 C   0  0  0  0  0  0  0  0  0  0  0  0
    3.1227   -2.2928   -2.4955 C   0  0  0  0  0  0  0  0  0  0  0  0
    3.4617   -3.0557   -3.7546 C   0  0  0  0  0  0  0  0  0  0  0  0
    4.4393   -2.0602   -3.1951 C   0  0  0  0  0  0  0  0  0  0  0  0
    2.6656   -2.7235    1.2928 C   0  0  1  0  0  0  0  0  0  0  0  0
    3.9057   -3.5629    1.7994 C   0  0  0  0  0  0  0  0  0  0  0  0
    4.8631   -2.9262    2.8374 C   0  0  0  0  0  0  0  0  0  0  0  0
    5.3576   -3.8584    3.7948 C   0  0  0  0  0  0  0  0  0  0  0  0
    4.7562   -3.9753    5.0812 C   0  0  0  0  0  0  0  0  0  0  0  0
    3.5815   -3.2595    5.3400 C   0  0  0  0  0  0  0  0  0  0  0  0
    2.7761   -3.5906    6.4047 O   0  0  0  0  0  0  0  0  0  0  0  0
    3.2112   -2.2560    4.4327 C   0  0  0  0  0  0  0  0  0  0  0  0
    4.0986   -1.9001    3.4071 C   0  0  0  0  0  0  0  0  0  0  0  0
    1.8612   -1.9788    3.7772 C   0  0  2  0  0  0  0  0  0  0  0  0
    2.1915   -1.5801    2.2734 C   0  0  1  0  0  0  0  0  0  0  0  0
    1.1309   -0.8089    1.6853 O   0  0  0  0  0  0  0  0  0  0  0  0
    1.7508    1.3135    4.8787 H   0  0  0  0  0  0  0  0  0  0  0  0
    2.9192    0.2232    5.5448 H   0  0  0  0  0  0  0  0  0  0  0  0
    2.6331    1.2264    2.7592 H   0  0  0  0  0  0  0  0  0  0  0  0
    4.0804    1.0049    3.6698 H   0  0  0  0  0  0  0  0  0  0  0  0
    3.6401    0.5451    0.9004 H   0  0  0  0  0  0  0  0  0  0  0  0
    5.1791    0.0824    1.5107 H   0  0  0  0  0  0  0  0  0  0  0  0
    4.4706   -0.7391   -0.7803 H   0  0  0  0  0  0  0  0  0  0  0  0
    5.1748   -1.9297    0.2523 H   0  0  0  0  0  0  0  0  0  0  0  0
    3.8717   -3.7349   -1.1330 H   0  0  0  0  0  0  0  0  0  0  0  0
    2.1283   -3.6075   -1.1758 H   0  0  0  0  0  0  0  0  0  0  0  0
    2.3490   -1.5420   -2.6428 H   0  0  0  0  0  0  0  0  0  0  0  0
    3.7259   -4.1097   -3.6807 H   0  0  0  0  0  0  0  0  0  0  0  0
    2.9610   -2.7739   -4.6766 H   0  0  0  0  0  0  0  0  0  0  0  0
    4.5572   -1.1171   -3.7283 H   0  0  0  0  0  0  0  0  0  0  0  0
    5.3352   -2.4389   -2.7057 H   0  0  0  0  0  0  0  0  0  0  0  0
    1.8247   -3.3890    1.1203 H   0  0  0  0  0  0  0  0  0  0  0  0
    3.4826   -4.4425    2.2613 H   0  0  0  0  0  0  0  0  0  0  0  0
    4.4808   -3.9773    0.9778 H   0  0  0  0  0  0  0  0  0  0  0  0
    6.0373   -4.6448    3.4972 H   0  0  0  0  0  0  0  0  0  0  0  0
    5.1332   -4.7124    5.7707 H   0  0  0  0  0  0  0  0  0  0  0  0
    3.1545   -4.2613    6.9495 H   0  0  0  0  0  0  0  0  0  0  0  0
    1.1967   -2.8407    3.8716 H   0  0  0  0  0  0  0  0  0  0  0  0
    1.0327   -0.8921    0.7263 H   0  0  0  0  0  0  0  0  0  0  0  0
    2.3248   -1.4642   -0.2817 H   0  0  0  0  0  0  0  0  0  0  0  0
  1  2  2  0
  2 22  1  0
  2  3  1  0
  3  4  1  0
  3 25  1  0
  3 26  1  0
  5  4  1  1
  4 27  1  0
  4 28  1  0
  5 21  1  0
  5 23  1  0
  5  6  1  0
  6  7  1  0
  6 29  1  0
  6 30  1  0
  7  8  1  0
  7 31  1  0
  7 32  1  0
  8  9  1  0
  8 13  1  0
  8 48  1  6
  9 10  1  0
  9 33  1  0
  9 34  1  0
 10 12  1  0
 10 11  1  0
 10 35  1  0
 11 12  1  0
 11 36  1  0
 11 37  1  0
 12 38  1  0
 12 39  1  0
 13 23  1  0
 13 14  1  0
 13 40  1  6
 14 15  1  0
 14 41  1  0
 14 42  1  0
 15 21  2  0
 15 16  1  0
 16 17  2  0
 16 43  1  0
 17 18  1  0
 17 44  1  0
 18 19  1  0
 18 20  2  0
 19 45  1  0
 20 21  1  0
 20 22  1  0
 22 23  1  0
 22 46  1  6
 23 24  1  6
 24 47  1  0
M  CHG  1   8   1
M  END
>  <i_m_ct_stereo_status>  (322) 
1

>  <s_m_source_file>  (322) 
/var/tmp/pbs.5076255.sched01/tmpt7uccrld/92zpefy4ut.sdf

>  <i_m_source_file_index>  (322) 
46

>  <i_lp_mmshare_version>  (322) 
48012

>  <i_f3d_flags>  (322) 
0

>  <s_epik_input>  (322) 
W0NIMl0xW0NIMl1bQ0hdMVtDSDJdTihbQ0gyXVtDSDJdMilbQ0BASF0oW0NIMl0zKVtDQEBdNChbT0hdKVtDQEhdKEMoPU8pW0NIMl1bQ0gyXTUpYzZjKFtPSF0pW2NIXVtjSF1jM2M2W0NAQF0yNDU=

>  <s_epik_cmdline>  (322) 
J2VwaWtfcHl0aG9uJywgJy1waHQnLCAnMi4wJywgJy1waCcsICc3LjAnLCAnLXRuJywgJzgnLCAnLW1hJywgJzIwMCcsICctaW1hZScsICc8aW5maWxlLm1hZT4nLCAnLW9tYWUnLCAnPG91dGZpbGUubWFlPic=

>  <r_lp_tautomer_probability>  (322) 
1

>  <r_epik_Ionization_Penalty>  (322) 
0.0294512

>  <r_epik_Ionization_Penalty_Charging>  (322) 
0.0288498

>  <r_epik_Ionization_Penalty_Neutral>  (322) 
0.000601399

>  <r_epik_State_Penalty>  (322) 
0.023698

>  <r_epik_Charging_Adjusted_Penalty>  (322) 
0.0525478

>  <i_epik_Tot_Q>  (322) 
1

>  <i_epik_Tot_abs_Q>  (322) 
1

>  <s_lp_Force_Field>  (322) 
OPLS3e

>  <r_lp_Energy>  (322) 
143.786

>  <b_lp_Chiralities_Consistent>  (322) 
1

>  <s_lp_Variant>  (322) 
94:0-1

>  <s_i_glide_gridfile>  (322) 
pfpi4k_grid

>  <i_i_glide_lignum>  (322) 
46

>  <i_i_glide_rotatable_bonds>  (322) 
4

>  <r_i_docking_score>  (322) 
-4.43558

>  <r_i_glide_ligand_efficiency>  (322) 
-0.184816

>  <r_i_glide_ligand_efficiency_sa>  (322) 
-0.533101

>  <r_i_glide_ligand_efficiency_ln>  (322) 
-1.06164

>  <r_i_glide_gscore>  (322) 
-4.43558

>  <r_i_glide_lipo>  (322) 
-0.452432

>  <r_i_glide_hbond>  (322) 
-0.358744

>  <r_i_glide_metal>  (322) 
-0

>  <r_i_glide_rewards>  (322) 
-1.18357

>  <r_i_glide_evdw>  (322) 
-19.3556

>  <r_i_glide_ecoul>  (322) 
-11.6479

>  <r_i_glide_erotb>  (322) 
0.352052

>  <r_i_glide_esite>  (322) 
-0.0779154

>  <r_i_glide_emodel>  (322) 
-40.5097

>  <r_i_glide_energy>  (322) 
-31.0035

>  <r_i_glide_einternal>  (322) 
0.656173

>  <r_i_glide_intrahb_reward>  (322) 
-0

>  <i_i_glide_confnum>  (322) 
5

>  <i_i_glide_posenum>  (322) 
34

>  <r_i_glide_eff_state_penalty>  (322) 
0

>  <ligand_id>  (322) 
94

>  <original_smiles>  (322) 
O=C1CCC23CCN(CC4CC4)C4Cc5ccc(O)c(c52)C1C43O

>  <smiles>  (322) 
[H]Oc1c([H])c([H])c2c3c1C1([H])C(=O)C([H])([H])C([H])([H])C34C([H])([H])C([H])([H])[N+]([H])(C([H])([H])C3([H])C([H])([H])C3([H])[H])C([H])(C2([H])[H])C14O[H]

$$$$
94:0:1
     RDKit          3D

 48 53  0  0  1  0  0  0  0  0999 V2000
    1.7463   -6.6247    1.1447 O   0  0  0  0  0  0  0  0  0  0  0  0
    2.5624   -5.7600    1.4612 C   0  0  0  0  0  0  0  0  0  0  0  0
    2.5120   -5.0631    2.8122 C   0  0  0  0  0  0  0  0  0  0  0  0
    2.9168   -3.5793    2.6633 C   0  0  0  0  0  0  0  0  0  0  0  0
    3.9238   -3.1865    1.5181 C   0  0  1  0  0  0  0  0  0  0  0  0
    4.0030   -1.6323    1.5290 C   0  0  0  0  0  0  0  0  0  0  0  0
    4.6185   -0.9571    0.2973 C   0  0  0  0  0  0  0  0  0  0  0  0
    4.2221   -1.6601   -0.9501 N   0  0  1  0  0  0  0  0  0  0  0  0
    4.7251   -0.9965   -2.1749 C   0  0  0  0  0  0  0  0  0  0  0  0
    4.0841   -1.5125   -3.4474 C   0  0  0  0  0  0  0  0  0  0  0  0
    3.8937   -0.5904   -4.6353 C   0  0  0  0  0  0  0  0  0  0  0  0
    2.7140   -1.0638   -3.8505 C   0  0  0  0  0  0  0  0  0  0  0  0
    4.5020   -3.1294   -0.8517 C   0  0  1  0  0  0  0  0  0  0  0  0
    6.0212   -3.2876   -0.4877 C   0  0  0  0  0  0  0  0  0  0  0  0
    6.4211   -3.5356    0.9807 C   0  0  0  0  0  0  0  0  0  0  0  0
    7.5077   -4.4353    1.1364 C   0  0  0  0  0  0  0  0  0  0  0  0
    7.2901   -5.8040    1.4128 C   0  0  0  0  0  0  0  0  0  0  0  0
    5.9709   -6.2992    1.4015 C   0  0  0  0  0  0  0  0  0  0  0  0
    5.7220   -7.6326    1.3147 O   0  0  0  0  0  0  0  0  0  0  0  0
    4.9347   -5.3440    1.4062 C   0  0  0  0  0  0  0  0  0  0  0  0
    5.2272   -4.0019    1.5800 C   0  0  0  0  0  0  0  0  0  0  0  0
    3.6814   -5.2986    0.5360 C   0  0  2  0  0  0  0  0  0  0  0  0
    3.5123   -3.7608    0.1847 C   0  0  1  0  0  0  0  0  0  0  0  0
    2.1870   -3.4714   -0.2721 O   0  0  0  0  0  0  0  0  0  0  0  0
    1.5207   -5.1605    3.2483 H   0  0  0  0  0  0  0  0  0  0  0  0
    3.1856   -5.5837    3.4912 H   0  0  0  0  0  0  0  0  0  0  0  0
    1.9870   -3.0296    2.5228 H   0  0  0  0  0  0  0  0  0  0  0  0
    3.3117   -3.2506    3.6223 H   0  0  0  0  0  0  0  0  0  0  0  0
    2.9825   -1.2586    1.6057 H   0  0  0  0  0  0  0  0  0  0  0  0
    4.4981   -1.2775    2.4313 H   0  0  0  0  0  0  0  0  0  0  0  0
    4.2753    0.0772    0.2570 H   0  0  0  0  0  0  0  0  0  0  0  0
    5.6959   -0.8919    0.4213 H   0  0  0  0  0  0  0  0  0  0  0  0
    4.4871    0.0617   -2.0971 H   0  0  0  0  0  0  0  0  0  0  0  0
    5.8018   -1.0511   -2.2806 H   0  0  0  0  0  0  0  0  0  0  0  0
    4.3501   -2.5285   -3.7152 H   0  0  0  0  0  0  0  0  0  0  0  0
    4.1875    0.4542   -4.5406 H   0  0  0  0  0  0  0  0  0  0  0  0
    3.9770   -1.0094   -5.6277 H   0  0  0  0  0  0  0  0  0  0  0  0
    2.0720   -1.8209   -4.3015 H   0  0  0  0  0  0  0  0  0  0  0  0
    2.2271   -0.3186   -3.2238 H   0  0  0  0  0  0  0  0  0  0  0  0
    4.2954   -3.6265   -1.8003 H   0  0  0  0  0  0  0  0  0  0  0  0
    6.3380   -4.1599   -1.0468 H   0  0  0  0  0  0  0  0  0  0  0  0
    6.6468   -2.4906   -0.8942 H   0  0  0  0  0  0  0  0  0  0  0  0
    8.5017   -4.1498    0.8120 H   0  0  0  0  0  0  0  0  0  0  0  0
    8.1225   -6.4929    1.4775 H   0  0  0  0  0  0  0  0  0  0  0  0
    4.8006   -7.8486    1.3043 H   0  0  0  0  0  0  0  0  0  0  0  0
    3.7780   -5.9420   -0.3334 H   0  0  0  0  0  0  0  0  0  0  0  0
    2.0030   -2.5410   -0.3398 H   0  0  0  0  0  0  0  0  0  0  0  0
    3.2334   -1.5321   -1.0170 H   0  0  0  0  0  0  0  0  0  0  0  0
  1  2  2  0
  2 22  1  0
  2  3  1  0
  3  4  1  0
  3 25  1  0
  3 26  1  0
  5  4  1  1
  4 27  1  0
  4 28  1  0
  5 21  1  0
  5 23  1  0
  5  6  1  0
  6  7  1  0
  6 29  1  0
  6 30  1  0
  7  8  1  0
  7 31  1  0
  7 32  1  0
  8  9  1  0
  8 13  1  0
  8 48  1  6
  9 10  1  0
  9 33  1  0
  9 34  1  0
 10 12  1  0
 10 11  1  0
 10 35  1  0
 11 12  1  0
 11 36  1  0
 11 37  1  0
 12 38  1  0
 12 39  1  0
 13 23  1  0
 13 14  1  0
 13 40  1  6
 14 15  1  0
 14 41  1  0
 14 42  1  0
 15 21  2  0
 15 16  1  0
 16 17  2  0
 16 43  1  0
 17 18  1  0
 17 44  1  0
 18 19  1  0
 18 20  2  0
 19 45  1  0
 20 21  1  0
 20 22  1  0
 22 23  1  0
 22 46  1  6
 23 24  1  6
 24 47  1  0
M  CHG  1   8   1
M  END
>  <i_m_ct_stereo_status>  (323) 
1

>  <s_m_source_file>  (323) 
/var/tmp/pbs.5076255.sched01/tmpt7uccrld/92zpefy4ut.sdf

>  <i_m_source_file_index>  (323) 
46

>  <i_lp_mmshare_version>  (323) 
48012

>  <i_f3d_flags>  (323) 
0

>  <s_epik_input>  (323) 
W0NIMl0xW0NIMl1bQ0hdMVtDSDJdTihbQ0gyXVtDSDJdMilbQ0BASF0oW0NIMl0zKVtDQEBdNChbT0hdKVtDQEhdKEMoPU8pW0NIMl1bQ0gyXTUpYzZjKFtPSF0pW2NIXVtjSF1jM2M2W0NAQF0yNDU=

>  <s_epik_cmdline>  (323) 
J2VwaWtfcHl0aG9uJywgJy1waHQnLCAnMi4wJywgJy1waCcsICc3LjAnLCAnLXRuJywgJzgnLCAnLW1hJywgJzIwMCcsICctaW1hZScsICc8aW5maWxlLm1hZT4nLCAnLW9tYWUnLCAnPG91dGZpbGUubWFlPic=

>  <r_lp_tautomer_probability>  (323) 
1

>  <r_epik_Ionization_Penalty>  (323) 
0.0294512

>  <r_epik_Ionization_Penalty_Charging>  (323) 
0.0288498

>  <r_epik_Ionization_Penalty_Neutral>  (323) 
0.000601399

>  <r_epik_State_Penalty>  (323) 
0.023698

>  <r_epik_Charging_Adjusted_Penalty>  (323) 
0.0525478

>  <i_epik_Tot_Q>  (323) 
1

>  <i_epik_Tot_abs_Q>  (323) 
1

>  <s_lp_Force_Field>  (323) 
OPLS3e

>  <r_lp_Energy>  (323) 
143.786

>  <b_lp_Chiralities_Consistent>  (323) 
1

>  <s_lp_Variant>  (323) 
94:0-1

>  <s_i_glide_gridfile>  (323) 
pfpi4k_grid

>  <i_i_glide_lignum>  (323) 
46

>  <i_i_glide_rotatable_bonds>  (323) 
4

>  <r_i_docking_score>  (323) 
-4.10147

>  <r_i_glide_ligand_efficiency>  (323) 
-0.170895

>  <r_i_glide_ligand_efficiency_sa>  (323) 
-0.492945

>  <r_i_glide_ligand_efficiency_ln>  (323) 
-0.98167

>  <r_i_glide_gscore>  (323) 
-4.10147

>  <r_i_glide_lipo>  (323) 
-1.08577

>  <r_i_glide_hbond>  (323) 
0

>  <r_i_glide_metal>  (323) 
-0

>  <r_i_glide_rewards>  (323) 
-1.18357

>  <r_i_glide_evdw>  (323) 
-24.6198

>  <r_i_glide_ecoul>  (323) 
-5.99621

>  <r_i_glide_erotb>  (323) 
0.352052

>  <r_i_glide_esite>  (323) 
-0.0537538

>  <r_i_glide_emodel>  (323) 
-38.7897

>  <r_i_glide_energy>  (323) 
-30.616

>  <r_i_glide_einternal>  (323) 
2.45076

>  <r_i_glide_intrahb_reward>  (323) 
-0

>  <i_i_glide_confnum>  (323) 
3

>  <i_i_glide_posenum>  (323) 
29

>  <r_i_glide_eff_state_penalty>  (323) 
0

>  <ligand_id>  (323) 
94

>  <original_smiles>  (323) 
O=C1CCC23CCN(CC4CC4)C4Cc5ccc(O)c(c52)C1C43O

>  <smiles>  (323) 
[H]Oc1c([H])c([H])c2c3c1C1([H])C(=O)C([H])([H])C([H])([H])C34C([H])([H])C([H])([H])[N+]([H])(C([H])([H])C3([H])C([H])([H])C3([H])[H])C([H])(C2([H])[H])C14O[H]

$$$$
94:0:2
     RDKit          3D

 48 53  0  0  1  0  0  0  0  0999 V2000
    1.8816   -2.0848    4.1027 O   0  0  0  0  0  0  0  0  0  0  0  0
    2.8847   -2.1830    3.3976 C   0  0  0  0  0  0  0  0  0  0  0  0
    4.2474   -1.6589    3.8369 C   0  0  0  0  0  0  0  0  0  0  0  0
    5.0580   -1.1725    2.6134 C   0  0  0  0  0  0  0  0  0  0  0  0
    4.7933   -1.8574    1.2154 C   0  0  1  0  0  0  0  0  0  0  0  0
    5.6350   -1.0566    0.1837 C   0  0  0  0  0  0  0  0  0  0  0  0
    5.2889   -1.2636   -1.2974 C   0  0  0  0  0  0  0  0  0  0  0  0
    3.8283   -1.4060   -1.4887 N   0  0  1  0  0  0  0  0  0  0  0  0
    3.4257   -1.5052   -2.9114 C   0  0  0  0  0  0  0  0  0  0  0  0
    3.4575   -0.1646   -3.6467 C   0  0  0  0  0  0  0  0  0  0  0  0
    2.4161    0.1429   -4.7188 C   0  0  0  0  0  0  0  0  0  0  0  0
    3.8132   -0.0995   -5.1112 C   0  0  0  0  0  0  0  0  0  0  0  0
    3.2739   -2.4614   -0.6029 C   0  0  1  0  0  0  0  0  0  0  0  0
    4.0715   -3.7799   -0.8528 C   0  0  0  0  0  0  0  0  0  0  0  0
    5.2229   -4.1453    0.1141 C   0  0  0  0  0  0  0  0  0  0  0  0
    5.3269   -5.5368    0.3866 C   0  0  0  0  0  0  0  0  0  0  0  0
    4.7546   -6.1077    1.5467 C   0  0  0  0  0  0  0  0  0  0  0  0
    3.9497   -5.2933    2.3723 C   0  0  0  0  0  0  0  0  0  0  0  0
    3.1118   -5.8402    3.2858 O   0  0  0  0  0  0  0  0  0  0  0  0
    4.0118   -3.9022    2.1560 C   0  0  0  0  0  0  0  0  0  0  0  0
    4.9478   -3.3851    1.2730 C   0  0  0  0  0  0  0  0  0  0  0  0
    2.8691   -2.8941    2.0474 C   0  0  2  0  0  0  0  0  0  0  0  0
    3.3123   -1.9189    0.8813 C   0  0  1  0  0  0  0  0  0  0  0  0
    2.6276   -0.6711    0.8885 O   0  0  0  0  0  0  0  0  0  0  0  0
    4.1338   -0.8661    4.5732 H   0  0  0  0  0  0  0  0  0  0  0  0
    4.7745   -2.4650    4.3474 H   0  0  0  0  0  0  0  0  0  0  0  0
    4.8578   -0.1048    2.5283 H   0  0  0  0  0  0  0  0  0  0  0  0
    6.1180   -1.2506    2.8576 H   0  0  0  0  0  0  0  0  0  0  0  0
    5.4666   -0.0004    0.3926 H   0  0  0  0  0  0  0  0  0  0  0  0
    6.7008   -1.2079    0.3528 H   0  0  0  0  0  0  0  0  0  0  0  0
    5.6400   -0.4051   -1.8631 H   0  0  0  0  0  0  0  0  0  0  0  0
    5.8444   -2.1128   -1.6861 H   0  0  0  0  0  0  0  0  0  0  0  0
    4.0670   -2.2024   -3.4430 H   0  0  0  0  0  0  0  0  0  0  0  0
    2.4105   -1.8864   -2.9888 H   0  0  0  0  0  0  0  0  0  0  0  0
    3.8386    0.6814   -3.0750 H   0  0  0  0  0  0  0  0  0  0  0  0
    1.7292   -0.6349   -5.0214 H   0  0  0  0  0  0  0  0  0  0  0  0
    2.0478    1.1641   -4.7859 H   0  0  0  0  0  0  0  0  0  0  0  0
    4.3462    0.7726   -5.4714 H   0  0  0  0  0  0  0  0  0  0  0  0
    4.0232   -1.0456   -5.6005 H   0  0  0  0  0  0  0  0  0  0  0  0
    2.2319   -2.6453   -0.8764 H   0  0  0  0  0  0  0  0  0  0  0  0
    3.3310   -4.5770   -0.7733 H   0  0  0  0  0  0  0  0  0  0  0  0
    4.4095   -3.8612   -1.8927 H   0  0  0  0  0  0  0  0  0  0  0  0
    5.5900   -6.2263   -0.4019 H   0  0  0  0  0  0  0  0  0  0  0  0
    4.7792   -7.1784    1.6950 H   0  0  0  0  0  0  0  0  0  0  0  0
    2.6607   -5.1988    3.8096 H   0  0  0  0  0  0  0  0  0  0  0  0
    1.9174   -3.3885    1.8724 H   0  0  0  0  0  0  0  0  0  0  0  0
    1.8176   -0.7471    0.3537 H   0  0  0  0  0  0  0  0  0  0  0  0
    3.4078   -0.5612   -1.1346 H   0  0  0  0  0  0  0  0  0  0  0  0
  1  2  2  0
  2 22  1  0
  2  3  1  0
  3  4  1  0
  3 25  1  0
  3 26  1  0
  5  4  1  1
  4 27  1  0
  4 28  1  0
  5 21  1  0
  5 23  1  0
  5  6  1  0
  6  7  1  0
  6 29  1  0
  6 30  1  0
  7  8  1  0
  7 31  1  0
  7 32  1  0
  8  9  1  0
  8 13  1  0
  8 48  1  1
  9 10  1  0
  9 33  1  0
  9 34  1  0
 10 12  1  0
 10 11  1  0
 10 35  1  0
 11 12  1  0
 11 36  1  0
 11 37  1  0
 12 38  1  0
 12 39  1  0
 13 23  1  0
 13 14  1  0
 13 40  1  6
 14 15  1  0
 14 41  1  0
 14 42  1  0
 15 21  2  0
 15 16  1  0
 16 17  2  0
 16 43  1  0
 17 18  1  0
 17 44  1  0
 18 19  1  0
 18 20  2  0
 19 45  1  0
 20 21  1  0
 20 22  1  0
 22 23  1  0
 22 46  1  6
 23 24  1  6
 24 47  1  0
M  CHG  1   8   1
M  END
>  <i_m_ct_stereo_status>  (324) 
1

>  <s_m_source_file>  (324) 
/var/tmp/pbs.5076255.sched01/tmpt7uccrld/92zpefy4ut.sdf

>  <i_m_source_file_index>  (324) 
46

>  <i_lp_mmshare_version>  (324) 
48012

>  <i_f3d_flags>  (324) 
0

>  <s_epik_input>  (324) 
W0NIMl0xW0NIMl1bQ0hdMVtDSDJdTihbQ0gyXVtDSDJdMilbQ0BASF0oW0NIMl0zKVtDQEBdNChbT0hdKVtDQEhdKEMoPU8pW0NIMl1bQ0gyXTUpYzZjKFtPSF0pW2NIXVtjSF1jM2M2W0NAQF0yNDU=

>  <s_epik_cmdline>  (324) 
J2VwaWtfcHl0aG9uJywgJy1waHQnLCAnMi4wJywgJy1waCcsICc3LjAnLCAnLXRuJywgJzgnLCAnLW1hJywgJzIwMCcsICctaW1hZScsICc8aW5maWxlLm1hZT4nLCAnLW9tYWUnLCAnPG91dGZpbGUubWFlPic=

>  <r_lp_tautomer_probability>  (324) 
1

>  <r_epik_Ionization_Penalty>  (324) 
0.0294512

>  <r_epik_Ionization_Penalty_Charging>  (324) 
0.0288498

>  <r_epik_Ionization_Penalty_Neutral>  (324) 
0.000601399

>  <r_epik_State_Penalty>  (324) 
0.023698

>  <r_epik_Charging_Adjusted_Penalty>  (324) 
0.0525478

>  <i_epik_Tot_Q>  (324) 
1

>  <i_epik_Tot_abs_Q>  (324) 
1

>  <s_lp_Force_Field>  (324) 
OPLS3e

>  <r_lp_Energy>  (324) 
143.786

>  <b_lp_Chiralities_Consistent>  (324) 
1

>  <s_lp_Variant>  (324) 
94:0-1

>  <s_i_glide_gridfile>  (324) 
pfpi4k_grid

>  <i_i_glide_lignum>  (324) 
46

>  <i_i_glide_rotatable_bonds>  (324) 
4

>  <r_i_docking_score>  (324) 
-4.05804

>  <r_i_glide_ligand_efficiency>  (324) 
-0.169085

>  <r_i_glide_ligand_efficiency_sa>  (324) 
-0.487725

>  <r_i_glide_ligand_efficiency_ln>  (324) 
-0.971275

>  <r_i_glide_gscore>  (324) 
-4.05804

>  <r_i_glide_lipo>  (324) 
-0.75583

>  <r_i_glide_hbond>  (324) 
-0.16

>  <r_i_glide_metal>  (324) 
-0

>  <r_i_glide_rewards>  (324) 
-1.18357

>  <r_i_glide_evdw>  (324) 
-22.5729

>  <r_i_glide_ecoul>  (324) 
-7.40508

>  <r_i_glide_erotb>  (324) 
0.352052

>  <r_i_glide_esite>  (324) 
-0.0712787

>  <r_i_glide_emodel>  (324) 
-38.1311

>  <r_i_glide_energy>  (324) 
-29.978

>  <r_i_glide_einternal>  (324) 
1.87995

>  <r_i_glide_intrahb_reward>  (324) 
-0

>  <i_i_glide_confnum>  (324) 
1

>  <i_i_glide_posenum>  (324) 
35

>  <r_i_glide_eff_state_penalty>  (324) 
0

>  <ligand_id>  (324) 
94

>  <original_smiles>  (324) 
O=C1CCC23CCN(CC4CC4)C4Cc5ccc(O)c(c52)C1C43O

>  <smiles>  (324) 
[H]Oc1c([H])c([H])c2c3c1C1([H])C(=O)C([H])([H])C([H])([H])C34C([H])([H])C([H])([H])[N+]([H])(C([H])([H])C3([H])C([H])([H])C3([H])[H])C([H])(C2([H])[H])C14O[H]

$$$$
94:1:0
     RDKit          3D

 47 52  0  0  1  0  0  0  0  0999 V2000
    1.5559   -5.8347    0.2816 O   0  0  0  0  0  0  0  0  0  0  0  0
    2.6284   -5.2036    0.2906 C   0  0  0  0  0  0  0  0  0  0  0  0
    3.9778   -5.9015    0.3521 C   0  0  0  0  0  0  0  0  0  0  0  0
    4.9758   -5.0713    1.1977 C   0  0  0  0  0  0  0  0  0  0  0  0
    4.7749   -3.5002    1.2601 C   0  0  1  0  0  0  0  0  0  0  0  0
    5.8138   -2.9923    2.2841 C   0  0  0  0  0  0  0  0  0  0  0  0
    5.5589   -1.6014    2.8388 C   0  0  0  0  0  0  0  0  0  0  0  0
    4.1490   -1.3092    3.0531 N   0  0  0  0  0  0  0  0  0  0  0  0
    3.9587    0.0070    3.6442 C   0  0  0  0  0  0  0  0  0  0  0  0
    4.5394    0.1271    5.0315 C   0  0  0  0  0  0  0  0  0  0  0  0
    4.8255    1.4594    5.6764 C   0  0  0  0  0  0  0  0  0  0  0  0
    5.9715    0.5979    5.2234 C   0  0  0  0  0  0  0  0  0  0  0  0
    3.4118   -1.5704    1.8114 C   0  0  1  0  0  0  0  0  0  0  0  0
    4.0568   -0.7557    0.6485 C   0  0  0  0  0  0  0  0  0  0  0  0
    5.0387   -1.4712   -0.3247 C   0  0  0  0  0  0  0  0  0  0  0  0
    4.9428   -1.0747   -1.6910 C   0  0  0  0  0  0  0  0  0  0  0  0
    4.1881   -1.8263   -2.6284 C   0  0  0  0  0  0  0  0  0  0  0  0
    3.4269   -2.9086   -2.1577 C   0  0  0  0  0  0  0  0  0  0  0  0
    2.4665   -3.4536   -2.9446 O   0  0  0  0  0  0  0  0  0  0  0  0
    3.6894   -3.3962   -0.8615 C   0  0  0  0  0  0  0  0  0  0  0  0
    4.7432   -2.8611   -0.1387 C   0  0  0  0  0  0  0  0  0  0  0  0
    2.6895   -3.6767    0.2572 C   0  0  2  0  0  0  0  0  0  0  0  0
    3.3439   -3.1308    1.5790 C   0  0  1  0  0  0  0  0  0  0  0  0
    2.7845   -3.7469    2.7307 O   0  0  0  0  0  0  0  0  0  0  0  0
    3.8962   -6.9169    0.7389 H   0  0  0  0  0  0  0  0  0  0  0  0
    4.3619   -6.0013   -0.6636 H   0  0  0  0  0  0  0  0  0  0  0  0
    4.9300   -5.4715    2.2148 H   0  0  0  0  0  0  0  0  0  0  0  0
    5.9901   -5.2900    0.8547 H   0  0  0  0  0  0  0  0  0  0  0  0
    5.7550   -3.6486    3.1582 H   0  0  0  0  0  0  0  0  0  0  0  0
    6.8215   -3.0856    1.9002 H   0  0  0  0  0  0  0  0  0  0  0  0
    6.0898   -1.5538    3.7747 H   0  0  0  0  0  0  0  0  0  0  0  0
    6.0326   -0.8560    2.1934 H   0  0  0  0  0  0  0  0  0  0  0  0
    4.3669    0.7963    3.0189 H   0  0  0  0  0  0  0  0  0  0  0  0
    2.8849    0.1986    3.7356 H   0  0  0  0  0  0  0  0  0  0  0  0
    4.2099   -0.6666    5.7092 H   0  0  0  0  0  0  0  0  0  0  0  0
    4.5891    2.3433    5.0885 H   0  0  0  0  0  0  0  0  0  0  0  0
    4.6767    1.5498    6.7477 H   0  0  0  0  0  0  0  0  0  0  0  0
    6.5640    0.0744    5.9694 H   0  0  0  0  0  0  0  0  0  0  0  0
    6.5041    0.8651    4.3091 H   0  0  0  0  0  0  0  0  0  0  0  0
    2.3838   -1.2119    1.9500 H   0  0  0  0  0  0  0  0  0  0  0  0
    3.2261   -0.3958    0.0420 H   0  0  0  0  0  0  0  0  0  0  0  0
    4.5534    0.1690    0.9752 H   0  0  0  0  0  0  0  0  0  0  0  0
    5.1987   -0.0733   -1.9833 H   0  0  0  0  0  0  0  0  0  0  0  0
    4.0478   -1.4642   -3.6321 H   0  0  0  0  0  0  0  0  0  0  0  0
    2.2958   -4.3649   -2.7342 H   0  0  0  0  0  0  0  0  0  0  0  0
    1.7464   -3.2182    0.0204 H   0  0  0  0  0  0  0  0  0  0  0  0
    2.9898   -4.6536    2.7349 H   0  0  0  0  0  0  0  0  0  0  0  0
  1  2  2  0
  2 22  1  0
  2  3  1  0
  3  4  1  0
  3 25  1  0
  3 26  1  0
  5  4  1  6
  4 27  1  0
  4 28  1  0
  5 21  1  0
  5 23  1  0
  5  6  1  0
  6  7  1  0
  6 29  1  0
  6 30  1  0
  7  8  1  0
  7 31  1  0
  7 32  1  0
  8  9  1  0
  8 13  1  0
  9 10  1  0
  9 33  1  0
  9 34  1  0
 10 12  1  0
 10 11  1  0
 10 35  1  0
 11 12  1  0
 11 36  1  0
 11 37  1  0
 12 38  1  0
 12 39  1  0
 13 23  1  0
 13 14  1  0
 13 40  1  1
 14 15  1  0
 14 41  1  0
 14 42  1  0
 15 21  2  0
 15 16  1  0
 16 17  2  0
 16 43  1  0
 17 18  1  0
 17 44  1  0
 18 19  1  0
 18 20  2  0
 19 45  1  0
 20 21  1  0
 20 22  1  0
 22 23  1  0
 22 46  1  6
 23 24  1  1
 24 47  1  0
M  END
>  <i_m_ct_stereo_status>  (325) 
1

>  <s_m_source_file>  (325) 
/var/tmp/pbs.5076255.sched01/tmpybatibx8/138x0dlab3k.sdf

>  <i_m_source_file_index>  (325) 
1

>  <i_lp_mmshare_version>  (325) 
48012

>  <i_f3d_flags>  (325) 
0

>  <s_epik_input>  (325) 
W0NIMl0xW0NIMl1bQ0hdMVtDSDJdTihbQ0gyXVtDSDJdMilbQ0BASF0oW0NIMl0zKVtDQEBdNChbT0hdKVtDQEhdKEMoPU8pW0NIMl1bQ0gyXTUpYzZjKFtPSF0pW2NIXVtjSF1jM2M2W0NAQF0yNDU=

>  <s_epik_cmdline>  (325) 
J2VwaWtfcHl0aG9uJywgJy1waHQnLCAnMi4wJywgJy1waCcsICc3LjAnLCAnLXRuJywgJzgnLCAnLW1hJywgJzIwMCcsICctaW1hZScsICc8aW5maWxlLm1hZT4nLCAnLW9tYWUnLCAnPG91dGZpbGUubWFlPic=

>  <r_lp_tautomer_probability>  (325) 
1

>  <r_epik_Ionization_Penalty>  (325) 
1.80502

>  <r_epik_Ionization_Penalty_Charging>  (325) 
0

>  <r_epik_Ionization_Penalty_Neutral>  (325) 
1.80502

>  <r_epik_State_Penalty>  (325) 
1.91898

>  <r_epik_Charging_Adjusted_Penalty>  (325) 
1.91898

>  <i_epik_Tot_Q>  (325) 
0

>  <i_epik_Tot_abs_Q>  (325) 
0

>  <s_lp_Force_Field>  (325) 
OPLS3e

>  <r_lp_Energy>  (325) 
149.368

>  <b_lp_Chiralities_Consistent>  (325) 
1

>  <s_lp_Variant>  (325) 
94:0-2

>  <s_i_glide_gridfile>  (325) 
pfpi4k_grid

>  <i_i_glide_lignum>  (325) 
1

>  <i_i_glide_rotatable_bonds>  (325) 
4

>  <r_i_docking_score>  (325) 
-3.894

>  <r_i_glide_ligand_efficiency>  (325) 
-0.16225

>  <r_i_glide_ligand_efficiency_sa>  (325) 
-0.46801

>  <r_i_glide_ligand_efficiency_ln>  (325) 
-0.932013

>  <r_i_glide_gscore>  (325) 
-3.894

>  <r_i_glide_lipo>  (325) 
-0.5156

>  <r_i_glide_hbond>  (325) 
-0.44382

>  <r_i_glide_metal>  (325) 
-0

>  <r_i_glide_rewards>  (325) 
-1.19044

>  <r_i_glide_evdw>  (325) 
-20.7346

>  <r_i_glide_ecoul>  (325) 
-6.75013

>  <r_i_glide_erotb>  (325) 
0.353979

>  <r_i_glide_esite>  (325) 
-0.0488682

>  <r_i_glide_emodel>  (325) 
-33.3987

>  <r_i_glide_energy>  (325) 
-27.4847

>  <r_i_glide_einternal>  (325) 
1.40686

>  <r_i_glide_intrahb_reward>  (325) 
-0

>  <i_i_glide_confnum>  (325) 
4

>  <i_i_glide_posenum>  (325) 
23

>  <r_i_glide_eff_state_penalty>  (325) 
0

>  <ligand_id>  (325) 
94

>  <original_smiles>  (325) 
O=C1CCC23CCN(CC4CC4)C4Cc5ccc(O)c(c52)C1C43O

>  <smiles>  (325) 
[H]Oc1c([H])c([H])c2c3c1C1([H])C(=O)C([H])([H])C([H])([H])C34C([H])([H])C([H])([H])N(C([H])([H])C3([H])C([H])([H])C3([H])[H])C([H])(C2([H])[H])C14O[H]

$$$$
94:1:1
     RDKit          3D

 47 52  0  0  1  0  0  0  0  0999 V2000
    1.4090   -5.8001    0.0987 O   0  0  0  0  0  0  0  0  0  0  0  0
    2.4975   -5.2053    0.2230 C   0  0  0  0  0  0  0  0  0  0  0  0
    3.7951   -5.9605    0.4594 C   0  0  0  0  0  0  0  0  0  0  0  0
    4.7039   -5.1715    1.4342 C   0  0  0  0  0  0  0  0  0  0  0  0
    4.5770   -3.6011    1.4564 C   0  0  1  0  0  0  0  0  0  0  0  0
    5.4914   -3.1339    2.6159 C   0  0  0  0  0  0  0  0  0  0  0  0
    5.2546   -1.7307    3.1462 C   0  0  0  0  0  0  0  0  0  0  0  0
    3.8374   -1.3782    3.1784 N   0  0  0  0  0  0  0  0  0  0  0  0
    3.6216   -0.0406    3.7376 C   0  0  0  0  0  0  0  0  0  0  0  0
    3.9085    0.0569    5.2298 C   0  0  0  0  0  0  0  0  0  0  0  0
    2.7881    0.0184    6.2418 C   0  0  0  0  0  0  0  0  0  0  0  0
    3.5796    1.2884    6.0296 C   0  0  0  0  0  0  0  0  0  0  0  0
    3.2550   -1.5962    1.8320 C   0  0  1  0  0  0  0  0  0  0  0  0
    4.0904   -0.8155    0.7640 C   0  0  0  0  0  0  0  0  0  0  0  0
    5.1494   -1.6072   -0.0677 C   0  0  0  0  0  0  0  0  0  0  0  0
    5.2743   -1.2168   -1.4255 C   0  0  0  0  0  0  0  0  0  0  0  0
    4.6081   -1.9239   -2.4644 C   0  0  0  0  0  0  0  0  0  0  0  0
    3.7275   -2.9540   -2.1041 C   0  0  0  0  0  0  0  0  0  0  0  0
    2.8440   -3.4488   -3.0059 O   0  0  0  0  0  0  0  0  0  0  0  0
    3.7789   -3.4402   -0.7820 C   0  0  0  0  0  0  0  0  0  0  0  0
    4.7720   -2.9696    0.0720 C   0  0  0  0  0  0  0  0  0  0  0  0
    2.6267   -3.6824    0.1809 C   0  0  2  0  0  0  0  0  0  0  0  0
    3.1423   -3.1517    1.5763 C   0  0  1  0  0  0  0  0  0  0  0  0
    2.4499   -3.7293    2.6710 O   0  0  0  0  0  0  0  0  0  0  0  0
    3.6120   -6.9619    0.8401 H   0  0  0  0  0  0  0  0  0  0  0  0
    4.3053   -6.0783   -0.4944 H   0  0  0  0  0  0  0  0  0  0  0  0
    4.4848   -5.5537    2.4371 H   0  0  0  0  0  0  0  0  0  0  0  0
    5.7447   -5.4372    1.2402 H   0  0  0  0  0  0  0  0  0  0  0  0
    5.2809   -3.7797    3.4746 H   0  0  0  0  0  0  0  0  0  0  0  0
    6.5293   -3.2836    2.3615 H   0  0  0  0  0  0  0  0  0  0  0  0
    5.7191   -1.7275    4.1267 H   0  0  0  0  0  0  0  0  0  0  0  0
    5.8286   -1.0133    2.5477 H   0  0  0  0  0  0  0  0  0  0  0  0
    4.2130    0.7036    3.2130 H   0  0  0  0  0  0  0  0  0  0  0  0
    2.5749    0.2423    3.5846 H   0  0  0  0  0  0  0  0  0  0  0  0
    4.8392   -0.4024    5.5595 H   0  0  0  0  0  0  0  0  0  0  0  0
    1.7690   -0.0364    5.8600 H   0  0  0  0  0  0  0  0  0  0  0  0
    2.9873   -0.5706    7.1351 H   0  0  0  0  0  0  0  0  0  0  0  0
    4.3236    1.5550    6.7774 H   0  0  0  0  0  0  0  0  0  0  0  0
    3.1256    2.1181    5.4911 H   0  0  0  0  0  0  0  0  0  0  0  0
    2.2375   -1.1781    1.8219 H   0  0  0  0  0  0  0  0  0  0  0  0
    3.3874   -0.4111    0.0356 H   0  0  0  0  0  0  0  0  0  0  0  0
    4.5827    0.0822    1.1592 H   0  0  0  0  0  0  0  0  0  0  0  0
    5.6250   -0.2440   -1.6825 H   0  0  0  0  0  0  0  0  0  0  0  0
    4.6318   -1.5589   -3.4693 H   0  0  0  0  0  0  0  0  0  0  0  0
    2.5995   -4.3445   -2.8103 H   0  0  0  0  0  0  0  0  0  0  0  0
    1.7428   -3.1829   -0.1877 H   0  0  0  0  0  0  0  0  0  0  0  0
    2.8313   -3.3461    3.4461 H   0  0  0  0  0  0  0  0  0  0  0  0
  1  2  2  0
  2 22  1  0
  2  3  1  0
  3  4  1  0
  3 25  1  0
  3 26  1  0
  5  4  1  6
  4 27  1  0
  4 28  1  0
  5 21  1  0
  5 23  1  0
  5  6  1  0
  6  7  1  0
  6 29  1  0
  6 30  1  0
  7  8  1  0
  7 31  1  0
  7 32  1  0
  8  9  1  0
  8 13  1  0
  9 10  1  0
  9 33  1  0
  9 34  1  0
 10 12  1  0
 10 11  1  0
 10 35  1  0
 11 12  1  0
 11 36  1  0
 11 37  1  0
 12 38  1  0
 12 39  1  0
 13 23  1  0
 13 14  1  0
 13 40  1  1
 14 15  1  0
 14 41  1  0
 14 42  1  0
 15 21  2  0
 15 16  1  0
 16 17  2  0
 16 43  1  0
 17 18  1  0
 17 44  1  0
 18 19  1  0
 18 20  2  0
 19 45  1  0
 20 21  1  0
 20 22  1  0
 22 23  1  0
 22 46  1  6
 23 24  1  1
 24 47  1  0
M  END
>  <i_m_ct_stereo_status>  (326) 
1

>  <s_m_source_file>  (326) 
/var/tmp/pbs.5076255.sched01/tmpybatibx8/138x0dlab3k.sdf

>  <i_m_source_file_index>  (326) 
1

>  <i_lp_mmshare_version>  (326) 
48012

>  <i_f3d_flags>  (326) 
0

>  <s_epik_input>  (326) 
W0NIMl0xW0NIMl1bQ0hdMVtDSDJdTihbQ0gyXVtDSDJdMilbQ0BASF0oW0NIMl0zKVtDQEBdNChbT0hdKVtDQEhdKEMoPU8pW0NIMl1bQ0gyXTUpYzZjKFtPSF0pW2NIXVtjSF1jM2M2W0NAQF0yNDU=

>  <s_epik_cmdline>  (326) 
J2VwaWtfcHl0aG9uJywgJy1waHQnLCAnMi4wJywgJy1waCcsICc3LjAnLCAnLXRuJywgJzgnLCAnLW1hJywgJzIwMCcsICctaW1hZScsICc8aW5maWxlLm1hZT4nLCAnLW9tYWUnLCAnPG91dGZpbGUubWFlPic=

>  <r_lp_tautomer_probability>  (326) 
1

>  <r_epik_Ionization_Penalty>  (326) 
1.80502

>  <r_epik_Ionization_Penalty_Charging>  (326) 
0

>  <r_epik_Ionization_Penalty_Neutral>  (326) 
1.80502

>  <r_epik_State_Penalty>  (326) 
1.91898

>  <r_epik_Charging_Adjusted_Penalty>  (326) 
1.91898

>  <i_epik_Tot_Q>  (326) 
0

>  <i_epik_Tot_abs_Q>  (326) 
0

>  <s_lp_Force_Field>  (326) 
OPLS3e

>  <r_lp_Energy>  (326) 
149.368

>  <b_lp_Chiralities_Consistent>  (326) 
1

>  <s_lp_Variant>  (326) 
94:0-2

>  <s_i_glide_gridfile>  (326) 
pfpi4k_grid

>  <i_i_glide_lignum>  (326) 
1

>  <i_i_glide_rotatable_bonds>  (326) 
4

>  <r_i_docking_score>  (326) 
-3.79722

>  <r_i_glide_ligand_efficiency>  (326) 
-0.158218

>  <r_i_glide_ligand_efficiency_sa>  (326) 
-0.456379

>  <r_i_glide_ligand_efficiency_ln>  (326) 
-0.90885

>  <r_i_glide_gscore>  (326) 
-3.79722

>  <r_i_glide_lipo>  (326) 
-0.308805

>  <r_i_glide_hbond>  (326) 
-0.53363

>  <r_i_glide_metal>  (326) 
-0

>  <r_i_glide_rewards>  (326) 
-1.19044

>  <r_i_glide_evdw>  (326) 
-19.3209

>  <r_i_glide_ecoul>  (326) 
-7.30446

>  <r_i_glide_erotb>  (326) 
0.353979

>  <r_i_glide_esite>  (326) 
-0.0566084

>  <r_i_glide_emodel>  (326) 
-32.8514

>  <r_i_glide_energy>  (326) 
-26.6254

>  <r_i_glide_einternal>  (326) 
0.918407

>  <r_i_glide_intrahb_reward>  (326) 
-0

>  <i_i_glide_confnum>  (326) 
1

>  <i_i_glide_posenum>  (326) 
3

>  <r_i_glide_eff_state_penalty>  (326) 
0

>  <ligand_id>  (326) 
94

>  <original_smiles>  (326) 
O=C1CCC23CCN(CC4CC4)C4Cc5ccc(O)c(c52)C1C43O

>  <smiles>  (326) 
[H]Oc1c([H])c([H])c2c3c1C1([H])C(=O)C([H])([H])C([H])([H])C34C([H])([H])C([H])([H])N(C([H])([H])C3([H])C([H])([H])C3([H])[H])C([H])(C2([H])[H])C14O[H]

$$$$
94:1:2
     RDKit          3D

 47 52  0  0  1  0  0  0  0  0999 V2000
    3.1910   -2.8715   -2.1022 O   0  0  0  0  0  0  0  0  0  0  0  0
    3.7127   -3.4017   -1.1094 C   0  0  0  0  0  0  0  0  0  0  0  0
    4.9533   -4.2644   -1.2452 C   0  0  0  0  0  0  0  0  0  0  0  0
    4.9338   -5.4097   -0.2001 C   0  0  0  0  0  0  0  0  0  0  0  0
    4.1604   -5.1747    1.1542 C   0  0  1  0  0  0  0  0  0  0  0  0
    4.2222   -6.5365    1.9026 C   0  0  0  0  0  0  0  0  0  0  0  0
    3.2118   -6.7249    3.0258 C   0  0  0  0  0  0  0  0  0  0  0  0
    1.9251   -6.0927    2.7482 N   0  0  0  0  0  0  0  0  0  0  0  0
    0.9686   -6.3288    3.8176 C   0  0  0  0  0  0  0  0  0  0  0  0
    0.4206   -7.7369    3.8160 C   0  0  0  0  0  0  0  0  0  0  0  0
   -0.7509   -8.1124    2.9342 C   0  0  0  0  0  0  0  0  0  0  0  0
   -0.9021   -8.0926    4.4367 C   0  0  0  0  0  0  0  0  0  0  0  0
    2.1416   -4.6880    2.3740 C   0  0  1  0  0  0  0  0  0  0  0  0
    2.9530   -3.9615    3.4886 C   0  0  0  0  0  0  0  0  0  0  0  0
    4.4855   -3.7558    3.2896 C   0  0  0  0  0  0  0  0  0  0  0  0
    4.9956   -2.5102    3.7658 C   0  0  0  0  0  0  0  0  0  0  0  0
    5.2056   -1.4080    2.8826 C   0  0  0  0  0  0  0  0  0  0  0  0
    4.7460   -1.5144    1.5568 C   0  0  0  0  0  0  0  0  0  0  0  0
    4.5740   -0.4101    0.7862 O   0  0  0  0  0  0  0  0  0  0  0  0
    4.4054   -2.7955    1.0759 C   0  0  0  0  0  0  0  0  0  0  0  0
    4.6467   -3.9046    1.8781 C   0  0  0  0  0  0  0  0  0  0  0  0
    3.1650   -3.2360    0.3067 C   0  0  2  0  0  0  0  0  0  0  0  0
    2.7680   -4.6356    0.9212 C   0  0  1  0  0  0  0  0  0  0  0  0
    1.9495   -5.3913    0.0260 O   0  0  0  0  0  0  0  0  0  0  0  0
    5.0380   -4.6684   -2.2519 H   0  0  0  0  0  0  0  0  0  0  0  0
    5.8282   -3.6360   -1.0936 H   0  0  0  0  0  0  0  0  0  0  0  0
    4.5033   -6.2835   -0.6993 H   0  0  0  0  0  0  0  0  0  0  0  0
    5.9656   -5.6902    0.0196 H   0  0  0  0  0  0  0  0  0  0  0  0
    3.9513   -7.3058    1.1719 H   0  0  0  0  0  0  0  0  0  0  0  0
    5.2241   -6.7801    2.2329 H   0  0  0  0  0  0  0  0  0  0  0  0
    3.1226   -7.7972    3.1928 H   0  0  0  0  0  0  0  0  0  0  0  0
    3.6472   -6.3264    3.9502 H   0  0  0  0  0  0  0  0  0  0  0  0
    1.3960   -6.1027    4.7918 H   0  0  0  0  0  0  0  0  0  0  0  0
    0.1144   -5.6595    3.6806 H   0  0  0  0  0  0  0  0  0  0  0  0
    1.1781   -8.5170    3.9259 H   0  0  0  0  0  0  0  0  0  0  0  0
   -1.2125   -7.3196    2.3523 H   0  0  0  0  0  0  0  0  0  0  0  0
   -0.6981   -9.0822    2.4409 H   0  0  0  0  0  0  0  0  0  0  0  0
   -0.9481   -9.0529    4.9485 H   0  0  0  0  0  0  0  0  0  0  0  0
   -1.4655   -7.2817    4.8879 H   0  0  0  0  0  0  0  0  0  0  0  0
    1.1617   -4.2016    2.3486 H   0  0  0  0  0  0  0  0  0  0  0  0
    2.5434   -2.9479    3.5922 H   0  0  0  0  0  0  0  0  0  0  0  0
    2.8016   -4.3982    4.4831 H   0  0  0  0  0  0  0  0  0  0  0  0
    4.9939   -2.3062    4.8223 H   0  0  0  0  0  0  0  0  0  0  0  0
    5.5076   -0.4560    3.2792 H   0  0  0  0  0  0  0  0  0  0  0  0
    4.1028   -0.5754    0.0007 H   0  0  0  0  0  0  0  0  0  0  0  0
    2.3856   -2.4828    0.3522 H   0  0  0  0  0  0  0  0  0  0  0  0
    2.3853   -5.4817   -0.8067 H   0  0  0  0  0  0  0  0  0  0  0  0
  1  2  2  0
  2 22  1  0
  2  3  1  0
  3  4  1  0
  3 25  1  0
  3 26  1  0
  5  4  1  6
  4 27  1  0
  4 28  1  0
  5 21  1  0
  5 23  1  0
  5  6  1  0
  6  7  1  0
  6 29  1  0
  6 30  1  0
  7  8  1  0
  7 31  1  0
  7 32  1  0
  8  9  1  0
  8 13  1  0
  9 10  1  0
  9 33  1  0
  9 34  1  0
 10 12  1  0
 10 11  1  0
 10 35  1  0
 11 12  1  0
 11 36  1  0
 11 37  1  0
 12 38  1  0
 12 39  1  0
 13 23  1  0
 13 14  1  0
 13 40  1  6
 14 15  1  0
 14 41  1  0
 14 42  1  0
 15 21  2  0
 15 16  1  0
 16 17  2  0
 16 43  1  0
 17 18  1  0
 17 44  1  0
 18 19  1  0
 18 20  2  0
 19 45  1  0
 20 21  1  0
 20 22  1  0
 22 23  1  0
 22 46  1  6
 23 24  1  6
 24 47  1  0
M  END
>  <i_m_ct_stereo_status>  (327) 
1

>  <s_m_source_file>  (327) 
/var/tmp/pbs.5076255.sched01/tmpybatibx8/138x0dlab3k.sdf

>  <i_m_source_file_index>  (327) 
1

>  <i_lp_mmshare_version>  (327) 
48012

>  <i_f3d_flags>  (327) 
0

>  <s_epik_input>  (327) 
W0NIMl0xW0NIMl1bQ0hdMVtDSDJdTihbQ0gyXVtDSDJdMilbQ0BASF0oW0NIMl0zKVtDQEBdNChbT0hdKVtDQEhdKEMoPU8pW0NIMl1bQ0gyXTUpYzZjKFtPSF0pW2NIXVtjSF1jM2M2W0NAQF0yNDU=

>  <s_epik_cmdline>  (327) 
J2VwaWtfcHl0aG9uJywgJy1waHQnLCAnMi4wJywgJy1waCcsICc3LjAnLCAnLXRuJywgJzgnLCAnLW1hJywgJzIwMCcsICctaW1hZScsICc8aW5maWxlLm1hZT4nLCAnLW9tYWUnLCAnPG91dGZpbGUubWFlPic=

>  <r_lp_tautomer_probability>  (327) 
1

>  <r_epik_Ionization_Penalty>  (327) 
1.80502

>  <r_epik_Ionization_Penalty_Charging>  (327) 
0

>  <r_epik_Ionization_Penalty_Neutral>  (327) 
1.80502

>  <r_epik_State_Penalty>  (327) 
1.91898

>  <r_epik_Charging_Adjusted_Penalty>  (327) 
1.91898

>  <i_epik_Tot_Q>  (327) 
0

>  <i_epik_Tot_abs_Q>  (327) 
0

>  <s_lp_Force_Field>  (327) 
OPLS3e

>  <r_lp_Energy>  (327) 
149.368

>  <b_lp_Chiralities_Consistent>  (327) 
1

>  <s_lp_Variant>  (327) 
94:0-2

>  <s_i_glide_gridfile>  (327) 
pfpi4k_grid

>  <i_i_glide_lignum>  (327) 
1

>  <i_i_glide_rotatable_bonds>  (327) 
4

>  <r_i_docking_score>  (327) 
-3.40664

>  <r_i_glide_ligand_efficiency>  (327) 
-0.141943

>  <r_i_glide_ligand_efficiency_sa>  (327) 
-0.409435

>  <r_i_glide_ligand_efficiency_ln>  (327) 
-0.815365

>  <r_i_glide_gscore>  (327) 
-3.40664

>  <r_i_glide_lipo>  (327) 
-0.29852

>  <r_i_glide_hbond>  (327) 
-0.362716

>  <r_i_glide_metal>  (327) 
-0

>  <r_i_glide_rewards>  (327) 
-1.22979

>  <r_i_glide_evdw>  (327) 
-20.6313

>  <r_i_glide_ecoul>  (327) 
-5.58681

>  <r_i_glide_erotb>  (327) 
0.353979

>  <r_i_glide_esite>  (327) 
0

>  <r_i_glide_emodel>  (327) 
-31.9247

>  <r_i_glide_energy>  (327) 
-26.2181

>  <r_i_glide_einternal>  (327) 
0.494846

>  <r_i_glide_intrahb_reward>  (327) 
-0

>  <i_i_glide_confnum>  (327) 
4

>  <i_i_glide_posenum>  (327) 
6

>  <r_i_glide_eff_state_penalty>  (327) 
0

>  <ligand_id>  (327) 
94

>  <original_smiles>  (327) 
O=C1CCC23CCN(CC4CC4)C4Cc5ccc(O)c(c52)C1C43O

>  <smiles>  (327) 
[H]Oc1c([H])c([H])c2c3c1C1([H])C(=O)C([H])([H])C([H])([H])C34C([H])([H])C([H])([H])N(C([H])([H])C3([H])C([H])([H])C3([H])[H])C([H])(C2([H])[H])C14O[H]

$$$$
95:0:0
     RDKit          3D

 95101  0  0  1  0  0  0  0  0999 V2000
    1.3970   -3.0965    5.4191 C   0  0  0  0  0  0  0  0  0  0  0  0
    2.0497   -4.2727    4.9236 O   0  0  0  0  0  0  0  0  0  0  0  0
    3.1948   -4.3171    4.0274 C   0  0  2  0  0  0  0  0  0  0  0  0
    4.2153   -3.3024    4.6500 C   0  0  1  0  0  0  0  0  0  0  0  0
    5.6844   -3.7165    4.8604 C   0  0  0  0  0  0  0  0  0  0  0  0
    3.9828   -1.9847    3.8578 C   0  0  1  0  0  0  0  0  0  0  0  0
    5.0531   -0.8999    3.9604 C   0  0  0  0  0  0  0  0  0  0  0  0
    5.5690   -0.2601    2.9038 C   0  0  0  0  0  0  0  0  0  0  0  0
    5.2071   -0.6037    1.4628 C   0  0  1  0  0  0  0  0  0  0  0  0
    6.3468   -0.2568    0.5089 C   0  0  0  0  0  0  0  0  0  0  0  0
    4.6693   -2.0721    1.3299 C   0  0  1  0  0  0  0  0  0  0  0  0
    4.1519   -2.0988    0.0104 O   0  0  0  0  0  0  0  0  0  0  0  0
    5.8909   -3.0754    1.3824 C   0  0  0  0  0  0  0  0  0  0  0  0
    6.8409   -3.2130    0.1236 C   0  0  0  0  0  0  0  0  0  0  0  0
    8.0834   -4.0437    0.4419 C   0  0  0  0  0  0  0  0  0  0  0  0
    7.9041   -5.4799    0.9104 C   0  0  0  0  0  0  0  0  0  0  0  0
    9.1985   -3.5301    0.4227 O   0  0  0  0  0  0  0  0  0  0  0  0
    3.4772   -2.2916    2.4102 C   0  0  2  0  0  0  0  0  0  0  0  0
    2.3688   -1.1939    2.1359 C   0  0  0  0  0  0  0  0  0  0  0  0
    2.8491   -3.7569    2.5745 C   0  0  2  0  0  0  0  0  0  0  0  0
    1.4268   -3.6210    2.5920 O   0  0  0  0  0  0  0  0  0  0  0  0
    3.0876   -4.7202    1.4202 C   0  0  0  0  0  0  0  0  0  0  0  0
    2.7075   -5.9983    1.3555 C   0  0  0  0  0  0  0  0  0  0  0  0
    1.8325   -6.7222    2.3521 C   0  0  1  0  0  0  0  0  0  0  0  0
    1.1353   -7.9099    1.6578 C   0  0  2  0  0  0  0  0  0  0  0  0
   -0.3346   -7.8526    1.9288 C   0  0  0  0  0  0  0  0  0  0  0  0
   -0.7582   -8.8631    2.6655 C   0  0  0  0  0  0  0  0  0  0  0  0
   -2.1872   -9.1594    2.9888 C   0  0  0  0  0  0  0  0  0  0  0  0
    0.3675   -9.7667    2.9578 C   0  0  0  0  0  0  0  0  0  0  0  0
    0.3890  -10.7419    3.7039 O   0  0  0  0  0  0  0  0  0  0  0  0
    1.5587   -9.3299    2.1185 C   0  0  2  0  0  0  0  0  0  0  0  0
    2.9580   -9.4125    2.7746 C   0  0  1  0  0  0  0  0  0  0  0  0
    3.1265  -10.7320    3.3102 O   0  0  0  0  0  0  0  0  0  0  0  0
    4.0127   -9.3357    1.6478 C   0  0  0  0  0  0  0  0  0  0  0  0
    5.3978   -9.5260    2.2224 C   0  0  0  0  0  0  0  0  0  0  0  0
    6.3353  -10.4600    1.4901 C   0  0  0  0  0  0  0  0  0  0  0  0
    5.7103   -8.8917    3.3614 C   0  0  0  0  0  0  0  0  0  0  0  0
    4.7155   -8.0091    4.1083 C   0  0  1  0  0  0  0  0  0  0  0  0
    4.8850   -6.5080    3.8385 C   0  0  1  0  0  0  0  0  0  0  0  0
    5.3150   -6.2920    2.5147 O   0  0  0  0  0  0  0  0  0  0  0  0
    3.5087   -5.8788    4.2047 C   0  0  2  0  0  0  0  0  0  0  0  0
    2.4342   -6.9633    3.7804 C   0  0  1  0  0  0  0  0  0  0  0  0
    1.2356   -6.9208    4.7856 C   0  0  0  0  0  0  0  0  0  0  0  0
    3.2079   -8.3452    3.9092 C   0  0  1  0  0  0  0  0  0  0  0  0
    2.8501   -8.9812    5.1300 O   0  0  0  0  0  0  0  0  0  0  0  0
    0.4980   -3.4318    5.9272 H   0  0  0  0  0  0  0  0  0  0  0  0
    1.0663   -2.3956    4.6585 H   0  0  0  0  0  0  0  0  0  0  0  0
    1.9799   -2.5483    6.1556 H   0  0  0  0  0  0  0  0  0  0  0  0
    3.9343   -3.0747    5.6837 H   0  0  0  0  0  0  0  0  0  0  0  0
    6.2078   -4.1131    3.9896 H   0  0  0  0  0  0  0  0  0  0  0  0
    5.7437   -4.4098    5.7012 H   0  0  0  0  0  0  0  0  0  0  0  0
    6.2089   -2.8384    5.2216 H   0  0  0  0  0  0  0  0  0  0  0  0
    3.1714   -1.4640    4.3732 H   0  0  0  0  0  0  0  0  0  0  0  0
    5.3438   -0.6092    4.9669 H   0  0  0  0  0  0  0  0  0  0  0  0
    6.2964    0.5262    3.0796 H   0  0  0  0  0  0  0  0  0  0  0  0
    4.4487    0.1331    1.1788 H   0  0  0  0  0  0  0  0  0  0  0  0
    6.4238    0.8194    0.4867 H   0  0  0  0  0  0  0  0  0  0  0  0
    6.1507   -0.5710   -0.5144 H   0  0  0  0  0  0  0  0  0  0  0  0
    7.2826   -0.6947    0.8505 H   0  0  0  0  0  0  0  0  0  0  0  0
    3.5593   -2.8312   -0.0567 H   0  0  0  0  0  0  0  0  0  0  0  0
    6.4719   -2.7995    2.2745 H   0  0  0  0  0  0  0  0  0  0  0  0
    5.5017   -4.0751    1.5523 H   0  0  0  0  0  0  0  0  0  0  0  0
    6.3025   -3.6561   -0.7342 H   0  0  0  0  0  0  0  0  0  0  0  0
    7.3088   -2.2664   -0.1715 H   0  0  0  0  0  0  0  0  0  0  0  0
    7.3777   -5.4606    1.8734 H   0  0  0  0  0  0  0  0  0  0  0  0
    8.8651   -6.0012    1.0511 H   0  0  0  0  0  0  0  0  0  0  0  0
    7.2990   -5.9911    0.1561 H   0  0  0  0  0  0  0  0  0  0  0  0
    1.9305   -1.2938    1.1471 H   0  0  0  0  0  0  0  0  0  0  0  0
    2.7303   -0.1706    2.2290 H   0  0  0  0  0  0  0  0  0  0  0  0
    1.5506   -1.2065    2.8537 H   0  0  0  0  0  0  0  0  0  0  0  0
    1.2544   -2.8341    3.0578 H   0  0  0  0  0  0  0  0  0  0  0  0
    3.6167   -4.3756    0.5592 H   0  0  0  0  0  0  0  0  0  0  0  0
    2.9540   -6.5505    0.4632 H   0  0  0  0  0  0  0  0  0  0  0  0
    1.0279   -6.0031    2.4915 H   0  0  0  0  0  0  0  0  0  0  0  0
    1.2010   -7.8544    0.5710 H   0  0  0  0  0  0  0  0  0  0  0  0
   -0.9813   -7.0965    1.5138 H   0  0  0  0  0  0  0  0  0  0  0  0
   -2.2570   -9.2621    4.0647 H   0  0  0  0  0  0  0  0  0  0  0  0
   -2.4104  -10.0620    2.4568 H   0  0  0  0  0  0  0  0  0  0  0  0
   -2.8862   -8.3580    2.7157 H   0  0  0  0  0  0  0  0  0  0  0  0
    1.5265  -10.0207    1.2708 H   0  0  0  0  0  0  0  0  0  0  0  0
    2.3144  -10.9744    3.7533 H   0  0  0  0  0  0  0  0  0  0  0  0
    3.7836  -10.0767    0.8857 H   0  0  0  0  0  0  0  0  0  0  0  0
    3.9882   -8.3732    1.1438 H   0  0  0  0  0  0  0  0  0  0  0  0
    5.8919  -11.4547    1.4472 H   0  0  0  0  0  0  0  0  0  0  0  0
    7.2789  -10.5517    2.0250 H   0  0  0  0  0  0  0  0  0  0  0  0
    6.5303  -10.1217    0.4722 H   0  0  0  0  0  0  0  0  0  0  0  0
    6.6966   -8.9911    3.7919 H   0  0  0  0  0  0  0  0  0  0  0  0
    4.9615   -8.1826    5.1573 H   0  0  0  0  0  0  0  0  0  0  0  0
    5.6925   -6.2095    4.4950 H   0  0  0  0  0  0  0  0  0  0  0  0
    4.6596   -6.6906    1.9553 H   0  0  0  0  0  0  0  0  0  0  0  0
    3.5585   -5.9777    5.2914 H   0  0  0  0  0  0  0  0  0  0  0  0
    1.5787   -6.8363    5.8186 H   0  0  0  0  0  0  0  0  0  0  0  0
    0.6155   -7.8125    4.7480 H   0  0  0  0  0  0  0  0  0  0  0  0
    0.5663   -6.0860    4.5974 H   0  0  0  0  0  0  0  0  0  0  0  0
    3.2714   -9.8316    5.0948 H   0  0  0  0  0  0  0  0  0  0  0  0
  1  2  1  0
  1 46  1  0
  1 47  1  0
  1 48  1  0
  3  2  1  1
  3 20  1  0
  3 41  1  0
  3  4  1  0
  4  5  1  0
  4  6  1  0
  4 49  1  1
  5 50  1  0
  5 51  1  0
  5 52  1  0
  6 18  1  0
  6  7  1  0
  6 53  1  1
  7  8  2  0
  7 54  1  0
  8  9  1  0
  8 55  1  0
  9 10  1  0
  9 11  1  0
  9 56  1  6
 10 57  1  0
 10 58  1  0
 10 59  1  0
 11 12  1  6
 11 13  1  0
 11 18  1  0
 12 60  1  0
 13 14  1  0
 13 61  1  0
 13 62  1  0
 14 15  1  0
 14 63  1  0
 14 64  1  0
 15 16  1  0
 15 17  2  0
 16 65  1  0
 16 66  1  0
 16 67  1  0
 18 19  1  6
 18 20  1  0
 19 68  1  0
 19 69  1  0
 19 70  1  0
 20 21  1  1
 20 22  1  0
 21 71  1  0
 22 23  2  0
 22 72  1  0
 23 24  1  0
 23 73  1  0
 24 42  1  0
 24 25  1  0
 24 74  1  1
 25 31  1  0
 25 26  1  0
 25 75  1  6
 26 27  2  0
 26 76  1  0
 27 28  1  0
 27 29  1  0
 28 77  1  0
 28 78  1  0
 28 79  1  0
 29 30  2  0
 29 31  1  0
 31 32  1  0
 31 80  1  6
 32 44  1  0
 32 33  1  1
 32 34  1  0
 33 81  1  0
 34 35  1  0
 34 82  1  0
 34 83  1  0
 35 36  1  0
 35 37  2  0
 36 84  1  0
 36 85  1  0
 36 86  1  0
 37 38  1  0
 37 87  1  0
 38 44  1  0
 38 39  1  0
 38 88  1  1
 39 40  1  0
 39 41  1  0
 39 89  1  1
 40 90  1  0
 41 42  1  0
 41 91  1  1
 42 43  1  1
 42 44  1  0
 43 92  1  0
 43 93  1  0
 43 94  1  0
 44 45  1  1
 45 95  1  0
M  END
>  <i_m_ct_stereo_status>  (328) 
1

>  <s_m_source_file>  (328) 
/var/tmp/pbs.5076255.sched01/tmpybatibx8/138x0dlab3k.sdf

>  <i_m_source_file_index>  (328) 
2

>  <i_lp_mmshare_version>  (328) 
48012

>  <i_f3d_flags>  (328) 
0

>  <s_epik_input>  (328) 
W0NIM11DKD1PKVtDSDJdW0NIMl1bQ0BdMShbT0hdKVtDQEhdKFtDSDNdKVtDSF09W0NIXVtDQEhdKFtDQEBIXTJbQ0gzXSlbQ0BdMShbQ0gzXSlbQ0BdKFtPSF0pKFtDQF0yM09bQ0gzXSlbQ0hdPVtDSF1bQ0BIXTRbQ0BIXTVbQ0BIXShDKD1PKUMoPVtDSF01KVtDSDNdKVtDQF02KFtPSF0pW0NAQF03KFtPSF0pW0NAQEhdKFtDSF09QyhbQ0gyXTYpW0NIM10pW0NAQEhdKFtPSF0pW0NAQEhdM1tDQEBdNDdbQ0gzXQ==

>  <s_epik_cmdline>  (328) 
J2VwaWtfcHl0aG9uJywgJy1waHQnLCAnMi4wJywgJy1waCcsICc3LjAnLCAnLXRuJywgJzgnLCAnLW1hJywgJzIwMCcsICctaW1hZScsICc8aW5maWxlLm1hZT4nLCAnLW9tYWUnLCAnPG91dGZpbGUubWFlPic=

>  <r_lp_tautomer_probability>  (328) 
0.499977

>  <r_epik_Ionization_Penalty>  (328) 
3.21686e-07

>  <r_epik_Ionization_Penalty_Charging>  (328) 
0

>  <r_epik_Ionization_Penalty_Neutral>  (328) 
3.21686e-07

>  <r_epik_State_Penalty>  (328) 
0.41068

>  <r_epik_Charging_Adjusted_Penalty>  (328) 
0.41068

>  <i_epik_Tot_Q>  (328) 
0

>  <i_epik_Tot_abs_Q>  (328) 
0

>  <s_lp_Force_Field>  (328) 
OPLS3e

>  <r_lp_Energy>  (328) 
126.796

>  <b_lp_Chiralities_Consistent>  (328) 
1

>  <s_lp_Variant>  (328) 
95:0-1

>  <s_i_glide_gridfile>  (328) 
pfpi4k_grid

>  <i_i_glide_lignum>  (328) 
2

>  <i_i_glide_rotatable_bonds>  (328) 
9

>  <r_i_docking_score>  (328) 
-2.59252

>  <r_i_glide_ligand_efficiency>  (328) 
-0.0576115

>  <r_i_glide_ligand_efficiency_sa>  (328) 
-0.204918

>  <r_i_glide_ligand_efficiency_ln>  (328) 
-0.53936

>  <r_i_glide_gscore>  (328) 
-2.59252

>  <r_i_glide_lipo>  (328) 
-0.775064

>  <r_i_glide_hbond>  (328) 
-0.0878545

>  <r_i_glide_metal>  (328) 
-0

>  <r_i_glide_rewards>  (328) 
-0.770551

>  <r_i_glide_evdw>  (328) 
-23.8947

>  <r_i_glide_ecoul>  (328) 
0.883727

>  <r_i_glide_erotb>  (328) 
0.108854

>  <r_i_glide_esite>  (328) 
-0.00573026

>  <r_i_glide_emodel>  (328) 
-27.2569

>  <r_i_glide_energy>  (328) 
-23.0109

>  <r_i_glide_einternal>  (328) 
5.24769

>  <r_i_glide_intrahb_reward>  (328) 
-0.5

>  <i_i_glide_confnum>  (328) 
2

>  <i_i_glide_posenum>  (328) 
23

>  <r_i_glide_eff_state_penalty>  (328) 
0

>  <ligand_id>  (328) 
95

>  <original_smiles>  (328) 
COC12C(C)C3C=CC(C)C(O)(CCC(C)=O)C3(C)C1(O)C=CC1C3C=C(C)C(=O)C3C3(O)CC(C)=CC4C(O)C2C1(C)C43O

>  <smiles>  (328) 
[H]OC1([H])C2([H])C([H])=C(C([H])([H])[H])C([H])([H])C3(O[H])C4([H])C(=O)C(C([H])([H])[H])=C([H])C4([H])C4([H])C([H])=C([H])C5(O[H])C(OC([H])([H])[H])(C([H])(C([H])([H])[H])C6([H])C([H])=C([H])C([H])(C([H])([H])[H])C(O[H])(C([H])([H])C([H])([H])C(=O)C([H])([H])[H])C65C([H])([H])[H])C1([H])C4(C([H])([H])[H])C23O[H]

$$$$
95:0:1
     RDKit          3D

 95101  0  0  1  0  0  0  0  0999 V2000
    1.4337   -2.9238    5.5360 C   0  0  0  0  0  0  0  0  0  0  0  0
    2.0906   -4.1002    5.0286 O   0  0  0  0  0  0  0  0  0  0  0  0
    3.1968   -4.1438    4.0844 C   0  0  2  0  0  0  0  0  0  0  0  0
    4.2109   -3.1277    4.6855 C   0  0  1  0  0  0  0  0  0  0  0  0
    5.6640   -3.5414    4.8731 C   0  0  0  0  0  0  0  0  0  0  0  0
    3.9725   -1.8091    3.9063 C   0  0  1  0  0  0  0  0  0  0  0  0
    5.0426   -0.7573    4.0005 C   0  0  0  0  0  0  0  0  0  0  0  0
    5.5298   -0.1137    2.9241 C   0  0  0  0  0  0  0  0  0  0  0  0
    5.1040   -0.4110    1.4826 C   0  0  1  0  0  0  0  0  0  0  0  0
    6.2061   -0.0605    0.5033 C   0  0  0  0  0  0  0  0  0  0  0  0
    4.5706   -1.8585    1.3555 C   0  0  1  0  0  0  0  0  0  0  0  0
    4.0087   -1.8780    0.0588 O   0  0  0  0  0  0  0  0  0  0  0  0
    5.7917   -2.8600    1.3690 C   0  0  0  0  0  0  0  0  0  0  0  0
    6.6454   -3.0457    0.0591 C   0  0  0  0  0  0  0  0  0  0  0  0
    7.7916   -4.0320    0.2349 C   0  0  0  0  0  0  0  0  0  0  0  0
    8.9174   -3.8864   -0.7658 C   0  0  0  0  0  0  0  0  0  0  0  0
    7.8722   -4.8098    1.1940 O   0  0  0  0  0  0  0  0  0  0  0  0
    3.4235   -2.0848    2.4760 C   0  0  2  0  0  0  0  0  0  0  0  0
    2.3158   -0.9801    2.2422 C   0  0  0  0  0  0  0  0  0  0  0  0
    2.7939   -3.5577    2.6439 C   0  0  2  0  0  0  0  0  0  0  0  0
    1.4029   -3.3790    2.7071 O   0  0  0  0  0  0  0  0  0  0  0  0
    3.0031   -4.4869    1.4578 C   0  0  0  0  0  0  0  0  0  0  0  0
    2.6137   -5.7747    1.3708 C   0  0  0  0  0  0  0  0  0  0  0  0
    1.7683   -6.5042    2.3801 C   0  0  1  0  0  0  0  0  0  0  0  0
    1.0621   -7.6967    1.6717 C   0  0  2  0  0  0  0  0  0  0  0  0
   -0.3993   -7.6508    2.0116 C   0  0  0  0  0  0  0  0  0  0  0  0
   -0.7980   -8.6615    2.7716 C   0  0  0  0  0  0  0  0  0  0  0  0
   -2.2077   -8.8759    3.2362 C   0  0  0  0  0  0  0  0  0  0  0  0
    0.3361   -9.5570    3.0069 C   0  0  0  0  0  0  0  0  0  0  0  0
    0.4014  -10.5023    3.7910 O   0  0  0  0  0  0  0  0  0  0  0  0
    1.5013   -9.1236    2.1154 C   0  0  2  0  0  0  0  0  0  0  0  0
    2.9179   -9.2171    2.7267 C   0  0  1  0  0  0  0  0  0  0  0  0
    3.1182  -10.5546    3.2089 O   0  0  0  0  0  0  0  0  0  0  0  0
    3.9432   -9.1342    1.5818 C   0  0  0  0  0  0  0  0  0  0  0  0
    5.3376   -9.3198    2.1256 C   0  0  0  0  0  0  0  0  0  0  0  0
    6.2614  -10.2413    1.3633 C   0  0  0  0  0  0  0  0  0  0  0  0
    5.6744   -8.6953    3.2632 C   0  0  0  0  0  0  0  0  0  0  0  0
    4.7019   -7.8236    4.0439 C   0  0  1  0  0  0  0  0  0  0  0  0
    4.8785   -6.3252    3.7953 C   0  0  1  0  0  0  0  0  0  0  0  0
    5.3004   -6.0794    2.4728 O   0  0  0  0  0  0  0  0  0  0  0  0
    3.5142   -5.7029    4.1982 C   0  0  2  0  0  0  0  0  0  0  0  0
    2.4157   -6.7730    3.7925 C   0  0  1  0  0  0  0  0  0  0  0  0
    1.2485   -6.7352    4.8329 C   0  0  0  0  0  0  0  0  0  0  0  0
    3.1908   -8.1604    3.8802 C   0  0  1  0  0  0  0  0  0  0  0  0
    2.8608   -8.7939    5.1245 O   0  0  0  0  0  0  0  0  0  0  0  0
    0.5469   -3.2670    6.0574 H   0  0  0  0  0  0  0  0  0  0  0  0
    1.0717   -2.2086    4.8052 H   0  0  0  0  0  0  0  0  0  0  0  0
    2.0342   -2.3727    6.2502 H   0  0  0  0  0  0  0  0  0  0  0  0
    3.9644   -2.9184    5.7145 H   0  0  0  0  0  0  0  0  0  0  0  0
    6.1050   -3.9145    3.9373 H   0  0  0  0  0  0  0  0  0  0  0  0
    5.7451   -4.3168    5.6571 H   0  0  0  0  0  0  0  0  0  0  0  0
    6.2117   -2.6800    5.2494 H   0  0  0  0  0  0  0  0  0  0  0  0
    3.1778   -1.2936    4.4447 H   0  0  0  0  0  0  0  0  0  0  0  0
    5.3568   -0.4582    4.9923 H   0  0  0  0  0  0  0  0  0  0  0  0
    6.2330    0.6810    3.1144 H   0  0  0  0  0  0  0  0  0  0  0  0
    4.3419    0.3426    1.2443 H   0  0  0  0  0  0  0  0  0  0  0  0
    6.3162    1.0132    0.4938 H   0  0  0  0  0  0  0  0  0  0  0  0
    5.9591   -0.3497   -0.5504 H   0  0  0  0  0  0  0  0  0  0  0  0
    7.1280   -0.5233    0.7872 H   0  0  0  0  0  0  0  0  0  0  0  0
    3.2092   -2.3789    0.0744 H   0  0  0  0  0  0  0  0  0  0  0  0
    6.4669   -2.5387    2.1718 H   0  0  0  0  0  0  0  0  0  0  0  0
    5.4431   -3.8430    1.6293 H   0  0  0  0  0  0  0  0  0  0  0  0
    6.0171   -3.3264   -0.7961 H   0  0  0  0  0  0  0  0  0  0  0  0
    7.1980   -2.1487   -0.2062 H   0  0  0  0  0  0  0  0  0  0  0  0
    8.5214   -3.8923   -1.7825 H   0  0  0  0  0  0  0  0  0  0  0  0
    9.6045   -4.7159   -0.6599 H   0  0  0  0  0  0  0  0  0  0  0  0
    9.4386   -2.9301   -0.6332 H   0  0  0  0  0  0  0  0  0  0  0  0
    1.8278   -1.0612    1.2699 H   0  0  0  0  0  0  0  0  0  0  0  0
    2.6786    0.0433    2.3306 H   0  0  0  0  0  0  0  0  0  0  0  0
    1.5263   -0.9794    2.9934 H   0  0  0  0  0  0  0  0  0  0  0  0
    1.2953   -2.5022    2.4265 H   0  0  0  0  0  0  0  0  0  0  0  0
    3.5046   -4.1364    0.5815 H   0  0  0  0  0  0  0  0  0  0  0  0
    2.8306   -6.3095    0.4706 H   0  0  0  0  0  0  0  0  0  0  0  0
    0.9778   -5.7789    2.5604 H   0  0  0  0  0  0  0  0  0  0  0  0
    1.0881   -7.6250    0.5883 H   0  0  0  0  0  0  0  0  0  0  0  0
   -1.0758   -6.8811    1.6772 H   0  0  0  0  0  0  0  0  0  0  0  0
   -2.2334   -8.9422    4.3331 H   0  0  0  0  0  0  0  0  0  0  0  0
   -2.5949   -9.7801    2.7440 H   0  0  0  0  0  0  0  0  0  0  0  0
   -2.8940   -8.0880    2.9064 H   0  0  0  0  0  0  0  0  0  0  0  0
    1.4666   -9.8067    1.2675 H   0  0  0  0  0  0  0  0  0  0  0  0
    2.3734  -10.8010    3.7466 H   0  0  0  0  0  0  0  0  0  0  0  0
    3.7123   -9.8929    0.8358 H   0  0  0  0  0  0  0  0  0  0  0  0
    3.8962   -8.1763    1.0735 H   0  0  0  0  0  0  0  0  0  0  0  0
    5.8225  -11.2311    1.3092 H   0  0  0  0  0  0  0  0  0  0  0  0
    7.2091  -10.3265    1.8915 H   0  0  0  0  0  0  0  0  0  0  0  0
    6.4443   -9.8736    0.3565 H   0  0  0  0  0  0  0  0  0  0  0  0
    6.6657   -8.7868    3.6716 H   0  0  0  0  0  0  0  0  0  0  0  0
    4.9676   -8.0114    5.0835 H   0  0  0  0  0  0  0  0  0  0  0  0
    5.7032   -6.0451    4.4394 H   0  0  0  0  0  0  0  0  0  0  0  0
    4.6257   -6.3894    1.8876 H   0  0  0  0  0  0  0  0  0  0  0  0
    3.5905   -5.8128    5.2762 H   0  0  0  0  0  0  0  0  0  0  0  0
    1.6191   -6.6651    5.8601 H   0  0  0  0  0  0  0  0  0  0  0  0
    0.6157   -7.6169    4.8107 H   0  0  0  0  0  0  0  0  0  0  0  0
    0.5733   -5.8916    4.6851 H   0  0  0  0  0  0  0  0  0  0  0  0
    2.0326   -9.2433    5.0292 H   0  0  0  0  0  0  0  0  0  0  0  0
  1  2  1  0
  1 46  1  0
  1 47  1  0
  1 48  1  0
  3  2  1  1
  3 20  1  0
  3 41  1  0
  3  4  1  0
  4  5  1  0
  4  6  1  0
  4 49  1  1
  5 50  1  0
  5 51  1  0
  5 52  1  0
  6 18  1  0
  6  7  1  0
  6 53  1  1
  7  8  2  0
  7 54  1  0
  8  9  1  0
  8 55  1  0
  9 10  1  0
  9 11  1  0
  9 56  1  6
 10 57  1  0
 10 58  1  0
 10 59  1  0
 11 12  1  6
 11 13  1  0
 11 18  1  0
 12 60  1  0
 13 14  1  0
 13 61  1  0
 13 62  1  0
 14 15  1  0
 14 63  1  0
 14 64  1  0
 15 16  1  0
 15 17  2  0
 16 65  1  0
 16 66  1  0
 16 67  1  0
 18 19  1  6
 18 20  1  0
 19 68  1  0
 19 69  1  0
 19 70  1  0
 20 21  1  1
 20 22  1  0
 21 71  1  0
 22 23  2  0
 22 72  1  0
 23 24  1  0
 23 73  1  0
 24 42  1  0
 24 25  1  0
 24 74  1  1
 25 31  1  0
 25 26  1  0
 25 75  1  6
 26 27  2  0
 26 76  1  0
 27 28  1  0
 27 29  1  0
 28 77  1  0
 28 78  1  0
 28 79  1  0
 29 30  2  0
 29 31  1  0
 31 32  1  0
 31 80  1  6
 32 44  1  0
 32 33  1  1
 32 34  1  0
 33 81  1  0
 34 35  1  0
 34 82  1  0
 34 83  1  0
 35 36  1  0
 35 37  2  0
 36 84  1  0
 36 85  1  0
 36 86  1  0
 37 38  1  0
 37 87  1  0
 38 44  1  0
 38 39  1  0
 38 88  1  1
 39 40  1  0
 39 41  1  0
 39 89  1  1
 40 90  1  0
 41 42  1  0
 41 91  1  1
 42 43  1  1
 42 44  1  0
 43 92  1  0
 43 93  1  0
 43 94  1  0
 44 45  1  1
 45 95  1  0
M  END
>  <i_m_ct_stereo_status>  (329) 
1

>  <s_m_source_file>  (329) 
/var/tmp/pbs.5076255.sched01/tmpybatibx8/138x0dlab3k.sdf

>  <i_m_source_file_index>  (329) 
2

>  <i_lp_mmshare_version>  (329) 
48012

>  <i_f3d_flags>  (329) 
0

>  <s_epik_input>  (329) 
W0NIM11DKD1PKVtDSDJdW0NIMl1bQ0BdMShbT0hdKVtDQEhdKFtDSDNdKVtDSF09W0NIXVtDQEhdKFtDQEBIXTJbQ0gzXSlbQ0BdMShbQ0gzXSlbQ0BdKFtPSF0pKFtDQF0yM09bQ0gzXSlbQ0hdPVtDSF1bQ0BIXTRbQ0BIXTVbQ0BIXShDKD1PKUMoPVtDSF01KVtDSDNdKVtDQF02KFtPSF0pW0NAQF03KFtPSF0pW0NAQEhdKFtDSF09QyhbQ0gyXTYpW0NIM10pW0NAQEhdKFtPSF0pW0NAQEhdM1tDQEBdNDdbQ0gzXQ==

>  <s_epik_cmdline>  (329) 
J2VwaWtfcHl0aG9uJywgJy1waHQnLCAnMi4wJywgJy1waCcsICc3LjAnLCAnLXRuJywgJzgnLCAnLW1hJywgJzIwMCcsICctaW1hZScsICc8aW5maWxlLm1hZT4nLCAnLW9tYWUnLCAnPG91dGZpbGUubWFlPic=

>  <r_lp_tautomer_probability>  (329) 
0.499977

>  <r_epik_Ionization_Penalty>  (329) 
3.21686e-07

>  <r_epik_Ionization_Penalty_Charging>  (329) 
0

>  <r_epik_Ionization_Penalty_Neutral>  (329) 
3.21686e-07

>  <r_epik_State_Penalty>  (329) 
0.41068

>  <r_epik_Charging_Adjusted_Penalty>  (329) 
0.41068

>  <i_epik_Tot_Q>  (329) 
0

>  <i_epik_Tot_abs_Q>  (329) 
0

>  <s_lp_Force_Field>  (329) 
OPLS3e

>  <r_lp_Energy>  (329) 
126.796

>  <b_lp_Chiralities_Consistent>  (329) 
1

>  <s_lp_Variant>  (329) 
95:0-1

>  <s_i_glide_gridfile>  (329) 
pfpi4k_grid

>  <i_i_glide_lignum>  (329) 
2

>  <i_i_glide_rotatable_bonds>  (329) 
9

>  <r_i_docking_score>  (329) 
-2.28143

>  <r_i_glide_ligand_efficiency>  (329) 
-0.0506983

>  <r_i_glide_ligand_efficiency_sa>  (329) 
-0.180329

>  <r_i_glide_ligand_efficiency_ln>  (329) 
-0.474638

>  <r_i_glide_gscore>  (329) 
-2.28143

>  <r_i_glide_lipo>  (329) 
-0.657669

>  <r_i_glide_hbond>  (329) 
0

>  <r_i_glide_metal>  (329) 
-0

>  <r_i_glide_rewards>  (329) 
-0.731825

>  <r_i_glide_evdw>  (329) 
-25.7445

>  <r_i_glide_ecoul>  (329) 
2.02773

>  <r_i_glide_erotb>  (329) 
0.108854

>  <r_i_glide_esite>  (329) 
-0.0177181

>  <r_i_glide_emodel>  (329) 
-27.5349

>  <r_i_glide_energy>  (329) 
-23.7168

>  <r_i_glide_einternal>  (329) 
4.90041

>  <r_i_glide_intrahb_reward>  (329) 
-0.5

>  <i_i_glide_confnum>  (329) 
3

>  <i_i_glide_posenum>  (329) 
37

>  <r_i_glide_eff_state_penalty>  (329) 
0

>  <ligand_id>  (329) 
95

>  <original_smiles>  (329) 
COC12C(C)C3C=CC(C)C(O)(CCC(C)=O)C3(C)C1(O)C=CC1C3C=C(C)C(=O)C3C3(O)CC(C)=CC4C(O)C2C1(C)C43O

>  <smiles>  (329) 
[H]OC1([H])C2([H])C([H])=C(C([H])([H])[H])C([H])([H])C3(O[H])C4([H])C(=O)C(C([H])([H])[H])=C([H])C4([H])C4([H])C([H])=C([H])C5(O[H])C(OC([H])([H])[H])(C([H])(C([H])([H])[H])C6([H])C([H])=C([H])C([H])(C([H])([H])[H])C(O[H])(C([H])([H])C([H])([H])C(=O)C([H])([H])[H])C65C([H])([H])[H])C1([H])C4(C([H])([H])[H])C23O[H]

$$$$
95:0:2
     RDKit          3D

 95101  0  0  1  0  0  0  0  0999 V2000
    0.9646   -4.6393    7.4315 C   0  0  0  0  0  0  0  0  0  0  0  0
    1.9670   -5.0765    6.5023 O   0  0  0  0  0  0  0  0  0  0  0  0
    2.8146   -4.2303    5.6850 C   0  0  2  0  0  0  0  0  0  0  0  0
    3.3635   -3.1053    6.6443 C   0  0  1  0  0  0  0  0  0  0  0  0
    4.8812   -2.7614    6.7175 C   0  0  0  0  0  0  0  0  0  0  0  0
    2.4030   -1.9090    6.4524 C   0  0  1  0  0  0  0  0  0  0  0  0
    2.8641   -0.5498    6.9565 C   0  0  0  0  0  0  0  0  0  0  0  0
    2.8188    0.5777    6.2279 C   0  0  0  0  0  0  0  0  0  0  0  0
    2.3747    0.6338    4.7818 C   0  0  1  0  0  0  0  0  0  0  0  0
    3.0650    1.8243    4.0778 C   0  0  0  0  0  0  0  0  0  0  0  0
    2.4772   -0.7802    4.0944 C   0  0  1  0  0  0  0  0  0  0  0  0
    1.6820   -0.6284    2.9310 O   0  0  0  0  0  0  0  0  0  0  0  0
    3.9853   -1.0654    3.7161 C   0  0  0  0  0  0  0  0  0  0  0  0
    4.4705   -1.4869    2.2943 C   0  0  0  0  0  0  0  0  0  0  0  0
    4.0938   -0.6448    1.0817 C   0  0  0  0  0  0  0  0  0  0  0  0
    4.3141   -1.2801   -0.2794 C   0  0  0  0  0  0  0  0  0  0  0  0
    3.6382    0.4917    1.1824 O   0  0  0  0  0  0  0  0  0  0  0  0
    1.7857   -1.9189    5.0192 C   0  0  2  0  0  0  0  0  0  0  0  0
    0.2706   -1.5127    5.1979 C   0  0  0  0  0  0  0  0  0  0  0  0
    1.9091   -3.4737    4.5952 C   0  0  2  0  0  0  0  0  0  0  0  0
    0.6124   -4.0589    4.5947 O   0  0  0  0  0  0  0  0  0  0  0  0
    2.3672   -3.7301    3.1524 C   0  0  0  0  0  0  0  0  0  0  0  0
    2.6059   -4.9238    2.5779 C   0  0  0  0  0  0  0  0  0  0  0  0
    2.3902   -6.3001    3.1856 C   0  0  1  0  0  0  0  0  0  0  0  0
    2.1828   -7.3729    2.0760 C   0  0  2  0  0  0  0  0  0  0  0  0
    0.9330   -8.1998    2.3223 C   0  0  0  0  0  0  0  0  0  0  0  0
    1.1812   -9.4773    2.6030 C   0  0  0  0  0  0  0  0  0  0  0  0
    0.1906  -10.6092    2.8961 C   0  0  0  0  0  0  0  0  0  0  0  0
    2.6216   -9.6816    2.5569 C   0  0  0  0  0  0  0  0  0  0  0  0
    3.2411  -10.6878    2.9326 O   0  0  0  0  0  0  0  0  0  0  0  0
    3.2840   -8.4444    1.9504 C   0  0  2  0  0  0  0  0  0  0  0  0
    4.6712   -8.0210    2.5046 C   0  0  1  0  0  0  0  0  0  0  0  0
    5.5226   -9.1780    2.4596 O   0  0  0  0  0  0  0  0  0  0  0  0
    5.3533   -7.0613    1.4965 C   0  0  0  0  0  0  0  0  0  0  0  0
    6.7506   -6.7129    1.9640 C   0  0  0  0  0  0  0  0  0  0  0  0
    7.8536   -6.7410    0.9252 C   0  0  0  0  0  0  0  0  0  0  0  0
    6.9544   -6.4273    3.2601 C   0  0  0  0  0  0  0  0  0  0  0  0
    5.8347   -6.4567    4.2964 C   0  0  1  0  0  0  0  0  0  0  0  0
    5.2542   -5.0835    4.6534 C   0  0  1  0  0  0  0  0  0  0  0  0
    5.2834   -4.2117    3.5425 O   0  0  0  0  0  0  0  0  0  0  0  0
    3.8353   -5.3885    5.2157 C   0  0  2  0  0  0  0  0  0  0  0  0
    3.3113   -6.6526    4.4062 C   0  0  1  0  0  0  0  0  0  0  0  0
    2.4511   -7.5571    5.3567 C   0  0  0  0  0  0  0  0  0  0  0  0
    4.6394   -7.4135    3.9792 C   0  0  1  0  0  0  0  0  0  0  0  0
    4.8716   -8.5192    4.8533 O   0  0  0  0  0  0  0  0  0  0  0  0
    0.4312   -5.5227    7.7762 H   0  0  0  0  0  0  0  0  0  0  0  0
    0.2144   -3.9822    7.0035 H   0  0  0  0  0  0  0  0  0  0  0  0
    1.3722   -4.1610    8.3200 H   0  0  0  0  0  0  0  0  0  0  0  0
    3.2275   -3.4354    7.6672 H   0  0  0  0  0  0  0  0  0  0  0  0
    5.3705   -2.5336    5.7616 H   0  0  0  0  0  0  0  0  0  0  0  0
    5.4211   -3.5762    7.2246 H   0  0  0  0  0  0  0  0  0  0  0  0
    5.0622   -1.8952    7.3668 H   0  0  0  0  0  0  0  0  0  0  0  0
    1.5795   -2.0999    7.1355 H   0  0  0  0  0  0  0  0  0  0  0  0
    3.1774   -0.5078    7.9932 H   0  0  0  0  0  0  0  0  0  0  0  0
    3.1064    1.5213    6.6747 H   0  0  0  0  0  0  0  0  0  0  0  0
    1.3317    0.9431    4.8082 H   0  0  0  0  0  0  0  0  0  0  0  0
    2.7110    2.7718    4.4910 H   0  0  0  0  0  0  0  0  0  0  0  0
    2.8315    1.8577    3.0139 H   0  0  0  0  0  0  0  0  0  0  0  0
    4.1514    1.8345    4.1944 H   0  0  0  0  0  0  0  0  0  0  0  0
    1.8457   -1.3479    2.3434 H   0  0  0  0  0  0  0  0  0  0  0  0
    4.6243   -0.2337    4.0062 H   0  0  0  0  0  0  0  0  0  0  0  0
    4.3056   -1.8840    4.3647 H   0  0  0  0  0  0  0  0  0  0  0  0
    5.5793   -1.4896    2.3353 H   0  0  0  0  0  0  0  0  0  0  0  0
    4.1234   -2.4897    2.0937 H   0  0  0  0  0  0  0  0  0  0  0  0
    5.3693   -1.5323   -0.4001 H   0  0  0  0  0  0  0  0  0  0  0  0
    4.0216   -0.5768   -1.0609 H   0  0  0  0  0  0  0  0  0  0  0  0
    3.7130   -2.1876   -0.3883 H   0  0  0  0  0  0  0  0  0  0  0  0
   -0.2681   -1.4861    4.2498 H   0  0  0  0  0  0  0  0  0  0  0  0
    0.1559   -0.5436    5.6695 H   0  0  0  0  0  0  0  0  0  0  0  0
   -0.2919   -2.1855    5.8450 H   0  0  0  0  0  0  0  0  0  0  0  0
    0.7310   -4.9885    4.5495 H   0  0  0  0  0  0  0  0  0  0  0  0
    2.5082   -2.8824    2.4959 H   0  0  0  0  0  0  0  0  0  0  0  0
    2.9160   -4.9138    1.5462 H   0  0  0  0  0  0  0  0  0  0  0  0
    1.3982   -6.1714    3.5983 H   0  0  0  0  0  0  0  0  0  0  0  0
    2.0559   -6.9049    1.1002 H   0  0  0  0  0  0  0  0  0  0  0  0
   -0.0580   -7.7708    2.2578 H   0  0  0  0  0  0  0  0  0  0  0  0
    0.4442  -11.0797    3.8415 H   0  0  0  0  0  0  0  0  0  0  0  0
    0.2147  -11.3628    2.1111 H   0  0  0  0  0  0  0  0  0  0  0  0
   -0.8373  -10.2538    2.9621 H   0  0  0  0  0  0  0  0  0  0  0  0
    3.4139   -8.7119    0.8972 H   0  0  0  0  0  0  0  0  0  0  0  0
    4.9877   -9.9273    2.7048 H   0  0  0  0  0  0  0  0  0  0  0  0
    5.3719   -7.4932    0.4941 H   0  0  0  0  0  0  0  0  0  0  0  0
    4.7978   -6.1319    1.4220 H   0  0  0  0  0  0  0  0  0  0  0  0
    7.9250   -7.7390    0.4940 H   0  0  0  0  0  0  0  0  0  0  0  0
    8.8128   -6.5130    1.3817 H   0  0  0  0  0  0  0  0  0  0  0  0
    7.6612   -6.0254    0.1248 H   0  0  0  0  0  0  0  0  0  0  0  0
    7.9385   -6.1683    3.6191 H   0  0  0  0  0  0  0  0  0  0  0  0
    6.3280   -6.8201    5.1981 H   0  0  0  0  0  0  0  0  0  0  0  0
    5.9294   -4.6633    5.3883 H   0  0  0  0  0  0  0  0  0  0  0  0
    4.7875   -4.6163    2.8489 H   0  0  0  0  0  0  0  0  0  0  0  0
    4.1307   -5.8054    6.1767 H   0  0  0  0  0  0  0  0  0  0  0  0
    2.9063   -7.6708    6.3451 H   0  0  0  0  0  0  0  0  0  0  0  0
    2.3068   -8.5672    4.9743 H   0  0  0  0  0  0  0  0  0  0  0  0
    1.4487   -7.1655    5.5150 H   0  0  0  0  0  0  0  0  0  0  0  0
    5.6284   -8.9709    4.5042 H   0  0  0  0  0  0  0  0  0  0  0  0
  1  2  1  0
  1 46  1  0
  1 47  1  0
  1 48  1  0
  3  2  1  1
  3 20  1  0
  3 41  1  0
  3  4  1  0
  4  5  1  0
  4  6  1  0
  4 49  1  1
  5 50  1  0
  5 51  1  0
  5 52  1  0
  6 18  1  0
  6  7  1  0
  6 53  1  1
  7  8  2  0
  7 54  1  0
  8  9  1  0
  8 55  1  0
  9 10  1  0
  9 11  1  0
  9 56  1  1
 10 57  1  0
 10 58  1  0
 10 59  1  0
 11 12  1  6
 11 13  1  0
 11 18  1  0
 12 60  1  0
 13 14  1  0
 13 61  1  0
 13 62  1  0
 14 15  1  0
 14 63  1  0
 14 64  1  0
 15 16  1  0
 15 17  2  0
 16 65  1  0
 16 66  1  0
 16 67  1  0
 18 19  1  1
 18 20  1  0
 19 68  1  0
 19 69  1  0
 19 70  1  0
 20 21  1  6
 20 22  1  0
 21 71  1  0
 22 23  2  0
 22 72  1  0
 23 24  1  0
 23 73  1  0
 24 42  1  0
 24 25  1  0
 24 74  1  1
 25 31  1  0
 25 26  1  0
 25 75  1  6
 26 27  2  0
 26 76  1  0
 27 28  1  0
 27 29  1  0
 28 77  1  0
 28 78  1  0
 28 79  1  0
 29 30  2  0
 29 31  1  0
 31 32  1  0
 31 80  1  6
 32 44  1  0
 32 33  1  1
 32 34  1  0
 33 81  1  0
 34 35  1  0
 34 82  1  0
 34 83  1  0
 35 36  1  0
 35 37  2  0
 36 84  1  0
 36 85  1  0
 36 86  1  0
 37 38  1  0
 37 87  1  0
 38 44  1  0
 38 39  1  0
 38 88  1  1
 39 40  1  0
 39 41  1  0
 39 89  1  1
 40 90  1  0
 41 42  1  0
 41 91  1  1
 42 43  1  1
 42 44  1  0
 43 92  1  0
 43 93  1  0
 43 94  1  0
 44 45  1  1
 45 95  1  0
M  END
>  <i_m_ct_stereo_status>  (330) 
1

>  <s_m_source_file>  (330) 
/var/tmp/pbs.5076255.sched01/tmpybatibx8/138x0dlab3k.sdf

>  <i_m_source_file_index>  (330) 
2

>  <i_lp_mmshare_version>  (330) 
48012

>  <i_f3d_flags>  (330) 
0

>  <s_epik_input>  (330) 
W0NIM11DKD1PKVtDSDJdW0NIMl1bQ0BdMShbT0hdKVtDQEhdKFtDSDNdKVtDSF09W0NIXVtDQEhdKFtDQEBIXTJbQ0gzXSlbQ0BdMShbQ0gzXSlbQ0BdKFtPSF0pKFtDQF0yM09bQ0gzXSlbQ0hdPVtDSF1bQ0BIXTRbQ0BIXTVbQ0BIXShDKD1PKUMoPVtDSF01KVtDSDNdKVtDQF02KFtPSF0pW0NAQF03KFtPSF0pW0NAQEhdKFtDSF09QyhbQ0gyXTYpW0NIM10pW0NAQEhdKFtPSF0pW0NAQEhdM1tDQEBdNDdbQ0gzXQ==

>  <s_epik_cmdline>  (330) 
J2VwaWtfcHl0aG9uJywgJy1waHQnLCAnMi4wJywgJy1waCcsICc3LjAnLCAnLXRuJywgJzgnLCAnLW1hJywgJzIwMCcsICctaW1hZScsICc8aW5maWxlLm1hZT4nLCAnLW9tYWUnLCAnPG91dGZpbGUubWFlPic=

>  <r_lp_tautomer_probability>  (330) 
0.499977

>  <r_epik_Ionization_Penalty>  (330) 
3.21686e-07

>  <r_epik_Ionization_Penalty_Charging>  (330) 
0

>  <r_epik_Ionization_Penalty_Neutral>  (330) 
3.21686e-07

>  <r_epik_State_Penalty>  (330) 
0.41068

>  <r_epik_Charging_Adjusted_Penalty>  (330) 
0.41068

>  <i_epik_Tot_Q>  (330) 
0

>  <i_epik_Tot_abs_Q>  (330) 
0

>  <s_lp_Force_Field>  (330) 
OPLS3e

>  <r_lp_Energy>  (330) 
126.796

>  <b_lp_Chiralities_Consistent>  (330) 
1

>  <s_lp_Variant>  (330) 
95:0-1

>  <s_i_glide_gridfile>  (330) 
pfpi4k_grid

>  <i_i_glide_lignum>  (330) 
2

>  <i_i_glide_rotatable_bonds>  (330) 
9

>  <r_i_docking_score>  (330) 
-2.06029

>  <r_i_glide_ligand_efficiency>  (330) 
-0.0457842

>  <r_i_glide_ligand_efficiency_sa>  (330) 
-0.162849

>  <r_i_glide_ligand_efficiency_ln>  (330) 
-0.428632

>  <r_i_glide_gscore>  (330) 
-2.06029

>  <r_i_glide_lipo>  (330) 
-0.31099

>  <r_i_glide_hbond>  (330) 
0

>  <r_i_glide_metal>  (330) 
-0

>  <r_i_glide_rewards>  (330) 
-0.592834

>  <r_i_glide_evdw>  (330) 
-29.9905

>  <r_i_glide_ecoul>  (330) 
1.61631

>  <r_i_glide_erotb>  (330) 
0.108854

>  <r_i_glide_esite>  (330) 
-0.00824117

>  <r_i_glide_emodel>  (330) 
-33.6987

>  <r_i_glide_energy>  (330) 
-28.3742

>  <r_i_glide_einternal>  (330) 
3.48414

>  <r_i_glide_intrahb_reward>  (330) 
-0.5

>  <i_i_glide_confnum>  (330) 
4

>  <i_i_glide_posenum>  (330) 
4

>  <r_i_glide_eff_state_penalty>  (330) 
0

>  <ligand_id>  (330) 
95

>  <original_smiles>  (330) 
COC12C(C)C3C=CC(C)C(O)(CCC(C)=O)C3(C)C1(O)C=CC1C3C=C(C)C(=O)C3C3(O)CC(C)=CC4C(O)C2C1(C)C43O

>  <smiles>  (330) 
[H]OC1([H])C2([H])C([H])=C(C([H])([H])[H])C([H])([H])C3(O[H])C4([H])C(=O)C(C([H])([H])[H])=C([H])C4([H])C4([H])C([H])=C([H])C5(O[H])C(OC([H])([H])[H])(C([H])(C([H])([H])[H])C6([H])C([H])=C([H])C([H])(C([H])([H])[H])C(O[H])(C([H])([H])C([H])([H])C(=O)C([H])([H])[H])C65C([H])([H])[H])C1([H])C4(C([H])([H])[H])C23O[H]

$$$$
95:1:0
     RDKit          3D

 95101  0  0  1  0  0  0  0  0999 V2000
    5.9968   -6.2297    4.8524 C   0  0  0  0  0  0  0  0  0  0  0  0
    4.8095   -5.8434    5.5569 O   0  0  0  0  0  0  0  0  0  0  0  0
    3.5773   -6.6191    5.6313 C   0  0  2  0  0  0  0  0  0  0  0  0
    4.0159   -8.0894    6.0119 C   0  0  1  0  0  0  0  0  0  0  0  0
    3.3652   -8.8559    7.1971 C   0  0  0  0  0  0  0  0  0  0  0  0
    4.0899   -8.8541    4.6653 C   0  0  1  0  0  0  0  0  0  0  0  0
    4.1198  -10.3802    4.7235 C   0  0  0  0  0  0  0  0  0  0  0  0
    3.3135  -11.1805    4.0120 C   0  0  0  0  0  0  0  0  0  0  0  0
    2.2125  -10.6815    3.0947 C   0  0  1  0  0  0  0  0  0  0  0  0
    1.1012  -11.7629    3.0039 C   0  0  0  0  0  0  0  0  0  0  0  0
    1.7822   -9.1909    3.4540 C   0  0  1  0  0  0  0  0  0  0  0  0
    1.0849   -8.7513    2.2995 O   0  0  0  0  0  0  0  0  0  0  0  0
    0.8117   -9.2367    4.6977 C   0  0  0  0  0  0  0  0  0  0  0  0
   -0.5597   -8.4882    4.7721 C   0  0  0  0  0  0  0  0  0  0  0  0
   -1.2916   -8.1801    3.4778 C   0  0  0  0  0  0  0  0  0  0  0  0
   -1.7976   -9.3030    2.6153 C   0  0  0  0  0  0  0  0  0  0  0  0
   -1.4673   -7.0156    3.1658 O   0  0  0  0  0  0  0  0  0  0  0  0
    3.0920   -8.2396    3.6259 C   0  0  2  0  0  0  0  0  0  0  0  0
    3.8474   -8.2458    2.2343 C   0  0  0  0  0  0  0  0  0  0  0  0
    2.9126   -6.7313    4.1699 C   0  0  2  0  0  0  0  0  0  0  0  0
    3.5714   -5.8441    3.2803 O   0  0  0  0  0  0  0  0  0  0  0  0
    1.4676   -6.2190    4.1178 C   0  0  0  0  0  0  0  0  0  0  0  0
    1.0619   -5.0209    4.5772 C   0  0  0  0  0  0  0  0  0  0  0  0
    1.9323   -3.9085    5.1282 C   0  0  1  0  0  0  0  0  0  0  0  0
    1.1861   -2.5775    5.1134 C   0  0  0  0  0  0  0  0  0  0  0  0
    1.1433   -1.6631    3.9043 C   0  0  0  0  0  0  0  0  0  0  0  0
    0.4295   -0.3907    4.4150 C   0  0  1  0  0  0  0  0  0  0  0  0
   -0.7045    0.1139    3.5201 C   0  0  0  0  0  0  0  0  0  0  0  0
   -0.0850   -0.8066    5.7942 C   0  0  0  0  0  0  0  0  0  0  0  0
   -0.8682   -0.1572    6.4798 O   0  0  0  0  0  0  0  0  0  0  0  0
    0.5122   -2.1078    6.1428 C   0  0  0  0  0  0  0  0  0  0  0  0
    0.3832   -2.8262    7.4895 C   0  0  1  0  0  0  0  0  0  0  0  0
    0.1846   -1.8741    8.5362 O   0  0  0  0  0  0  0  0  0  0  0  0
   -0.9188   -3.6552    7.4579 C   0  0  0  0  0  0  0  0  0  0  0  0
   -1.0736   -4.4463    8.7363 C   0  0  0  0  0  0  0  0  0  0  0  0
   -2.4380   -4.4369    9.3979 C   0  0  0  0  0  0  0  0  0  0  0  0
   -0.0179   -5.1113    9.2276 C   0  0  0  0  0  0  0  0  0  0  0  0
    1.3628   -5.0606    8.5847 C   0  0  1  0  0  0  0  0  0  0  0  0
    1.6779   -6.2491    7.6605 C   0  0  1  0  0  0  0  0  0  0  0  0
    0.5264   -6.6409    6.9549 O   0  0  0  0  0  0  0  0  0  0  0  0
    2.8771   -5.7326    6.7882 C   0  0  2  0  0  0  0  0  0  0  0  0
    2.5757   -4.1946    6.5345 C   0  0  1  0  0  0  0  0  0  0  0  0
    3.9055   -3.3648    6.5092 C   0  0  0  0  0  0  0  0  0  0  0  0
    1.6722   -3.7481    7.7881 C   0  0  1  0  0  0  0  0  0  0  0  0
    2.4747   -2.9994    8.7083 O   0  0  0  0  0  0  0  0  0  0  0  0
    6.6513   -5.3602    4.8248 H   0  0  0  0  0  0  0  0  0  0  0  0
    5.8438   -6.5303    3.8155 H   0  0  0  0  0  0  0  0  0  0  0  0
    6.5479   -7.0191    5.3607 H   0  0  0  0  0  0  0  0  0  0  0  0
    5.0355   -8.0564    6.3754 H   0  0  0  0  0  0  0  0  0  0  0  0
    2.2776   -8.9501    7.1558 H   0  0  0  0  0  0  0  0  0  0  0  0
    3.6950   -8.3912    8.1369 H   0  0  0  0  0  0  0  0  0  0  0  0
    3.7686   -9.8706    7.2721 H   0  0  0  0  0  0  0  0  0  0  0  0
    5.0883   -8.6484    4.2727 H   0  0  0  0  0  0  0  0  0  0  0  0
    4.8984  -10.8086    5.3509 H   0  0  0  0  0  0  0  0  0  0  0  0
    3.4422  -12.2577    4.0754 H   0  0  0  0  0  0  0  0  0  0  0  0
    2.6685  -10.7108    2.1008 H   0  0  0  0  0  0  0  0  0  0  0  0
    1.4935  -12.6545    2.5021 H   0  0  0  0  0  0  0  0  0  0  0  0
    0.2424  -11.4335    2.4182 H   0  0  0  0  0  0  0  0  0  0  0  0
    0.7467  -12.1074    3.9795 H   0  0  0  0  0  0  0  0  0  0  0  0
    0.5789   -9.4785    1.9514 H   0  0  0  0  0  0  0  0  0  0  0  0
    0.5939  -10.2651    4.9886 H   0  0  0  0  0  0  0  0  0  0  0  0
    1.3708   -8.8440    5.5374 H   0  0  0  0  0  0  0  0  0  0  0  0
   -1.2446   -9.0584    5.4143 H   0  0  0  0  0  0  0  0  0  0  0  0
   -0.4363   -7.5246    5.2594 H   0  0  0  0  0  0  0  0  0  0  0  0
   -0.9442   -9.9557    2.3763 H   0  0  0  0  0  0  0  0  0  0  0  0
   -2.2764   -8.9402    1.6848 H   0  0  0  0  0  0  0  0  0  0  0  0
   -2.5519   -9.8466    3.2082 H   0  0  0  0  0  0  0  0  0  0  0  0
    3.2466   -7.8411    1.4248 H   0  0  0  0  0  0  0  0  0  0  0  0
    4.1499   -9.2442    1.9392 H   0  0  0  0  0  0  0  0  0  0  0  0
    4.7836   -7.6785    2.2366 H   0  0  0  0  0  0  0  0  0  0  0  0
    3.3170   -6.1136    2.4105 H   0  0  0  0  0  0  0  0  0  0  0  0
    0.7230   -6.8343    3.6209 H   0  0  0  0  0  0  0  0  0  0  0  0
    0.0185   -4.7567    4.4954 H   0  0  0  0  0  0  0  0  0  0  0  0
    2.7194   -3.7649    4.3884 H   0  0  0  0  0  0  0  0  0  0  0  0
    2.1557   -1.4394    3.5636 H   0  0  0  0  0  0  0  0  0  0  0  0
    0.6063   -2.1559    3.0947 H   0  0  0  0  0  0  0  0  0  0  0  0
   -1.1685    1.0248    3.9060 H   0  0  0  0  0  0  0  0  0  0  0  0
   -1.4988   -0.6289    3.4477 H   0  0  0  0  0  0  0  0  0  0  0  0
   -0.3475    0.3358    2.5113 H   0  0  0  0  0  0  0  0  0  0  0  0
    1.1538    0.4105    4.5489 H   0  0  0  0  0  0  0  0  0  0  0  0
    1.0374   -1.5684    8.8187 H   0  0  0  0  0  0  0  0  0  0  0  0
   -1.7878   -3.0259    7.2804 H   0  0  0  0  0  0  0  0  0  0  0  0
   -0.8934   -4.3571    6.6234 H   0  0  0  0  0  0  0  0  0  0  0  0
   -2.7197   -3.4375    9.6983 H   0  0  0  0  0  0  0  0  0  0  0  0
   -2.4123   -5.0149   10.3189 H   0  0  0  0  0  0  0  0  0  0  0  0
   -3.2202   -4.8215    8.7327 H   0  0  0  0  0  0  0  0  0  0  0  0
   -0.1188   -5.7170   10.1175 H   0  0  0  0  0  0  0  0  0  0  0  0
    2.0525   -5.1216    9.4333 H   0  0  0  0  0  0  0  0  0  0  0  0
    1.9796   -7.0540    8.3345 H   0  0  0  0  0  0  0  0  0  0  0  0
    0.7522   -7.4360    6.4460 H   0  0  0  0  0  0  0  0  0  0  0  0
    3.6685   -5.7175    7.5372 H   0  0  0  0  0  0  0  0  0  0  0  0
    4.5731   -3.6341    7.3325 H   0  0  0  0  0  0  0  0  0  0  0  0
    3.7129   -2.2866    6.5549 H   0  0  0  0  0  0  0  0  0  0  0  0
    4.4721   -3.5118    5.5883 H   0  0  0  0  0  0  0  0  0  0  0  0
    2.8819   -2.2927    8.2324 H   0  0  0  0  0  0  0  0  0  0  0  0
  1  2  1  0
  1 46  1  0
  1 47  1  0
  1 48  1  0
  3  2  1  6
  3 20  1  0
  3 41  1  0
  3  4  1  0
  4  5  1  0
  4  6  1  0
  4 49  1  1
  5 50  1  0
  5 51  1  0
  5 52  1  0
  6 18  1  0
  6  7  1  0
  6 53  1  6
  7  8  2  0
  7 54  1  0
  8  9  1  0
  8 55  1  0
  9 10  1  0
  9 11  1  0
  9 56  1  6
 10 57  1  0
 10 58  1  0
 10 59  1  0
 11 12  1  6
 11 13  1  0
 11 18  1  0
 12 60  1  0
 13 14  1  0
 13 61  1  0
 13 62  1  0
 14 15  1  0
 14 63  1  0
 14 64  1  0
 15 16  1  0
 15 17  2  0
 16 65  1  0
 16 66  1  0
 16 67  1  0
 18 19  1  6
 18 20  1  0
 19 68  1  0
 19 69  1  0
 19 70  1  0
 20 21  1  6
 20 22  1  0
 21 71  1  0
 22 23  2  0
 22 72  1  0
 23 24  1  0
 23 73  1  0
 24 42  1  0
 24 74  1  6
 24 25  1  0
 25 26  1  0
 25 31  2  0
 26 76  1  0
 26 75  1  0
 26 27  1  0
 27 28  1  0
 27 80  1  1
 27 29  1  0
 28 77  1  0
 28 78  1  0
 28 79  1  0
 29 30  2  0
 29 31  1  0
 31 32  1  0
 32 44  1  0
 32 33  1  1
 32 34  1  0
 33 81  1  0
 34 35  1  0
 34 82  1  0
 34 83  1  0
 35 36  1  0
 35 37  2  0
 36 84  1  0
 36 85  1  0
 36 86  1  0
 37 38  1  0
 37 87  1  0
 38 44  1  0
 38 39  1  0
 38 88  1  1
 39 40  1  0
 39 41  1  0
 39 89  1  1
 40 90  1  0
 41 42  1  0
 41 91  1  1
 42 43  1  6
 42 44  1  0
 43 92  1  0
 43 93  1  0
 43 94  1  0
 44 45  1  1
 45 95  1  0
M  END
>  <i_m_ct_stereo_status>  (331) 
1

>  <s_m_source_file>  (331) 
/var/tmp/pbs.5076255.sched01/tmpybatibx8/138x0dlab3k.sdf

>  <i_m_source_file_index>  (331) 
3

>  <i_lp_mmshare_version>  (331) 
48012

>  <i_f3d_flags>  (331) 
0

>  <s_epik_input>  (331) 
W0NIM11DKD1PKVtDSDJdW0NIMl1bQ0BdMShbT0hdKVtDQEhdKFtDSDNdKVtDSF09W0NIXVtDQEhdKFtDQEBIXTJbQ0gzXSlbQ0BdMShbQ0gzXSlbQ0BdKFtPSF0pKFtDQF0yM09bQ0gzXSlbQ0hdPVtDSF1bQ0BIXTRbQ0BIXTVbQ0BIXShDKD1PKUMoPVtDSF01KVtDSDNdKVtDQF02KFtPSF0pW0NAQF03KFtPSF0pW0NAQEhdKFtDSF09QyhbQ0gyXTYpW0NIM10pW0NAQEhdKFtPSF0pW0NAQEhdM1tDQEBdNDdbQ0gzXQ==

>  <s_epik_cmdline>  (331) 
J2VwaWtfcHl0aG9uJywgJy1waHQnLCAnMi4wJywgJy1waCcsICc3LjAnLCAnLXRuJywgJzgnLCAnLW1hJywgJzIwMCcsICctaW1hZScsICc8aW5maWxlLm1hZT4nLCAnLW9tYWUnLCAnPG91dGZpbGUubWFlPic=

>  <r_lp_tautomer_probability>  (331) 
0.499977

>  <r_epik_Ionization_Penalty>  (331) 
4.2205e-07

>  <r_epik_Ionization_Penalty_Charging>  (331) 
0

>  <r_epik_Ionization_Penalty_Neutral>  (331) 
4.2205e-07

>  <r_epik_State_Penalty>  (331) 
0.41068

>  <r_epik_Charging_Adjusted_Penalty>  (331) 
0.41068

>  <i_epik_Tot_Q>  (331) 
0

>  <i_epik_Tot_abs_Q>  (331) 
0

>  <s_lp_Force_Field>  (331) 
OPLS3e

>  <r_lp_Energy>  (331) 
120.859

>  <b_lp_Chiralities_Consistent>  (331) 
1

>  <s_lp_Variant>  (331) 
95:0-2

>  <s_i_glide_gridfile>  (331) 
pfpi4k_grid

>  <i_i_glide_lignum>  (331) 
3

>  <i_i_glide_rotatable_bonds>  (331) 
9

>  <r_i_docking_score>  (331) 
-3.40305

>  <r_i_glide_ligand_efficiency>  (331) 
-0.0756234

>  <r_i_glide_ligand_efficiency_sa>  (331) 
-0.268984

>  <r_i_glide_ligand_efficiency_ln>  (331) 
-0.707987

>  <r_i_glide_gscore>  (331) 
-3.40305

>  <r_i_glide_lipo>  (331) 
-0.258905

>  <r_i_glide_hbond>  (331) 
-0.208347

>  <r_i_glide_metal>  (331) 
-0

>  <r_i_glide_rewards>  (331) 
0

>  <r_i_glide_evdw>  (331) 
-28.2315

>  <r_i_glide_ecoul>  (331) 
-10.2626

>  <r_i_glide_erotb>  (331) 
0.108854

>  <r_i_glide_esite>  (331) 
-0.0936847

>  <r_i_glide_emodel>  (331) 
-41.6277

>  <r_i_glide_energy>  (331) 
-38.4941

>  <r_i_glide_einternal>  (331) 
6.62056

>  <r_i_glide_intrahb_reward>  (331) 
-0

>  <i_i_glide_confnum>  (331) 
1

>  <i_i_glide_posenum>  (331) 
1

>  <r_i_glide_eff_state_penalty>  (331) 
0

>  <ligand_id>  (331) 
95

>  <original_smiles>  (331) 
COC12C(C)C3C=CC(C)C(O)(CCC(C)=O)C3(C)C1(O)C=CC1C3C=C(C)C(=O)C3C3(O)CC(C)=CC4C(O)C2C1(C)C43O

>  <smiles>  (331) 
[H]OC1([H])C2([H])C([H])=C(C([H])([H])[H])C([H])([H])C3(O[H])C4=C(C([H])([H])C([H])(C([H])([H])[H])C4=O)C4([H])C([H])=C([H])C5(O[H])C(OC([H])([H])[H])(C([H])(C([H])([H])[H])C6([H])C([H])=C([H])C([H])(C([H])([H])[H])C(O[H])(C([H])([H])C([H])([H])C(=O)C([H])([H])[H])C65C([H])([H])[H])C1([H])C4(C([H])([H])[H])C23O[H]

$$$$
95:1:1
     RDKit          3D

 95101  0  0  1  0  0  0  0  0999 V2000
    5.0950   -1.0705    1.8668 C   0  0  0  0  0  0  0  0  0  0  0  0
    4.3333   -0.5565    2.9649 O   0  0  0  0  0  0  0  0  0  0  0  0
    3.6634   -1.3442    3.9813 C   0  0  2  0  0  0  0  0  0  0  0  0
    4.7543   -2.3837    4.4891 C   0  0  1  0  0  0  0  0  0  0  0  0
    5.0905   -2.5596    6.0004 C   0  0  0  0  0  0  0  0  0  0  0  0
    4.4827   -3.6816    3.6873 C   0  0  1  0  0  0  0  0  0  0  0  0
    5.1011   -4.9770    4.2101 C   0  0  0  0  0  0  0  0  0  0  0  0
    4.4214   -6.1144    4.4195 C   0  0  0  0  0  0  0  0  0  0  0  0
    2.9230   -6.2456    4.2254 C   0  0  1  0  0  0  0  0  0  0  0  0
    2.3723   -7.3522    5.1619 C   0  0  0  0  0  0  0  0  0  0  0  0
    2.2060   -4.8350    4.2609 C   0  0  1  0  0  0  0  0  0  0  0  0
    0.9591   -5.0698    3.6699 O   0  0  0  0  0  0  0  0  0  0  0  0
    2.0550   -4.4288    5.7995 C   0  0  0  0  0  0  0  0  0  0  0  0
    0.9077   -3.5562    6.4037 C   0  0  0  0  0  0  0  0  0  0  0  0
   -0.4846   -4.1566    6.4934 C   0  0  0  0  0  0  0  0  0  0  0  0
   -0.6993   -5.6039    6.0233 C   0  0  0  0  0  0  0  0  0  0  0  0
   -1.4297   -3.4547    6.8685 O   0  0  0  0  0  0  0  0  0  0  0  0
    2.9628   -3.7622    3.3085 C   0  0  2  0  0  0  0  0  0  0  0  0
    2.9139   -4.3566    1.8490 C   0  0  0  0  0  0  0  0  0  0  0  0
    2.4848   -2.2044    3.3160 C   0  0  2  0  0  0  0  0  0  0  0  0
    2.2707   -1.8007    1.9737 O   0  0  0  0  0  0  0  0  0  0  0  0
    1.1178   -1.9262    3.8989 C   0  0  0  0  0  0  0  0  0  0  0  0
    0.5416   -0.7265    4.1568 C   0  0  0  0  0  0  0  0  0  0  0  0
    1.1101    0.5855    3.7163 C   0  0  1  0  0  0  0  0  0  0  0  0
    0.0317    1.6423    3.6916 C   0  0  0  0  0  0  0  0  0  0  0  0
   -0.9029    1.8299    2.5249 C   0  0  0  0  0  0  0  0  0  0  0  0
   -1.7251    3.0901    2.9092 C   0  0  1  0  0  0  0  0  0  0  0  0
   -3.2396    2.9476    2.7453 C   0  0  0  0  0  0  0  0  0  0  0  0
   -1.3014    3.3344    4.3426 C   0  0  0  0  0  0  0  0  0  0  0  0
   -1.8893    4.1958    5.1032 O   0  0  0  0  0  0  0  0  0  0  0  0
   -0.1939    2.4779    4.7061 C   0  0  0  0  0  0  0  0  0  0  0  0
    0.6040    2.4647    6.0080 C   0  0  1  0  0  0  0  0  0  0  0  0
    0.5794    3.7684    6.6049 O   0  0  0  0  0  0  0  0  0  0  0  0
   -0.1666    1.5862    7.0197 C   0  0  0  0  0  0  0  0  0  0  0  0
    0.5929    1.4692    8.3208 C   0  0  0  0  0  0  0  0  0  0  0  0
   -0.1856    1.6454    9.6095 C   0  0  0  0  0  0  0  0  0  0  0  0
    1.9160    1.2579    8.2837 C   0  0  0  0  0  0  0  0  0  0  0  0
    2.7082    1.1699    6.9809 C   0  0  1  0  0  0  0  0  0  0  0  0
    2.9750   -0.2667    6.4979 C   0  0  1  0  0  0  0  0  0  0  0  0
    1.8746   -1.0527    6.8264 O   0  0  0  0  0  0  0  0  0  0  0  0
    3.3181   -0.1061    4.9664 C   0  0  2  0  0  0  0  0  0  0  0  0
    2.3955    1.0806    4.4594 C   0  0  1  0  0  0  0  0  0  0  0  0
    3.1369    1.9416    3.3934 C   0  0  0  0  0  0  0  0  0  0  0  0
    2.1065    1.9615    5.7775 C   0  0  1  0  0  0  0  0  0  0  0  0
    2.9178    3.1386    5.7499 O   0  0  0  0  0  0  0  0  0  0  0  0
    5.2878   -0.2391    1.1909 H   0  0  0  0  0  0  0  0  0  0  0  0
    4.5841   -1.8298    1.2815 H   0  0  0  0  0  0  0  0  0  0  0  0
    6.0689   -1.4551    2.1636 H   0  0  0  0  0  0  0  0  0  0  0  0
    5.7307   -2.0424    4.1564 H   0  0  0  0  0  0  0  0  0  0  0  0
    4.2605   -2.7279    6.6728 H   0  0  0  0  0  0  0  0  0  0  0  0
    5.5850   -1.6597    6.3756 H   0  0  0  0  0  0  0  0  0  0  0  0
    5.8068   -3.3759    6.1537 H   0  0  0  0  0  0  0  0  0  0  0  0
    5.0208   -3.5560    2.7498 H   0  0  0  0  0  0  0  0  0  0  0  0
    6.1687   -4.9829    4.3581 H   0  0  0  0  0  0  0  0  0  0  0  0
    4.9546   -7.0027    4.7416 H   0  0  0  0  0  0  0  0  0  0  0  0
    2.7802   -6.6791    3.2418 H   0  0  0  0  0  0  0  0  0  0  0  0
    2.7387   -8.3335    4.8644 H   0  0  0  0  0  0  0  0  0  0  0  0
    1.2858   -7.4124    5.1382 H   0  0  0  0  0  0  0  0  0  0  0  0
    2.6867   -7.2414    6.2005 H   0  0  0  0  0  0  0  0  0  0  0  0
    0.4761   -4.2629    3.7711 H   0  0  0  0  0  0  0  0  0  0  0  0
    2.1198   -5.2936    6.4786 H   0  0  0  0  0  0  0  0  0  0  0  0
    2.9595   -3.9273    6.0284 H   0  0  0  0  0  0  0  0  0  0  0  0
    1.1983   -3.2615    7.4266 H   0  0  0  0  0  0  0  0  0  0  0  0
    0.7626   -2.6470    5.8750 H   0  0  0  0  0  0  0  0  0  0  0  0
   -0.5551   -5.7056    4.9570 H   0  0  0  0  0  0  0  0  0  0  0  0
   -1.7416   -5.8835    6.2301 H   0  0  0  0  0  0  0  0  0  0  0  0
    0.0331   -6.2229    6.5658 H   0  0  0  0  0  0  0  0  0  0  0  0
    1.8998   -4.4714    1.4737 H   0  0  0  0  0  0  0  0  0  0  0  0
    3.3909   -5.3290    1.7644 H   0  0  0  0  0  0  0  0  0  0  0  0
    3.4328   -3.7441    1.1199 H   0  0  0  0  0  0  0  0  0  0  0  0
    1.3390   -1.7556    1.8609 H   0  0  0  0  0  0  0  0  0  0  0  0
    0.4674   -2.7761    4.0932 H   0  0  0  0  0  0  0  0  0  0  0  0
   -0.4205   -0.7195    4.6288 H   0  0  0  0  0  0  0  0  0  0  0  0
    1.3497    0.4331    2.6715 H   0  0  0  0  0  0  0  0  0  0  0  0
   -0.3688    2.0012    1.5994 H   0  0  0  0  0  0  0  0  0  0  0  0
   -1.5421    0.9619    2.4063 H   0  0  0  0  0  0  0  0  0  0  0  0
   -3.7666    3.8707    3.0140 H   0  0  0  0  0  0  0  0  0  0  0  0
   -3.6337    2.1568    3.3887 H   0  0  0  0  0  0  0  0  0  0  0  0
   -3.5068    2.7216    1.7128 H   0  0  0  0  0  0  0  0  0  0  0  0
   -1.4052    3.9475    2.3208 H   0  0  0  0  0  0  0  0  0  0  0  0
    1.2279    4.3078    6.1841 H   0  0  0  0  0  0  0  0  0  0  0  0
   -1.1738    1.9634    7.1835 H   0  0  0  0  0  0  0  0  0  0  0  0
   -0.2883    0.5886    6.6080 H   0  0  0  0  0  0  0  0  0  0  0  0
   -0.6501    2.6320    9.6322 H   0  0  0  0  0  0  0  0  0  0  0  0
    0.4724    1.5774   10.4744 H   0  0  0  0  0  0  0  0  0  0  0  0
   -0.9639    0.8936    9.7106 H   0  0  0  0  0  0  0  0  0  0  0  0
    2.4690    1.1392    9.2020 H   0  0  0  0  0  0  0  0  0  0  0  0
    3.7004    1.5573    7.2249 H   0  0  0  0  0  0  0  0  0  0  0  0
    3.8149   -0.6495    7.0726 H   0  0  0  0  0  0  0  0  0  0  0  0
    1.1716   -0.7820    6.2490 H   0  0  0  0  0  0  0  0  0  0  0  0
    4.3092    0.3495    5.0645 H   0  0  0  0  0  0  0  0  0  0  0  0
    4.1552    2.1699    3.7038 H   0  0  0  0  0  0  0  0  0  0  0  0
    2.6214    2.8788    3.1946 H   0  0  0  0  0  0  0  0  0  0  0  0
    3.2165    1.4507    2.4249 H   0  0  0  0  0  0  0  0  0  0  0  0
    2.7215    3.6081    4.9592 H   0  0  0  0  0  0  0  0  0  0  0  0
  1  2  1  0
  1 46  1  0
  1 47  1  0
  1 48  1  0
  3  2  1  6
  3 20  1  0
  3 41  1  0
  3  4  1  0
  4  5  1  0
  4  6  1  0
  4 49  1  6
  5 50  1  0
  5 51  1  0
  5 52  1  0
  6 18  1  0
  6  7  1  0
  6 53  1  6
  7  8  2  0
  7 54  1  0
  8  9  1  0
  8 55  1  0
  9 10  1  0
  9 11  1  0
  9 56  1  6
 10 57  1  0
 10 58  1  0
 10 59  1  0
 11 12  1  6
 11 13  1  0
 11 18  1  0
 12 60  1  0
 13 14  1  0
 13 61  1  0
 13 62  1  0
 14 15  1  0
 14 63  1  0
 14 64  1  0
 15 16  1  0
 15 17  2  0
 16 65  1  0
 16 66  1  0
 16 67  1  0
 18 19  1  6
 18 20  1  0
 19 68  1  0
 19 69  1  0
 19 70  1  0
 20 21  1  6
 20 22  1  0
 21 71  1  0
 22 23  2  0
 22 72  1  0
 23 24  1  0
 23 73  1  0
 24 42  1  0
 24 74  1  6
 24 25  1  0
 25 26  1  0
 25 31  2  0
 26 76  1  0
 26 75  1  0
 26 27  1  0
 27 28  1  0
 27 80  1  6
 27 29  1  0
 28 77  1  0
 28 78  1  0
 28 79  1  0
 29 30  2  0
 29 31  1  0
 31 32  1  0
 32 44  1  0
 32 33  1  1
 32 34  1  0
 33 81  1  0
 34 35  1  0
 34 82  1  0
 34 83  1  0
 35 36  1  0
 35 37  2  0
 36 84  1  0
 36 85  1  0
 36 86  1  0
 37 38  1  0
 37 87  1  0
 38 44  1  0
 38 39  1  0
 38 88  1  1
 39 40  1  0
 39 41  1  0
 39 89  1  1
 40 90  1  0
 41 42  1  0
 41 91  1  1
 42 43  1  6
 42 44  1  0
 43 92  1  0
 43 93  1  0
 43 94  1  0
 44 45  1  6
 45 95  1  0
M  END
>  <i_m_ct_stereo_status>  (332) 
1

>  <s_m_source_file>  (332) 
/var/tmp/pbs.5076255.sched01/tmpybatibx8/138x0dlab3k.sdf

>  <i_m_source_file_index>  (332) 
3

>  <i_lp_mmshare_version>  (332) 
48012

>  <i_f3d_flags>  (332) 
0

>  <s_epik_input>  (332) 
W0NIM11DKD1PKVtDSDJdW0NIMl1bQ0BdMShbT0hdKVtDQEhdKFtDSDNdKVtDSF09W0NIXVtDQEhdKFtDQEBIXTJbQ0gzXSlbQ0BdMShbQ0gzXSlbQ0BdKFtPSF0pKFtDQF0yM09bQ0gzXSlbQ0hdPVtDSF1bQ0BIXTRbQ0BIXTVbQ0BIXShDKD1PKUMoPVtDSF01KVtDSDNdKVtDQF02KFtPSF0pW0NAQF03KFtPSF0pW0NAQEhdKFtDSF09QyhbQ0gyXTYpW0NIM10pW0NAQEhdKFtPSF0pW0NAQEhdM1tDQEBdNDdbQ0gzXQ==

>  <s_epik_cmdline>  (332) 
J2VwaWtfcHl0aG9uJywgJy1waHQnLCAnMi4wJywgJy1waCcsICc3LjAnLCAnLXRuJywgJzgnLCAnLW1hJywgJzIwMCcsICctaW1hZScsICc8aW5maWxlLm1hZT4nLCAnLW9tYWUnLCAnPG91dGZpbGUubWFlPic=

>  <r_lp_tautomer_probability>  (332) 
0.499977

>  <r_epik_Ionization_Penalty>  (332) 
4.2205e-07

>  <r_epik_Ionization_Penalty_Charging>  (332) 
0

>  <r_epik_Ionization_Penalty_Neutral>  (332) 
4.2205e-07

>  <r_epik_State_Penalty>  (332) 
0.41068

>  <r_epik_Charging_Adjusted_Penalty>  (332) 
0.41068

>  <i_epik_Tot_Q>  (332) 
0

>  <i_epik_Tot_abs_Q>  (332) 
0

>  <s_lp_Force_Field>  (332) 
OPLS3e

>  <r_lp_Energy>  (332) 
120.859

>  <b_lp_Chiralities_Consistent>  (332) 
1

>  <s_lp_Variant>  (332) 
95:0-2

>  <s_i_glide_gridfile>  (332) 
pfpi4k_grid

>  <i_i_glide_lignum>  (332) 
3

>  <i_i_glide_rotatable_bonds>  (332) 
9

>  <r_i_docking_score>  (332) 
-2.45915

>  <r_i_glide_ligand_efficiency>  (332) 
-0.0546477

>  <r_i_glide_ligand_efficiency_sa>  (332) 
-0.194376

>  <r_i_glide_ligand_efficiency_ln>  (332) 
-0.511612

>  <r_i_glide_gscore>  (332) 
-2.45915

>  <r_i_glide_lipo>  (332) 
-0.216314

>  <r_i_glide_hbond>  (332) 
0

>  <r_i_glide_metal>  (332) 
-0

>  <r_i_glide_rewards>  (332) 
0

>  <r_i_glide_evdw>  (332) 
-24.724

>  <r_i_glide_ecoul>  (332) 
-7.09055

>  <r_i_glide_erotb>  (332) 
0.108854

>  <r_i_glide_esite>  (332) 
-0.0519031

>  <r_i_glide_emodel>  (332) 
-31.6716

>  <r_i_glide_energy>  (332) 
-31.8146

>  <r_i_glide_einternal>  (332) 
6.84566

>  <r_i_glide_intrahb_reward>  (332) 
-0

>  <i_i_glide_confnum>  (332) 
4

>  <i_i_glide_posenum>  (332) 
27

>  <r_i_glide_eff_state_penalty>  (332) 
0

>  <ligand_id>  (332) 
95

>  <original_smiles>  (332) 
COC12C(C)C3C=CC(C)C(O)(CCC(C)=O)C3(C)C1(O)C=CC1C3C=C(C)C(=O)C3C3(O)CC(C)=CC4C(O)C2C1(C)C43O

>  <smiles>  (332) 
[H]OC1([H])C2([H])C([H])=C(C([H])([H])[H])C([H])([H])C3(O[H])C4=C(C([H])([H])C([H])(C([H])([H])[H])C4=O)C4([H])C([H])=C([H])C5(O[H])C(OC([H])([H])[H])(C([H])(C([H])([H])[H])C6([H])C([H])=C([H])C([H])(C([H])([H])[H])C(O[H])(C([H])([H])C([H])([H])C(=O)C([H])([H])[H])C65C([H])([H])[H])C1([H])C4(C([H])([H])[H])C23O[H]

$$$$
95:1:2
     RDKit          3D

 95101  0  0  1  0  0  0  0  0999 V2000
    5.1414   -0.8533    1.6655 C   0  0  0  0  0  0  0  0  0  0  0  0
    4.3439   -0.4286    2.7785 O   0  0  0  0  0  0  0  0  0  0  0  0
    3.7151   -1.2861    3.7604 C   0  0  2  0  0  0  0  0  0  0  0  0
    4.8150   -2.3282    4.1899 C   0  0  1  0  0  0  0  0  0  0  0  0
    5.0992   -2.6266    5.6762 C   0  0  0  0  0  0  0  0  0  0  0  0
    4.5460   -3.5763    3.3160 C   0  0  1  0  0  0  0  0  0  0  0  0
    5.2049   -4.8785    3.7436 C   0  0  0  0  0  0  0  0  0  0  0  0
    4.5508   -6.0462    3.8239 C   0  0  0  0  0  0  0  0  0  0  0  0
    3.0715   -6.2091    3.5885 C   0  0  1  0  0  0  0  0  0  0  0  0
    2.6359   -7.4205    4.4294 C   0  0  0  0  0  0  0  0  0  0  0  0
    2.3107   -4.8434    3.8115 C   0  0  1  0  0  0  0  0  0  0  0  0
    1.0204   -5.0295    3.2555 O   0  0  0  0  0  0  0  0  0  0  0  0
    2.1550   -4.5060    5.3431 C   0  0  0  0  0  0  0  0  0  0  0  0
    0.8279   -4.7160    6.1283 C   0  0  0  0  0  0  0  0  0  0  0  0
    0.1785   -6.0831    6.0534 C   0  0  0  0  0  0  0  0  0  0  0  0
    0.6485   -7.1772    7.0162 C   0  0  0  0  0  0  0  0  0  0  0  0
   -0.7854   -6.2612    5.3008 O   0  0  0  0  0  0  0  0  0  0  0  0
    3.0334   -3.6782    2.9535 C   0  0  2  0  0  0  0  0  0  0  0  0
    3.0019   -4.1431    1.4440 C   0  0  0  0  0  0  0  0  0  0  0  0
    2.5417   -2.1440    3.0933 C   0  0  2  0  0  0  0  0  0  0  0  0
    2.3122   -1.6572    1.7816 O   0  0  0  0  0  0  0  0  0  0  0  0
    1.1815   -1.9171    3.7584 C   0  0  0  0  0  0  0  0  0  0  0  0
    0.5771   -0.7349    3.9678 C   0  0  0  0  0  0  0  0  0  0  0  0
    1.1335    0.6139    3.5695 C   0  0  1  0  0  0  0  0  0  0  0  0
    0.0222    1.6476    3.6380 C   0  0  0  0  0  0  0  0  0  0  0  0
   -0.8954    1.9074    2.4631 C   0  0  0  0  0  0  0  0  0  0  0  0
   -1.7233    3.1471    2.9125 C   0  0  1  0  0  0  0  0  0  0  0  0
   -3.2325    2.9906    2.7325 C   0  0  0  0  0  0  0  0  0  0  0  0
   -1.3145    3.2938    4.3737 C   0  0  0  0  0  0  0  0  0  0  0  0
   -1.8865    4.0864    5.1389 O   0  0  0  0  0  0  0  0  0  0  0  0
   -0.2101    2.3914    4.6830 C   0  0  0  0  0  0  0  0  0  0  0  0
    0.5871    2.3385    5.9854 C   0  0  1  0  0  0  0  0  0  0  0  0
    0.5816    3.6038    6.6328 O   0  0  0  0  0  0  0  0  0  0  0  0
   -0.1756    1.4050    6.9466 C   0  0  0  0  0  0  0  0  0  0  0  0
    0.5856    1.2105    8.2403 C   0  0  0  0  0  0  0  0  0  0  0  0
   -0.2172    1.2861    9.5248 C   0  0  0  0  0  0  0  0  0  0  0  0
    1.9070    0.9879    8.1926 C   0  0  0  0  0  0  0  0  0  0  0  0
    2.6867    0.9865    6.8830 C   0  0  1  0  0  0  0  0  0  0  0  0
    2.9822   -0.4105    6.3091 C   0  0  1  0  0  0  0  0  0  0  0  0
    1.8783   -1.2693    6.5315 O   0  0  0  0  0  0  0  0  0  0  0  0
    3.3421   -0.1296    4.8130 C   0  0  2  0  0  0  0  0  0  0  0  0
    2.3980    1.0743    4.3741 C   0  0  1  0  0  0  0  0  0  0  0  0
    3.1283    2.0273    3.3806 C   0  0  0  0  0  0  0  0  0  0  0  0
    2.0855    1.8566    5.7366 C   0  0  1  0  0  0  0  0  0  0  0  0
    2.9118    3.0206    5.7929 O   0  0  0  0  0  0  0  0  0  0  0  0
    5.3381    0.0213    1.0450 H   0  0  0  0  0  0  0  0  0  0  0  0
    4.6539   -1.5764    1.0182 H   0  0  0  0  0  0  0  0  0  0  0  0
    6.1188   -1.2458    1.9439 H   0  0  0  0  0  0  0  0  0  0  0  0
    5.7877   -1.9544    3.8881 H   0  0  0  0  0  0  0  0  0  0  0  0
    4.2305   -2.9258    6.2528 H   0  0  0  0  0  0  0  0  0  0  0  0
    5.5507   -1.7547    6.1462 H   0  0  0  0  0  0  0  0  0  0  0  0
    5.8445   -3.4141    5.7964 H   0  0  0  0  0  0  0  0  0  0  0  0
    5.0806   -3.3915    2.3863 H   0  0  0  0  0  0  0  0  0  0  0  0
    6.2727   -4.8439    3.9365 H   0  0  0  0  0  0  0  0  0  0  0  0
    5.0822   -6.9379    4.1241 H   0  0  0  0  0  0  0  0  0  0  0  0
    2.9367   -6.5376    2.5563 H   0  0  0  0  0  0  0  0  0  0  0  0
    3.0548   -8.3486    3.9947 H   0  0  0  0  0  0  0  0  0  0  0  0
    1.5510   -7.5265    4.3916 H   0  0  0  0  0  0  0  0  0  0  0  0
    2.9412   -7.3138    5.4636 H   0  0  0  0  0  0  0  0  0  0  0  0
    0.5377   -4.2248    3.3314 H   0  0  0  0  0  0  0  0  0  0  0  0
    2.9597   -4.9643    5.9022 H   0  0  0  0  0  0  0  0  0  0  0  0
    2.3501   -3.4496    5.4620 H   0  0  0  0  0  0  0  0  0  0  0  0
    1.0058   -4.4960    7.1869 H   0  0  0  0  0  0  0  0  0  0  0  0
    0.0874   -3.9812    5.8099 H   0  0  0  0  0  0  0  0  0  0  0  0
    1.6993   -7.3193    6.9211 H   0  0  0  0  0  0  0  0  0  0  0  0
    0.1272   -8.1210    6.7847 H   0  0  0  0  0  0  0  0  0  0  0  0
    0.3642   -6.9422    8.0620 H   0  0  0  0  0  0  0  0  0  0  0  0
    1.9882   -4.2527    1.0589 H   0  0  0  0  0  0  0  0  0  0  0  0
    3.5159   -5.0845    1.2808 H   0  0  0  0  0  0  0  0  0  0  0  0
    3.5253   -3.4710    0.7631 H   0  0  0  0  0  0  0  0  0  0  0  0
    2.1013   -0.7431    1.8254 H   0  0  0  0  0  0  0  0  0  0  0  0
    0.6145   -2.7711    4.0722 H   0  0  0  0  0  0  0  0  0  0  0  0
   -0.3979   -0.7121    4.4391 H   0  0  0  0  0  0  0  0  0  0  0  0
    1.3703    0.5558    2.5122 H   0  0  0  0  0  0  0  0  0  0  0  0
   -0.3110    2.1263    1.5725 H   0  0  0  0  0  0  0  0  0  0  0  0
   -1.5290    1.0394    2.2955 H   0  0  0  0  0  0  0  0  0  0  0  0
   -3.7727    3.8818    3.0344 H   0  0  0  0  0  0  0  0  0  0  0  0
   -3.6094    2.1753    3.3412 H   0  0  0  0  0  0  0  0  0  0  0  0
   -3.4929    2.8067    1.6956 H   0  0  0  0  0  0  0  0  0  0  0  0
   -1.3675    4.0451    2.4038 H   0  0  0  0  0  0  0  0  0  0  0  0
    1.0650    3.5148    7.4384 H   0  0  0  0  0  0  0  0  0  0  0  0
   -1.1762    1.7993    7.1413 H   0  0  0  0  0  0  0  0  0  0  0  0
   -0.3065    0.4219    6.4883 H   0  0  0  0  0  0  0  0  0  0  0  0
   -0.6963    2.2653    9.5971 H   0  0  0  0  0  0  0  0  0  0  0  0
    0.4387    1.1683   10.3880 H   0  0  0  0  0  0  0  0  0  0  0  0
   -0.9876    0.5201    9.5609 H   0  0  0  0  0  0  0  0  0  0  0  0
    2.4768    0.8306    9.0973 H   0  0  0  0  0  0  0  0  0  0  0  0
    3.6594    1.4053    7.1638 H   0  0  0  0  0  0  0  0  0  0  0  0
    3.8070   -0.8005    6.8956 H   0  0  0  0  0  0  0  0  0  0  0  0
    1.1719   -0.9585    5.9937 H   0  0  0  0  0  0  0  0  0  0  0  0
    4.3139    0.3515    4.9551 H   0  0  0  0  0  0  0  0  0  0  0  0
    4.1362    2.2549    3.7314 H   0  0  0  0  0  0  0  0  0  0  0  0
    2.5980    2.9702    3.2355 H   0  0  0  0  0  0  0  0  0  0  0  0
    3.2369    1.6063    2.3812 H   0  0  0  0  0  0  0  0  0  0  0  0
    2.6176    3.6113    5.1203 H   0  0  0  0  0  0  0  0  0  0  0  0
  1  2  1  0
  1 46  1  0
  1 47  1  0
  1 48  1  0
  3  2  1  6
  3 20  1  0
  3 41  1  0
  3  4  1  0
  4  5  1  0
  4  6  1  0
  4 49  1  6
  5 50  1  0
  5 51  1  0
  5 52  1  0
  6 18  1  0
  6  7  1  0
  6 53  1  6
  7  8  2  0
  7 54  1  0
  8  9  1  0
  8 55  1  0
  9 10  1  0
  9 11  1  0
  9 56  1  6
 10 57  1  0
 10 58  1  0
 10 59  1  0
 11 12  1  6
 11 13  1  0
 11 18  1  0
 12 60  1  0
 13 14  1  0
 13 61  1  0
 13 62  1  0
 14 15  1  0
 14 63  1  0
 14 64  1  0
 15 16  1  0
 15 17  2  0
 16 65  1  0
 16 66  1  0
 16 67  1  0
 18 19  1  6
 18 20  1  0
 19 68  1  0
 19 69  1  0
 19 70  1  0
 20 21  1  6
 20 22  1  0
 21 71  1  0
 22 23  2  0
 22 72  1  0
 23 24  1  0
 23 73  1  0
 24 42  1  0
 24 74  1  6
 24 25  1  0
 25 26  1  0
 25 31  2  0
 26 76  1  0
 26 75  1  0
 26 27  1  0
 27 28  1  0
 27 80  1  6
 27 29  1  0
 28 77  1  0
 28 78  1  0
 28 79  1  0
 29 30  2  0
 29 31  1  0
 31 32  1  0
 32 44  1  0
 32 33  1  1
 32 34  1  0
 33 81  1  0
 34 35  1  0
 34 82  1  0
 34 83  1  0
 35 36  1  0
 35 37  2  0
 36 84  1  0
 36 85  1  0
 36 86  1  0
 37 38  1  0
 37 87  1  0
 38 44  1  0
 38 39  1  0
 38 88  1  1
 39 40  1  0
 39 41  1  0
 39 89  1  1
 40 90  1  0
 41 42  1  0
 41 91  1  1
 42 43  1  6
 42 44  1  0
 43 92  1  0
 43 93  1  0
 43 94  1  0
 44 45  1  6
 45 95  1  0
M  END
>  <i_m_ct_stereo_status>  (333) 
1

>  <s_m_source_file>  (333) 
/var/tmp/pbs.5076255.sched01/tmpybatibx8/138x0dlab3k.sdf

>  <i_m_source_file_index>  (333) 
3

>  <i_lp_mmshare_version>  (333) 
48012

>  <i_f3d_flags>  (333) 
0

>  <s_epik_input>  (333) 
W0NIM11DKD1PKVtDSDJdW0NIMl1bQ0BdMShbT0hdKVtDQEhdKFtDSDNdKVtDSF09W0NIXVtDQEhdKFtDQEBIXTJbQ0gzXSlbQ0BdMShbQ0gzXSlbQ0BdKFtPSF0pKFtDQF0yM09bQ0gzXSlbQ0hdPVtDSF1bQ0BIXTRbQ0BIXTVbQ0BIXShDKD1PKUMoPVtDSF01KVtDSDNdKVtDQF02KFtPSF0pW0NAQF03KFtPSF0pW0NAQEhdKFtDSF09QyhbQ0gyXTYpW0NIM10pW0NAQEhdKFtPSF0pW0NAQEhdM1tDQEBdNDdbQ0gzXQ==

>  <s_epik_cmdline>  (333) 
J2VwaWtfcHl0aG9uJywgJy1waHQnLCAnMi4wJywgJy1waCcsICc3LjAnLCAnLXRuJywgJzgnLCAnLW1hJywgJzIwMCcsICctaW1hZScsICc8aW5maWxlLm1hZT4nLCAnLW9tYWUnLCAnPG91dGZpbGUubWFlPic=

>  <r_lp_tautomer_probability>  (333) 
0.499977

>  <r_epik_Ionization_Penalty>  (333) 
4.2205e-07

>  <r_epik_Ionization_Penalty_Charging>  (333) 
0

>  <r_epik_Ionization_Penalty_Neutral>  (333) 
4.2205e-07

>  <r_epik_State_Penalty>  (333) 
0.41068

>  <r_epik_Charging_Adjusted_Penalty>  (333) 
0.41068

>  <i_epik_Tot_Q>  (333) 
0

>  <i_epik_Tot_abs_Q>  (333) 
0

>  <s_lp_Force_Field>  (333) 
OPLS3e

>  <r_lp_Energy>  (333) 
120.859

>  <b_lp_Chiralities_Consistent>  (333) 
1

>  <s_lp_Variant>  (333) 
95:0-2

>  <s_i_glide_gridfile>  (333) 
pfpi4k_grid

>  <i_i_glide_lignum>  (333) 
3

>  <i_i_glide_rotatable_bonds>  (333) 
9

>  <r_i_docking_score>  (333) 
-2.11312

>  <r_i_glide_ligand_efficiency>  (333) 
-0.0469581

>  <r_i_glide_ligand_efficiency_sa>  (333) 
-0.167025

>  <r_i_glide_ligand_efficiency_ln>  (333) 
-0.439622

>  <r_i_glide_gscore>  (333) 
-2.11312

>  <r_i_glide_lipo>  (333) 
-0.225623

>  <r_i_glide_hbond>  (333) 
0

>  <r_i_glide_metal>  (333) 
-0

>  <r_i_glide_rewards>  (333) 
0

>  <r_i_glide_evdw>  (333) 
-26.0012

>  <r_i_glide_ecoul>  (333) 
-4.3625

>  <r_i_glide_erotb>  (333) 
0.108854

>  <r_i_glide_esite>  (333) 
-0.0419116

>  <r_i_glide_emodel>  (333) 
-33.0098

>  <r_i_glide_energy>  (333) 
-30.3637

>  <r_i_glide_einternal>  (333) 
4.24133

>  <r_i_glide_intrahb_reward>  (333) 
-0

>  <i_i_glide_confnum>  (333) 
5

>  <i_i_glide_posenum>  (333) 
36

>  <r_i_glide_eff_state_penalty>  (333) 
0

>  <ligand_id>  (333) 
95

>  <original_smiles>  (333) 
COC12C(C)C3C=CC(C)C(O)(CCC(C)=O)C3(C)C1(O)C=CC1C3C=C(C)C(=O)C3C3(O)CC(C)=CC4C(O)C2C1(C)C43O

>  <smiles>  (333) 
[H]OC1([H])C2([H])C([H])=C(C([H])([H])[H])C([H])([H])C3(O[H])C4=C(C([H])([H])C([H])(C([H])([H])[H])C4=O)C4([H])C([H])=C([H])C5(O[H])C(OC([H])([H])[H])(C([H])(C([H])([H])[H])C6([H])C([H])=C([H])C([H])(C([H])([H])[H])C(O[H])(C([H])([H])C([H])([H])C(=O)C([H])([H])[H])C65C([H])([H])[H])C1([H])C4(C([H])([H])[H])C23O[H]

$$$$
95:2:0
     RDKit          3D

 95101  0  0  1  0  0  0  0  0999 V2000
    2.3778   -3.5448    8.1861 C   0  0  0  0  0  0  0  0  0  0  0  0
    1.7054   -3.1523    6.9741 O   0  0  0  0  0  0  0  0  0  0  0  0
    2.3786   -2.7166    5.7577 C   0  0  2  0  0  0  0  0  0  0  0  0
    3.0055   -1.3416    6.2149 C   0  0  1  0  0  0  0  0  0  0  0  0
    4.4666   -1.0044    5.8780 C   0  0  0  0  0  0  0  0  0  0  0  0
    1.9493   -0.2730    5.9075 C   0  0  1  0  0  0  0  0  0  0  0  0
    2.4139    1.1752    5.9443 C   0  0  0  0  0  0  0  0  0  0  0  0
    2.2027    2.0605    4.9590 C   0  0  0  0  0  0  0  0  0  0  0  0
    1.5176    1.7098    3.6518 C   0  0  1  0  0  0  0  0  0  0  0  0
    2.0147    2.6459    2.5338 C   0  0  0  0  0  0  0  0  0  0  0  0
    1.5848    0.1576    3.3744 C   0  0  1  0  0  0  0  0  0  0  0  0
    0.6332   -0.0785    2.3468 O   0  0  0  0  0  0  0  0  0  0  0  0
    3.0085   -0.2128    2.8206 C   0  0  0  0  0  0  0  0  0  0  0  0
    3.3163    0.0852    1.3242 C   0  0  0  0  0  0  0  0  0  0  0  0
    4.3229   -0.8736    0.7053 C   0  0  0  0  0  0  0  0  0  0  0  0
    3.7710   -2.1308    0.0519 C   0  0  0  0  0  0  0  0  0  0  0  0
    5.5280   -0.6364    0.7277 O   0  0  0  0  0  0  0  0  0  0  0  0
    1.1084   -0.6803    4.6729 C   0  0  2  0  0  0  0  0  0  0  0  0
   -0.3675   -0.2359    5.0075 C   0  0  0  0  0  0  0  0  0  0  0  0
    1.2497   -2.2901    4.6868 C   0  0  2  0  0  0  0  0  0  0  0  0
    0.0300   -2.8277    5.1663 O   0  0  0  0  0  0  0  0  0  0  0  0
    1.4181   -2.9494    3.3151 C   0  0  0  0  0  0  0  0  0  0  0  0
    1.5858   -4.2619    3.0523 C   0  0  0  0  0  0  0  0  0  0  0  0
    1.5434   -5.3580    4.0798 C   0  0  1  0  0  0  0  0  0  0  0  0
    1.3476   -6.6951    3.3926 C   0  0  0  0  0  0  0  0  0  0  0  0
   -0.0221   -7.2570    3.1088 C   0  0  0  0  0  0  0  0  0  0  0  0
    0.2747   -8.6354    2.4849 C   0  0  2  0  0  0  0  0  0  0  0  0
   -0.3299   -9.8228    3.2436 C   0  0  0  0  0  0  0  0  0  0  0  0
    1.7980   -8.7034    2.4528 C   0  0  0  0  0  0  0  0  0  0  0  0
    2.4449   -9.6291    1.9826 O   0  0  0  0  0  0  0  0  0  0  0  0
    2.3386   -7.4739    3.0386 C   0  0  0  0  0  0  0  0  0  0  0  0
    3.8189   -7.1651    3.2700 C   0  0  1  0  0  0  0  0  0  0  0  0
    4.5562   -8.3811    3.4248 O   0  0  0  0  0  0  0  0  0  0  0  0
    4.3638   -6.5168    1.9763 C   0  0  0  0  0  0  0  0  0  0  0  0
    5.8005   -6.0957    2.1491 C   0  0  0  0  0  0  0  0  0  0  0  0
    6.7600   -6.4191    1.0269 C   0  0  0  0  0  0  0  0  0  0  0  0
    6.1686   -5.4737    3.2792 C   0  0  0  0  0  0  0  0  0  0  0  0
    5.2006   -5.2083    4.4210 C   0  0  1  0  0  0  0  0  0  0  0  0
    4.6042   -3.8040    4.4508 C   0  0  1  0  0  0  0  0  0  0  0  0
    4.3619   -3.3486    3.1382 O   0  0  0  0  0  0  0  0  0  0  0  0
    3.3600   -3.9582    5.3901 C   0  0  2  0  0  0  0  0  0  0  0  0
    2.7563   -5.3981    5.0715 C   0  0  1  0  0  0  0  0  0  0  0  0
    2.1605   -6.0925    6.3433 C   0  0  0  0  0  0  0  0  0  0  0  0
    4.0261   -6.2222    4.5530 C   0  0  1  0  0  0  0  0  0  0  0  0
    4.4763   -7.0677    5.6163 O   0  0  0  0  0  0  0  0  0  0  0  0
    1.6184   -3.8605    8.9081 H   0  0  0  0  0  0  0  0  0  0  0  0
    2.9097   -2.7246    8.6677 H   0  0  0  0  0  0  0  0  0  0  0  0
    3.0276   -4.3954    8.0423 H   0  0  0  0  0  0  0  0  0  0  0  0
    3.0426   -1.2854    7.2944 H   0  0  0  0  0  0  0  0  0  0  0  0
    4.6975   -1.0436    4.8181 H   0  0  0  0  0  0  0  0  0  0  0  0
    5.1307   -1.6793    6.4191 H   0  0  0  0  0  0  0  0  0  0  0  0
    4.7244   -0.0127    6.2452 H   0  0  0  0  0  0  0  0  0  0  0  0
    1.2733   -0.3336    6.7628 H   0  0  0  0  0  0  0  0  0  0  0  0
    2.9121    1.4896    6.8523 H   0  0  0  0  0  0  0  0  0  0  0  0
    2.5313    3.0841    5.0765 H   0  0  0  0  0  0  0  0  0  0  0  0
    0.4786    2.0078    3.7805 H   0  0  0  0  0  0  0  0  0  0  0  0
    1.6915    3.6719    2.7117 H   0  0  0  0  0  0  0  0  0  0  0  0
    1.6176    2.3598    1.5635 H   0  0  0  0  0  0  0  0  0  0  0  0
    3.0988    2.6712    2.4789 H   0  0  0  0  0  0  0  0  0  0  0  0
    0.9110    0.3647    1.5576 H   0  0  0  0  0  0  0  0  0  0  0  0
    3.7615    0.3045    3.4159 H   0  0  0  0  0  0  0  0  0  0  0  0
    3.1977   -1.2590    2.9934 H   0  0  0  0  0  0  0  0  0  0  0  0
    2.4206    0.0360    0.7081 H   0  0  0  0  0  0  0  0  0  0  0  0
    3.7207    1.0877    1.2249 H   0  0  0  0  0  0  0  0  0  0  0  0
    3.2604   -2.7512    0.7898 H   0  0  0  0  0  0  0  0  0  0  0  0
    4.5716   -2.7146   -0.4021 H   0  0  0  0  0  0  0  0  0  0  0  0
    3.0541   -1.8587   -0.7236 H   0  0  0  0  0  0  0  0  0  0  0  0
   -1.0698   -0.4692    4.2055 H   0  0  0  0  0  0  0  0  0  0  0  0
   -0.4557    0.8264    5.2201 H   0  0  0  0  0  0  0  0  0  0  0  0
   -0.7570   -0.6972    5.9151 H   0  0  0  0  0  0  0  0  0  0  0  0
    0.1228   -3.7606    5.1944 H   0  0  0  0  0  0  0  0  0  0  0  0
    1.3875   -2.3292    2.4382 H   0  0  0  0  0  0  0  0  0  0  0  0
    1.7376   -4.5711    2.0352 H   0  0  0  0  0  0  0  0  0  0  0  0
    0.6230   -5.2086    4.6380 H   0  0  0  0  0  0  0  0  0  0  0  0
   -0.6084   -7.3414    4.0210 H   0  0  0  0  0  0  0  0  0  0  0  0
   -0.5480   -6.6340    2.3917 H   0  0  0  0  0  0  0  0  0  0  0  0
   -0.0827  -10.7761    2.7629 H   0  0  0  0  0  0  0  0  0  0  0  0
   -1.4206   -9.7560    3.2765 H   0  0  0  0  0  0  0  0  0  0  0  0
    0.0300   -9.8783    4.2766 H   0  0  0  0  0  0  0  0  0  0  0  0
   -0.0724   -8.6392    1.4635 H   0  0  0  0  0  0  0  0  0  0  0  0
    4.3615   -8.9383    2.6830 H   0  0  0  0  0  0  0  0  0  0  0  0
    4.2548   -7.1968    1.1326 H   0  0  0  0  0  0  0  0  0  0  0  0
    3.7834   -5.6273    1.7431 H   0  0  0  0  0  0  0  0  0  0  0  0
    6.7804   -7.4989    0.8787 H   0  0  0  0  0  0  0  0  0  0  0  0
    7.7702   -6.0972    1.2803 H   0  0  0  0  0  0  0  0  0  0  0  0
    6.4515   -5.9355    0.0995 H   0  0  0  0  0  0  0  0  0  0  0  0
    7.1942   -5.1593    3.4201 H   0  0  0  0  0  0  0  0  0  0  0  0
    5.8256   -5.2886    5.3124 H   0  0  0  0  0  0  0  0  0  0  0  0
    5.3724   -3.1641    4.8704 H   0  0  0  0  0  0  0  0  0  0  0  0
    5.1825   -3.3373    2.6696 H   0  0  0  0  0  0  0  0  0  0  0  0
    3.9284   -4.1152    6.3111 H   0  0  0  0  0  0  0  0  0  0  0  0
    2.8389   -6.0658    7.2002 H   0  0  0  0  0  0  0  0  0  0  0  0
    1.8721   -7.1290    6.1193 H   0  0  0  0  0  0  0  0  0  0  0  0
    1.2413   -5.6138    6.6790 H   0  0  0  0  0  0  0  0  0  0  0  0
    3.8666   -7.7853    5.6896 H   0  0  0  0  0  0  0  0  0  0  0  0
  1  2  1  0
  1 46  1  0
  1 47  1  0
  1 48  1  0
  3  2  1  1
  3 20  1  0
  3 41  1  0
  3  4  1  0
  4  5  1  0
  4  6  1  0
  4 49  1  1
  5 50  1  0
  5 51  1  0
  5 52  1  0
  6 18  1  0
  6  7  1  0
  6 53  1  1
  7  8  2  0
  7 54  1  0
  8  9  1  0
  8 55  1  0
  9 10  1  0
  9 11  1  0
  9 56  1  1
 10 57  1  0
 10 58  1  0
 10 59  1  0
 11 12  1  6
 11 13  1  0
 11 18  1  0
 12 60  1  0
 13 14  1  0
 13 61  1  0
 13 62  1  0
 14 15  1  0
 14 63  1  0
 14 64  1  0
 15 16  1  0
 15 17  2  0
 16 65  1  0
 16 66  1  0
 16 67  1  0
 18 19  1  1
 18 20  1  0
 19 68  1  0
 19 69  1  0
 19 70  1  0
 20 21  1  1
 20 22  1  0
 21 71  1  0
 22 23  2  0
 22 72  1  0
 23 24  1  0
 23 73  1  0
 24 42  1  0
 24 74  1  1
 24 25  1  0
 25 26  1  0
 25 31  2  0
 26 76  1  0
 26 75  1  0
 26 27  1  0
 27 28  1  0
 27 80  1  6
 27 29  1  0
 28 77  1  0
 28 78  1  0
 28 79  1  0
 29 30  2  0
 29 31  1  0
 31 32  1  0
 32 44  1  0
 32 33  1  1
 32 34  1  0
 33 81  1  0
 34 35  1  0
 34 82  1  0
 34 83  1  0
 35 36  1  0
 35 37  2  0
 36 84  1  0
 36 85  1  0
 36 86  1  0
 37 38  1  0
 37 87  1  0
 38 44  1  0
 38 39  1  0
 38 88  1  1
 39 40  1  0
 39 41  1  0
 39 89  1  1
 40 90  1  0
 41 42  1  0
 41 91  1  1
 42 43  1  1
 42 44  1  0
 43 92  1  0
 43 93  1  0
 43 94  1  0
 44 45  1  1
 45 95  1  0
M  END
>  <i_m_ct_stereo_status>  (334) 
1

>  <s_m_source_file>  (334) 
/var/tmp/pbs.5076255.sched01/tmpybatibx8/138x0dlab3k.sdf

>  <i_m_source_file_index>  (334) 
4

>  <i_lp_mmshare_version>  (334) 
48012

>  <i_f3d_flags>  (334) 
0

>  <s_epik_input>  (334) 
W0NIM11DKD1PKVtDSDJdW0NIMl1bQ0BdMShbT0hdKVtDQEhdKFtDSDNdKVtDSF09W0NIXVtDQEhdKFtDQEBIXTJbQ0gzXSlbQ0BdMShbQ0gzXSlbQ0BdKFtPSF0pKFtDQF0yM09bQ0gzXSlbQ0hdPVtDSF1bQ0BIXTRbQ0BIXTVbQ0BIXShDKD1PKUMoPVtDSF01KVtDSDNdKVtDQF02KFtPSF0pW0NAQF03KFtPSF0pW0NAQEhdKFtDSF09QyhbQ0gyXTYpW0NIM10pW0NAQEhdKFtPSF0pW0NAQEhdM1tDQEBdNDdbQ0gzXQ==

>  <s_epik_cmdline>  (334) 
J2VwaWtfcHl0aG9uJywgJy1waHQnLCAnMi4wJywgJy1waCcsICc3LjAnLCAnLXRuJywgJzgnLCAnLW1hJywgJzIwMCcsICctaW1hZScsICc8aW5maWxlLm1hZT4nLCAnLW9tYWUnLCAnPG91dGZpbGUubWFlPic=

>  <r_lp_tautomer_probability>  (334) 
0.499977

>  <r_epik_Ionization_Penalty>  (334) 
4.2205e-07

>  <r_epik_Ionization_Penalty_Charging>  (334) 
0

>  <r_epik_Ionization_Penalty_Neutral>  (334) 
4.2205e-07

>  <r_epik_State_Penalty>  (334) 
0.41068

>  <r_epik_Charging_Adjusted_Penalty>  (334) 
0.41068

>  <i_epik_Tot_Q>  (334) 
0

>  <i_epik_Tot_abs_Q>  (334) 
0

>  <s_lp_Force_Field>  (334) 
OPLS3e

>  <r_lp_Energy>  (334) 
121.033

>  <b_lp_Chiralities_Consistent>  (334) 
1

>  <s_lp_Variant>  (334) 
95:0-3

>  <s_i_glide_gridfile>  (334) 
pfpi4k_grid

>  <i_i_glide_lignum>  (334) 
4

>  <i_i_glide_rotatable_bonds>  (334) 
9

>  <r_i_docking_score>  (334) 
-2.12623

>  <r_i_glide_ligand_efficiency>  (334) 
-0.0472496

>  <r_i_glide_ligand_efficiency_sa>  (334) 
-0.168062

>  <r_i_glide_ligand_efficiency_ln>  (334) 
-0.442351

>  <r_i_glide_gscore>  (334) 
-2.12623

>  <r_i_glide_lipo>  (334) 
-0.207095

>  <r_i_glide_hbond>  (334) 
0

>  <r_i_glide_metal>  (334) 
-0

>  <r_i_glide_rewards>  (334) 
-0.569396

>  <r_i_glide_evdw>  (334) 
-29.4514

>  <r_i_glide_ecoul>  (334) 
0.118972

>  <r_i_glide_erotb>  (334) 
0.108854

>  <r_i_glide_esite>  (334) 
-0.00387022

>  <r_i_glide_emodel>  (334) 
-31.9458

>  <r_i_glide_energy>  (334) 
-29.3325

>  <r_i_glide_einternal>  (334) 
10.6469

>  <r_i_glide_intrahb_reward>  (334) 
-0.5

>  <i_i_glide_confnum>  (334) 
3

>  <i_i_glide_posenum>  (334) 
18

>  <r_i_glide_eff_state_penalty>  (334) 
0

>  <ligand_id>  (334) 
95

>  <original_smiles>  (334) 
COC12C(C)C3C=CC(C)C(O)(CCC(C)=O)C3(C)C1(O)C=CC1C3C=C(C)C(=O)C3C3(O)CC(C)=CC4C(O)C2C1(C)C43O

>  <smiles>  (334) 
[H]OC1([H])C2([H])C([H])=C(C([H])([H])[H])C([H])([H])C3(O[H])C4=C(C([H])([H])C([H])(C([H])([H])[H])C4=O)C4([H])C([H])=C([H])C5(O[H])C(OC([H])([H])[H])(C([H])(C([H])([H])[H])C6([H])C([H])=C([H])C([H])(C([H])([H])[H])C(O[H])(C([H])([H])C([H])([H])C(=O)C([H])([H])[H])C65C([H])([H])[H])C1([H])C4(C([H])([H])[H])C23O[H]

$$$$
95:2:1
     RDKit          3D

 95101  0  0  1  0  0  0  0  0999 V2000
    1.3336   -2.1382    6.0085 C   0  0  0  0  0  0  0  0  0  0  0  0
    1.8905   -3.3985    5.6192 O   0  0  0  0  0  0  0  0  0  0  0  0
    2.9821   -3.5893    4.6849 C   0  0  2  0  0  0  0  0  0  0  0  0
    4.1008   -2.5811    5.1446 C   0  0  1  0  0  0  0  0  0  0  0  0
    5.5572   -3.0464    5.3335 C   0  0  0  0  0  0  0  0  0  0  0  0
    3.9040   -1.3340    4.2481 C   0  0  1  0  0  0  0  0  0  0  0  0
    5.0556   -0.3618    4.2155 C   0  0  0  0  0  0  0  0  0  0  0  0
    5.6065    0.0995    3.0599 C   0  0  0  0  0  0  0  0  0  0  0  0
    5.1593   -0.3375    1.6686 C   0  0  1  0  0  0  0  0  0  0  0  0
    6.3034   -0.2508    0.6434 C   0  0  0  0  0  0  0  0  0  0  0  0
    4.4344   -1.7286    1.7135 C   0  0  1  0  0  0  0  0  0  0  0  0
    3.7427   -1.8007    0.5021 O   0  0  0  0  0  0  0  0  0  0  0  0
    5.5227   -2.8581    1.7907 C   0  0  0  0  0  0  0  0  0  0  0  0
    6.4105   -3.2631    0.5714 C   0  0  0  0  0  0  0  0  0  0  0  0
    5.8266   -3.1910   -0.8518 C   0  0  0  0  0  0  0  0  0  0  0  0
    4.5554   -3.9839   -1.1523 C   0  0  0  0  0  0  0  0  0  0  0  0
    6.3489   -2.4861   -1.7047 O   0  0  0  0  0  0  0  0  0  0  0  0
    3.3020   -1.7485    2.8686 C   0  0  2  0  0  0  0  0  0  0  0  0
    2.2661   -0.6030    2.5078 C   0  0  0  0  0  0  0  0  0  0  0  0
    2.5578   -3.1357    3.2117 C   0  0  2  0  0  0  0  0  0  0  0  0
    1.1618   -2.8939    3.2101 O   0  0  0  0  0  0  0  0  0  0  0  0
    2.6960   -4.2455    2.1727 C   0  0  0  0  0  0  0  0  0  0  0  0
    2.2007   -5.4839    2.2528 C   0  0  0  0  0  0  0  0  0  0  0  0
    1.3389   -5.9984    3.3907 C   0  0  1  0  0  0  0  0  0  0  0  0
    0.6463   -7.2850    2.9753 C   0  0  0  0  0  0  0  0  0  0  0  0
   -0.6909   -7.2472    2.2629 C   0  0  0  0  0  0  0  0  0  0  0  0
   -0.9813   -8.7481    2.0923 C   0  0  2  0  0  0  0  0  0  0  0  0
   -2.2443   -9.1627    2.7515 C   0  0  0  0  0  0  0  0  0  0  0  0
    0.2151   -9.4653    2.6610 C   0  0  0  0  0  0  0  0  0  0  0  0
    0.3038  -10.7103    2.6725 O   0  0  0  0  0  0  0  0  0  0  0  0
    1.1270   -8.4828    3.1952 C   0  0  0  0  0  0  0  0  0  0  0  0
    2.4316   -8.7882    3.9148 C   0  0  1  0  0  0  0  0  0  0  0  0
    2.3836  -10.0551    4.5689 O   0  0  0  0  0  0  0  0  0  0  0  0
    3.5040   -8.9546    2.8218 C   0  0  0  0  0  0  0  0  0  0  0  0
    4.8621   -9.1661    3.4482 C   0  0  0  0  0  0  0  0  0  0  0  0
    5.7308  -10.2664    2.8725 C   0  0  0  0  0  0  0  0  0  0  0  0
    5.2250   -8.3904    4.4880 C   0  0  0  0  0  0  0  0  0  0  0  0
    4.2910   -7.3492    5.0938 C   0  0  1  0  0  0  0  0  0  0  0  0
    4.5471   -5.9054    4.6223 C   0  0  1  0  0  0  0  0  0  0  0  0
    4.9195   -5.8918    3.2548 O   0  0  0  0  0  0  0  0  0  0  0  0
    3.2303   -5.1473    4.9931 C   0  0  2  0  0  0  0  0  0  0  0  0
    2.0654   -6.1969    4.7625 C   0  0  1  0  0  0  0  0  0  0  0  0
    0.9219   -6.0143    5.8166 C   0  0  0  0  0  0  0  0  0  0  0  0
    2.7658   -7.6310    4.9488 C   0  0  1  0  0  0  0  0  0  0  0  0
    2.4155   -8.1540    6.2252 O   0  0  0  0  0  0  0  0  0  0  0  0
    0.4278   -2.3500    6.5715 H   0  0  0  0  0  0  0  0  0  0  0  0
    1.0335   -1.4941    5.1872 H   0  0  0  0  0  0  0  0  0  0  0  0
    1.9795   -1.5652    6.6692 H   0  0  0  0  0  0  0  0  0  0  0  0
    3.8877   -2.2563    6.1607 H   0  0  0  0  0  0  0  0  0  0  0  0
    5.9651   -3.5438    4.4610 H   0  0  0  0  0  0  0  0  0  0  0  0
    5.6260   -3.7056    6.1979 H   0  0  0  0  0  0  0  0  0  0  0  0
    6.2023   -2.2089    5.5875 H   0  0  0  0  0  0  0  0  0  0  0  0
    3.1503   -0.7283    4.7576 H   0  0  0  0  0  0  0  0  0  0  0  0
    5.4246    0.0333    5.1549 H   0  0  0  0  0  0  0  0  0  0  0  0
    6.3753    0.8371    3.1990 H   0  0  0  0  0  0  0  0  0  0  0  0
    4.4778    0.4497    1.3356 H   0  0  0  0  0  0  0  0  0  0  0  0
    6.5553    0.7839    0.4700 H   0  0  0  0  0  0  0  0  0  0  0  0
    6.0175   -0.5729   -0.3422 H   0  0  0  0  0  0  0  0  0  0  0  0
    7.1888   -0.7910    0.9878 H   0  0  0  0  0  0  0  0  0  0  0  0
    4.3739   -1.6710   -0.2171 H   0  0  0  0  0  0  0  0  0  0  0  0
    6.2212   -2.5910    2.5725 H   0  0  0  0  0  0  0  0  0  0  0  0
    5.1012   -3.7775    2.1319 H   0  0  0  0  0  0  0  0  0  0  0  0
    7.3361   -2.6887    0.5646 H   0  0  0  0  0  0  0  0  0  0  0  0
    6.7888   -4.2697    0.7257 H   0  0  0  0  0  0  0  0  0  0  0  0
    4.7345   -5.0498   -1.1007 H   0  0  0  0  0  0  0  0  0  0  0  0
    4.2082   -3.7469   -2.1494 H   0  0  0  0  0  0  0  0  0  0  0  0
    3.7599   -3.7136   -0.4821 H   0  0  0  0  0  0  0  0  0  0  0  0
    1.7579   -0.7739    1.5576 H   0  0  0  0  0  0  0  0  0  0  0  0
    2.7207    0.3867    2.4467 H   0  0  0  0  0  0  0  0  0  0  0  0
    1.4785   -0.4728    3.2540 H   0  0  0  0  0  0  0  0  0  0  0  0
    0.9664   -2.4746    2.3891 H   0  0  0  0  0  0  0  0  0  0  0  0
    3.2344   -4.0290    1.2814 H   0  0  0  0  0  0  0  0  0  0  0  0
    2.3809   -6.1889    1.4513 H   0  0  0  0  0  0  0  0  0  0  0  0
    0.5351   -5.2756    3.4991 H   0  0  0  0  0  0  0  0  0  0  0  0
   -1.4517   -6.7442    2.8588 H   0  0  0  0  0  0  0  0  0  0  0  0
   -0.6071   -6.7668    1.2888 H   0  0  0  0  0  0  0  0  0  0  0  0
   -2.3895  -10.2225    2.5109 H   0  0  0  0  0  0  0  0  0  0  0  0
   -2.9601   -8.5123    2.2260 H   0  0  0  0  0  0  0  0  0  0  0  0
   -2.3045   -8.9956    3.8415 H   0  0  0  0  0  0  0  0  0  0  0  0
   -1.1787   -8.9492    1.0517 H   0  0  0  0  0  0  0  0  0  0  0  0
    1.6383  -10.0851    5.1502 H   0  0  0  0  0  0  0  0  0  0  0  0
    3.2550   -9.7813    2.1451 H   0  0  0  0  0  0  0  0  0  0  0  0
    3.5601   -8.0585    2.1973 H   0  0  0  0  0  0  0  0  0  0  0  0
    5.2053  -11.2230    2.9438 H   0  0  0  0  0  0  0  0  0  0  0  0
    6.6646  -10.3518    3.4291 H   0  0  0  0  0  0  0  0  0  0  0  0
    5.9595  -10.0792    1.8199 H   0  0  0  0  0  0  0  0  0  0  0  0
    6.1925   -8.5208    4.9461 H   0  0  0  0  0  0  0  0  0  0  0  0
    4.5501   -7.3520    6.1580 H   0  0  0  0  0  0  0  0  0  0  0  0
    5.4152   -5.5641    5.1799 H   0  0  0  0  0  0  0  0  0  0  0  0
    4.2286   -6.2974    2.7603 H   0  0  0  0  0  0  0  0  0  0  0  0
    3.3415   -5.1337    6.0777 H   0  0  0  0  0  0  0  0  0  0  0  0
    1.3127   -5.9120    6.8300 H   0  0  0  0  0  0  0  0  0  0  0  0
    0.2311   -6.8593    5.8079 H   0  0  0  0  0  0  0  0  0  0  0  0
    0.3056   -5.1357    5.6288 H   0  0  0  0  0  0  0  0  0  0  0  0
    2.8020   -9.0160    6.2836 H   0  0  0  0  0  0  0  0  0  0  0  0
  1  2  1  0
  1 46  1  0
  1 47  1  0
  1 48  1  0
  3  2  1  1
  3 20  1  0
  3 41  1  0
  3  4  1  0
  4  5  1  0
  4  6  1  0
  4 49  1  1
  5 50  1  0
  5 51  1  0
  5 52  1  0
  6 18  1  0
  6  7  1  0
  6 53  1  1
  7  8  2  0
  7 54  1  0
  8  9  1  0
  8 55  1  0
  9 10  1  0
  9 11  1  0
  9 56  1  6
 10 57  1  0
 10 58  1  0
 10 59  1  0
 11 12  1  6
 11 13  1  0
 11 18  1  0
 12 60  1  0
 13 14  1  0
 13 61  1  0
 13 62  1  0
 14 15  1  0
 14 63  1  0
 14 64  1  0
 15 16  1  0
 15 17  2  0
 16 65  1  0
 16 66  1  0
 16 67  1  0
 18 19  1  6
 18 20  1  0
 19 68  1  0
 19 69  1  0
 19 70  1  0
 20 21  1  1
 20 22  1  0
 21 71  1  0
 22 23  2  0
 22 72  1  0
 23 24  1  0
 23 73  1  0
 24 42  1  0
 24 74  1  1
 24 25  1  0
 25 26  1  0
 25 31  2  0
 26 76  1  0
 26 75  1  0
 26 27  1  0
 27 28  1  0
 27 80  1  6
 27 29  1  0
 28 77  1  0
 28 78  1  0
 28 79  1  0
 29 30  2  0
 29 31  1  0
 31 32  1  0
 32 44  1  0
 32 33  1  1
 32 34  1  0
 33 81  1  0
 34 35  1  0
 34 82  1  0
 34 83  1  0
 35 36  1  0
 35 37  2  0
 36 84  1  0
 36 85  1  0
 36 86  1  0
 37 38  1  0
 37 87  1  0
 38 44  1  0
 38 39  1  0
 38 88  1  1
 39 40  1  0
 39 41  1  0
 39 89  1  1
 40 90  1  0
 41 42  1  0
 41 91  1  1
 42 43  1  1
 42 44  1  0
 43 92  1  0
 43 93  1  0
 43 94  1  0
 44 45  1  1
 45 95  1  0
M  END
>  <i_m_ct_stereo_status>  (335) 
1

>  <s_m_source_file>  (335) 
/var/tmp/pbs.5076255.sched01/tmpybatibx8/138x0dlab3k.sdf

>  <i_m_source_file_index>  (335) 
4

>  <i_lp_mmshare_version>  (335) 
48012

>  <i_f3d_flags>  (335) 
0

>  <s_epik_input>  (335) 
W0NIM11DKD1PKVtDSDJdW0NIMl1bQ0BdMShbT0hdKVtDQEhdKFtDSDNdKVtDSF09W0NIXVtDQEhdKFtDQEBIXTJbQ0gzXSlbQ0BdMShbQ0gzXSlbQ0BdKFtPSF0pKFtDQF0yM09bQ0gzXSlbQ0hdPVtDSF1bQ0BIXTRbQ0BIXTVbQ0BIXShDKD1PKUMoPVtDSF01KVtDSDNdKVtDQF02KFtPSF0pW0NAQF03KFtPSF0pW0NAQEhdKFtDSF09QyhbQ0gyXTYpW0NIM10pW0NAQEhdKFtPSF0pW0NAQEhdM1tDQEBdNDdbQ0gzXQ==

>  <s_epik_cmdline>  (335) 
J2VwaWtfcHl0aG9uJywgJy1waHQnLCAnMi4wJywgJy1waCcsICc3LjAnLCAnLXRuJywgJzgnLCAnLW1hJywgJzIwMCcsICctaW1hZScsICc8aW5maWxlLm1hZT4nLCAnLW9tYWUnLCAnPG91dGZpbGUubWFlPic=

>  <r_lp_tautomer_probability>  (335) 
0.499977

>  <r_epik_Ionization_Penalty>  (335) 
4.2205e-07

>  <r_epik_Ionization_Penalty_Charging>  (335) 
0

>  <r_epik_Ionization_Penalty_Neutral>  (335) 
4.2205e-07

>  <r_epik_State_Penalty>  (335) 
0.41068

>  <r_epik_Charging_Adjusted_Penalty>  (335) 
0.41068

>  <i_epik_Tot_Q>  (335) 
0

>  <i_epik_Tot_abs_Q>  (335) 
0

>  <s_lp_Force_Field>  (335) 
OPLS3e

>  <r_lp_Energy>  (335) 
121.033

>  <b_lp_Chiralities_Consistent>  (335) 
1

>  <s_lp_Variant>  (335) 
95:0-3

>  <s_i_glide_gridfile>  (335) 
pfpi4k_grid

>  <i_i_glide_lignum>  (335) 
4

>  <i_i_glide_rotatable_bonds>  (335) 
9

>  <r_i_docking_score>  (335) 
-1.69235

>  <r_i_glide_ligand_efficiency>  (335) 
-0.0376079

>  <r_i_glide_ligand_efficiency_sa>  (335) 
-0.133767

>  <r_i_glide_ligand_efficiency_ln>  (335) 
-0.352085

>  <r_i_glide_gscore>  (335) 
-1.69235

>  <r_i_glide_lipo>  (335) 
-0.560511

>  <r_i_glide_hbond>  (335) 
-0.0363839

>  <r_i_glide_metal>  (335) 
-0

>  <r_i_glide_rewards>  (335) 
-0.0906975

>  <r_i_glide_evdw>  (335) 
-19.1069

>  <r_i_glide_ecoul>  (335) 
-0.909063

>  <r_i_glide_erotb>  (335) 
0.108854

>  <r_i_glide_esite>  (335) 
-0.0219102

>  <r_i_glide_emodel>  (335) 
-18.6095

>  <r_i_glide_energy>  (335) 
-20.016

>  <r_i_glide_einternal>  (335) 
4.32701

>  <r_i_glide_intrahb_reward>  (335) 
-0

>  <i_i_glide_confnum>  (335) 
1

>  <i_i_glide_posenum>  (335) 
14

>  <r_i_glide_eff_state_penalty>  (335) 
0

>  <ligand_id>  (335) 
95

>  <original_smiles>  (335) 
COC12C(C)C3C=CC(C)C(O)(CCC(C)=O)C3(C)C1(O)C=CC1C3C=C(C)C(=O)C3C3(O)CC(C)=CC4C(O)C2C1(C)C43O

>  <smiles>  (335) 
[H]OC1([H])C2([H])C([H])=C(C([H])([H])[H])C([H])([H])C3(O[H])C4=C(C([H])([H])C([H])(C([H])([H])[H])C4=O)C4([H])C([H])=C([H])C5(O[H])C(OC([H])([H])[H])(C([H])(C([H])([H])[H])C6([H])C([H])=C([H])C([H])(C([H])([H])[H])C(O[H])(C([H])([H])C([H])([H])C(=O)C([H])([H])[H])C65C([H])([H])[H])C1([H])C4(C([H])([H])[H])C23O[H]

$$$$
95:2:2
     RDKit          3D

 95101  0  0  1  0  0  0  0  0999 V2000
    2.3283   -1.7148    8.3802 C   0  0  0  0  0  0  0  0  0  0  0  0
    2.8423   -2.4821    7.2886 O   0  0  0  0  0  0  0  0  0  0  0  0
    3.1324   -1.9867    5.9553 C   0  0  2  0  0  0  0  0  0  0  0  0
    3.9237   -0.6381    6.1546 C   0  0  1  0  0  0  0  0  0  0  0  0
    5.2438   -0.3697    5.3998 C   0  0  0  0  0  0  0  0  0  0  0  0
    2.8600    0.4759    6.0429 C   0  0  1  0  0  0  0  0  0  0  0  0
    3.3680    1.8923    5.8222 C   0  0  0  0  0  0  0  0  0  0  0  0
    2.9118    2.7139    4.8656 C   0  0  0  0  0  0  0  0  0  0  0  0
    1.8825    2.2998    3.8305 C   0  0  1  0  0  0  0  0  0  0  0  0
    2.0851    3.1050    2.5346 C   0  0  0  0  0  0  0  0  0  0  0  0
    1.8211    0.7354    3.6760 C   0  0  1  0  0  0  0  0  0  0  0  0
    0.6204    0.4954    2.9534 O   0  0  0  0  0  0  0  0  0  0  0  0
    3.0311    0.2397    2.8167 C   0  0  0  0  0  0  0  0  0  0  0  0
    2.7696   -0.1010    1.3288 C   0  0  0  0  0  0  0  0  0  0  0  0
    3.9831   -0.6718    0.5878 C   0  0  0  0  0  0  0  0  0  0  0  0
    3.7089   -1.5100   -0.6605 C   0  0  0  0  0  0  0  0  0  0  0  0
    5.1364   -0.4631    0.9708 O   0  0  0  0  0  0  0  0  0  0  0  0
    1.6934    0.0226    5.1132 C   0  0  2  0  0  0  0  0  0  0  0  0
    0.3816    0.5595    5.7951 C   0  0  0  0  0  0  0  0  0  0  0  0
    1.7762   -1.5924    5.1974 C   0  0  2  0  0  0  0  0  0  0  0  0
    0.6740   -2.0547    5.9630 O   0  0  0  0  0  0  0  0  0  0  0  0
    1.5751   -2.3444    3.8811 C   0  0  0  0  0  0  0  0  0  0  0  0
    1.6157   -3.6796    3.7096 C   0  0  0  0  0  0  0  0  0  0  0  0
    1.8384   -4.6997    4.8076 C   0  0  1  0  0  0  0  0  0  0  0  0
    1.4318   -6.0677    4.3077 C   0  0  0  0  0  0  0  0  0  0  0  0
    0.0194   -6.5922    4.4362 C   0  0  0  0  0  0  0  0  0  0  0  0
    0.1077   -8.0260    3.8639 C   0  0  2  0  0  0  0  0  0  0  0  0
   -0.2780   -9.1107    4.8735 C   0  0  0  0  0  0  0  0  0  0  0  0
    1.5607   -8.1547    3.4356 C   0  0  0  0  0  0  0  0  0  0  0  0
    2.0009   -9.1618    2.8853 O   0  0  0  0  0  0  0  0  0  0  0  0
    2.2851   -6.9235    3.7620 C   0  0  0  0  0  0  0  0  0  0  0  0
    3.7651   -6.6591    3.5647 C   0  0  1  0  0  0  0  0  0  0  0  0
    4.5199   -7.8737    3.5941 O   0  0  0  0  0  0  0  0  0  0  0  0
    3.9421   -6.1377    2.1256 C   0  0  0  0  0  0  0  0  0  0  0  0
    5.3744   -5.7570    1.8624 C   0  0  0  0  0  0  0  0  0  0  0  0
    5.9733   -6.2061    0.5511 C   0  0  0  0  0  0  0  0  0  0  0  0
    6.0553   -5.0725    2.7949 C   0  0  0  0  0  0  0  0  0  0  0  0
    5.4493   -4.6996    4.1425 C   0  0  1  0  0  0  0  0  0  0  0  0
    4.9230   -3.2607    4.2257 C   0  0  1  0  0  0  0  0  0  0  0  0
    4.3408   -2.8866    2.9962 O   0  0  0  0  0  0  0  0  0  0  0  0
    3.9627   -3.2758    5.4581 C   0  0  2  0  0  0  0  0  0  0  0  0
    3.2752   -4.7076    5.4355 C   0  0  1  0  0  0  0  0  0  0  0  0
    3.0488   -5.2519    6.8847 C   0  0  0  0  0  0  0  0  0  0  0  0
    4.3223   -5.6411    4.6616 C   0  0  1  0  0  0  0  0  0  0  0  0
    5.0184   -6.4466    5.6084 O   0  0  0  0  0  0  0  0  0  0  0  0
    2.0802   -2.4103    9.1793 H   0  0  0  0  0  0  0  0  0  0  0  0
    1.4171   -1.1712    8.1548 H   0  0  0  0  0  0  0  0  0  0  0  0
    3.0505   -1.0214    8.8037 H   0  0  0  0  0  0  0  0  0  0  0  0
    4.3013   -0.6130    7.1708 H   0  0  0  0  0  0  0  0  0  0  0  0
    5.1860   -0.4552    4.3196 H   0  0  0  0  0  0  0  0  0  0  0  0
    6.0211   -1.0448    5.7575 H   0  0  0  0  0  0  0  0  0  0  0  0
    5.6279    0.6270    5.6120 H   0  0  0  0  0  0  0  0  0  0  0  0
    2.4453    0.5604    7.0449 H   0  0  0  0  0  0  0  0  0  0  0  0
    4.0978    2.2486    6.5372 H   0  0  0  0  0  0  0  0  0  0  0  0
    3.2769    3.7301    4.8029 H   0  0  0  0  0  0  0  0  0  0  0  0
    0.9285    2.6625    4.2079 H   0  0  0  0  0  0  0  0  0  0  0  0
    1.8553    4.1597    2.7057 H   0  0  0  0  0  0  0  0  0  0  0  0
    1.4307    2.7654    1.7337 H   0  0  0  0  0  0  0  0  0  0  0  0
    3.1107    3.0611    2.1827 H   0  0  0  0  0  0  0  0  0  0  0  0
    0.6558    0.9873    2.1441 H   0  0  0  0  0  0  0  0  0  0  0  0
    3.8519    0.9506    2.8794 H   0  0  0  0  0  0  0  0  0  0  0  0
    3.4190   -0.6523    3.2712 H   0  0  0  0  0  0  0  0  0  0  0  0
    1.9705   -0.8357    1.2404 H   0  0  0  0  0  0  0  0  0  0  0  0
    2.4296    0.7913    0.8121 H   0  0  0  0  0  0  0  0  0  0  0  0
    3.0859   -2.3721   -0.4125 H   0  0  0  0  0  0  0  0  0  0  0  0
    4.6346   -1.8764   -1.1062 H   0  0  0  0  0  0  0  0  0  0  0  0
    3.1754   -0.9220   -1.4107 H   0  0  0  0  0  0  0  0  0  0  0  0
   -0.5179    0.3096    5.2301 H   0  0  0  0  0  0  0  0  0  0  0  0
    0.3903    1.6386    5.9386 H   0  0  0  0  0  0  0  0  0  0  0  0
    0.2398    0.1824    6.8065 H   0  0  0  0  0  0  0  0  0  0  0  0
   -0.0995   -1.8477    5.4652 H   0  0  0  0  0  0  0  0  0  0  0  0
    1.3536   -1.7754    3.0037 H   0  0  0  0  0  0  0  0  0  0  0  0
    1.4588   -4.0750    2.7187 H   0  0  0  0  0  0  0  0  0  0  0  0
    1.1092   -4.4599    5.5792 H   0  0  0  0  0  0  0  0  0  0  0  0
   -0.2858   -6.5814    5.4851 H   0  0  0  0  0  0  0  0  0  0  0  0
   -0.6588   -5.9676    3.8560 H   0  0  0  0  0  0  0  0  0  0  0  0
   -0.1739  -10.1008    4.4259 H   0  0  0  0  0  0  0  0  0  0  0  0
   -1.3154   -9.0055    5.1941 H   0  0  0  0  0  0  0  0  0  0  0  0
    0.3524   -9.0954    5.7660 H   0  0  0  0  0  0  0  0  0  0  0  0
   -0.5174   -8.1203    2.9791 H   0  0  0  0  0  0  0  0  0  0  0  0
    4.3296   -8.3280    4.4031 H   0  0  0  0  0  0  0  0  0  0  0  0
    3.6080   -6.8880    1.4051 H   0  0  0  0  0  0  0  0  0  0  0  0
    3.3377   -5.2467    1.9607 H   0  0  0  0  0  0  0  0  0  0  0  0
    5.8890   -7.2932    0.5118 H   0  0  0  0  0  0  0  0  0  0  0  0
    7.0302   -5.9359    0.4864 H   0  0  0  0  0  0  0  0  0  0  0  0
    5.4405   -5.7850   -0.3044 H   0  0  0  0  0  0  0  0  0  0  0  0
    7.0824   -4.7948    2.6011 H   0  0  0  0  0  0  0  0  0  0  0  0
    6.2937   -4.7443    4.8359 H   0  0  0  0  0  0  0  0  0  0  0  0
    5.7924   -2.6277    4.3631 H   0  0  0  0  0  0  0  0  0  0  0  0
    3.6048   -3.4562    2.8336 H   0  0  0  0  0  0  0  0  0  0  0  0
    4.7014   -3.3701    6.2562 H   0  0  0  0  0  0  0  0  0  0  0  0
    3.9300   -5.1286    7.5161 H   0  0  0  0  0  0  0  0  0  0  0  0
    2.7936   -6.3116    6.8784 H   0  0  0  0  0  0  0  0  0  0  0  0
    2.2270   -4.7579    7.3996 H   0  0  0  0  0  0  0  0  0  0  0  0
    5.6449   -6.9601    5.1185 H   0  0  0  0  0  0  0  0  0  0  0  0
  1  2  1  0
  1 46  1  0
  1 47  1  0
  1 48  1  0
  3  2  1  1
  3 20  1  0
  3 41  1  0
  3  4  1  0
  4  5  1  0
  4  6  1  0
  4 49  1  1
  5 50  1  0
  5 51  1  0
  5 52  1  0
  6 18  1  0
  6  7  1  0
  6 53  1  1
  7  8  2  0
  7 54  1  0
  8  9  1  0
  8 55  1  0
  9 10  1  0
  9 11  1  0
  9 56  1  1
 10 57  1  0
 10 58  1  0
 10 59  1  0
 11 12  1  6
 11 13  1  0
 11 18  1  0
 12 60  1  0
 13 14  1  0
 13 61  1  0
 13 62  1  0
 14 15  1  0
 14 63  1  0
 14 64  1  0
 15 16  1  0
 15 17  2  0
 16 65  1  0
 16 66  1  0
 16 67  1  0
 18 19  1  1
 18 20  1  0
 19 68  1  0
 19 69  1  0
 19 70  1  0
 20 21  1  1
 20 22  1  0
 21 71  1  0
 22 23  2  0
 22 72  1  0
 23 24  1  0
 23 73  1  0
 24 42  1  0
 24 74  1  1
 24 25  1  0
 25 26  1  0
 25 31  2  0
 26 76  1  0
 26 75  1  0
 26 27  1  0
 27 28  1  0
 27 80  1  6
 27 29  1  0
 28 77  1  0
 28 78  1  0
 28 79  1  0
 29 30  2  0
 29 31  1  0
 31 32  1  0
 32 44  1  0
 32 33  1  6
 32 34  1  0
 33 81  1  0
 34 35  1  0
 34 82  1  0
 34 83  1  0
 35 36  1  0
 35 37  2  0
 36 84  1  0
 36 85  1  0
 36 86  1  0
 37 38  1  0
 37 87  1  0
 38 44  1  0
 38 39  1  0
 38 88  1  1
 39 40  1  0
 39 41  1  0
 39 89  1  1
 40 90  1  0
 41 42  1  0
 41 91  1  1
 42 43  1  1
 42 44  1  0
 43 92  1  0
 43 93  1  0
 43 94  1  0
 44 45  1  1
 45 95  1  0
M  END
>  <i_m_ct_stereo_status>  (336) 
1

>  <s_m_source_file>  (336) 
/var/tmp/pbs.5076255.sched01/tmpybatibx8/138x0dlab3k.sdf

>  <i_m_source_file_index>  (336) 
4

>  <i_lp_mmshare_version>  (336) 
48012

>  <i_f3d_flags>  (336) 
0

>  <s_epik_input>  (336) 
W0NIM11DKD1PKVtDSDJdW0NIMl1bQ0BdMShbT0hdKVtDQEhdKFtDSDNdKVtDSF09W0NIXVtDQEhdKFtDQEBIXTJbQ0gzXSlbQ0BdMShbQ0gzXSlbQ0BdKFtPSF0pKFtDQF0yM09bQ0gzXSlbQ0hdPVtDSF1bQ0BIXTRbQ0BIXTVbQ0BIXShDKD1PKUMoPVtDSF01KVtDSDNdKVtDQF02KFtPSF0pW0NAQF03KFtPSF0pW0NAQEhdKFtDSF09QyhbQ0gyXTYpW0NIM10pW0NAQEhdKFtPSF0pW0NAQEhdM1tDQEBdNDdbQ0gzXQ==

>  <s_epik_cmdline>  (336) 
J2VwaWtfcHl0aG9uJywgJy1waHQnLCAnMi4wJywgJy1waCcsICc3LjAnLCAnLXRuJywgJzgnLCAnLW1hJywgJzIwMCcsICctaW1hZScsICc8aW5maWxlLm1hZT4nLCAnLW9tYWUnLCAnPG91dGZpbGUubWFlPic=

>  <r_lp_tautomer_probability>  (336) 
0.499977

>  <r_epik_Ionization_Penalty>  (336) 
4.2205e-07

>  <r_epik_Ionization_Penalty_Charging>  (336) 
0

>  <r_epik_Ionization_Penalty_Neutral>  (336) 
4.2205e-07

>  <r_epik_State_Penalty>  (336) 
0.41068

>  <r_epik_Charging_Adjusted_Penalty>  (336) 
0.41068

>  <i_epik_Tot_Q>  (336) 
0

>  <i_epik_Tot_abs_Q>  (336) 
0

>  <s_lp_Force_Field>  (336) 
OPLS3e

>  <r_lp_Energy>  (336) 
121.033

>  <b_lp_Chiralities_Consistent>  (336) 
1

>  <s_lp_Variant>  (336) 
95:0-3

>  <s_i_glide_gridfile>  (336) 
pfpi4k_grid

>  <i_i_glide_lignum>  (336) 
4

>  <i_i_glide_rotatable_bonds>  (336) 
9

>  <r_i_docking_score>  (336) 
-1.66274

>  <r_i_glide_ligand_efficiency>  (336) 
-0.0369498

>  <r_i_glide_ligand_efficiency_sa>  (336) 
-0.131427

>  <r_i_glide_ligand_efficiency_ln>  (336) 
-0.345925

>  <r_i_glide_gscore>  (336) 
-1.66274

>  <r_i_glide_lipo>  (336) 
-0.242664

>  <r_i_glide_hbond>  (336) 
0

>  <r_i_glide_metal>  (336) 
-0

>  <r_i_glide_rewards>  (336) 
-0.0369757

>  <r_i_glide_evdw>  (336) 
-26.2201

>  <r_i_glide_ecoul>  (336) 
-1.13351

>  <r_i_glide_erotb>  (336) 
0.108854

>  <r_i_glide_esite>  (336) 
-0.0109263

>  <r_i_glide_emodel>  (336) 
-27.7882

>  <r_i_glide_energy>  (336) 
-27.3536

>  <r_i_glide_einternal>  (336) 
4.6954

>  <r_i_glide_intrahb_reward>  (336) 
-0

>  <i_i_glide_confnum>  (336) 
3

>  <i_i_glide_posenum>  (336) 
35

>  <r_i_glide_eff_state_penalty>  (336) 
0

>  <ligand_id>  (336) 
95

>  <original_smiles>  (336) 
COC12C(C)C3C=CC(C)C(O)(CCC(C)=O)C3(C)C1(O)C=CC1C3C=C(C)C(=O)C3C3(O)CC(C)=CC4C(O)C2C1(C)C43O

>  <smiles>  (336) 
[H]OC1([H])C2([H])C([H])=C(C([H])([H])[H])C([H])([H])C3(O[H])C4=C(C([H])([H])C([H])(C([H])([H])[H])C4=O)C4([H])C([H])=C([H])C5(O[H])C(OC([H])([H])[H])(C([H])(C([H])([H])[H])C6([H])C([H])=C([H])C([H])(C([H])([H])[H])C(O[H])(C([H])([H])C([H])([H])C(=O)C([H])([H])[H])C65C([H])([H])[H])C1([H])C4(C([H])([H])[H])C23O[H]

$$$$
97:0:0
     RDKit          3D

 85 93  0  0  1  0  0  0  0  0999 V2000
    2.6924   -6.3664    8.2105 C   0  0  0  0  0  0  0  0  0  0  0  0
    1.5204   -7.0007    7.4481 C   0  0  0  0  0  0  0  0  0  0  0  0
    0.4404   -7.0384    8.0521 O   0  0  0  0  0  0  0  0  0  0  0  0
    1.7385   -7.3964    5.8643 C   0  0  2  0  0  0  0  0  0  0  0  0
    2.9197   -8.3787    5.9162 C   0  0  1  0  0  0  0  0  0  0  0  0
    2.1528   -9.6918    6.3611 C   0  0  0  0  0  0  0  0  0  0  0  0
    0.5793   -9.4765    6.5847 C   0  0  0  0  0  0  0  0  0  0  0  0
   -0.1029   -8.3449    5.5970 C   0  0  1  0  0  0  0  0  0  0  0  0
   -0.2375   -6.8175    5.2493 C   0  0  2  0  0  0  0  0  0  0  0  0
   -1.2911   -7.0782    4.0094 C   0  0  0  0  0  0  0  0  0  0  0  0
   -1.1363   -8.5681    3.2953 C   0  0  0  0  0  0  0  0  0  0  0  0
    0.2352   -9.3489    3.7914 C   0  0  1  0  0  0  0  0  0  0  0  0
    1.1436  -10.0011    2.6819 C   0  0  0  0  0  0  0  0  0  0  0  0
    2.6394  -10.2983    3.0117 C   0  0  0  0  0  0  0  0  0  0  0  0
    3.9046   -9.3847    3.4723 C   0  0  2  0  0  0  0  0  0  0  0  0
    4.7924  -10.6544    3.8590 C   0  0  0  0  0  0  0  0  0  0  0  0
    3.9790   -8.4025    4.7398 C   0  0  1  0  0  0  0  0  0  0  0  0
    5.0256   -7.1644    4.5894 C   0  0  2  0  0  0  0  0  0  0  0  0
    5.2455   -5.8481    3.6982 C   0  0  0  0  0  0  0  0  0  0  0  0
    4.2793   -5.7894    2.5045 C   0  0  1  0  0  0  0  0  0  0  0  0
    4.1732   -7.1613    1.7168 C   0  0  0  0  0  0  0  0  0  0  0  0
    4.7063   -8.4964    2.4151 C   0  0  2  0  0  0  0  0  0  0  0  0
    5.3497   -9.3520    1.2926 C   0  0  0  0  0  0  0  0  0  0  0  0
    5.7421   -7.9125    3.3669 C   0  0  0  0  0  0  0  0  0  0  0  0
    2.9954   -5.2398    3.0947 C   0  0  0  0  0  0  0  0  0  0  0  0
    2.2239   -4.5444    2.4371 O   0  0  0  0  0  0  0  0  0  0  0  0
    2.7441   -5.6908    4.5602 C   0  0  2  0  0  0  0  0  0  0  0  0
    3.9659   -6.2794    5.1381 O   0  0  0  0  0  0  0  0  0  0  0  0
    1.3051   -6.0156    5.3113 C   0  0  2  0  0  0  0  0  0  0  0  0
    0.9694   -4.6778    6.0819 C   0  0  0  0  0  0  0  0  0  0  0  0
    0.7230   -3.6417    5.1327 O   0  0  0  0  0  0  0  0  0  0  0  0
   -0.0466   -2.5734    5.4207 C   0  0  0  0  0  0  0  0  0  0  0  0
   -0.7898   -2.5403    6.4062 O   0  0  0  0  0  0  0  0  0  0  0  0
    0.1091   -1.4580    4.4166 C   0  0  0  0  0  0  0  0  0  0  0  0
    1.0577   -1.5986    3.3726 C   0  0  0  0  0  0  0  0  0  0  0  0
    1.2441   -0.6039    2.3965 C   0  0  0  0  0  0  0  0  0  0  0  0
    0.4966    0.5809    2.4462 C   0  0  0  0  0  0  0  0  0  0  0  0
   -0.4372    0.7585    3.4801 C   0  0  0  0  0  0  0  0  0  0  0  0
   -0.6334   -0.2411    4.4560 C   0  0  0  0  0  0  0  0  0  0  0  0
   -1.7832    0.1093    5.6942 Cl  0  0  0  0  0  0  0  0  0  0  0  0
    0.9699   -8.1766    4.5314 C   0  0  2  0  0  0  0  0  0  0  0  0
    1.1800   -7.4175    3.1093 C   0  0  0  0  0  0  0  0  0  0  0  0
    3.3245   -5.7800    7.5438 H   0  0  0  0  0  0  0  0  0  0  0  0
    3.3021   -7.1245    8.7023 H   0  0  0  0  0  0  0  0  0  0  0  0
    2.3045   -5.6990    8.9817 H   0  0  0  0  0  0  0  0  0  0  0  0
    3.5577   -8.1632    6.7738 H   0  0  0  0  0  0  0  0  0  0  0  0
    2.2777  -10.4685    5.6173 H   0  0  0  0  0  0  0  0  0  0  0  0
    2.5989  -10.1168    7.2619 H   0  0  0  0  0  0  0  0  0  0  0  0
    0.1099  -10.4471    6.4044 H   0  0  0  0  0  0  0  0  0  0  0  0
    0.3276   -9.3515    7.6353 H   0  0  0  0  0  0  0  0  0  0  0  0
   -1.1191   -8.7595    5.5744 H   0  0  0  0  0  0  0  0  0  0  0  0
   -0.8707   -6.3665    6.0114 H   0  0  0  0  0  0  0  0  0  0  0  0
   -2.3073   -7.0022    4.3946 H   0  0  0  0  0  0  0  0  0  0  0  0
   -1.2241   -6.2763    3.2827 H   0  0  0  0  0  0  0  0  0  0  0  0
   -1.9984   -9.1809    3.5737 H   0  0  0  0  0  0  0  0  0  0  0  0
   -1.2125   -8.5016    2.2072 H   0  0  0  0  0  0  0  0  0  0  0  0
   -0.0663  -10.2404    4.3496 H   0  0  0  0  0  0  0  0  0  0  0  0
    0.6815  -10.9682    2.4819 H   0  0  0  0  0  0  0  0  0  0  0  0
    1.0888   -9.5568    1.6910 H   0  0  0  0  0  0  0  0  0  0  0  0
    2.5287  -11.1471    3.6853 H   0  0  0  0  0  0  0  0  0  0  0  0
    2.9757  -10.7823    2.0935 H   0  0  0  0  0  0  0  0  0  0  0  0
    5.8233  -10.4906    4.1501 H   0  0  0  0  0  0  0  0  0  0  0  0
    4.8502  -11.3926    3.0561 H   0  0  0  0  0  0  0  0  0  0  0  0
    4.3772  -11.1849    4.7175 H   0  0  0  0  0  0  0  0  0  0  0  0
    4.6720   -8.9729    5.3542 H   0  0  0  0  0  0  0  0  0  0  0  0
    5.2240   -4.9053    4.2666 H   0  0  0  0  0  0  0  0  0  0  0  0
    6.2630   -5.6478    3.3523 H   0  0  0  0  0  0  0  0  0  0  0  0
    4.6203   -5.0219    1.8125 H   0  0  0  0  0  0  0  0  0  0  0  0
    3.2185   -7.2962    1.2090 H   0  0  0  0  0  0  0  0  0  0  0  0
    4.8256   -6.9626    0.8645 H   0  0  0  0  0  0  0  0  0  0  0  0
    5.9571   -8.7494    0.6185 H   0  0  0  0  0  0  0  0  0  0  0  0
    4.5828   -9.8374    0.6869 H   0  0  0  0  0  0  0  0  0  0  0  0
    6.0235  -10.1198    1.6691 H   0  0  0  0  0  0  0  0  0  0  0  0
    6.5286   -7.4616    2.7554 H   0  0  0  0  0  0  0  0  0  0  0  0
    6.3972   -8.6468    3.8145 H   0  0  0  0  0  0  0  0  0  0  0  0
    2.9462   -4.7058    4.9766 H   0  0  0  0  0  0  0  0  0  0  0  0
    0.1276   -4.7870    6.7639 H   0  0  0  0  0  0  0  0  0  0  0  0
    1.8083   -4.3541    6.6959 H   0  0  0  0  0  0  0  0  0  0  0  0
    1.6779   -2.4752    3.2985 H   0  0  0  0  0  0  0  0  0  0  0  0
    1.9577   -0.7561    1.6001 H   0  0  0  0  0  0  0  0  0  0  0  0
    0.6400    1.3478    1.6933 H   0  0  0  0  0  0  0  0  0  0  0  0
   -1.0051    1.6812    3.5236 H   0  0  0  0  0  0  0  0  0  0  0  0
    0.7340   -7.6850    2.1600 H   0  0  0  0  0  0  0  0  0  0  0  0
    2.2048   -7.5801    2.9258 H   0  0  0  0  0  0  0  0  0  0  0  0
    0.8522   -6.3949    3.0309 H   0  0  0  0  0  0  0  0  0  0  0  0
  1  2  1  0
  1 43  1  0
  1 44  1  0
  1 45  1  0
  2  3  2  0
  4  2  1  1
  4 29  1  0
  4 41  1  0
  4  5  1  0
  5 17  1  0
  5  6  1  0
  5 46  1  1
  6  7  1  0
  6 47  1  0
  6 48  1  0
  7  8  1  0
  7 49  1  0
  7 50  1  0
  8 41  1  0
  8  9  1  0
  8 51  1  6
  9 29  1  0
  9 10  1  0
  9 52  1  1
 10 11  1  0
 10 53  1  0
 10 54  1  0
 11 12  1  0
 11 55  1  0
 11 56  1  0
 12 13  1  0
 12 41  1  0
 12 57  1  1
 13 14  1  0
 13 58  1  0
 13 59  1  0
 14 15  1  0
 14 60  1  0
 14 61  1  0
 15 22  1  0
 15 16  1  1
 15 17  1  0
 16 62  1  0
 16 63  1  0
 16 64  1  0
 17 18  1  0
 17 65  1  1
 18 24  1  0
 18 28  1  6
 18 19  1  0
 19 20  1  0
 19 66  1  0
 19 67  1  0
 20 21  1  0
 20 25  1  0
 20 68  1  6
 21 22  1  0
 21 69  1  0
 21 70  1  0
 22 23  1  6
 22 24  1  0
 23 71  1  0
 23 72  1  0
 23 73  1  0
 24 74  1  0
 24 75  1  0
 25 26  2  0
 25 27  1  0
 27 28  1  0
 27 29  1  0
 27 76  1  1
 29 30  1  1
 30 31  1  0
 30 77  1  0
 30 78  1  0
 31 32  1  0
 32 33  2  0
 32 34  1  0
 34 39  1  0
 34 35  2  0
 35 36  1  0
 35 79  1  0
 36 37  2  0
 36 80  1  0
 37 38  1  0
 37 81  1  0
 38 39  2  0
 38 82  1  0
 39 40  1  0
 41 42  1  6
 42 83  1  0
 42 84  1  0
 42 85  1  0
M  END
>  <i_m_ct_stereo_status>  (337) 
1

>  <s_m_source_file>  (337) 
/var/tmp/pbs.5076255.sched01/tmpybatibx8/138x0dlab3k.sdf

>  <i_m_source_file_index>  (337) 
7

>  <i_lp_mmshare_version>  (337) 
48012

>  <i_f3d_flags>  (337) 
0

>  <s_epik_input>  (337) 
Q2xjMVtjSF1bY0hdW2NIXVtjSF1jMUMoPU8pT1tDSDJdW0NAQF0yKFtDQF0zKEMoPU8pW0NIM10pW0NAQEhdNFtDQEBIXTVDNjc4KVtDQEBIXTlbQ0BIXShbQ0gyXVtDSDJdNClDMyhbQ0gzXSlbQ0BASF0oW0NIMl1bQ0gyXTkpW0NIMl1bQ0gyXVtDQEBdNShbQ0gzXSlbQ0BdKFtDSDNdKShbQ0gyXTcpW0NIMl1bQ0BIXShbQ0gyXTYpQyg9TylbQ0BASF0yTzg=

>  <s_epik_cmdline>  (337) 
J2VwaWtfcHl0aG9uJywgJy1waHQnLCAnMi4wJywgJy1waCcsICc3LjAnLCAnLXRuJywgJzgnLCAnLW1hJywgJzIwMCcsICctaW1hZScsICc8aW5maWxlLm1hZT4nLCAnLW9tYWUnLCAnPG91dGZpbGUubWFlPic=

>  <r_lp_tautomer_probability>  (337) 
1

>  <r_epik_Ionization_Penalty>  (337) 
5.77909e-12

>  <r_epik_Ionization_Penalty_Charging>  (337) 
0

>  <r_epik_Ionization_Penalty_Neutral>  (337) 
5.77909e-12

>  <r_epik_State_Penalty>  (337) 
-0

>  <r_epik_Charging_Adjusted_Penalty>  (337) 
0

>  <i_epik_Tot_Q>  (337) 
0

>  <i_epik_Tot_abs_Q>  (337) 
0

>  <s_epik_Chemistry_Notes>  (337) 
This compound has an ester and may undergo hydrolysis at high or low pH.

>  <s_lp_Force_Field>  (337) 
OPLS3e

>  <r_lp_Energy>  (337) 
761.847

>  <b_lp_Chiralities_Consistent>  (337) 
1

>  <s_lp_Variant>  (337) 
97:0-1

>  <s_i_glide_gridfile>  (337) 
pfpi4k_grid

>  <i_i_glide_lignum>  (337) 
7

>  <i_i_glide_rotatable_bonds>  (337) 
5

>  <r_i_docking_score>  (337) 
-2.54016

>  <r_i_glide_ligand_efficiency>  (337) 
-0.0604799

>  <r_i_glide_ligand_efficiency_sa>  (337) 
-0.21023

>  <r_i_glide_ligand_efficiency_ln>  (337) 
-0.536162

>  <r_i_glide_gscore>  (337) 
-2.54016

>  <r_i_glide_lipo>  (337) 
-0.191308

>  <r_i_glide_hbond>  (337) 
0

>  <r_i_glide_metal>  (337) 
-0

>  <r_i_glide_rewards>  (337) 
0

>  <r_i_glide_evdw>  (337) 
-39.3456

>  <r_i_glide_ecoul>  (337) 
-2.9093

>  <r_i_glide_erotb>  (337) 
0.0705411

>  <r_i_glide_esite>  (337) 
-0.0157165

>  <r_i_glide_emodel>  (337) 
-48.1647

>  <r_i_glide_energy>  (337) 
-42.2549

>  <r_i_glide_einternal>  (337) 
2.25292

>  <r_i_glide_intrahb_reward>  (337) 
-0

>  <i_i_glide_confnum>  (337) 
1

>  <i_i_glide_posenum>  (337) 
1

>  <r_i_glide_eff_state_penalty>  (337) 
0

>  <ligand_id>  (337) 
97

>  <original_smiles>  (337) 
CC(=O)C12C3CCC4C5CCC(CCC6(C)C3C37CC(CC6(C)C3)C(=O)C(O7)C51COC(=O)c1ccccc1Cl)C42C

>  <smiles>  (337) 
[H]c1c([H])c([H])c(C(=O)OC([H])([H])C23C4([H])OC56C([H])([H])C([H])(C4=O)C([H])([H])C(C([H])([H])[H])(C5([H])[H])C4(C([H])([H])[H])C([H])([H])C([H])([H])C5([H])C([H])([H])C([H])([H])C2([H])C2([H])C([H])([H])C([H])([H])C([H])(C64[H])C3(C(=O)C([H])([H])[H])C52C([H])([H])[H])c(Cl)c1[H]

$$$$
97:0:1
     RDKit          3D

 85 93  0  0  1  0  0  0  0  0999 V2000
    6.6608   -7.9976    3.9538 C   0  0  0  0  0  0  0  0  0  0  0  0
    6.1439   -6.6462    4.4505 C   0  0  0  0  0  0  0  0  0  0  0  0
    6.9971   -5.8159    4.7582 O   0  0  0  0  0  0  0  0  0  0  0  0
    4.5270   -6.3356    4.3370 C   0  0  2  0  0  0  0  0  0  0  0  0
    3.9228   -7.4507    5.1920 C   0  0  1  0  0  0  0  0  0  0  0  0
    4.1348   -6.8359    6.6408 C   0  0  0  0  0  0  0  0  0  0  0  0
    4.8759   -5.4095    6.6339 C   0  0  0  0  0  0  0  0  0  0  0  0
    4.5429   -4.5044    5.3104 C   0  0  1  0  0  0  0  0  0  0  0  0
    4.7769   -4.2785    3.7706 C   0  0  2  0  0  0  0  0  0  0  0  0
    3.9132   -2.8887    3.7039 C   0  0  0  0  0  0  0  0  0  0  0  0
    2.7416   -2.7630    4.8865 C   0  0  0  0  0  0  0  0  0  0  0  0
    2.5193   -4.2080    5.6710 C   0  0  1  0  0  0  0  0  0  0  0  0
    1.0418   -4.6928    5.8664 C   0  0  0  0  0  0  0  0  0  0  0  0
    0.7906   -6.2085    6.1311 C   0  0  0  0  0  0  0  0  0  0  0  0
    1.1037   -7.5720    5.3126 C   0  0  2  0  0  0  0  0  0  0  0  0
    0.7899   -8.5047    6.5707 C   0  0  0  0  0  0  0  0  0  0  0  0
    2.5271   -8.0609    4.7694 C   0  0  1  0  0  0  0  0  0  0  0  0
    2.4648   -9.0424    3.4855 C   0  0  2  0  0  0  0  0  0  0  0  0
    2.0149   -8.9938    1.9554 C   0  0  0  0  0  0  0  0  0  0  0  0
    1.2550   -7.7166    1.6039 C   0  0  1  0  0  0  0  0  0  0  0  0
    0.1410   -7.3318    2.6521 C   0  0  0  0  0  0  0  0  0  0  0  0
    0.1852   -8.0236    4.0827 C   0  0  2  0  0  0  0  0  0  0  0  0
   -1.2849   -8.2542    4.4875 C   0  0  0  0  0  0  0  0  0  0  0  0
    0.9066   -9.3190    3.7502 C   0  0  0  0  0  0  0  0  0  0  0  0
    2.3730   -6.6930    1.3385 C   0  0  0  0  0  0  0  0  0  0  0  0
    2.2631   -5.8292    0.4991 O   0  0  0  0  0  0  0  0  0  0  0  0
    3.6068   -6.9178    2.2507 C   0  0  2  0  0  0  0  0  0  0  0  0
    3.5693   -8.2354    2.8895 O   0  0  0  0  0  0  0  0  0  0  0  0
    4.6112   -5.7717    2.8999 C   0  0  2  0  0  0  0  0  0  0  0  0
    5.8128   -5.6934    1.8846 C   0  0  0  0  0  0  0  0  0  0  0  0
    5.4251   -4.9596    0.7275 O   0  0  0  0  0  0  0  0  0  0  0  0
    5.6185   -3.6355    0.6596 C   0  0  0  0  0  0  0  0  0  0  0  0
    6.1755   -3.0206    1.6025 O   0  0  0  0  0  0  0  0  0  0  0  0
    5.0866   -3.0171   -0.6104 C   0  0  0  0  0  0  0  0  0  0  0  0
    4.8619   -3.8461   -1.7354 C   0  0  0  0  0  0  0  0  0  0  0  0
    4.4588   -3.3305   -2.9728 C   0  0  0  0  0  0  0  0  0  0  0  0
    4.2288   -1.9455   -3.1092 C   0  0  0  0  0  0  0  0  0  0  0  0
    4.3933   -1.1026   -1.9967 C   0  0  0  0  0  0  0  0  0  0  0  0
    4.7974   -1.6345   -0.7560 C   0  0  0  0  0  0  0  0  0  0  0  0
    4.9257   -0.5192    0.5633 Cl  0  0  0  0  0  0  0  0  0  0  0  0
    3.3143   -5.1739    4.7359 C   0  0  2  0  0  0  0  0  0  0  0  0
    2.2178   -4.9380    3.5455 C   0  0  0  0  0  0  0  0  0  0  0  0
    6.0649   -8.3844    3.1267 H   0  0  0  0  0  0  0  0  0  0  0  0
    6.6875   -8.7350    4.7594 H   0  0  0  0  0  0  0  0  0  0  0  0
    7.6810   -7.8638    3.5958 H   0  0  0  0  0  0  0  0  0  0  0  0
    4.5673   -8.3426    5.1939 H   0  0  0  0  0  0  0  0  0  0  0  0
    3.1762   -6.7207    7.1336 H   0  0  0  0  0  0  0  0  0  0  0  0
    4.6961   -7.5178    7.2678 H   0  0  0  0  0  0  0  0  0  0  0  0
    4.5574   -4.8862    7.5269 H   0  0  0  0  0  0  0  0  0  0  0  0
    5.9371   -5.4968    6.8254 H   0  0  0  0  0  0  0  0  0  0  0  0
    4.7139   -3.5168    5.7565 H   0  0  0  0  0  0  0  0  0  0  0  0
    5.8065   -3.9599    3.6675 H   0  0  0  0  0  0  0  0  0  0  0  0
    4.5996   -2.0594    3.8390 H   0  0  0  0  0  0  0  0  0  0  0  0
    3.4775   -2.7417    2.7280 H   0  0  0  0  0  0  0  0  0  0  0  0
    3.0585   -2.0182    5.6090 H   0  0  0  0  0  0  0  0  0  0  0  0
    1.8174   -2.3626    4.4739 H   0  0  0  0  0  0  0  0  0  0  0  0
    2.8329   -4.0644    6.7179 H   0  0  0  0  0  0  0  0  0  0  0  0
    0.6993   -4.1734    6.7474 H   0  0  0  0  0  0  0  0  0  0  0  0
    0.3169   -4.3429    5.1328 H   0  0  0  0  0  0  0  0  0  0  0  0
    1.1709   -6.2979    7.1482 H   0  0  0  0  0  0  0  0  0  0  0  0
   -0.2878   -6.2284    6.2921 H   0  0  0  0  0  0  0  0  0  0  0  0
    0.7847   -9.5771    6.4245 H   0  0  0  0  0  0  0  0  0  0  0  0
   -0.1753   -8.2829    7.0258 H   0  0  0  0  0  0  0  0  0  0  0  0
    1.5338   -8.3686    7.3580 H   0  0  0  0  0  0  0  0  0  0  0  0
    2.6793   -8.8942    5.4356 H   0  0  0  0  0  0  0  0  0  0  0  0
    2.8272   -9.1802    1.2392 H   0  0  0  0  0  0  0  0  0  0  0  0
    1.4449   -9.8465    1.5762 H   0  0  0  0  0  0  0  0  0  0  0  0
    0.7782   -7.8664    0.6480 H   0  0  0  0  0  0  0  0  0  0  0  0
   -0.0539   -6.2681    2.7137 H   0  0  0  0  0  0  0  0  0  0  0  0
   -0.7646   -7.6975    2.1388 H   0  0  0  0  0  0  0  0  0  0  0  0
   -1.8882   -8.6532    3.6695 H   0  0  0  0  0  0  0  0  0  0  0  0
   -1.7427   -7.3224    4.8188 H   0  0  0  0  0  0  0  0  0  0  0  0
   -1.3684   -8.9869    5.2828 H   0  0  0  0  0  0  0  0  0  0  0  0
    0.2533   -9.8846    3.0734 H   0  0  0  0  0  0  0  0  0  0  0  0
    0.8732  -10.0613    4.5298 H   0  0  0  0  0  0  0  0  0  0  0  0
    4.2345   -7.2406    1.4203 H   0  0  0  0  0  0  0  0  0  0  0  0
    6.7174   -5.2660    2.3191 H   0  0  0  0  0  0  0  0  0  0  0  0
    6.1033   -6.6842    1.5693 H   0  0  0  0  0  0  0  0  0  0  0  0
    5.0201   -4.9149   -1.6799 H   0  0  0  0  0  0  0  0  0  0  0  0
    4.3337   -3.9991   -3.8329 H   0  0  0  0  0  0  0  0  0  0  0  0
    3.9003   -1.5235   -4.0653 H   0  0  0  0  0  0  0  0  0  0  0  0
    4.2130   -0.0264   -2.0931 H   0  0  0  0  0  0  0  0  0  0  0  0
    1.4347   -4.1965    3.5398 H   0  0  0  0  0  0  0  0  0  0  0  0
    1.6935   -5.8425    3.5593 H   0  0  0  0  0  0  0  0  0  0  0  0
    2.5839   -4.6235    2.5850 H   0  0  0  0  0  0  0  0  0  0  0  0
  1  2  1  0
  1 43  1  0
  1 44  1  0
  1 45  1  0
  2  3  2  0
  4  2  1  1
  4 29  1  0
  4 41  1  0
  4  5  1  0
  5 17  1  0
  5  6  1  0
  5 46  1  1
  6  7  1  0
  6 47  1  0
  6 48  1  0
  7  8  1  0
  7 49  1  0
  7 50  1  0
  8 41  1  0
  8  9  1  0
  8 51  1  1
  9 29  1  0
  9 10  1  0
  9 52  1  1
 10 11  1  0
 10 53  1  0
 10 54  1  0
 11 12  1  0
 11 55  1  0
 11 56  1  0
 12 13  1  0
 12 41  1  0
 12 57  1  1
 13 14  1  0
 13 58  1  0
 13 59  1  0
 14 15  1  0
 14 60  1  0
 14 61  1  0
 15 22  1  0
 15 16  1  1
 15 17  1  0
 16 62  1  0
 16 63  1  0
 16 64  1  0
 17 18  1  0
 17 65  1  1
 18 24  1  0
 18 28  1  1
 18 19  1  0
 19 20  1  0
 19 66  1  0
 19 67  1  0
 20 21  1  0
 20 25  1  0
 20 68  1  6
 21 22  1  0
 21 69  1  0
 21 70  1  0
 22 23  1  1
 22 24  1  0
 23 71  1  0
 23 72  1  0
 23 73  1  0
 24 74  1  0
 24 75  1  0
 25 26  2  0
 25 27  1  0
 27 28  1  0
 27 29  1  0
 27 76  1  6
 29 30  1  6
 30 31  1  0
 30 77  1  0
 30 78  1  0
 31 32  1  0
 32 33  2  0
 32 34  1  0
 34 39  1  0
 34 35  2  0
 35 36  1  0
 35 79  1  0
 36 37  2  0
 36 80  1  0
 37 38  1  0
 37 81  1  0
 38 39  2  0
 38 82  1  0
 39 40  1  0
 41 42  1  6
 42 83  1  0
 42 84  1  0
 42 85  1  0
M  END
>  <i_m_ct_stereo_status>  (338) 
1

>  <s_m_source_file>  (338) 
/var/tmp/pbs.5076255.sched01/tmpybatibx8/138x0dlab3k.sdf

>  <i_m_source_file_index>  (338) 
7

>  <i_lp_mmshare_version>  (338) 
48012

>  <i_f3d_flags>  (338) 
0

>  <s_epik_input>  (338) 
Q2xjMVtjSF1bY0hdW2NIXVtjSF1jMUMoPU8pT1tDSDJdW0NAQF0yKFtDQF0zKEMoPU8pW0NIM10pW0NAQEhdNFtDQEBIXTVDNjc4KVtDQEBIXTlbQ0BIXShbQ0gyXVtDSDJdNClDMyhbQ0gzXSlbQ0BASF0oW0NIMl1bQ0gyXTkpW0NIMl1bQ0gyXVtDQEBdNShbQ0gzXSlbQ0BdKFtDSDNdKShbQ0gyXTcpW0NIMl1bQ0BIXShbQ0gyXTYpQyg9TylbQ0BASF0yTzg=

>  <s_epik_cmdline>  (338) 
J2VwaWtfcHl0aG9uJywgJy1waHQnLCAnMi4wJywgJy1waCcsICc3LjAnLCAnLXRuJywgJzgnLCAnLW1hJywgJzIwMCcsICctaW1hZScsICc8aW5maWxlLm1hZT4nLCAnLW9tYWUnLCAnPG91dGZpbGUubWFlPic=

>  <r_lp_tautomer_probability>  (338) 
1

>  <r_epik_Ionization_Penalty>  (338) 
5.77909e-12

>  <r_epik_Ionization_Penalty_Charging>  (338) 
0

>  <r_epik_Ionization_Penalty_Neutral>  (338) 
5.77909e-12

>  <r_epik_State_Penalty>  (338) 
-0

>  <r_epik_Charging_Adjusted_Penalty>  (338) 
0

>  <i_epik_Tot_Q>  (338) 
0

>  <i_epik_Tot_abs_Q>  (338) 
0

>  <s_epik_Chemistry_Notes>  (338) 
This compound has an ester and may undergo hydrolysis at high or low pH.

>  <s_lp_Force_Field>  (338) 
OPLS3e

>  <r_lp_Energy>  (338) 
761.847

>  <b_lp_Chiralities_Consistent>  (338) 
1

>  <s_lp_Variant>  (338) 
97:0-1

>  <s_i_glide_gridfile>  (338) 
pfpi4k_grid

>  <i_i_glide_lignum>  (338) 
7

>  <i_i_glide_rotatable_bonds>  (338) 
5

>  <r_i_docking_score>  (338) 
-2.52155

>  <r_i_glide_ligand_efficiency>  (338) 
-0.0600369

>  <r_i_glide_ligand_efficiency_sa>  (338) 
-0.20869

>  <r_i_glide_ligand_efficiency_ln>  (338) 
-0.532234

>  <r_i_glide_gscore>  (338) 
-2.52155

>  <r_i_glide_lipo>  (338) 
-0.459365

>  <r_i_glide_hbond>  (338) 
0

>  <r_i_glide_metal>  (338) 
-0

>  <r_i_glide_rewards>  (338) 
-0.0822876

>  <r_i_glide_evdw>  (338) 
-40.1699

>  <r_i_glide_ecoul>  (338) 
-0.197557

>  <r_i_glide_erotb>  (338) 
0.0705411

>  <r_i_glide_esite>  (338) 
-0.0123118

>  <r_i_glide_emodel>  (338) 
-47.0226

>  <r_i_glide_energy>  (338) 
-40.3674

>  <r_i_glide_einternal>  (338) 
0.15666

>  <r_i_glide_intrahb_reward>  (338) 
-0

>  <i_i_glide_confnum>  (338) 
1

>  <i_i_glide_posenum>  (338) 
12

>  <r_i_glide_eff_state_penalty>  (338) 
0

>  <ligand_id>  (338) 
97

>  <original_smiles>  (338) 
CC(=O)C12C3CCC4C5CCC(CCC6(C)C3C37CC(CC6(C)C3)C(=O)C(O7)C51COC(=O)c1ccccc1Cl)C42C

>  <smiles>  (338) 
[H]c1c([H])c([H])c(C(=O)OC([H])([H])C23C4([H])OC56C([H])([H])C([H])(C4=O)C([H])([H])C(C([H])([H])[H])(C5([H])[H])C4(C([H])([H])[H])C([H])([H])C([H])([H])C5([H])C([H])([H])C([H])([H])C2([H])C2([H])C([H])([H])C([H])([H])C([H])(C64[H])C3(C(=O)C([H])([H])[H])C52C([H])([H])[H])c(Cl)c1[H]

$$$$
97:0:2
     RDKit          3D

 85 93  0  0  1  0  0  0  0  0999 V2000
    6.5508   -7.8138    4.2350 C   0  0  0  0  0  0  0  0  0  0  0  0
    5.9740   -6.4817    4.7417 C   0  0  0  0  0  0  0  0  0  0  0  0
    6.8007   -5.6510    5.1238 O   0  0  0  0  0  0  0  0  0  0  0  0
    4.3635   -6.2096    4.5644 C   0  0  2  0  0  0  0  0  0  0  0  0
    3.7272   -7.3607    5.3601 C   0  0  1  0  0  0  0  0  0  0  0  0
    3.8767   -6.7843    6.8316 C   0  0  0  0  0  0  0  0  0  0  0  0
    4.6005   -5.3512    6.9001 C   0  0  0  0  0  0  0  0  0  0  0  0
    4.3176   -4.3846    5.5855 C   0  0  1  0  0  0  0  0  0  0  0  0
    4.5820   -4.1307    4.0599 C   0  0  2  0  0  0  0  0  0  0  0  0
    3.6855   -2.7466    4.0053 C   0  0  0  0  0  0  0  0  0  0  0  0
    2.4808   -2.6906    5.1548 C   0  0  0  0  0  0  0  0  0  0  0  0
    2.2563   -4.1683    5.8805 C   0  0  1  0  0  0  0  0  0  0  0  0
    0.7758   -4.6913    6.0122 C   0  0  0  0  0  0  0  0  0  0  0  0
    0.5396   -6.2150    6.2219 C   0  0  0  0  0  0  0  0  0  0  0  0
    0.9164   -7.5571    5.3702 C   0  0  2  0  0  0  0  0  0  0  0  0
    0.5686   -8.5398    6.5838 C   0  0  0  0  0  0  0  0  0  0  0  0
    2.3735   -8.0043    4.8719 C   0  0  1  0  0  0  0  0  0  0  0  0
    2.3700   -8.9458    3.5410 C   0  0  2  0  0  0  0  0  0  0  0  0
    1.9763   -8.8662    1.9954 C   0  0  0  0  0  0  0  0  0  0  0  0
    1.2057   -7.5983    1.6631 C   0  0  1  0  0  0  0  0  0  0  0  0
    0.0616   -7.2424    2.6820 C   0  0  0  0  0  0  0  0  0  0  0  0
    0.0637   -7.9760    4.0924 C   0  0  2  0  0  0  0  0  0  0  0  0
   -1.4186   -8.2423    4.4324 C   0  0  0  0  0  0  0  0  0  0  0  0
    0.8170   -9.2518    3.7477 C   0  0  0  0  0  0  0  0  0  0  0  0
    2.3210   -6.5422    1.4573 C   0  0  0  0  0  0  0  0  0  0  0  0
    2.2449   -5.7256    0.5725 O   0  0  0  0  0  0  0  0  0  0  0  0
    3.5138   -6.7659    2.4357 C   0  0  2  0  0  0  0  0  0  0  0  0
    3.4751   -8.0898    3.0252 O   0  0  0  0  0  0  0  0  0  0  0  0
    4.4790   -5.6086    3.1403 C   0  0  2  0  0  0  0  0  0  0  0  0
    5.7122   -5.4944    2.1626 C   0  0  0  0  0  0  0  0  0  0  0  0
    5.2674   -4.9717    0.9086 O   0  0  0  0  0  0  0  0  0  0  0  0
    5.3560   -3.6542    0.5963 C   0  0  0  0  0  0  0  0  0  0  0  0
    5.9552   -2.8234    1.2768 O   0  0  0  0  0  0  0  0  0  0  0  0
    4.6526   -3.3082   -0.6667 C   0  0  0  0  0  0  0  0  0  0  0  0
    3.2377   -3.3811   -0.6865 C   0  0  0  0  0  0  0  0  0  0  0  0
    2.5309   -3.1139   -1.8760 C   0  0  0  0  0  0  0  0  0  0  0  0
    3.1994   -2.6998   -3.0221 C   0  0  0  0  0  0  0  0  0  0  0  0
    4.5946   -2.5538   -2.9988 C   0  0  0  0  0  0  0  0  0  0  0  0
    5.3262   -2.8686   -1.8236 C   0  0  0  0  0  0  0  0  0  0  0  0
    7.0476   -2.6619   -1.8130 Cl  0  0  0  0  0  0  0  0  0  0  0  0
    3.1210   -5.0683    4.9449 C   0  0  2  0  0  0  0  0  0  0  0  0
    2.0600   -4.8301    3.7170 C   0  0  0  0  0  0  0  0  0  0  0  0
    5.9882   -8.1868    3.3757 H   0  0  0  0  0  0  0  0  0  0  0  0
    6.5440   -8.5779    5.0168 H   0  0  0  0  0  0  0  0  0  0  0  0
    7.5776   -7.6664    3.9246 H   0  0  0  0  0  0  0  0  0  0  0  0
    4.3950   -8.2249    5.3660 H   0  0  0  0  0  0  0  0  0  0  0  0
    2.9019   -6.6878    7.2933 H   0  0  0  0  0  0  0  0  0  0  0  0
    4.4029   -7.4898    7.4674 H   0  0  0  0  0  0  0  0  0  0  0  0
    4.2310   -4.8625    7.7961 H   0  0  0  0  0  0  0  0  0  0  0  0
    5.6477   -5.4378    7.1603 H   0  0  0  0  0  0  0  0  0  0  0  0
    4.4450   -3.4099    6.0767 H   0  0  0  0  0  0  0  0  0  0  0  0
    5.6006   -3.7664    3.9833 H   0  0  0  0  0  0  0  0  0  0  0  0
    4.3460   -1.8990    4.1878 H   0  0  0  0  0  0  0  0  0  0  0  0
    3.3000   -2.5667    3.0108 H   0  0  0  0  0  0  0  0  0  0  0  0
    2.7610   -1.9712    5.9183 H   0  0  0  0  0  0  0  0  0  0  0  0
    1.5609   -2.2841    4.7362 H   0  0  0  0  0  0  0  0  0  0  0  0
    2.5290   -4.0591    6.9408 H   0  0  0  0  0  0  0  0  0  0  0  0
    0.3840   -4.2022    6.8951 H   0  0  0  0  0  0  0  0  0  0  0  0
    0.0699   -4.3229    5.2659 H   0  0  0  0  0  0  0  0  0  0  0  0
    0.8748   -6.3341    7.2534 H   0  0  0  0  0  0  0  0  0  0  0  0
   -0.5428   -6.2594    6.3361 H   0  0  0  0  0  0  0  0  0  0  0  0
    0.5942   -9.6071    6.3978 H   0  0  0  0  0  0  0  0  0  0  0  0
   -0.4176   -8.3707    7.0050 H   0  0  0  0  0  0  0  0  0  0  0  0
    1.2663   -8.4152    7.4120 H   0  0  0  0  0  0  0  0  0  0  0  0
    2.5171   -8.8572    5.5176 H   0  0  0  0  0  0  0  0  0  0  0  0
    2.8250   -9.0079    1.3058 H   0  0  0  0  0  0  0  0  0  0  0  0
    1.4556   -9.7311    1.5713 H   0  0  0  0  0  0  0  0  0  0  0  0
    0.7624   -7.6911    0.6804 H   0  0  0  0  0  0  0  0  0  0  0  0
   -0.1658   -6.1818    2.7579 H   0  0  0  0  0  0  0  0  0  0  0  0
   -0.8228   -7.5989    2.1310 H   0  0  0  0  0  0  0  0  0  0  0  0
   -1.9820   -8.6129    3.5811 H   0  0  0  0  0  0  0  0  0  0  0  0
   -1.9094   -7.3230    4.7745 H   0  0  0  0  0  0  0  0  0  0  0  0
   -1.5362   -9.0043    5.2020 H   0  0  0  0  0  0  0  0  0  0  0  0
    0.1979   -9.8043    3.0233 H   0  0  0  0  0  0  0  0  0  0  0  0
    0.7601  -10.0265    4.4995 H   0  0  0  0  0  0  0  0  0  0  0  0
    4.1856   -7.0619    1.6294 H   0  0  0  0  0  0  0  0  0  0  0  0
    6.5355   -4.8971    2.5705 H   0  0  0  0  0  0  0  0  0  0  0  0
    6.1528   -6.4713    1.9801 H   0  0  0  0  0  0  0  0  0  0  0  0
    2.7028   -3.6553    0.2295 H   0  0  0  0  0  0  0  0  0  0  0  0
    1.4487   -3.2407   -1.8907 H   0  0  0  0  0  0  0  0  0  0  0  0
    2.6326   -2.4633   -3.9239 H   0  0  0  0  0  0  0  0  0  0  0  0
    5.1056   -2.1755   -3.8826 H   0  0  0  0  0  0  0  0  0  0  0  0
    1.2576   -4.1061    3.7177 H   0  0  0  0  0  0  0  0  0  0  0  0
    1.5522   -5.7463    3.7025 H   0  0  0  0  0  0  0  0  0  0  0  0
    2.4440   -4.5013    2.7608 H   0  0  0  0  0  0  0  0  0  0  0  0
  1  2  1  0
  1 43  1  0
  1 44  1  0
  1 45  1  0
  2  3  2  0
  4  2  1  1
  4 29  1  0
  4 41  1  0
  4  5  1  0
  5 17  1  0
  5  6  1  0
  5 46  1  1
  6  7  1  0
  6 47  1  0
  6 48  1  0
  7  8  1  0
  7 49  1  0
  7 50  1  0
  8 41  1  0
  8  9  1  0
  8 51  1  1
  9 29  1  0
  9 10  1  0
  9 52  1  1
 10 11  1  0
 10 53  1  0
 10 54  1  0
 11 12  1  0
 11 55  1  0
 11 56  1  0
 12 13  1  0
 12 41  1  0
 12 57  1  1
 13 14  1  0
 13 58  1  0
 13 59  1  0
 14 15  1  0
 14 60  1  0
 14 61  1  0
 15 22  1  0
 15 16  1  1
 15 17  1  0
 16 62  1  0
 16 63  1  0
 16 64  1  0
 17 18  1  0
 17 65  1  1
 18 24  1  0
 18 28  1  1
 18 19  1  0
 19 20  1  0
 19 66  1  0
 19 67  1  0
 20 21  1  0
 20 25  1  0
 20 68  1  6
 21 22  1  0
 21 69  1  0
 21 70  1  0
 22 23  1  1
 22 24  1  0
 23 71  1  0
 23 72  1  0
 23 73  1  0
 24 74  1  0
 24 75  1  0
 25 26  2  0
 25 27  1  0
 27 28  1  0
 27 29  1  0
 27 76  1  6
 29 30  1  6
 30 31  1  0
 30 77  1  0
 30 78  1  0
 31 32  1  0
 32 33  2  0
 32 34  1  0
 34 39  1  0
 34 35  2  0
 35 36  1  0
 35 79  1  0
 36 37  2  0
 36 80  1  0
 37 38  1  0
 37 81  1  0
 38 39  2  0
 38 82  1  0
 39 40  1  0
 41 42  1  6
 42 83  1  0
 42 84  1  0
 42 85  1  0
M  END
>  <i_m_ct_stereo_status>  (339) 
1

>  <s_m_source_file>  (339) 
/var/tmp/pbs.5076255.sched01/tmpybatibx8/138x0dlab3k.sdf

>  <i_m_source_file_index>  (339) 
7

>  <i_lp_mmshare_version>  (339) 
48012

>  <i_f3d_flags>  (339) 
0

>  <s_epik_input>  (339) 
Q2xjMVtjSF1bY0hdW2NIXVtjSF1jMUMoPU8pT1tDSDJdW0NAQF0yKFtDQF0zKEMoPU8pW0NIM10pW0NAQEhdNFtDQEBIXTVDNjc4KVtDQEBIXTlbQ0BIXShbQ0gyXVtDSDJdNClDMyhbQ0gzXSlbQ0BASF0oW0NIMl1bQ0gyXTkpW0NIMl1bQ0gyXVtDQEBdNShbQ0gzXSlbQ0BdKFtDSDNdKShbQ0gyXTcpW0NIMl1bQ0BIXShbQ0gyXTYpQyg9TylbQ0BASF0yTzg=

>  <s_epik_cmdline>  (339) 
J2VwaWtfcHl0aG9uJywgJy1waHQnLCAnMi4wJywgJy1waCcsICc3LjAnLCAnLXRuJywgJzgnLCAnLW1hJywgJzIwMCcsICctaW1hZScsICc8aW5maWxlLm1hZT4nLCAnLW9tYWUnLCAnPG91dGZpbGUubWFlPic=

>  <r_lp_tautomer_probability>  (339) 
1

>  <r_epik_Ionization_Penalty>  (339) 
5.77909e-12

>  <r_epik_Ionization_Penalty_Charging>  (339) 
0

>  <r_epik_Ionization_Penalty_Neutral>  (339) 
5.77909e-12

>  <r_epik_State_Penalty>  (339) 
-0

>  <r_epik_Charging_Adjusted_Penalty>  (339) 
0

>  <i_epik_Tot_Q>  (339) 
0

>  <i_epik_Tot_abs_Q>  (339) 
0

>  <s_epik_Chemistry_Notes>  (339) 
This compound has an ester and may undergo hydrolysis at high or low pH.

>  <s_lp_Force_Field>  (339) 
OPLS3e

>  <r_lp_Energy>  (339) 
761.847

>  <b_lp_Chiralities_Consistent>  (339) 
1

>  <s_lp_Variant>  (339) 
97:0-1

>  <s_i_glide_gridfile>  (339) 
pfpi4k_grid

>  <i_i_glide_lignum>  (339) 
7

>  <i_i_glide_rotatable_bonds>  (339) 
5

>  <r_i_docking_score>  (339) 
-2.38206

>  <r_i_glide_ligand_efficiency>  (339) 
-0.0567158

>  <r_i_glide_ligand_efficiency_sa>  (339) 
-0.197146

>  <r_i_glide_ligand_efficiency_ln>  (339) 
-0.502792

>  <r_i_glide_gscore>  (339) 
-2.38206

>  <r_i_glide_lipo>  (339) 
-0.401486

>  <r_i_glide_hbond>  (339) 
0

>  <r_i_glide_metal>  (339) 
-0

>  <r_i_glide_rewards>  (339) 
-0.0668625

>  <r_i_glide_evdw>  (339) 
-39.1852

>  <r_i_glide_ecoul>  (339) 
-0.0693461

>  <r_i_glide_erotb>  (339) 
0.0705411

>  <r_i_glide_esite>  (339) 
-0.0145916

>  <r_i_glide_emodel>  (339) 
-42.4458

>  <r_i_glide_energy>  (339) 
-39.2546

>  <r_i_glide_einternal>  (339) 
5.41657

>  <r_i_glide_intrahb_reward>  (339) 
-0

>  <i_i_glide_confnum>  (339) 
2

>  <i_i_glide_posenum>  (339) 
33

>  <r_i_glide_eff_state_penalty>  (339) 
0

>  <ligand_id>  (339) 
97

>  <original_smiles>  (339) 
CC(=O)C12C3CCC4C5CCC(CCC6(C)C3C37CC(CC6(C)C3)C(=O)C(O7)C51COC(=O)c1ccccc1Cl)C42C

>  <smiles>  (339) 
[H]c1c([H])c([H])c(C(=O)OC([H])([H])C23C4([H])OC56C([H])([H])C([H])(C4=O)C([H])([H])C(C([H])([H])[H])(C5([H])[H])C4(C([H])([H])[H])C([H])([H])C([H])([H])C5([H])C([H])([H])C([H])([H])C2([H])C2([H])C([H])([H])C([H])([H])C([H])(C64[H])C3(C(=O)C([H])([H])[H])C52C([H])([H])[H])c(Cl)c1[H]

$$$$
99:0:0
     RDKit          3D

 38 41  0  0  1  0  0  0  0  0999 V2000
    3.2519   -1.2214   -2.7223 C   0  0  0  0  0  0  0  0  0  0  0  0
    3.8150   -1.7921   -1.5632 C   0  0  0  0  0  0  0  0  0  0  0  0
    4.5840   -2.9651   -1.7238 C   0  0  0  0  0  0  0  0  0  0  0  0
    5.2702   -3.6331   -0.5472 C   0  0  0  0  0  0  0  0  0  0  0  0
    4.5518   -4.8424   -0.0676 N   0  0  1  0  0  0  0  0  0  0  0  0
    5.3526   -5.6902    0.8432 C   0  0  0  0  0  0  0  0  0  0  0  0
    4.3275   -6.5967    1.5161 C   0  0  1  0  0  0  0  0  0  0  0  0
    4.7760   -7.3178    2.8013 C   0  0  0  0  0  0  0  0  0  0  0  0
    3.8120   -8.2901    3.2039 O   0  0  0  0  0  0  0  0  0  0  0  0
    2.6042   -7.8166    3.7966 C   0  0  0  0  0  0  0  0  0  0  0  0
    1.6376   -7.4437    2.7156 C   0  0  0  0  0  0  0  0  0  0  0  0
    0.3963   -7.9288    2.4169 C   0  0  0  0  0  0  0  0  0  0  0  0
   -0.0029   -7.1653    1.2843 C   0  0  0  0  0  0  0  0  0  0  0  0
    0.8909   -6.2605    0.9294 N   0  0  0  0  0  0  0  0  0  0  0  0
    1.9088   -6.4419    1.8005 N   0  0  0  0  0  0  0  0  0  0  0  0
    3.1339   -5.6638    1.7282 C   0  0  2  0  0  0  0  0  0  0  0  0
    3.2590   -4.5874    0.6192 C   0  0  0  0  0  0  0  0  0  0  0  0
    4.7247   -3.4588   -3.0380 C   0  0  0  0  0  0  0  0  0  0  0  0
    4.1569   -2.8612   -4.1069 N   0  0  0  0  0  0  0  0  0  0  0  0
    3.4320   -1.7498   -3.9544 N   0  0  0  0  0  0  0  0  0  0  0  0
    2.6460   -0.3260   -2.6765 H   0  0  0  0  0  0  0  0  0  0  0  0
    3.6631   -1.3258   -0.6007 H   0  0  0  0  0  0  0  0  0  0  0  0
    6.2787   -3.9029   -0.8600 H   0  0  0  0  0  0  0  0  0  0  0  0
    5.3903   -2.9115    0.2605 H   0  0  0  0  0  0  0  0  0  0  0  0
    6.1073   -6.2617    0.3019 H   0  0  0  0  0  0  0  0  0  0  0  0
    5.8489   -5.0678    1.5909 H   0  0  0  0  0  0  0  0  0  0  0  0
    4.0516   -7.3630    0.7897 H   0  0  0  0  0  0  0  0  0  0  0  0
    5.6997   -7.8600    2.5885 H   0  0  0  0  0  0  0  0  0  0  0  0
    5.0067   -6.6198    3.6102 H   0  0  0  0  0  0  0  0  0  0  0  0
    2.1777   -8.6232    4.3882 H   0  0  0  0  0  0  0  0  0  0  0  0
    2.7652   -6.9863    4.4819 H   0  0  0  0  0  0  0  0  0  0  0  0
   -0.1330   -8.7262    2.9252 H   0  0  0  0  0  0  0  0  0  0  0  0
   -0.9213   -7.2421    0.7257 H   0  0  0  0  0  0  0  0  0  0  0  0
    3.2477   -5.1511    2.6861 H   0  0  0  0  0  0  0  0  0  0  0  0
    3.2887   -3.6114    1.1041 H   0  0  0  0  0  0  0  0  0  0  0  0
    2.4464   -4.5593   -0.1043 H   0  0  0  0  0  0  0  0  0  0  0  0
    5.3256   -4.3295   -3.2619 H   0  0  0  0  0  0  0  0  0  0  0  0
    4.3244   -5.4191   -0.8727 H   0  0  0  0  0  0  0  0  0  0  0  0
  1 20  2  0
  1  2  1  0
  1 21  1  0
  2  3  2  0
  2 22  1  0
  3  4  1  0
  3 18  1  0
  4  5  1  0
  4 23  1  0
  4 24  1  0
  5 17  1  0
  5  6  1  0
  5 38  1  6
  6  7  1  0
  6 25  1  0
  6 26  1  0
  7 16  1  0
  7  8  1  0
  7 27  1  6
  8  9  1  0
  8 28  1  0
  8 29  1  0
  9 10  1  0
 10 11  1  0
 10 30  1  0
 10 31  1  0
 11 15  1  0
 11 12  2  0
 12 13  1  0
 12 32  1  0
 13 14  2  0
 13 33  1  0
 14 15  1  0
 15 16  1  0
 16 17  1  0
 16 34  1  1
 17 35  1  0
 17 36  1  0
 18 19  2  0
 18 37  1  0
 19 20  1  0
M  CHG  1   5   1
M  END
>  <i_m_ct_stereo_status>  (340) 
1

>  <s_m_source_file>  (340) 
/var/tmp/pbs.5076255.sched01/tmpybatibx8/138x0dlab3k.sdf

>  <i_m_source_file_index>  (340) 
9

>  <i_lp_mmshare_version>  (340) 
48012

>  <i_f3d_flags>  (340) 
0

>  <s_epik_input>  (340) 
W2NIXTFubltjSF1bY0hdYzFbQ0gyXU4oW0NIMl0yKVtDSDJdW0NASF0oW0NAQEhdMjMpbjRjKFtjSF1bY0hdbjQpW0NIMl1PW0NIMl0z

>  <s_epik_cmdline>  (340) 
J2VwaWtfcHl0aG9uJywgJy1waHQnLCAnMi4wJywgJy1waCcsICc3LjAnLCAnLXRuJywgJzgnLCAnLW1hJywgJzIwMCcsICctaW1hZScsICc8aW5maWxlLm1hZT4nLCAnLW9tYWUnLCAnPG91dGZpbGUubWFlPic=

>  <r_lp_tautomer_probability>  (340) 
1

>  <r_epik_Ionization_Penalty>  (340) 
0.0568884

>  <r_epik_Ionization_Penalty_Charging>  (340) 
0.0568691

>  <r_epik_Ionization_Penalty_Neutral>  (340) 
1.92955e-05

>  <r_epik_State_Penalty>  (340) 
0.0490804

>  <r_epik_Charging_Adjusted_Penalty>  (340) 
0.10595

>  <i_epik_Tot_Q>  (340) 
1

>  <i_epik_Tot_abs_Q>  (340) 
1

>  <s_lp_Force_Field>  (340) 
OPLS3e

>  <r_lp_Energy>  (340) 
21.6869

>  <b_lp_Chiralities_Consistent>  (340) 
1

>  <s_lp_Variant>  (340) 
99:0-1

>  <s_i_glide_gridfile>  (340) 
pfpi4k_grid

>  <i_i_glide_lignum>  (340) 
9

>  <i_i_glide_rotatable_bonds>  (340) 
2

>  <r_i_docking_score>  (340) 
-4.25037

>  <r_i_glide_ligand_efficiency>  (340) 
-0.212518

>  <r_i_glide_ligand_efficiency_sa>  (340) 
-0.576864

>  <r_i_glide_ligand_efficiency_ln>  (340) 
-1.06373

>  <r_i_glide_gscore>  (340) 
-4.25037

>  <r_i_glide_lipo>  (340) 
-0.34916

>  <r_i_glide_hbond>  (340) 
-0.16

>  <r_i_glide_metal>  (340) 
-0

>  <r_i_glide_rewards>  (340) 
-1.55233

>  <r_i_glide_evdw>  (340) 
-25.585

>  <r_i_glide_ecoul>  (340) 
-8.97187

>  <r_i_glide_erotb>  (340) 
0.483264

>  <r_i_glide_esite>  (340) 
-0.0471166

>  <r_i_glide_emodel>  (340) 
-44.0107

>  <r_i_glide_energy>  (340) 
-34.5569

>  <r_i_glide_einternal>  (340) 
0.556488

>  <r_i_glide_intrahb_reward>  (340) 
-0

>  <i_i_glide_confnum>  (340) 
3

>  <i_i_glide_posenum>  (340) 
1

>  <r_i_glide_eff_state_penalty>  (340) 
0

>  <ligand_id>  (340) 
99

>  <original_smiles>  (340) 
c1cc(CN2CC3COCc4ccnn4C3C2)cnn1

>  <smiles>  (340) 
[H]c1nnc([H])c(C([H])([H])[N+]2([H])C([H])([H])C3([H])n4nc([H])c([H])c4C([H])([H])OC([H])([H])C3([H])C2([H])[H])c1[H]

$$$$
99:0:1
     RDKit          3D

 38 41  0  0  1  0  0  0  0  0999 V2000
    3.0741   -2.4830   -3.7909 C   0  0  0  0  0  0  0  0  0  0  0  0
    2.7305   -3.0678   -2.5587 C   0  0  0  0  0  0  0  0  0  0  0  0
    3.4085   -2.6158   -1.4116 C   0  0  0  0  0  0  0  0  0  0  0  0
    3.0959   -3.1747   -0.0317 C   0  0  0  0  0  0  0  0  0  0  0  0
    3.4532   -4.6132    0.1135 N   0  0  1  0  0  0  0  0  0  0  0  0
    4.9040   -4.9038    0.1486 C   0  0  0  0  0  0  0  0  0  0  0  0
    4.9890   -6.3125    0.7300 C   0  0  1  0  0  0  0  0  0  0  0  0
    6.3566   -6.7530    1.2790 C   0  0  0  0  0  0  0  0  0  0  0  0
    6.3612   -8.1531    1.5621 O   0  0  0  0  0  0  0  0  0  0  0  0
    5.6717   -8.5944    2.7313 C   0  0  0  0  0  0  0  0  0  0  0  0
    4.2154   -8.7547    2.4147 C   0  0  0  0  0  0  0  0  0  0  0  0
    3.4008   -9.8523    2.4702 C   0  0  0  0  0  0  0  0  0  0  0  0
    2.1281   -9.3542    2.0763 C   0  0  0  0  0  0  0  0  0  0  0  0
    2.1502   -8.0594    1.7955 N   0  0  0  0  0  0  0  0  0  0  0  0
    3.4337   -7.6944    2.0009 N   0  0  0  0  0  0  0  0  0  0  0  0
    3.8889   -6.3271    1.7882 C   0  0  2  0  0  0  0  0  0  0  0  0
    2.8629   -5.2744    1.3078 C   0  0  0  0  0  0  0  0  0  0  0  0
    4.3324   -1.5679   -1.5874 C   0  0  0  0  0  0  0  0  0  0  0  0
    4.6149   -1.0392   -2.8013 N   0  0  0  0  0  0  0  0  0  0  0  0
    4.0019   -1.5034   -3.8983 N   0  0  0  0  0  0  0  0  0  0  0  0
    2.6189   -2.8254   -4.7118 H   0  0  0  0  0  0  0  0  0  0  0  0
    1.9880   -3.8522   -2.5269 H   0  0  0  0  0  0  0  0  0  0  0  0
    3.5941   -2.5787    0.7324 H   0  0  0  0  0  0  0  0  0  0  0  0
    2.0280   -3.0446    0.1293 H   0  0  0  0  0  0  0  0  0  0  0  0
    5.3453   -4.8413   -0.8475 H   0  0  0  0  0  0  0  0  0  0  0  0
    5.4039   -4.1960    0.8104 H   0  0  0  0  0  0  0  0  0  0  0  0
    4.7068   -6.9998   -0.0682 H   0  0  0  0  0  0  0  0  0  0  0  0
    7.1026   -6.5994    0.4997 H   0  0  0  0  0  0  0  0  0  0  0  0
    6.6810   -6.1576    2.1390 H   0  0  0  0  0  0  0  0  0  0  0  0
    6.0848   -9.5567    3.0282 H   0  0  0  0  0  0  0  0  0  0  0  0
    5.8215   -7.9199    3.5730 H   0  0  0  0  0  0  0  0  0  0  0  0
    3.6795  -10.8600    2.7433 H   0  0  0  0  0  0  0  0  0  0  0  0
    1.1973   -9.8930    1.9835 H   0  0  0  0  0  0  0  0  0  0  0  0
    4.2936   -5.9732    2.7380 H   0  0  0  0  0  0  0  0  0  0  0  0
    2.7388   -4.5397    2.1037 H   0  0  0  0  0  0  0  0  0  0  0  0
    1.8709   -5.6596    1.0802 H   0  0  0  0  0  0  0  0  0  0  0  0
    4.8535   -1.1250   -0.7538 H   0  0  0  0  0  0  0  0  0  0  0  0
    3.0851   -5.1087   -0.6931 H   0  0  0  0  0  0  0  0  0  0  0  0
  1 20  2  0
  1  2  1  0
  1 21  1  0
  2  3  2  0
  2 22  1  0
  3  4  1  0
  3 18  1  0
  4  5  1  0
  4 23  1  0
  4 24  1  0
  5 17  1  0
  5  6  1  0
  5 38  1  6
  6  7  1  0
  6 25  1  0
  6 26  1  0
  7 16  1  0
  7  8  1  0
  7 27  1  6
  8  9  1  0
  8 28  1  0
  8 29  1  0
  9 10  1  0
 10 11  1  0
 10 30  1  0
 10 31  1  0
 11 15  1  0
 11 12  2  0
 12 13  1  0
 12 32  1  0
 13 14  2  0
 13 33  1  0
 14 15  1  0
 15 16  1  0
 16 17  1  0
 16 34  1  1
 17 35  1  0
 17 36  1  0
 18 19  2  0
 18 37  1  0
 19 20  1  0
M  CHG  1   5   1
M  END
>  <i_m_ct_stereo_status>  (341) 
1

>  <s_m_source_file>  (341) 
/var/tmp/pbs.5076255.sched01/tmpybatibx8/138x0dlab3k.sdf

>  <i_m_source_file_index>  (341) 
9

>  <i_lp_mmshare_version>  (341) 
48012

>  <i_f3d_flags>  (341) 
0

>  <s_epik_input>  (341) 
W2NIXTFubltjSF1bY0hdYzFbQ0gyXU4oW0NIMl0yKVtDSDJdW0NASF0oW0NAQEhdMjMpbjRjKFtjSF1bY0hdbjQpW0NIMl1PW0NIMl0z

>  <s_epik_cmdline>  (341) 
J2VwaWtfcHl0aG9uJywgJy1waHQnLCAnMi4wJywgJy1waCcsICc3LjAnLCAnLXRuJywgJzgnLCAnLW1hJywgJzIwMCcsICctaW1hZScsICc8aW5maWxlLm1hZT4nLCAnLW9tYWUnLCAnPG91dGZpbGUubWFlPic=

>  <r_lp_tautomer_probability>  (341) 
1

>  <r_epik_Ionization_Penalty>  (341) 
0.0568884

>  <r_epik_Ionization_Penalty_Charging>  (341) 
0.0568691

>  <r_epik_Ionization_Penalty_Neutral>  (341) 
1.92955e-05

>  <r_epik_State_Penalty>  (341) 
0.0490804

>  <r_epik_Charging_Adjusted_Penalty>  (341) 
0.10595

>  <i_epik_Tot_Q>  (341) 
1

>  <i_epik_Tot_abs_Q>  (341) 
1

>  <s_lp_Force_Field>  (341) 
OPLS3e

>  <r_lp_Energy>  (341) 
21.6869

>  <b_lp_Chiralities_Consistent>  (341) 
1

>  <s_lp_Variant>  (341) 
99:0-1

>  <s_i_glide_gridfile>  (341) 
pfpi4k_grid

>  <i_i_glide_lignum>  (341) 
9

>  <i_i_glide_rotatable_bonds>  (341) 
2

>  <r_i_docking_score>  (341) 
-4.07564

>  <r_i_glide_ligand_efficiency>  (341) 
-0.203782

>  <r_i_glide_ligand_efficiency_sa>  (341) 
-0.55315

>  <r_i_glide_ligand_efficiency_ln>  (341) 
-1.02

>  <r_i_glide_gscore>  (341) 
-4.07564

>  <r_i_glide_lipo>  (341) 
-0.561363

>  <r_i_glide_hbond>  (341) 
0

>  <r_i_glide_metal>  (341) 
-0

>  <r_i_glide_rewards>  (341) 
-1.56107

>  <r_i_glide_evdw>  (341) 
-27.4706

>  <r_i_glide_ecoul>  (341) 
-6.86414

>  <r_i_glide_erotb>  (341) 
0.483264

>  <r_i_glide_esite>  (341) 
-0.0333298

>  <r_i_glide_emodel>  (341) 
-43.3748

>  <r_i_glide_energy>  (341) 
-34.3347

>  <r_i_glide_einternal>  (341) 
0.579781

>  <r_i_glide_intrahb_reward>  (341) 
-0

>  <i_i_glide_confnum>  (341) 
1

>  <i_i_glide_posenum>  (341) 
20

>  <r_i_glide_eff_state_penalty>  (341) 
0

>  <ligand_id>  (341) 
99

>  <original_smiles>  (341) 
c1cc(CN2CC3COCc4ccnn4C3C2)cnn1

>  <smiles>  (341) 
[H]c1nnc([H])c(C([H])([H])[N+]2([H])C([H])([H])C3([H])n4nc([H])c([H])c4C([H])([H])OC([H])([H])C3([H])C2([H])[H])c1[H]

$$$$
99:0:2
     RDKit          3D

 38 41  0  0  1  0  0  0  0  0999 V2000
    3.5223   -1.3618   -2.8095 C   0  0  0  0  0  0  0  0  0  0  0  0
    3.5541   -1.7979   -1.4716 C   0  0  0  0  0  0  0  0  0  0  0  0
    4.3313   -2.9342   -1.1741 C   0  0  0  0  0  0  0  0  0  0  0  0
    4.4548   -3.4566    0.2523 C   0  0  0  0  0  0  0  0  0  0  0  0
    3.8347   -4.8025    0.4466 N   0  0  1  0  0  0  0  0  0  0  0  0
    4.7938   -5.8930    0.7396 C   0  0  0  0  0  0  0  0  0  0  0  0
    3.9335   -7.0198    1.3095 C   0  0  1  0  0  0  0  0  0  0  0  0
    4.6644   -8.1342    2.0726 C   0  0  0  0  0  0  0  0  0  0  0  0
    3.7843   -9.2251    2.3450 O   0  0  0  0  0  0  0  0  0  0  0  0
    2.8011   -9.0528    3.3679 C   0  0  0  0  0  0  0  0  0  0  0  0
    1.6045   -8.3544    2.7898 C   0  0  0  0  0  0  0  0  0  0  0  0
    0.3017   -8.7512    2.6869 C   0  0  0  0  0  0  0  0  0  0  0  0
   -0.3437   -7.6463    2.0664 C   0  0  0  0  0  0  0  0  0  0  0  0
    0.4831   -6.6430    1.8091 N   0  0  0  0  0  0  0  0  0  0  0  0
    1.6843   -7.0840    2.2535 N   0  0  0  0  0  0  0  0  0  0  0  0
    2.8933   -6.2809    2.1473 C   0  0  2  0  0  0  0  0  0  0  0  0
    2.7915   -4.8751    1.5069 C   0  0  0  0  0  0  0  0  0  0  0  0
    5.0305   -3.5217   -2.2455 C   0  0  0  0  0  0  0  0  0  0  0  0
    4.9600   -3.0560   -3.5120 N   0  0  0  0  0  0  0  0  0  0  0  0
    4.2126   -1.9824   -3.7956 N   0  0  0  0  0  0  0  0  0  0  0  0
    2.9451   -0.4916   -3.0987 H   0  0  0  0  0  0  0  0  0  0  0  0
    3.0159   -1.2558   -0.7127 H   0  0  0  0  0  0  0  0  0  0  0  0
    5.5087   -3.4635    0.5346 H   0  0  0  0  0  0  0  0  0  0  0  0
    3.9889   -2.7211    0.9082 H   0  0  0  0  0  0  0  0  0  0  0  0
    5.3383   -6.2036   -0.1540 H   0  0  0  0  0  0  0  0  0  0  0  0
    5.5079   -5.5684    1.4988 H   0  0  0  0  0  0  0  0  0  0  0  0
    3.4241   -7.4882    0.4751 H   0  0  0  0  0  0  0  0  0  0  0  0
    5.4579   -8.5258    1.4368 H   0  0  0  0  0  0  0  0  0  0  0  0
    5.1472   -7.7655    2.9829 H   0  0  0  0  0  0  0  0  0  0  0  0
    2.5042  -10.0359    3.7225 H   0  0  0  0  0  0  0  0  0  0  0  0
    3.1901   -8.5184    4.2334 H   0  0  0  0  0  0  0  0  0  0  0  0
   -0.1237   -9.6936    3.0014 H   0  0  0  0  0  0  0  0  0  0  0  0
   -1.3825   -7.5460    1.7979 H   0  0  0  0  0  0  0  0  0  0  0  0
    3.2769   -6.1455    3.1606 H   0  0  0  0  0  0  0  0  0  0  0  0
    3.0042   -4.1515    2.2938 H   0  0  0  0  0  0  0  0  0  0  0  0
    1.8166   -4.6181    1.0962 H   0  0  0  0  0  0  0  0  0  0  0  0
    5.6809   -4.3675   -2.0849 H   0  0  0  0  0  0  0  0  0  0  0  0
    3.3739   -5.0591   -0.4224 H   0  0  0  0  0  0  0  0  0  0  0  0
  1 20  2  0
  1  2  1  0
  1 21  1  0
  2  3  2  0
  2 22  1  0
  3  4  1  0
  3 18  1  0
  4  5  1  0
  4 23  1  0
  4 24  1  0
  5 17  1  0
  5  6  1  0
  5 38  1  6
  6  7  1  0
  6 25  1  0
  6 26  1  0
  7 16  1  0
  7  8  1  0
  7 27  1  6
  8  9  1  0
  8 28  1  0
  8 29  1  0
  9 10  1  0
 10 11  1  0
 10 30  1  0
 10 31  1  0
 11 15  1  0
 11 12  2  0
 12 13  1  0
 12 32  1  0
 13 14  2  0
 13 33  1  0
 14 15  1  0
 15 16  1  0
 16 17  1  0
 16 34  1  1
 17 35  1  0
 17 36  1  0
 18 19  2  0
 18 37  1  0
 19 20  1  0
M  CHG  1   5   1
M  END
>  <i_m_ct_stereo_status>  (342) 
1

>  <s_m_source_file>  (342) 
/var/tmp/pbs.5076255.sched01/tmpybatibx8/138x0dlab3k.sdf

>  <i_m_source_file_index>  (342) 
9

>  <i_lp_mmshare_version>  (342) 
48012

>  <i_f3d_flags>  (342) 
0

>  <s_epik_input>  (342) 
W2NIXTFubltjSF1bY0hdYzFbQ0gyXU4oW0NIMl0yKVtDSDJdW0NASF0oW0NAQEhdMjMpbjRjKFtjSF1bY0hdbjQpW0NIMl1PW0NIMl0z

>  <s_epik_cmdline>  (342) 
J2VwaWtfcHl0aG9uJywgJy1waHQnLCAnMi4wJywgJy1waCcsICc3LjAnLCAnLXRuJywgJzgnLCAnLW1hJywgJzIwMCcsICctaW1hZScsICc8aW5maWxlLm1hZT4nLCAnLW9tYWUnLCAnPG91dGZpbGUubWFlPic=

>  <r_lp_tautomer_probability>  (342) 
1

>  <r_epik_Ionization_Penalty>  (342) 
0.0568884

>  <r_epik_Ionization_Penalty_Charging>  (342) 
0.0568691

>  <r_epik_Ionization_Penalty_Neutral>  (342) 
1.92955e-05

>  <r_epik_State_Penalty>  (342) 
0.0490804

>  <r_epik_Charging_Adjusted_Penalty>  (342) 
0.10595

>  <i_epik_Tot_Q>  (342) 
1

>  <i_epik_Tot_abs_Q>  (342) 
1

>  <s_lp_Force_Field>  (342) 
OPLS3e

>  <r_lp_Energy>  (342) 
21.6869

>  <b_lp_Chiralities_Consistent>  (342) 
1

>  <s_lp_Variant>  (342) 
99:0-1

>  <s_i_glide_gridfile>  (342) 
pfpi4k_grid

>  <i_i_glide_lignum>  (342) 
9

>  <i_i_glide_rotatable_bonds>  (342) 
2

>  <r_i_docking_score>  (342) 
-3.86852

>  <r_i_glide_ligand_efficiency>  (342) 
-0.193426

>  <r_i_glide_ligand_efficiency_sa>  (342) 
-0.525038

>  <r_i_glide_ligand_efficiency_ln>  (342) 
-0.968162

>  <r_i_glide_gscore>  (342) 
-3.86852

>  <r_i_glide_lipo>  (342) 
-0.310036

>  <r_i_glide_hbond>  (342) 
-0.0405621

>  <r_i_glide_metal>  (342) 
-0

>  <r_i_glide_rewards>  (342) 
-1.55233

>  <r_i_glide_evdw>  (342) 
-26.6397

>  <r_i_glide_ecoul>  (342) 
-7.28791

>  <r_i_glide_erotb>  (342) 
0.483264

>  <r_i_glide_esite>  (342) 
-0.0236848

>  <r_i_glide_emodel>  (342) 
-40.9008

>  <r_i_glide_energy>  (342) 
-33.9276

>  <r_i_glide_einternal>  (342) 
3.58638

>  <r_i_glide_intrahb_reward>  (342) 
-0

>  <i_i_glide_confnum>  (342) 
1

>  <i_i_glide_posenum>  (342) 
14

>  <r_i_glide_eff_state_penalty>  (342) 
0

>  <ligand_id>  (342) 
99

>  <original_smiles>  (342) 
c1cc(CN2CC3COCc4ccnn4C3C2)cnn1

>  <smiles>  (342) 
[H]c1nnc([H])c(C([H])([H])[N+]2([H])C([H])([H])C3([H])n4nc([H])c([H])c4C([H])([H])OC([H])([H])C3([H])C2([H])[H])c1[H]

$$$$
99:1:0
     RDKit          3D

 37 40  0  0  1  0  0  0  0  0999 V2000
    2.9121   -2.8118   -3.5215 C   0  0  0  0  0  0  0  0  0  0  0  0
    2.4976   -3.0554   -2.1984 C   0  0  0  0  0  0  0  0  0  0  0  0
    3.4895   -3.3902   -1.2568 C   0  0  0  0  0  0  0  0  0  0  0  0
    3.1272   -3.6867    0.1896 C   0  0  0  0  0  0  0  0  0  0  0  0
    2.9601   -5.1154    0.4527 N   0  0  0  0  0  0  0  0  0  0  0  0
    4.2389   -5.8055    0.6052 C   0  0  0  0  0  0  0  0  0  0  0  0
    3.8384   -7.1189    1.2638 C   0  0  1  0  0  0  0  0  0  0  0  0
    4.9707   -7.9334    1.9000 C   0  0  0  0  0  0  0  0  0  0  0  0
    4.4854   -8.9636    2.7600 O   0  0  0  0  0  0  0  0  0  0  0  0
    3.4069   -9.7585    2.2778 C   0  0  0  0  0  0  0  0  0  0  0  0
    2.1171   -9.1236    2.7064 C   0  0  0  0  0  0  0  0  0  0  0  0
    0.9963   -9.7091    3.2305 C   0  0  0  0  0  0  0  0  0  0  0  0
    0.1052   -8.6210    3.4478 C   0  0  0  0  0  0  0  0  0  0  0  0
    0.6294   -7.4590    3.0907 N   0  0  0  0  0  0  0  0  0  0  0  0
    1.8654   -7.7618    2.6270 N   0  0  0  0  0  0  0  0  0  0  0  0
    2.7874   -6.6839    2.2719 C   0  0  2  0  0  0  0  0  0  0  0  0
    2.1570   -5.4318    1.6359 C   0  0  0  0  0  0  0  0  0  0  0  0
    4.8164   -3.4478   -1.7189 C   0  0  0  0  0  0  0  0  0  0  0  0
    5.1538   -3.1919   -3.0068 N   0  0  0  0  0  0  0  0  0  0  0  0
    4.2094   -2.8811   -3.9012 N   0  0  0  0  0  0  0  0  0  0  0  0
    2.1969   -2.5560   -4.2876 H   0  0  0  0  0  0  0  0  0  0  0  0
    1.4534   -3.0003   -1.9311 H   0  0  0  0  0  0  0  0  0  0  0  0
    3.8847   -3.2646    0.8523 H   0  0  0  0  0  0  0  0  0  0  0  0
    2.2038   -3.1590    0.4174 H   0  0  0  0  0  0  0  0  0  0  0  0
    4.7250   -5.9653   -0.3579 H   0  0  0  0  0  0  0  0  0  0  0  0
    4.9101   -5.2437    1.2577 H   0  0  0  0  0  0  0  0  0  0  0  0
    3.3953   -7.7245    0.4811 H   0  0  0  0  0  0  0  0  0  0  0  0
    5.6142   -8.3474    1.1223 H   0  0  0  0  0  0  0  0  0  0  0  0
    5.6007   -7.2826    2.5063 H   0  0  0  0  0  0  0  0  0  0  0  0
    3.4348   -9.9011    1.2006 H   0  0  0  0  0  0  0  0  0  0  0  0
    3.4867  -10.7480    2.7199 H   0  0  0  0  0  0  0  0  0  0  0  0
    0.8466  -10.7579    3.4582 H   0  0  0  0  0  0  0  0  0  0  0  0
   -0.8898   -8.6372    3.8715 H   0  0  0  0  0  0  0  0  0  0  0  0
    3.2836   -6.3633    3.1901 H   0  0  0  0  0  0  0  0  0  0  0  0
    2.1368   -4.6095    2.3525 H   0  0  0  0  0  0  0  0  0  0  0  0
    1.1347   -5.6147    1.3110 H   0  0  0  0  0  0  0  0  0  0  0  0
    5.6279   -3.6989   -1.0533 H   0  0  0  0  0  0  0  0  0  0  0  0
  1 20  2  0
  1  2  1  0
  1 21  1  0
  2  3  2  0
  2 22  1  0
  3  4  1  0
  3 18  1  0
  4  5  1  0
  4 23  1  0
  4 24  1  0
  5 17  1  0
  5  6  1  0
  6  7  1  0
  6 25  1  0
  6 26  1  0
  7 16  1  0
  7  8  1  0
  7 27  1  6
  8  9  1  0
  8 28  1  0
  8 29  1  0
  9 10  1  0
 10 11  1  0
 10 30  1  0
 10 31  1  0
 11 15  1  0
 11 12  2  0
 12 13  1  0
 12 32  1  0
 13 14  2  0
 13 33  1  0
 14 15  1  0
 15 16  1  0
 16 17  1  0
 16 34  1  1
 17 35  1  0
 17 36  1  0
 18 19  2  0
 18 37  1  0
 19 20  1  0
M  END
>  <i_m_ct_stereo_status>  (343) 
1

>  <s_m_source_file>  (343) 
/var/tmp/pbs.5076255.sched01/tmpybatibx8/138x0dlab3k.sdf

>  <i_m_source_file_index>  (343) 
10

>  <i_lp_mmshare_version>  (343) 
48012

>  <i_f3d_flags>  (343) 
0

>  <s_epik_input>  (343) 
W2NIXTFubltjSF1bY0hdYzFbQ0gyXU4oW0NIMl0yKVtDSDJdW0NASF0oW0NAQEhdMjMpbjRjKFtjSF1bY0hdbjQpW0NIMl1PW0NIMl0z

>  <s_epik_cmdline>  (343) 
J2VwaWtfcHl0aG9uJywgJy1waHQnLCAnMi4wJywgJy1waCcsICc3LjAnLCAnLXRuJywgJzgnLCAnLW1hJywgJzIwMCcsICctaW1hZScsICc8aW5maWxlLm1hZT4nLCAnLW9tYWUnLCAnPG91dGZpbGUubWFlPic=

>  <r_lp_tautomer_probability>  (343) 
1

>  <r_epik_Ionization_Penalty>  (343) 
1.41696

>  <r_epik_Ionization_Penalty_Charging>  (343) 
0

>  <r_epik_Ionization_Penalty_Neutral>  (343) 
1.41696

>  <r_epik_State_Penalty>  (343) 
1.50017

>  <r_epik_Charging_Adjusted_Penalty>  (343) 
1.50017

>  <i_epik_Tot_Q>  (343) 
0

>  <i_epik_Tot_abs_Q>  (343) 
0

>  <s_lp_Force_Field>  (343) 
OPLS3e

>  <r_lp_Energy>  (343) 
22.1817

>  <b_lp_Chiralities_Consistent>  (343) 
1

>  <s_lp_Variant>  (343) 
99:0-2

>  <s_i_glide_gridfile>  (343) 
pfpi4k_grid

>  <i_i_glide_lignum>  (343) 
10

>  <i_i_glide_rotatable_bonds>  (343) 
2

>  <r_i_docking_score>  (343) 
-3.49278

>  <r_i_glide_ligand_efficiency>  (343) 
-0.174639

>  <r_i_glide_ligand_efficiency_sa>  (343) 
-0.474043

>  <r_i_glide_ligand_efficiency_ln>  (343) 
-0.874126

>  <r_i_glide_gscore>  (343) 
-3.49278

>  <r_i_glide_lipo>  (343) 
-0.571645

>  <r_i_glide_hbond>  (343) 
0

>  <r_i_glide_metal>  (343) 
-0

>  <r_i_glide_rewards>  (343) 
-1.5592

>  <r_i_glide_evdw>  (343) 
-28.1786

>  <r_i_glide_ecoul>  (343) 
-2.83569

>  <r_i_glide_erotb>  (343) 
0.486376

>  <r_i_glide_esite>  (343) 
-0.014025

>  <r_i_glide_emodel>  (343) 
-37.2592

>  <r_i_glide_energy>  (343) 
-31.0143

>  <r_i_glide_einternal>  (343) 
1.89633

>  <r_i_glide_intrahb_reward>  (343) 
-0

>  <i_i_glide_confnum>  (343) 
4

>  <i_i_glide_posenum>  (343) 
36

>  <r_i_glide_eff_state_penalty>  (343) 
0

>  <ligand_id>  (343) 
99

>  <original_smiles>  (343) 
c1cc(CN2CC3COCc4ccnn4C3C2)cnn1

>  <smiles>  (343) 
[H]c1nnc([H])c(C([H])([H])N2C([H])([H])C3([H])n4nc([H])c([H])c4C([H])([H])OC([H])([H])C3([H])C2([H])[H])c1[H]

$$$$
99:1:1
     RDKit          3D

 37 40  0  0  1  0  0  0  0  0999 V2000
    5.1731   -3.1924   -3.0190 C   0  0  0  0  0  0  0  0  0  0  0  0
    4.8956   -3.4511   -1.6640 C   0  0  0  0  0  0  0  0  0  0  0  0
    3.5497   -3.3848   -1.2573 C   0  0  0  0  0  0  0  0  0  0  0  0
    3.1361   -3.6704    0.1770 C   0  0  0  0  0  0  0  0  0  0  0  0
    2.9767   -5.0969    0.4517 N   0  0  0  0  0  0  0  0  0  0  0  0
    4.2579   -5.7930    0.5573 C   0  0  0  0  0  0  0  0  0  0  0  0
    3.8791   -7.0979    1.2412 C   0  0  1  0  0  0  0  0  0  0  0  0
    5.0343   -7.9159    1.8300 C   0  0  0  0  0  0  0  0  0  0  0  0
    4.5826   -8.9383    2.7171 O   0  0  0  0  0  0  0  0  0  0  0  0
    3.4797   -9.7304    2.2892 C   0  0  0  0  0  0  0  0  0  0  0  0
    2.2122   -9.0857    2.7697 C   0  0  0  0  0  0  0  0  0  0  0  0
    1.1137   -9.6589    3.3463 C   0  0  0  0  0  0  0  0  0  0  0  0
    0.2387   -8.5650    3.5961 C   0  0  0  0  0  0  0  0  0  0  0  0
    0.7532   -7.4089    3.2080 N   0  0  0  0  0  0  0  0  0  0  0  0
    1.9660   -7.7210    2.6931 N   0  0  0  0  0  0  0  0  0  0  0  0
    2.8747   -6.6502    2.2905 C   0  0  2  0  0  0  0  0  0  0  0  0
    2.2205   -5.3983    1.6702 C   0  0  0  0  0  0  0  0  0  0  0  0
    2.5983   -3.0538   -2.2431 C   0  0  0  0  0  0  0  0  0  0  0  0
    2.9372   -2.8048   -3.5316 N   0  0  0  0  0  0  0  0  0  0  0  0
    4.2136   -2.8761   -3.9188 N   0  0  0  0  0  0  0  0  0  0  0  0
    6.1860   -3.2427   -3.3901 H   0  0  0  0  0  0  0  0  0  0  0  0
    5.6838   -3.7039   -0.9689 H   0  0  0  0  0  0  0  0  0  0  0  0
    3.8710   -3.2356    0.8557 H   0  0  0  0  0  0  0  0  0  0  0  0
    2.2012   -3.1484    0.3686 H   0  0  0  0  0  0  0  0  0  0  0  0
    4.7009   -5.9663   -0.4247 H   0  0  0  0  0  0  0  0  0  0  0  0
    4.9591   -5.2293    1.1755 H   0  0  0  0  0  0  0  0  0  0  0  0
    3.3949   -7.7063    0.4861 H   0  0  0  0  0  0  0  0  0  0  0  0
    5.6418   -8.3370    1.0262 H   0  0  0  0  0  0  0  0  0  0  0  0
    5.6939   -7.2657    2.4047 H   0  0  0  0  0  0  0  0  0  0  0  0
    3.4602   -9.8811    1.2129 H   0  0  0  0  0  0  0  0  0  0  0  0
    3.5741  -10.7184    2.7348 H   0  0  0  0  0  0  0  0  0  0  0  0
    0.9672  -10.7060    3.5872 H   0  0  0  0  0  0  0  0  0  0  0  0
   -0.7353   -8.5726    4.0622 H   0  0  0  0  0  0  0  0  0  0  0  0
    3.4138   -6.3257    3.1837 H   0  0  0  0  0  0  0  0  0  0  0  0
    2.2412   -4.5705    2.3803 H   0  0  0  0  0  0  0  0  0  0  0  0
    1.1838   -5.5745    1.3928 H   0  0  0  0  0  0  0  0  0  0  0  0
    1.5430   -3.0058   -2.0138 H   0  0  0  0  0  0  0  0  0  0  0  0
  1 20  2  0
  1  2  1  0
  1 21  1  0
  2  3  2  0
  2 22  1  0
  3  4  1  0
  3 18  1  0
  4  5  1  0
  4 23  1  0
  4 24  1  0
  5 17  1  0
  5  6  1  0
  6  7  1  0
  6 25  1  0
  6 26  1  0
  7 16  1  0
  7  8  1  0
  7 27  1  6
  8  9  1  0
  8 28  1  0
  8 29  1  0
  9 10  1  0
 10 11  1  0
 10 30  1  0
 10 31  1  0
 11 15  1  0
 11 12  2  0
 12 13  1  0
 12 32  1  0
 13 14  2  0
 13 33  1  0
 14 15  1  0
 15 16  1  0
 16 17  1  0
 16 34  1  1
 17 35  1  0
 17 36  1  0
 18 19  2  0
 18 37  1  0
 19 20  1  0
M  END
>  <i_m_ct_stereo_status>  (344) 
1

>  <s_m_source_file>  (344) 
/var/tmp/pbs.5076255.sched01/tmpybatibx8/138x0dlab3k.sdf

>  <i_m_source_file_index>  (344) 
10

>  <i_lp_mmshare_version>  (344) 
48012

>  <i_f3d_flags>  (344) 
0

>  <s_epik_input>  (344) 
W2NIXTFubltjSF1bY0hdYzFbQ0gyXU4oW0NIMl0yKVtDSDJdW0NASF0oW0NAQEhdMjMpbjRjKFtjSF1bY0hdbjQpW0NIMl1PW0NIMl0z

>  <s_epik_cmdline>  (344) 
J2VwaWtfcHl0aG9uJywgJy1waHQnLCAnMi4wJywgJy1waCcsICc3LjAnLCAnLXRuJywgJzgnLCAnLW1hJywgJzIwMCcsICctaW1hZScsICc8aW5maWxlLm1hZT4nLCAnLW9tYWUnLCAnPG91dGZpbGUubWFlPic=

>  <r_lp_tautomer_probability>  (344) 
1

>  <r_epik_Ionization_Penalty>  (344) 
1.41696

>  <r_epik_Ionization_Penalty_Charging>  (344) 
0

>  <r_epik_Ionization_Penalty_Neutral>  (344) 
1.41696

>  <r_epik_State_Penalty>  (344) 
1.50017

>  <r_epik_Charging_Adjusted_Penalty>  (344) 
1.50017

>  <i_epik_Tot_Q>  (344) 
0

>  <i_epik_Tot_abs_Q>  (344) 
0

>  <s_lp_Force_Field>  (344) 
OPLS3e

>  <r_lp_Energy>  (344) 
22.1817

>  <b_lp_Chiralities_Consistent>  (344) 
1

>  <s_lp_Variant>  (344) 
99:0-2

>  <s_i_glide_gridfile>  (344) 
pfpi4k_grid

>  <i_i_glide_lignum>  (344) 
10

>  <i_i_glide_rotatable_bonds>  (344) 
2

>  <r_i_docking_score>  (344) 
-3.35709

>  <r_i_glide_ligand_efficiency>  (344) 
-0.167854

>  <r_i_glide_ligand_efficiency_sa>  (344) 
-0.455627

>  <r_i_glide_ligand_efficiency_ln>  (344) 
-0.840168

>  <r_i_glide_gscore>  (344) 
-3.35709

>  <r_i_glide_lipo>  (344) 
-0.550826

>  <r_i_glide_hbond>  (344) 
0

>  <r_i_glide_metal>  (344) 
-0

>  <r_i_glide_rewards>  (344) 
-1.5592

>  <r_i_glide_evdw>  (344) 
-28.0862

>  <r_i_glide_ecoul>  (344) 
-2.11543

>  <r_i_glide_erotb>  (344) 
0.486376

>  <r_i_glide_esite>  (344) 
-0.0118163

>  <r_i_glide_emodel>  (344) 
-36.3885

>  <r_i_glide_energy>  (344) 
-30.2016

>  <r_i_glide_einternal>  (344) 
1.57986

>  <r_i_glide_intrahb_reward>  (344) 
-0

>  <i_i_glide_confnum>  (344) 
5

>  <i_i_glide_posenum>  (344) 
37

>  <r_i_glide_eff_state_penalty>  (344) 
0

>  <ligand_id>  (344) 
99

>  <original_smiles>  (344) 
c1cc(CN2CC3COCc4ccnn4C3C2)cnn1

>  <smiles>  (344) 
[H]c1nnc([H])c(C([H])([H])N2C([H])([H])C3([H])n4nc([H])c([H])c4C([H])([H])OC([H])([H])C3([H])C2([H])[H])c1[H]

$$$$
99:1:2
     RDKit          3D

 37 40  0  0  1  0  0  0  0  0999 V2000
    3.6165   -1.1070   -3.0082 C   0  0  0  0  0  0  0  0  0  0  0  0
    3.5047   -1.4677   -1.6534 C   0  0  0  0  0  0  0  0  0  0  0  0
    4.0170   -2.7223   -1.2660 C   0  0  0  0  0  0  0  0  0  0  0  0
    3.8885   -3.1883    0.1781 C   0  0  0  0  0  0  0  0  0  0  0  0
    3.6012   -4.6178    0.3096 N   0  0  0  0  0  0  0  0  0  0  0  0
    4.7953   -5.4343    0.5216 C   0  0  0  0  0  0  0  0  0  0  0  0
    4.2113   -6.7568    0.9905 C   0  0  1  0  0  0  0  0  0  0  0  0
    5.2039   -7.7262    1.6460 C   0  0  0  0  0  0  0  0  0  0  0  0
    4.5589   -8.7821    2.3550 O   0  0  0  0  0  0  0  0  0  0  0  0
    3.4680   -9.4245    1.7055 C   0  0  0  0  0  0  0  0  0  0  0  0
    2.2034   -8.7090    2.0872 C   0  0  0  0  0  0  0  0  0  0  0  0
    1.0007   -9.2322    2.4798 C   0  0  0  0  0  0  0  0  0  0  0  0
    0.1786   -8.0907    2.6957 C   0  0  0  0  0  0  0  0  0  0  0  0
    0.8216   -6.9546    2.4838 N   0  0  0  0  0  0  0  0  0  0  0  0
    2.0705   -7.3282    2.1078 N   0  0  0  0  0  0  0  0  0  0  0  0
    3.1068   -6.3134    1.9361 C   0  0  2  0  0  0  0  0  0  0  0  0
    2.6481   -4.9564    1.3717 C   0  0  0  0  0  0  0  0  0  0  0  0
    4.6134   -3.5042   -2.2741 C   0  0  0  0  0  0  0  0  0  0  0  0
    4.6930   -3.0967   -3.5613 N   0  0  0  0  0  0  0  0  0  0  0  0
    4.2067   -1.9071   -3.9233 N   0  0  0  0  0  0  0  0  0  0  0  0
    3.2351   -0.1659   -3.3780 H   0  0  0  0  0  0  0  0  0  0  0  0
    3.0182   -0.8084   -0.9486 H   0  0  0  0  0  0  0  0  0  0  0  0
    4.8088   -2.9396    0.7093 H   0  0  0  0  0  0  0  0  0  0  0  0
    3.1026   -2.6048    0.6590 H   0  0  0  0  0  0  0  0  0  0  0  0
    5.3829   -5.5848   -0.3811 H   0  0  0  0  0  0  0  0  0  0  0  0
    5.4350   -5.0038    1.2945 H   0  0  0  0  0  0  0  0  0  0  0  0
    3.8006   -7.2317    0.1047 H   0  0  0  0  0  0  0  0  0  0  0  0
    5.8864   -8.1280    0.8968 H   0  0  0  0  0  0  0  0  0  0  0  0
    5.8234   -7.1861    2.3626 H   0  0  0  0  0  0  0  0  0  0  0  0
    3.5837   -9.4847    0.6256 H   0  0  0  0  0  0  0  0  0  0  0  0
    3.4219  -10.4474    2.0673 H   0  0  0  0  0  0  0  0  0  0  0  0
    0.7424  -10.2812    2.5763 H   0  0  0  0  0  0  0  0  0  0  0  0
   -0.8514   -8.0531    3.0194 H   0  0  0  0  0  0  0  0  0  0  0  0
    3.5409   -6.1245    2.9199 H   0  0  0  0  0  0  0  0  0  0  0  0
    2.6213   -4.2106    2.1676 H   0  0  0  0  0  0  0  0  0  0  0  0
    1.6556   -5.0129    0.9336 H   0  0  0  0  0  0  0  0  0  0  0  0
    5.0351   -4.4798   -2.0836 H   0  0  0  0  0  0  0  0  0  0  0  0
  1 20  2  0
  1  2  1  0
  1 21  1  0
  2  3  2  0
  2 22  1  0
  3  4  1  0
  3 18  1  0
  4  5  1  0
  4 23  1  0
  4 24  1  0
  5 17  1  0
  5  6  1  0
  6  7  1  0
  6 25  1  0
  6 26  1  0
  7 16  1  0
  7  8  1  0
  7 27  1  6
  8  9  1  0
  8 28  1  0
  8 29  1  0
  9 10  1  0
 10 11  1  0
 10 30  1  0
 10 31  1  0
 11 15  1  0
 11 12  2  0
 12 13  1  0
 12 32  1  0
 13 14  2  0
 13 33  1  0
 14 15  1  0
 15 16  1  0
 16 17  1  0
 16 34  1  1
 17 35  1  0
 17 36  1  0
 18 19  2  0
 18 37  1  0
 19 20  1  0
M  END
>  <i_m_ct_stereo_status>  (345) 
1

>  <s_m_source_file>  (345) 
/var/tmp/pbs.5076255.sched01/tmpybatibx8/138x0dlab3k.sdf

>  <i_m_source_file_index>  (345) 
10

>  <i_lp_mmshare_version>  (345) 
48012

>  <i_f3d_flags>  (345) 
0

>  <s_epik_input>  (345) 
W2NIXTFubltjSF1bY0hdYzFbQ0gyXU4oW0NIMl0yKVtDSDJdW0NASF0oW0NAQEhdMjMpbjRjKFtjSF1bY0hdbjQpW0NIMl1PW0NIMl0z

>  <s_epik_cmdline>  (345) 
J2VwaWtfcHl0aG9uJywgJy1waHQnLCAnMi4wJywgJy1waCcsICc3LjAnLCAnLXRuJywgJzgnLCAnLW1hJywgJzIwMCcsICctaW1hZScsICc8aW5maWxlLm1hZT4nLCAnLW9tYWUnLCAnPG91dGZpbGUubWFlPic=

>  <r_lp_tautomer_probability>  (345) 
1

>  <r_epik_Ionization_Penalty>  (345) 
1.41696

>  <r_epik_Ionization_Penalty_Charging>  (345) 
0

>  <r_epik_Ionization_Penalty_Neutral>  (345) 
1.41696

>  <r_epik_State_Penalty>  (345) 
1.50017

>  <r_epik_Charging_Adjusted_Penalty>  (345) 
1.50017

>  <i_epik_Tot_Q>  (345) 
0

>  <i_epik_Tot_abs_Q>  (345) 
0

>  <s_lp_Force_Field>  (345) 
OPLS3e

>  <r_lp_Energy>  (345) 
22.1817

>  <b_lp_Chiralities_Consistent>  (345) 
1

>  <s_lp_Variant>  (345) 
99:0-2

>  <s_i_glide_gridfile>  (345) 
pfpi4k_grid

>  <i_i_glide_lignum>  (345) 
10

>  <i_i_glide_rotatable_bonds>  (345) 
2

>  <r_i_docking_score>  (345) 
-3.33487

>  <r_i_glide_ligand_efficiency>  (345) 
-0.166744

>  <r_i_glide_ligand_efficiency_sa>  (345) 
-0.452612

>  <r_i_glide_ligand_efficiency_ln>  (345) 
-0.834609

>  <r_i_glide_gscore>  (345) 
-3.33487

>  <r_i_glide_lipo>  (345) 
-0.329462

>  <r_i_glide_hbond>  (345) 
0

>  <r_i_glide_metal>  (345) 
-0

>  <r_i_glide_rewards>  (345) 
-1.5592

>  <r_i_glide_evdw>  (345) 
-28.5598

>  <r_i_glide_ecoul>  (345) 
-3.26928

>  <r_i_glide_erotb>  (345) 
0.486376

>  <r_i_glide_esite>  (345) 
-0.0142092

>  <r_i_glide_emodel>  (345) 
-36.4555

>  <r_i_glide_energy>  (345) 
-31.8291

>  <r_i_glide_einternal>  (345) 
4.3902

>  <r_i_glide_intrahb_reward>  (345) 
-0

>  <i_i_glide_confnum>  (345) 
4

>  <i_i_glide_posenum>  (345) 
29

>  <r_i_glide_eff_state_penalty>  (345) 
0

>  <ligand_id>  (345) 
99

>  <original_smiles>  (345) 
c1cc(CN2CC3COCc4ccnn4C3C2)cnn1

>  <smiles>  (345) 
[H]c1nnc([H])c(C([H])([H])N2C([H])([H])C3([H])n4nc([H])c([H])c4C([H])([H])OC([H])([H])C3([H])C2([H])[H])c1[H]

$$$$
101:0:0
     RDKit          3D

 71 77  0  0  1  0  0  0  0  0999 V2000
    4.0591   -0.7033   -2.3016 C   0  0  0  0  0  0  0  0  0  0  0  0
    3.5577   -1.1318   -0.8785 C   0  0  2  0  0  0  0  0  0  0  0  0
    4.2167   -0.2150    0.2344 C   0  0  0  0  0  0  0  0  0  0  0  0
    3.5735    0.1293    1.6703 C   0  0  1  0  0  0  0  0  0  0  0  0
    2.5363    1.0987    1.5578 O   0  0  0  0  0  0  0  0  0  0  0  0
    3.0215   -1.0032    2.6010 C   0  0  1  0  0  0  0  0  0  0  0  0
    1.9256   -1.6277    1.7254 C   0  0  0  0  0  0  0  0  0  0  0  0
    2.2168   -2.9380    1.3501 O   0  0  0  0  0  0  0  0  0  0  0  0
    3.4146   -3.3036    0.7770 C   0  0  1  0  0  0  0  0  0  0  0  0
    4.6004   -2.5588    1.1427 O   0  0  0  0  0  0  0  0  0  0  0  0
    5.1916   -2.1934    2.4216 C   0  0  2  0  0  0  0  0  0  0  0  0
    6.3084   -1.1221    2.2511 C   0  0  0  0  0  0  0  0  0  0  0  0
    5.8036   -3.4240    2.8441 C   0  0  0  0  0  0  0  0  0  0  0  0
    4.8361   -4.2504    2.9488 C   0  0  0  0  0  0  0  0  0  0  0  0
    4.8728   -5.1226    1.6976 C   0  0  1  0  0  0  0  0  0  0  0  0
    5.4183   -6.3767    2.0459 O   0  0  0  0  0  0  0  0  0  0  0  0
    3.5204   -4.9424    1.1593 C   0  0  2  0  0  0  0  0  0  0  0  0
    3.0626   -5.5617   -0.0477 O   0  0  0  0  0  0  0  0  0  0  0  0
    1.8850   -5.8586    0.5972 C   0  0  0  0  0  0  0  0  0  0  0  0
    0.7383   -6.0107    0.1686 O   0  0  0  0  0  0  0  0  0  0  0  0
    2.6183   -6.0364    1.9109 C   0  0  1  0  0  0  0  0  0  0  0  0
    2.9854   -7.5574    1.7648 C   0  0  0  0  0  0  0  0  0  0  0  0
    2.0206   -5.8723    3.3816 C   0  0  2  0  0  0  0  0  0  0  0  0
    0.9971   -6.9839    3.7442 C   0  0  0  0  0  0  0  0  0  0  0  0
    1.2241   -4.5883    3.4760 C   0  0  0  0  0  0  0  0  0  0  0  0
    2.0811   -3.4697    3.9783 C   0  0  0  0  0  0  0  0  0  0  0  0
    3.6551   -3.4885    3.7333 C   0  0  1  0  0  0  0  0  0  0  0  0
    3.8636   -4.4970    4.9133 C   0  0  0  0  0  0  0  0  0  0  0  0
    3.1501   -5.8571    4.5082 C   0  0  0  0  0  0  0  0  0  0  0  0
    3.5147   -6.9028    5.0425 O   0  0  0  0  0  0  0  0  0  0  0  0
    4.0505   -1.9593    3.4154 C   0  0  2  0  0  0  0  0  0  0  0  0
    4.5191   -1.2614    4.7083 C   0  0  0  0  0  0  0  0  0  0  0  0
    3.3767   -2.7449   -0.7483 C   0  0  1  0  0  0  0  0  0  0  0  0
    2.0889   -3.2067   -1.4938 C   0  0  0  0  0  0  0  0  0  0  0  0
    4.4179   -3.3490   -1.5108 O   0  0  0  0  0  0  0  0  0  0  0  0
    5.1402   -0.8788   -2.4470 H   0  0  0  0  0  0  0  0  0  0  0  0
    3.9031    0.3534   -2.5145 H   0  0  0  0  0  0  0  0  0  0  0  0
    3.4879   -1.2234   -3.0790 H   0  0  0  0  0  0  0  0  0  0  0  0
    2.6468   -0.6902   -0.9214 H   0  0  0  0  0  0  0  0  0  0  0  0
    5.2959   -0.4337    0.2410 H   0  0  0  0  0  0  0  0  0  0  0  0
    4.2309    0.7799   -0.1658 H   0  0  0  0  0  0  0  0  0  0  0  0
    4.2667    0.7113    2.2528 H   0  0  0  0  0  0  0  0  0  0  0  0
    2.3588    1.4947    2.3983 H   0  0  0  0  0  0  0  0  0  0  0  0
    2.4821   -0.4637    3.3792 H   0  0  0  0  0  0  0  0  0  0  0  0
    0.9579   -1.6411    2.2278 H   0  0  0  0  0  0  0  0  0  0  0  0
    1.7371   -1.0147    0.8993 H   0  0  0  0  0  0  0  0  0  0  0  0
    6.7875   -0.8934    3.1707 H   0  0  0  0  0  0  0  0  0  0  0  0
    6.0550   -0.1140    2.0178 H   0  0  0  0  0  0  0  0  0  0  0  0
    7.0531   -1.4410    1.5163 H   0  0  0  0  0  0  0  0  0  0  0  0
    6.6532   -3.6867    2.2058 H   0  0  0  0  0  0  0  0  0  0  0  0
    5.5784   -4.7862    0.9256 H   0  0  0  0  0  0  0  0  0  0  0  0
    4.9496   -6.7197    2.7900 H   0  0  0  0  0  0  0  0  0  0  0  0
    3.5335   -7.9321    2.6230 H   0  0  0  0  0  0  0  0  0  0  0  0
    3.6181   -7.7677    0.8970 H   0  0  0  0  0  0  0  0  0  0  0  0
    2.1170   -8.2136    1.6550 H   0  0  0  0  0  0  0  0  0  0  0  0
    0.1447   -6.9973    3.0624 H   0  0  0  0  0  0  0  0  0  0  0  0
    0.6041   -6.8112    4.7449 H   0  0  0  0  0  0  0  0  0  0  0  0
    1.4257   -7.9852    3.7906 H   0  0  0  0  0  0  0  0  0  0  0  0
    0.7750   -4.3442    2.5233 H   0  0  0  0  0  0  0  0  0  0  0  0
    0.3818   -4.6755    4.1680 H   0  0  0  0  0  0  0  0  0  0  0  0
    1.5982   -2.5201    3.8981 H   0  0  0  0  0  0  0  0  0  0  0  0
    1.8896   -3.4553    5.0517 H   0  0  0  0  0  0  0  0  0  0  0  0
    4.9155   -4.7074    5.1203 H   0  0  0  0  0  0  0  0  0  0  0  0
    3.4958   -4.1575    5.8800 H   0  0  0  0  0  0  0  0  0  0  0  0
    5.3308   -1.8020    5.1908 H   0  0  0  0  0  0  0  0  0  0  0  0
    3.7044   -1.1936    5.4289 H   0  0  0  0  0  0  0  0  0  0  0  0
    4.8715   -0.2443    4.5290 H   0  0  0  0  0  0  0  0  0  0  0  0
    1.1947   -3.1629   -0.8881 H   0  0  0  0  0  0  0  0  0  0  0  0
    2.1019   -4.2389   -1.8267 H   0  0  0  0  0  0  0  0  0  0  0  0
    1.8945   -2.6048   -2.3814 H   0  0  0  0  0  0  0  0  0  0  0  0
    4.1629   -4.2499   -1.6618 H   0  0  0  0  0  0  0  0  0  0  0  0
  1  2  1  0
  1 36  1  0
  1 37  1  0
  1 38  1  0
  2 33  1  0
  2  3  1  0
  2 39  1  6
  3  4  1  0
  3 40  1  0
  3 41  1  0
  4  5  1  0
  4  6  1  0
  4 42  1  1
  5 43  1  0
  6 31  1  0
  6  7  1  0
  6 44  1  1
  7  8  1  0
  7 45  1  0
  7 46  1  0
  9  8  1  1
  9 17  1  0
  9 10  1  0
  9 33  1  0
 10 11  1  0
 11 31  1  0
 11 12  1  6
 11 13  1  0
 12 47  1  0
 12 48  1  0
 12 49  1  0
 13 14  2  0
 13 50  1  0
 14 27  1  0
 14 15  1  0
 15 16  1  0
 15 17  1  0
 15 51  1  6
 16 52  1  0
 17 21  1  0
 17 18  1  6
 18 19  1  0
 19 20  2  0
 19 21  1  0
 21 22  1  1
 21 23  1  0
 22 53  1  0
 22 54  1  0
 22 55  1  0
 23 29  1  0
 23 24  1  1
 23 25  1  0
 24 56  1  0
 24 57  1  0
 24 58  1  0
 25 26  1  0
 25 59  1  0
 25 60  1  0
 27 26  1  6
 26 61  1  0
 26 62  1  0
 27 28  1  0
 27 31  1  0
 28 29  1  0
 28 63  1  0
 28 64  1  0
 29 30  2  0
 31 32  1  1
 32 65  1  0
 32 66  1  0
 32 67  1  0
 33 34  1  0
 33 35  1  6
 34 68  1  0
 34 69  1  0
 34 70  1  0
 35 71  1  0
M  END
>  <i_m_ct_stereo_status>  (346) 
1

>  <s_m_source_file>  (346) 
/var/tmp/pbs.5076255.sched01/tmpybatibx8/138x0dlab3k.sdf

>  <i_m_source_file_index>  (346) 
13

>  <i_lp_mmshare_version>  (346) 
48012

>  <i_f3d_flags>  (346) 
0

>  <s_epik_input>  (346) 
W0NIM11bQ0BAXTEoW09IXSlbQ0BIXShbQ0gzXSlbQ0gyXVtDQEBIXShbT0hdKVtDQEBIXShbQ0gyXU8yKVtDQF0zKFtDSDNdKVtDQEBdKE80KShbQ0gzXSlbQ0hdPUMoW0NASF01W09IXSlbQ0BdMyhbQ0gyXUM2PU8pW0NIMl1bQ0gyXVtDQEBdNihbQ0gzXSlbQ0BdKFtDQEBdNTdbQ0BAXTEyNCkoQyhPNyk9TylbQ0gzXQ==

>  <s_epik_cmdline>  (346) 
J2VwaWtfcHl0aG9uJywgJy1waHQnLCAnMi4wJywgJy1waCcsICc3LjAnLCAnLXRuJywgJzgnLCAnLW1hJywgJzIwMCcsICctaW1hZScsICc8aW5maWxlLm1hZT4nLCAnLW9tYWUnLCAnPG91dGZpbGUubWFlPic=

>  <r_lp_tautomer_probability>  (346) 
1

>  <r_epik_Ionization_Penalty>  (346) 
5.09852e-05

>  <r_epik_Ionization_Penalty_Charging>  (346) 
0

>  <r_epik_Ionization_Penalty_Neutral>  (346) 
5.09852e-05

>  <r_epik_State_Penalty>  (346) 
-0

>  <r_epik_Charging_Adjusted_Penalty>  (346) 
0

>  <i_epik_Tot_Q>  (346) 
0

>  <i_epik_Tot_abs_Q>  (346) 
0

>  <s_epik_Chemistry_Notes>  (346) 
This compound has an ester and may undergo hydrolysis at high or low pH.

>  <s_lp_Force_Field>  (346) 
OPLS3e

>  <r_lp_Energy>  (346) 
335.743

>  <b_lp_Chiralities_Consistent>  (346) 
1

>  <s_lp_Variant>  (346) 
101:0-1

>  <s_i_glide_gridfile>  (346) 
pfpi4k_grid

>  <i_i_glide_lignum>  (346) 
13

>  <i_i_glide_rotatable_bonds>  (346) 
3

>  <r_i_docking_score>  (346) 
-2.48944

>  <r_i_glide_ligand_efficiency>  (346) 
-0.0711269

>  <r_i_glide_ligand_efficiency_sa>  (346) 
-0.232661

>  <r_i_glide_ligand_efficiency_ln>  (346) 
-0.546487

>  <r_i_glide_gscore>  (346) 
-2.48944

>  <r_i_glide_lipo>  (346) 
-0.450484

>  <r_i_glide_hbond>  (346) 
-0.383389

>  <r_i_glide_metal>  (346) 
-0

>  <r_i_glide_rewards>  (346) 
-0.577932

>  <r_i_glide_evdw>  (346) 
-1.60446

>  <r_i_glide_ecoul>  (346) 
-6.17916

>  <r_i_glide_erotb>  (346) 
0

>  <r_i_glide_esite>  (346) 
-0.070537

>  <r_i_glide_emodel>  (346) 
-14.4204

>  <r_i_glide_energy>  (346) 
-7.78362

>  <r_i_glide_einternal>  (346) 
0.59025

>  <r_i_glide_intrahb_reward>  (346) 
-0.5

>  <i_i_glide_confnum>  (346) 
2

>  <i_i_glide_posenum>  (346) 
11

>  <r_i_glide_eff_state_penalty>  (346) 
0

>  <ligand_id>  (346) 
101

>  <original_smiles>  (346) 
CC1CC(O)C2COC3(OC4(C)C=C5C(O)C36OC(=O)C6(C)C3(C)CCC5(CC3=O)C24C)C1(C)O

>  <smiles>  (346) 
[H]OC1([H])C2=C([H])C3(C([H])([H])[H])OC45OC([H])([H])C([H])(C([H])(O[H])C([H])([H])C([H])(C([H])([H])[H])C4(O[H])C([H])([H])[H])C3(C([H])([H])[H])C23C([H])([H])C(=O)C(C([H])([H])[H])(C([H])([H])C3([H])[H])C2(C([H])([H])[H])C(=O)OC152

$$$$
101:0:1
     RDKit          3D

 71 77  0  0  1  0  0  0  0  0999 V2000
    4.8851   -1.0589   -0.7792 C   0  0  0  0  0  0  0  0  0  0  0  0
    3.9216   -1.3765    0.3942 C   0  0  2  0  0  0  0  0  0  0  0  0
    3.9631   -0.1158    1.3598 C   0  0  0  0  0  0  0  0  0  0  0  0
    2.8097    0.2657    2.3889 C   0  0  1  0  0  0  0  0  0  0  0  0
    1.7720    0.9161    1.6733 O   0  0  0  0  0  0  0  0  0  0  0  0
    2.1696   -0.8181    3.3294 C   0  0  1  0  0  0  0  0  0  0  0  0
    1.6207   -1.8553    2.3226 C   0  0  0  0  0  0  0  0  0  0  0  0
    2.2729   -3.0782    2.4293 O   0  0  0  0  0  0  0  0  0  0  0  0
    3.6475   -3.1855    2.4242 C   0  0  1  0  0  0  0  0  0  0  0  0
    4.4378   -2.0835    3.0013 O   0  0  0  0  0  0  0  0  0  0  0  0
    4.4095   -1.4236    4.3067 C   0  0  2  0  0  0  0  0  0  0  0  0
    5.2908   -0.1495    4.3765 C   0  0  0  0  0  0  0  0  0  0  0  0
    5.0245   -2.3644    5.2342 C   0  0  0  0  0  0  0  0  0  0  0  0
    4.2291   -3.3946    5.1219 C   0  0  0  0  0  0  0  0  0  0  0  0
    4.9252   -4.4014    4.2185 C   0  0  1  0  0  0  0  0  0  0  0  0
    5.4587   -5.4053    5.0582 O   0  0  0  0  0  0  0  0  0  0  0  0
    3.8937   -4.6739    3.1890 C   0  0  2  0  0  0  0  0  0  0  0  0
    4.0591   -5.5853    2.0679 O   0  0  0  0  0  0  0  0  0  0  0  0
    2.7700   -6.0432    2.3167 C   0  0  0  0  0  0  0  0  0  0  0  0
    1.9056   -6.4682    1.5649 O   0  0  0  0  0  0  0  0  0  0  0  0
    2.9604   -5.8329    3.8093 C   0  0  1  0  0  0  0  0  0  0  0  0
    3.5945   -7.2112    4.1840 C   0  0  0  0  0  0  0  0  0  0  0  0
    1.7949   -5.5999    4.8844 C   0  0  2  0  0  0  0  0  0  0  0  0
    0.9256   -6.8739    5.1208 C   0  0  0  0  0  0  0  0  0  0  0  0
    0.8113   -4.5716    4.3661 C   0  0  0  0  0  0  0  0  0  0  0  0
    1.1963   -3.2072    4.8614 C   0  0  0  0  0  0  0  0  0  0  0  0
    2.7159   -2.8481    5.2115 C   0  0  1  0  0  0  0  0  0  0  0  0
    2.5882   -3.5736    6.6010 C   0  0  0  0  0  0  0  0  0  0  0  0
    2.3501   -5.1232    6.3136 C   0  0  0  0  0  0  0  0  0  0  0  0
    2.5971   -5.9383    7.2013 O   0  0  0  0  0  0  0  0  0  0  0  0
    2.9278   -1.3330    4.6897 C   0  0  2  0  0  0  0  0  0  0  0  0
    2.6678   -0.3529    5.8534 C   0  0  0  0  0  0  0  0  0  0  0  0
    4.0840   -2.9110    0.8976 C   0  0  1  0  0  0  0  0  0  0  0  0
    3.2913   -3.7823   -0.1196 C   0  0  0  0  0  0  0  0  0  0  0  0
    5.4285   -3.3136    0.7182 O   0  0  0  0  0  0  0  0  0  0  0  0
    5.9079   -0.9387   -0.4293 H   0  0  0  0  0  0  0  0  0  0  0  0
    4.6032   -0.1342   -1.2791 H   0  0  0  0  0  0  0  0  0  0  0  0
    4.8730   -1.8285   -1.5509 H   0  0  0  0  0  0  0  0  0  0  0  0
    2.9700   -1.3094   -0.1206 H   0  0  0  0  0  0  0  0  0  0  0  0
    4.9452   -0.1176    1.8357 H   0  0  0  0  0  0  0  0  0  0  0  0
    4.0326    0.7682    0.7289 H   0  0  0  0  0  0  0  0  0  0  0  0
    3.1392    1.0874    3.0204 H   0  0  0  0  0  0  0  0  0  0  0  0
    1.4240    0.3350    1.0001 H   0  0  0  0  0  0  0  0  0  0  0  0
    1.2749   -0.3243    3.7095 H   0  0  0  0  0  0  0  0  0  0  0  0
    0.5621   -2.0209    2.4754 H   0  0  0  0  0  0  0  0  0  0  0  0
    1.5750   -1.5224    1.2954 H   0  0  0  0  0  0  0  0  0  0  0  0
    5.4482    0.1737    5.4059 H   0  0  0  0  0  0  0  0  0  0  0  0
    4.9301    0.7184    3.8496 H   0  0  0  0  0  0  0  0  0  0  0  0
    6.2694   -0.3476    3.9483 H   0  0  0  0  0  0  0  0  0  0  0  0
    6.0916   -2.4773    5.0995 H   0  0  0  0  0  0  0  0  0  0  0  0
    5.7827   -3.9891    3.6990 H   0  0  0  0  0  0  0  0  0  0  0  0
    5.8937   -6.0477    4.5128 H   0  0  0  0  0  0  0  0  0  0  0  0
    3.8019   -7.2924    5.2539 H   0  0  0  0  0  0  0  0  0  0  0  0
    4.5449   -7.3949    3.6784 H   0  0  0  0  0  0  0  0  0  0  0  0
    2.9635   -8.0645    3.9295 H   0  0  0  0  0  0  0  0  0  0  0  0
    0.4421   -7.2189    4.2052 H   0  0  0  0  0  0  0  0  0  0  0  0
    0.1316   -6.6555    5.8377 H   0  0  0  0  0  0  0  0  0  0  0  0
    1.4663   -7.7078    5.5642 H   0  0  0  0  0  0  0  0  0  0  0  0
    0.7164   -4.6069    3.2816 H   0  0  0  0  0  0  0  0  0  0  0  0
   -0.1943   -4.7722    4.7265 H   0  0  0  0  0  0  0  0  0  0  0  0
    0.6128   -2.4320    4.3943 H   0  0  0  0  0  0  0  0  0  0  0  0
    0.5677   -3.0884    5.7527 H   0  0  0  0  0  0  0  0  0  0  0  0
    3.4722   -3.4713    7.2201 H   0  0  0  0  0  0  0  0  0  0  0  0
    1.7976   -3.1864    7.2430 H   0  0  0  0  0  0  0  0  0  0  0  0
    3.2951   -0.5909    6.7153 H   0  0  0  0  0  0  0  0  0  0  0  0
    1.6301   -0.4005    6.1796 H   0  0  0  0  0  0  0  0  0  0  0  0
    2.8774    0.6736    5.5637 H   0  0  0  0  0  0  0  0  0  0  0  0
    2.2168   -3.7243    0.0362 H   0  0  0  0  0  0  0  0  0  0  0  0
    3.5878   -4.8320   -0.1260 H   0  0  0  0  0  0  0  0  0  0  0  0
    3.4568   -3.4428   -1.1419 H   0  0  0  0  0  0  0  0  0  0  0  0
    5.4866   -4.2385    0.9108 H   0  0  0  0  0  0  0  0  0  0  0  0
  1  2  1  0
  1 36  1  0
  1 37  1  0
  1 38  1  0
  2 33  1  0
  2  3  1  0
  2 39  1  6
  3  4  1  0
  3 40  1  0
  3 41  1  0
  4  5  1  0
  4  6  1  0
  4 42  1  1
  5 43  1  0
  6 31  1  0
  6  7  1  0
  6 44  1  1
  7  8  1  0
  7 45  1  0
  7 46  1  0
  9  8  1  6
  9 17  1  0
  9 10  1  0
  9 33  1  0
 10 11  1  0
 11 31  1  0
 11 12  1  6
 11 13  1  0
 12 47  1  0
 12 48  1  0
 12 49  1  0
 13 14  2  0
 13 50  1  0
 14 27  1  0
 14 15  1  0
 15 16  1  0
 15 17  1  0
 15 51  1  6
 16 52  1  0
 17 21  1  0
 17 18  1  6
 18 19  1  0
 19 20  2  0
 19 21  1  0
 21 22  1  1
 21 23  1  0
 22 53  1  0
 22 54  1  0
 22 55  1  0
 23 29  1  0
 23 24  1  1
 23 25  1  0
 24 56  1  0
 24 57  1  0
 24 58  1  0
 25 26  1  0
 25 59  1  0
 25 60  1  0
 27 26  1  6
 26 61  1  0
 26 62  1  0
 27 28  1  0
 27 31  1  0
 28 29  1  0
 28 63  1  0
 28 64  1  0
 29 30  2  0
 31 32  1  1
 32 65  1  0
 32 66  1  0
 32 67  1  0
 33 34  1  0
 33 35  1  1
 34 68  1  0
 34 69  1  0
 34 70  1  0
 35 71  1  0
M  END
>  <i_m_ct_stereo_status>  (347) 
1

>  <s_m_source_file>  (347) 
/var/tmp/pbs.5076255.sched01/tmpybatibx8/138x0dlab3k.sdf

>  <i_m_source_file_index>  (347) 
13

>  <i_lp_mmshare_version>  (347) 
48012

>  <i_f3d_flags>  (347) 
0

>  <s_epik_input>  (347) 
W0NIM11bQ0BAXTEoW09IXSlbQ0BIXShbQ0gzXSlbQ0gyXVtDQEBIXShbT0hdKVtDQEBIXShbQ0gyXU8yKVtDQF0zKFtDSDNdKVtDQEBdKE80KShbQ0gzXSlbQ0hdPUMoW0NASF01W09IXSlbQ0BdMyhbQ0gyXUM2PU8pW0NIMl1bQ0gyXVtDQEBdNihbQ0gzXSlbQ0BdKFtDQEBdNTdbQ0BAXTEyNCkoQyhPNyk9TylbQ0gzXQ==

>  <s_epik_cmdline>  (347) 
J2VwaWtfcHl0aG9uJywgJy1waHQnLCAnMi4wJywgJy1waCcsICc3LjAnLCAnLXRuJywgJzgnLCAnLW1hJywgJzIwMCcsICctaW1hZScsICc8aW5maWxlLm1hZT4nLCAnLW9tYWUnLCAnPG91dGZpbGUubWFlPic=

>  <r_lp_tautomer_probability>  (347) 
1

>  <r_epik_Ionization_Penalty>  (347) 
5.09852e-05

>  <r_epik_Ionization_Penalty_Charging>  (347) 
0

>  <r_epik_Ionization_Penalty_Neutral>  (347) 
5.09852e-05

>  <r_epik_State_Penalty>  (347) 
-0

>  <r_epik_Charging_Adjusted_Penalty>  (347) 
0

>  <i_epik_Tot_Q>  (347) 
0

>  <i_epik_Tot_abs_Q>  (347) 
0

>  <s_epik_Chemistry_Notes>  (347) 
This compound has an ester and may undergo hydrolysis at high or low pH.

>  <s_lp_Force_Field>  (347) 
OPLS3e

>  <r_lp_Energy>  (347) 
335.743

>  <b_lp_Chiralities_Consistent>  (347) 
1

>  <s_lp_Variant>  (347) 
101:0-1

>  <s_i_glide_gridfile>  (347) 
pfpi4k_grid

>  <i_i_glide_lignum>  (347) 
13

>  <i_i_glide_rotatable_bonds>  (347) 
3

>  <r_i_docking_score>  (347) 
-2.3287

>  <r_i_glide_ligand_efficiency>  (347) 
-0.0665342

>  <r_i_glide_ligand_efficiency_sa>  (347) 
-0.217638

>  <r_i_glide_ligand_efficiency_ln>  (347) 
-0.511201

>  <r_i_glide_gscore>  (347) 
-2.3287

>  <r_i_glide_lipo>  (347) 
-0.215134

>  <r_i_glide_hbond>  (347) 
-0.050485

>  <r_i_glide_metal>  (347) 
-0

>  <r_i_glide_rewards>  (347) 
-0.579546

>  <r_i_glide_evdw>  (347) 
-20.8747

>  <r_i_glide_ecoul>  (347) 
-2.90259

>  <r_i_glide_erotb>  (347) 
0

>  <r_i_glide_esite>  (347) 
-0.00440843

>  <r_i_glide_emodel>  (347) 
-31.8916

>  <r_i_glide_energy>  (347) 
-23.7773

>  <r_i_glide_einternal>  (347) 
0.489987

>  <r_i_glide_intrahb_reward>  (347) 
-0.5

>  <i_i_glide_confnum>  (347) 
2

>  <i_i_glide_posenum>  (347) 
26

>  <r_i_glide_eff_state_penalty>  (347) 
0

>  <ligand_id>  (347) 
101

>  <original_smiles>  (347) 
CC1CC(O)C2COC3(OC4(C)C=C5C(O)C36OC(=O)C6(C)C3(C)CCC5(CC3=O)C24C)C1(C)O

>  <smiles>  (347) 
[H]OC1([H])C2=C([H])C3(C([H])([H])[H])OC45OC([H])([H])C([H])(C([H])(O[H])C([H])([H])C([H])(C([H])([H])[H])C4(O[H])C([H])([H])[H])C3(C([H])([H])[H])C23C([H])([H])C(=O)C(C([H])([H])[H])(C([H])([H])C3([H])[H])C2(C([H])([H])[H])C(=O)OC152

$$$$
101:0:2
     RDKit          3D

 71 77  0  0  1  0  0  0  0  0999 V2000
    4.8738   -1.1502   -0.8081 C   0  0  0  0  0  0  0  0  0  0  0  0
    3.9116   -1.4272    0.3775 C   0  0  2  0  0  0  0  0  0  0  0  0
    3.9738   -0.1446    1.3141 C   0  0  0  0  0  0  0  0  0  0  0  0
    2.8309    0.2741    2.3429 C   0  0  1  0  0  0  0  0  0  0  0  0
    1.7935    0.9171    1.6204 O   0  0  0  0  0  0  0  0  0  0  0  0
    2.1763   -0.7801    3.3077 C   0  0  1  0  0  0  0  0  0  0  0  0
    1.6183   -1.8352    2.3269 C   0  0  0  0  0  0  0  0  0  0  0  0
    2.2604   -3.0616    2.4640 O   0  0  0  0  0  0  0  0  0  0  0  0
    3.6332   -3.1854    2.4544 C   0  0  1  0  0  0  0  0  0  0  0  0
    4.4425   -2.0854    3.0001 O   0  0  0  0  0  0  0  0  0  0  0  0
    4.4217   -1.3786    4.2859 C   0  0  2  0  0  0  0  0  0  0  0  0
    5.3222   -0.1168    4.3180 C   0  0  0  0  0  0  0  0  0  0  0  0
    5.0246   -2.3080    5.2332 C   0  0  0  0  0  0  0  0  0  0  0  0
    4.2193   -3.3314    5.1571 C   0  0  0  0  0  0  0  0  0  0  0  0
    4.8995   -4.3730    4.2790 C   0  0  1  0  0  0  0  0  0  0  0  0
    5.4315   -5.3599    5.1418 O   0  0  0  0  0  0  0  0  0  0  0  0
    3.8653   -4.6634    3.2498 C   0  0  2  0  0  0  0  0  0  0  0  0
    4.0019   -5.6147    2.1559 O   0  0  0  0  0  0  0  0  0  0  0  0
    2.7111   -6.0367    2.4210 C   0  0  0  0  0  0  0  0  0  0  0  0
    1.8280   -6.4694    1.6872 O   0  0  0  0  0  0  0  0  0  0  0  0
    2.9147   -5.7897    3.9148 C   0  0  1  0  0  0  0  0  0  0  0  0
    3.5438   -7.1641    4.3316 C   0  0  0  0  0  0  0  0  0  0  0  0
    1.7641   -5.5132    4.9940 C   0  0  2  0  0  0  0  0  0  0  0  0
    0.8735   -6.7664    5.2690 C   0  0  0  0  0  0  0  0  0  0  0  0
    0.7878   -4.4869    4.4492 C   0  0  0  0  0  0  0  0  0  0  0  0
    1.1845   -3.1107    4.9036 C   0  0  0  0  0  0  0  0  0  0  0  0
    2.7127   -2.7661    5.2409 C   0  0  1  0  0  0  0  0  0  0  0  0
    2.5856   -3.4536    6.6484 C   0  0  0  0  0  0  0  0  0  0  0  0
    2.3313   -5.0084    6.4089 C   0  0  0  0  0  0  0  0  0  0  0  0
    2.5717   -5.8040    7.3145 O   0  0  0  0  0  0  0  0  0  0  0  0
    2.9443   -1.2662    4.6764 C   0  0  2  0  0  0  0  0  0  0  0  0
    2.7012   -0.2539    5.8158 C   0  0  0  0  0  0  0  0  0  0  0  0
    4.0625   -2.9541    0.9183 C   0  0  1  0  0  0  0  0  0  0  0  0
    3.2628   -3.8474   -0.0734 C   0  0  0  0  0  0  0  0  0  0  0  0
    5.4121   -3.3526    0.7593 O   0  0  0  0  0  0  0  0  0  0  0  0
    5.9035   -1.0330   -0.4690 H   0  0  0  0  0  0  0  0  0  0  0  0
    4.5997   -0.2343   -1.3308 H   0  0  0  0  0  0  0  0  0  0  0  0
    4.8529   -1.9397   -1.5581 H   0  0  0  0  0  0  0  0  0  0  0  0
    2.9566   -1.3644   -0.1331 H   0  0  0  0  0  0  0  0  0  0  0  0
    4.9563   -0.1434    1.7806 H   0  0  0  0  0  0  0  0  0  0  0  0
    4.0535    0.7212    0.6560 H   0  0  0  0  0  0  0  0  0  0  0  0
    3.1745    1.1078    2.9467 H   0  0  0  0  0  0  0  0  0  0  0  0
    1.4401    0.3266    0.9648 H   0  0  0  0  0  0  0  0  0  0  0  0
    1.2909   -0.2680    3.6833 H   0  0  0  0  0  0  0  0  0  0  0  0
    0.5582   -1.9909    2.4804 H   0  0  0  0  0  0  0  0  0  0  0  0
    1.5647   -1.5300    1.2942 H   0  0  0  0  0  0  0  0  0  0  0  0
    5.4813    0.2292    5.3382 H   0  0  0  0  0  0  0  0  0  0  0  0
    4.9668    0.7413    3.7736 H   0  0  0  0  0  0  0  0  0  0  0  0
    6.2995   -0.3365    3.8970 H   0  0  0  0  0  0  0  0  0  0  0  0
    6.0940   -2.4247    5.1257 H   0  0  0  0  0  0  0  0  0  0  0  0
    5.7768   -3.9939    3.7498 H   0  0  0  0  0  0  0  0  0  0  0  0
    5.8564   -6.0207    4.6164 H   0  0  0  0  0  0  0  0  0  0  0  0
    3.7545   -7.2173    5.4019 H   0  0  0  0  0  0  0  0  0  0  0  0
    4.4868   -7.3706    3.8239 H   0  0  0  0  0  0  0  0  0  0  0  0
    2.9013   -8.0174    4.1021 H   0  0  0  0  0  0  0  0  0  0  0  0
    0.3844   -7.1324    4.3624 H   0  0  0  0  0  0  0  0  0  0  0  0
    0.0837   -6.5228    5.9824 H   0  0  0  0  0  0  0  0  0  0  0  0
    1.4096   -7.5985    5.7252 H   0  0  0  0  0  0  0  0  0  0  0  0
    0.6827   -4.5464    3.3668 H   0  0  0  0  0  0  0  0  0  0  0  0
   -0.2229   -4.6613    4.8166 H   0  0  0  0  0  0  0  0  0  0  0  0
    0.6131   -2.3415    4.4191 H   0  0  0  0  0  0  0  0  0  0  0  0
    0.5649   -2.9587    5.7927 H   0  0  0  0  0  0  0  0  0  0  0  0
    3.4762   -3.3436    7.2661 H   0  0  0  0  0  0  0  0  0  0  0  0
    1.8034   -3.0410    7.2842 H   0  0  0  0  0  0  0  0  0  0  0  0
    3.3275   -0.4730    6.6827 H   0  0  0  0  0  0  0  0  0  0  0  0
    1.6619   -0.2788    6.1486 H   0  0  0  0  0  0  0  0  0  0  0  0
    2.9192    0.7666    5.4983 H   0  0  0  0  0  0  0  0  0  0  0  0
    2.1903   -3.7741    0.0896 H   0  0  0  0  0  0  0  0  0  0  0  0
    3.5490   -4.8964   -0.0490 H   0  0  0  0  0  0  0  0  0  0  0  0
    3.4232   -3.5369   -1.1058 H   0  0  0  0  0  0  0  0  0  0  0  0
    5.9327   -2.8135    1.3346 H   0  0  0  0  0  0  0  0  0  0  0  0
  1  2  1  0
  1 36  1  0
  1 37  1  0
  1 38  1  0
  2 33  1  0
  2  3  1  0
  2 39  1  6
  3  4  1  0
  3 40  1  0
  3 41  1  0
  4  5  1  0
  4  6  1  0
  4 42  1  1
  5 43  1  0
  6 31  1  0
  6  7  1  0
  6 44  1  1
  7  8  1  0
  7 45  1  0
  7 46  1  0
  9  8  1  6
  9 17  1  0
  9 10  1  0
  9 33  1  0
 10 11  1  0
 11 31  1  0
 11 12  1  6
 11 13  1  0
 12 47  1  0
 12 48  1  0
 12 49  1  0
 13 14  2  0
 13 50  1  0
 14 27  1  0
 14 15  1  0
 15 16  1  0
 15 17  1  0
 15 51  1  6
 16 52  1  0
 17 21  1  0
 17 18  1  6
 18 19  1  0
 19 20  2  0
 19 21  1  0
 21 22  1  1
 21 23  1  0
 22 53  1  0
 22 54  1  0
 22 55  1  0
 23 29  1  0
 23 24  1  1
 23 25  1  0
 24 56  1  0
 24 57  1  0
 24 58  1  0
 25 26  1  0
 25 59  1  0
 25 60  1  0
 27 26  1  6
 26 61  1  0
 26 62  1  0
 27 28  1  0
 27 31  1  0
 28 29  1  0
 28 63  1  0
 28 64  1  0
 29 30  2  0
 31 32  1  1
 32 65  1  0
 32 66  1  0
 32 67  1  0
 33 34  1  0
 33 35  1  1
 34 68  1  0
 34 69  1  0
 34 70  1  0
 35 71  1  0
M  END
>  <i_m_ct_stereo_status>  (348) 
1

>  <s_m_source_file>  (348) 
/var/tmp/pbs.5076255.sched01/tmpybatibx8/138x0dlab3k.sdf

>  <i_m_source_file_index>  (348) 
13

>  <i_lp_mmshare_version>  (348) 
48012

>  <i_f3d_flags>  (348) 
0

>  <s_epik_input>  (348) 
W0NIM11bQ0BAXTEoW09IXSlbQ0BIXShbQ0gzXSlbQ0gyXVtDQEBIXShbT0hdKVtDQEBIXShbQ0gyXU8yKVtDQF0zKFtDSDNdKVtDQEBdKE80KShbQ0gzXSlbQ0hdPUMoW0NASF01W09IXSlbQ0BdMyhbQ0gyXUM2PU8pW0NIMl1bQ0gyXVtDQEBdNihbQ0gzXSlbQ0BdKFtDQEBdNTdbQ0BAXTEyNCkoQyhPNyk9TylbQ0gzXQ==

>  <s_epik_cmdline>  (348) 
J2VwaWtfcHl0aG9uJywgJy1waHQnLCAnMi4wJywgJy1waCcsICc3LjAnLCAnLXRuJywgJzgnLCAnLW1hJywgJzIwMCcsICctaW1hZScsICc8aW5maWxlLm1hZT4nLCAnLW9tYWUnLCAnPG91dGZpbGUubWFlPic=

>  <r_lp_tautomer_probability>  (348) 
1

>  <r_epik_Ionization_Penalty>  (348) 
5.09852e-05

>  <r_epik_Ionization_Penalty_Charging>  (348) 
0

>  <r_epik_Ionization_Penalty_Neutral>  (348) 
5.09852e-05

>  <r_epik_State_Penalty>  (348) 
-0

>  <r_epik_Charging_Adjusted_Penalty>  (348) 
0

>  <i_epik_Tot_Q>  (348) 
0

>  <i_epik_Tot_abs_Q>  (348) 
0

>  <s_epik_Chemistry_Notes>  (348) 
This compound has an ester and may undergo hydrolysis at high or low pH.

>  <s_lp_Force_Field>  (348) 
OPLS3e

>  <r_lp_Energy>  (348) 
335.743

>  <b_lp_Chiralities_Consistent>  (348) 
1

>  <s_lp_Variant>  (348) 
101:0-1

>  <s_i_glide_gridfile>  (348) 
pfpi4k_grid

>  <i_i_glide_lignum>  (348) 
13

>  <i_i_glide_rotatable_bonds>  (348) 
3

>  <r_i_docking_score>  (348) 
-1.81632

>  <r_i_glide_ligand_efficiency>  (348) 
-0.0518949

>  <r_i_glide_ligand_efficiency_sa>  (348) 
-0.169752

>  <r_i_glide_ligand_efficiency_ln>  (348) 
-0.398723

>  <r_i_glide_gscore>  (348) 
-1.81632

>  <r_i_glide_lipo>  (348) 
-0.223147

>  <r_i_glide_hbond>  (348) 
-0.0610475

>  <r_i_glide_metal>  (348) 
-0

>  <r_i_glide_rewards>  (348) 
-0.0794527

>  <r_i_glide_evdw>  (348) 
-20.6877

>  <r_i_glide_ecoul>  (348) 
-2.75461

>  <r_i_glide_erotb>  (348) 
0

>  <r_i_glide_esite>  (348) 
-0.00509659

>  <r_i_glide_emodel>  (348) 
-25.7883

>  <r_i_glide_energy>  (348) 
-23.4423

>  <r_i_glide_einternal>  (348) 
0.478889

>  <r_i_glide_intrahb_reward>  (348) 
-0

>  <i_i_glide_confnum>  (348) 
2

>  <i_i_glide_posenum>  (348) 
33

>  <r_i_glide_eff_state_penalty>  (348) 
0

>  <ligand_id>  (348) 
101

>  <original_smiles>  (348) 
CC1CC(O)C2COC3(OC4(C)C=C5C(O)C36OC(=O)C6(C)C3(C)CCC5(CC3=O)C24C)C1(C)O

>  <smiles>  (348) 
[H]OC1([H])C2=C([H])C3(C([H])([H])[H])OC45OC([H])([H])C([H])(C([H])(O[H])C([H])([H])C([H])(C([H])([H])[H])C4(O[H])C([H])([H])[H])C3(C([H])([H])[H])C23C([H])([H])C(=O)C(C([H])([H])[H])(C([H])([H])C3([H])[H])C2(C([H])([H])[H])C(=O)OC152

$$$$
102:0:0
     RDKit          3D

 37 41  0  0  1  0  0  0  0  0999 V2000
    7.4874   -7.8671    1.8833 C   0  0  0  0  0  0  0  0  0  0  0  0
    6.7988   -8.9691    2.2003 N   0  0  0  0  0  0  0  0  0  0  0  0
    5.4518   -8.9684    2.0666 C   0  0  0  0  0  0  0  0  0  0  0  0
    4.8156   -7.7964    1.5965 C   0  0  0  0  0  0  0  0  0  0  0  0
    3.4900   -7.4892    1.3663 N   0  0  0  0  0  0  0  0  0  0  0  0
    3.5859   -6.2361    0.9283 C   0  0  0  0  0  0  0  0  0  0  0  0
    4.8129   -5.6797    0.8498 N   0  0  0  0  0  0  0  0  0  0  0  0
    5.0987   -4.3093    0.3963 C   0  0  1  0  0  0  0  0  0  0  0  0
    4.5677   -4.1143   -1.0493 C   0  0  0  0  0  0  0  0  0  0  0  0
    4.8461   -2.6838   -1.5334 C   0  0  2  0  0  0  0  0  0  0  0  0
    6.3631   -2.4367   -1.5211 C   0  0  0  0  0  0  0  0  0  0  0  0
    6.8960   -2.5701   -0.0822 C   0  0  1  0  0  0  0  0  0  0  0  0
    6.1925   -1.5817    0.8677 C   0  0  0  0  0  0  0  0  0  0  0  0
    4.6738   -1.8481    0.8377 C   0  0  1  0  0  0  0  0  0  0  0  0
    4.1440   -1.6722   -0.6014 C   0  0  0  0  0  0  0  0  0  0  0  0
    4.3906   -3.2841    1.3234 C   0  0  0  0  0  0  0  0  0  0  0  0
    6.6215   -3.9916    0.4031 C   0  0  0  0  0  0  0  0  0  0  0  0
    5.6689   -6.6971    1.2922 C   0  0  0  0  0  0  0  0  0  0  0  0
    7.0274   -6.7038    1.4248 N   0  0  0  0  0  0  0  0  0  0  0  0
    8.5586   -7.9211    2.0069 H   0  0  0  0  0  0  0  0  0  0  0  0
    4.8986   -9.8631    2.3275 H   0  0  0  0  0  0  0  0  0  0  0  0
    2.7048   -5.6776    0.6447 H   0  0  0  0  0  0  0  0  0  0  0  0
    5.0177   -4.8426   -1.7262 H   0  0  0  0  0  0  0  0  0  0  0  0
    3.4932   -4.2847   -1.0961 H   0  0  0  0  0  0  0  0  0  0  0  0
    4.4672   -2.5635   -2.5473 H   0  0  0  0  0  0  0  0  0  0  0  0
    6.8670   -3.1468   -2.1797 H   0  0  0  0  0  0  0  0  0  0  0  0
    6.5703   -1.4511   -1.9182 H   0  0  0  0  0  0  0  0  0  0  0  0
    7.9728   -2.3961   -0.0665 H   0  0  0  0  0  0  0  0  0  0  0  0
    6.5663   -1.7177    1.8831 H   0  0  0  0  0  0  0  0  0  0  0  0
    6.4135   -0.5536    0.5839 H   0  0  0  0  0  0  0  0  0  0  0  0
    4.1685   -1.1425    1.4962 H   0  0  0  0  0  0  0  0  0  0  0  0
    4.3163   -0.6523   -0.9471 H   0  0  0  0  0  0  0  0  0  0  0  0
    3.0638   -1.8251   -0.6277 H   0  0  0  0  0  0  0  0  0  0  0  0
    3.3131   -3.4488    1.3336 H   0  0  0  0  0  0  0  0  0  0  0  0
    4.7279   -3.4087    2.3540 H   0  0  0  0  0  0  0  0  0  0  0  0
    7.0361   -4.0939    1.4079 H   0  0  0  0  0  0  0  0  0  0  0  0
    7.1578   -4.6764   -0.2546 H   0  0  0  0  0  0  0  0  0  0  0  0
  1 19  1  0
  1  2  2  0
  1 20  1  0
  2  3  1  0
  3  4  2  0
  3 21  1  0
  4 18  1  0
  4  5  1  0
  5  6  2  0
  6  7  1  0
  6 22  1  0
  8  7  1  1
  7 18  1  0
  8 16  1  0
  8 17  1  0
  8  9  1  0
  9 10  1  0
  9 23  1  0
  9 24  1  0
 10 15  1  0
 10 11  1  0
 10 25  1  6
 11 12  1  0
 11 26  1  0
 11 27  1  0
 12 13  1  0
 12 17  1  0
 12 28  1  6
 13 14  1  0
 13 29  1  0
 13 30  1  0
 14 15  1  0
 14 16  1  0
 14 31  1  1
 15 32  1  0
 15 33  1  0
 16 34  1  0
 16 35  1  0
 17 36  1  0
 17 37  1  0
 18 19  2  0
M  END
>  <i_m_ct_stereo_status>  (349) 
1

>  <s_m_source_file>  (349) 
/var/tmp/pbs.5076255.sched01/tmpybatibx8/138x0dlab3k.sdf

>  <i_m_source_file_index>  (349) 
14

>  <i_lp_mmshare_version>  (349) 
48012

>  <i_f3d_flags>  (349) 
0

>  <s_epik_input>  (349) 
W2NIXTFuW2NIXW5jKGMxMiluKFtjSF1uMilDMzRbQ0gyXVtDQEhdNVtDSDJdW0NAQEhdKFtDSDJdNClbQ0gyXVtDQEhdKFtDSDJdNSlbQ0gyXTM=

>  <s_epik_cmdline>  (349) 
J2VwaWtfcHl0aG9uJywgJy1waHQnLCAnMi4wJywgJy1waCcsICc3LjAnLCAnLXRuJywgJzgnLCAnLW1hJywgJzIwMCcsICctaW1hZScsICc8aW5maWxlLm1hZT4nLCAnLW9tYWUnLCAnPG91dGZpbGUubWFlPic=

>  <r_lp_tautomer_probability>  (349) 
1

>  <r_epik_Ionization_Penalty>  (349) 
0.000216506

>  <r_epik_Ionization_Penalty_Charging>  (349) 
0

>  <r_epik_Ionization_Penalty_Neutral>  (349) 
0.000216506

>  <r_epik_State_Penalty>  (349) 
-0

>  <r_epik_Charging_Adjusted_Penalty>  (349) 
0

>  <i_epik_Tot_Q>  (349) 
0

>  <i_epik_Tot_abs_Q>  (349) 
0

>  <s_lp_Force_Field>  (349) 
OPLS3e

>  <r_lp_Energy>  (349) 
20.7146

>  <b_lp_Chiralities_Consistent>  (349) 
1

>  <s_lp_Variant>  (349) 
102:0-1

>  <s_i_glide_gridfile>  (349) 
pfpi4k_grid

>  <i_i_glide_lignum>  (349) 
14

>  <i_i_glide_rotatable_bonds>  (349) 
1

>  <r_i_docking_score>  (349) 
-3.53695

>  <r_i_glide_ligand_efficiency>  (349) 
-0.186155

>  <r_i_glide_ligand_efficiency_sa>  (349) 
-0.496736

>  <r_i_glide_ligand_efficiency_ln>  (349) 
-0.896692

>  <r_i_glide_gscore>  (349) 
-3.53695

>  <r_i_glide_lipo>  (349) 
-0.400749

>  <r_i_glide_hbond>  (349) 
0

>  <r_i_glide_metal>  (349) 
-0

>  <r_i_glide_rewards>  (349) 
-1.97201

>  <r_i_glide_evdw>  (349) 
-23.8397

>  <r_i_glide_ecoul>  (349) 
-1.6013

>  <r_i_glide_erotb>  (349) 
0.271869

>  <r_i_glide_esite>  (349) 
-0.00387727

>  <r_i_glide_emodel>  (349) 
-30.7612

>  <r_i_glide_energy>  (349) 
-25.441

>  <r_i_glide_einternal>  (349) 
0.0108152

>  <r_i_glide_intrahb_reward>  (349) 
-0

>  <i_i_glide_confnum>  (349) 
4

>  <i_i_glide_posenum>  (349) 
31

>  <r_i_glide_eff_state_penalty>  (349) 
0

>  <ligand_id>  (349) 
102

>  <original_smiles>  (349) 
c1ncc2ncn(C34CC5CC(CC(C5)C3)C4)c2n1

>  <smiles>  (349) 
[H]c1nc([H])c2nc([H])n(C34C([H])([H])C5([H])C([H])([H])C([H])(C([H])([H])C([H])(C5([H])[H])C3([H])[H])C4([H])[H])c2n1

$$$$
102:0:1
     RDKit          3D

 37 41  0  0  1  0  0  0  0  0999 V2000
    4.2018   -8.3357    1.2051 C   0  0  0  0  0  0  0  0  0  0  0  0
    3.2172   -8.8590    1.9421 N   0  0  0  0  0  0  0  0  0  0  0  0
    2.2739   -8.0396    2.4572 C   0  0  0  0  0  0  0  0  0  0  0  0
    2.3599   -6.6516    2.2005 C   0  0  0  0  0  0  0  0  0  0  0  0
    1.5587   -5.5918    2.5733 N   0  0  0  0  0  0  0  0  0  0  0  0
    2.2157   -4.5688    2.0305 C   0  0  0  0  0  0  0  0  0  0  0  0
    3.3398   -4.8317    1.3272 N   0  0  0  0  0  0  0  0  0  0  0  0
    4.1570   -3.8314    0.6187 C   0  0  1  0  0  0  0  0  0  0  0  0
    5.5123   -4.4212    0.1353 C   0  0  0  0  0  0  0  0  0  0  0  0
    6.3588   -3.3611   -0.5751 C   0  0  2  0  0  0  0  0  0  0  0  0
    6.6461   -2.2056    0.3985 C   0  0  0  0  0  0  0  0  0  0  0  0
    5.3106   -1.5772    0.8398 C   0  0  1  0  0  0  0  0  0  0  0  0
    4.5228   -1.0618   -0.3838 C   0  0  0  0  0  0  0  0  0  0  0  0
    4.2466   -2.2339   -1.3482 C   0  0  1  0  0  0  0  0  0  0  0  0
    5.5850   -2.8513   -1.8063 C   0  0  0  0  0  0  0  0  0  0  0  0
    3.3963   -3.3003   -0.6266 C   0  0  0  0  0  0  0  0  0  0  0  0
    4.4661   -2.6359    1.5674 C   0  0  0  0  0  0  0  0  0  0  0  0
    3.4661   -6.2250    1.4089 C   0  0  0  0  0  0  0  0  0  0  0  0
    4.4129   -7.0583    0.8832 N   0  0  0  0  0  0  0  0  0  0  0  0
    4.9219   -9.0394    0.8113 H   0  0  0  0  0  0  0  0  0  0  0  0
    1.4837   -8.4696    3.0606 H   0  0  0  0  0  0  0  0  0  0  0  0
    1.8404   -3.5579    2.1271 H   0  0  0  0  0  0  0  0  0  0  0  0
    6.0691   -4.8362    0.9798 H   0  0  0  0  0  0  0  0  0  0  0  0
    5.3541   -5.2247   -0.5873 H   0  0  0  0  0  0  0  0  0  0  0  0
    7.2984   -3.8127   -0.8938 H   0  0  0  0  0  0  0  0  0  0  0  0
    7.1783   -2.5870    1.2707 H   0  0  0  0  0  0  0  0  0  0  0  0
    7.2904   -1.4628   -0.0685 H   0  0  0  0  0  0  0  0  0  0  0  0
    5.5086   -0.7497    1.5199 H   0  0  0  0  0  0  0  0  0  0  0  0
    3.5767   -0.6263   -0.0607 H   0  0  0  0  0  0  0  0  0  0  0  0
    5.0741   -0.2681   -0.8877 H   0  0  0  0  0  0  0  0  0  0  0  0
    3.6987   -1.8666   -2.2157 H   0  0  0  0  0  0  0  0  0  0  0  0
    6.1866   -2.1161   -2.3360 H   0  0  0  0  0  0  0  0  0  0  0  0
    5.3990   -3.6715   -2.5014 H   0  0  0  0  0  0  0  0  0  0  0  0
    3.1642   -4.1188   -1.3099 H   0  0  0  0  0  0  0  0  0  0  0  0
    2.4389   -2.8651   -0.3390 H   0  0  0  0  0  0  0  0  0  0  0  0
    3.5521   -2.1545    1.9129 H   0  0  0  0  0  0  0  0  0  0  0  0
    4.9867   -2.9898    2.4582 H   0  0  0  0  0  0  0  0  0  0  0  0
  1 19  1  0
  1  2  2  0
  1 20  1  0
  2  3  1  0
  3  4  2  0
  3 21  1  0
  4 18  1  0
  4  5  1  0
  5  6  2  0
  6  7  1  0
  6 22  1  0
  8  7  1  1
  7 18  1  0
  8 16  1  0
  8 17  1  0
  8  9  1  0
  9 10  1  0
  9 23  1  0
  9 24  1  0
 10 15  1  0
 10 11  1  0
 10 25  1  6
 11 12  1  0
 11 26  1  0
 11 27  1  0
 12 13  1  0
 12 17  1  0
 12 28  1  1
 13 14  1  0
 13 29  1  0
 13 30  1  0
 14 15  1  0
 14 16  1  0
 14 31  1  6
 15 32  1  0
 15 33  1  0
 16 34  1  0
 16 35  1  0
 17 36  1  0
 17 37  1  0
 18 19  2  0
M  END
>  <i_m_ct_stereo_status>  (350) 
1

>  <s_m_source_file>  (350) 
/var/tmp/pbs.5076255.sched01/tmpybatibx8/138x0dlab3k.sdf

>  <i_m_source_file_index>  (350) 
14

>  <i_lp_mmshare_version>  (350) 
48012

>  <i_f3d_flags>  (350) 
0

>  <s_epik_input>  (350) 
W2NIXTFuW2NIXW5jKGMxMiluKFtjSF1uMilDMzRbQ0gyXVtDQEhdNVtDSDJdW0NAQEhdKFtDSDJdNClbQ0gyXVtDQEhdKFtDSDJdNSlbQ0gyXTM=

>  <s_epik_cmdline>  (350) 
J2VwaWtfcHl0aG9uJywgJy1waHQnLCAnMi4wJywgJy1waCcsICc3LjAnLCAnLXRuJywgJzgnLCAnLW1hJywgJzIwMCcsICctaW1hZScsICc8aW5maWxlLm1hZT4nLCAnLW9tYWUnLCAnPG91dGZpbGUubWFlPic=

>  <r_lp_tautomer_probability>  (350) 
1

>  <r_epik_Ionization_Penalty>  (350) 
0.000216506

>  <r_epik_Ionization_Penalty_Charging>  (350) 
0

>  <r_epik_Ionization_Penalty_Neutral>  (350) 
0.000216506

>  <r_epik_State_Penalty>  (350) 
-0

>  <r_epik_Charging_Adjusted_Penalty>  (350) 
0

>  <i_epik_Tot_Q>  (350) 
0

>  <i_epik_Tot_abs_Q>  (350) 
0

>  <s_lp_Force_Field>  (350) 
OPLS3e

>  <r_lp_Energy>  (350) 
20.7146

>  <b_lp_Chiralities_Consistent>  (350) 
1

>  <s_lp_Variant>  (350) 
102:0-1

>  <s_i_glide_gridfile>  (350) 
pfpi4k_grid

>  <i_i_glide_lignum>  (350) 
14

>  <i_i_glide_rotatable_bonds>  (350) 
1

>  <r_i_docking_score>  (350) 
-3.36047

>  <r_i_glide_ligand_efficiency>  (350) 
-0.176867

>  <r_i_glide_ligand_efficiency_sa>  (350) 
-0.471952

>  <r_i_glide_ligand_efficiency_ln>  (350) 
-0.851951

>  <r_i_glide_gscore>  (350) 
-3.36047

>  <r_i_glide_lipo>  (350) 
-0.468775

>  <r_i_glide_hbond>  (350) 
0

>  <r_i_glide_metal>  (350) 
-0

>  <r_i_glide_rewards>  (350) 
-1.7484

>  <r_i_glide_evdw>  (350) 
-23.8775

>  <r_i_glide_ecoul>  (350) 
-1.25449

>  <r_i_glide_erotb>  (350) 
0.271869

>  <r_i_glide_esite>  (350) 
-0.0331108

>  <r_i_glide_emodel>  (350) 
-30.0566

>  <r_i_glide_energy>  (350) 
-25.132

>  <r_i_glide_einternal>  (350) 
0.338004

>  <r_i_glide_intrahb_reward>  (350) 
-0

>  <i_i_glide_confnum>  (350) 
4

>  <i_i_glide_posenum>  (350) 
33

>  <r_i_glide_eff_state_penalty>  (350) 
0

>  <ligand_id>  (350) 
102

>  <original_smiles>  (350) 
c1ncc2ncn(C34CC5CC(CC(C5)C3)C4)c2n1

>  <smiles>  (350) 
[H]c1nc([H])c2nc([H])n(C34C([H])([H])C5([H])C([H])([H])C([H])(C([H])([H])C([H])(C5([H])[H])C3([H])[H])C4([H])[H])c2n1

$$$$
102:0:2
     RDKit          3D

 37 41  0  0  1  0  0  0  0  0999 V2000
    1.5682   -6.9595    1.2837 C   0  0  0  0  0  0  0  0  0  0  0  0
    1.8127   -8.1882    1.7442 N   0  0  0  0  0  0  0  0  0  0  0  0
    3.0951   -8.5816    1.9106 C   0  0  0  0  0  0  0  0  0  0  0  0
    4.1258   -7.6649    1.6140 C   0  0  0  0  0  0  0  0  0  0  0  0
    5.4931   -7.7803    1.7029 N   0  0  0  0  0  0  0  0  0  0  0  0
    5.8783   -6.5773    1.2915 C   0  0  0  0  0  0  0  0  0  0  0  0
    4.9224   -5.6833    0.9401 N   0  0  0  0  0  0  0  0  0  0  0  0
    5.1296   -4.3095    0.4531 C   0  0  1  0  0  0  0  0  0  0  0  0
    4.5885   -4.1592   -0.9939 C   0  0  0  0  0  0  0  0  0  0  0  0
    4.8330   -2.7282   -1.5080 C   0  0  2  0  0  0  0  0  0  0  0  0
    6.3444   -2.4383   -1.5032 C   0  0  0  0  0  0  0  0  0  0  0  0
    6.8805   -2.5326   -0.0605 C   0  0  1  0  0  0  0  0  0  0  0  0
    6.1527   -1.5431    0.8708 C   0  0  0  0  0  0  0  0  0  0  0  0
    4.6408   -1.8490    0.8472 C   0  0  1  0  0  0  0  0  0  0  0  0
    4.1066   -1.7149   -0.5956 C   0  0  0  0  0  0  0  0  0  0  0  0
    4.3924   -3.2846    1.3604 C   0  0  0  0  0  0  0  0  0  0  0  0
    6.6459   -3.9529    0.4496 C   0  0  0  0  0  0  0  0  0  0  0  0
    3.7255   -6.3808    1.1426 C   0  0  0  0  0  0  0  0  0  0  0  0
    2.4286   -5.9860    0.9588 N   0  0  0  0  0  0  0  0  0  0  0  0
    0.5236   -6.7298    1.1575 H   0  0  0  0  0  0  0  0  0  0  0  0
    3.3085   -9.5778    2.2731 H   0  0  0  0  0  0  0  0  0  0  0  0
    6.9345   -6.3523    1.2562 H   0  0  0  0  0  0  0  0  0  0  0  0
    5.0622   -4.8854   -1.6565 H   0  0  0  0  0  0  0  0  0  0  0  0
    3.5176   -4.3686   -1.0356 H   0  0  0  0  0  0  0  0  0  0  0  0
    4.4519   -2.6358   -2.5255 H   0  0  0  0  0  0  0  0  0  0  0  0
    6.8690   -3.1432   -2.1500 H   0  0  0  0  0  0  0  0  0  0  0  0
    6.5267   -1.4552   -1.9196 H   0  0  0  0  0  0  0  0  0  0  0  0
    7.9500   -2.3270   -0.0493 H   0  0  0  0  0  0  0  0  0  0  0  0
    6.5320   -1.6480    1.8883 H   0  0  0  0  0  0  0  0  0  0  0  0
    6.3467   -0.5140    0.5694 H   0  0  0  0  0  0  0  0  0  0  0  0
    4.1182   -1.1420    1.4923 H   0  0  0  0  0  0  0  0  0  0  0  0
    4.2532   -0.6970   -0.9608 H   0  0  0  0  0  0  0  0  0  0  0  0
    3.0310   -1.8963   -0.6176 H   0  0  0  0  0  0  0  0  0  0  0  0
    3.3160   -3.4715    1.3784 H   0  0  0  0  0  0  0  0  0  0  0  0
    4.7350   -3.3802    2.3921 H   0  0  0  0  0  0  0  0  0  0  0  0
    7.0610   -4.0414    1.4539 H   0  0  0  0  0  0  0  0  0  0  0  0
    7.1956   -4.6373   -0.1954 H   0  0  0  0  0  0  0  0  0  0  0  0
  1 19  1  0
  1  2  2  0
  1 20  1  0
  2  3  1  0
  3  4  2  0
  3 21  1  0
  4 18  1  0
  4  5  1  0
  5  6  2  0
  6  7  1  0
  6 22  1  0
  8  7  1  1
  7 18  1  0
  8 16  1  0
  8 17  1  0
  8  9  1  0
  9 10  1  0
  9 23  1  0
  9 24  1  0
 10 15  1  0
 10 11  1  0
 10 25  1  6
 11 12  1  0
 11 26  1  0
 11 27  1  0
 12 13  1  0
 12 17  1  0
 12 28  1  6
 13 14  1  0
 13 29  1  0
 13 30  1  0
 14 15  1  0
 14 16  1  0
 14 31  1  1
 15 32  1  0
 15 33  1  0
 16 34  1  0
 16 35  1  0
 17 36  1  0
 17 37  1  0
 18 19  2  0
M  END
>  <i_m_ct_stereo_status>  (351) 
1

>  <s_m_source_file>  (351) 
/var/tmp/pbs.5076255.sched01/tmpybatibx8/138x0dlab3k.sdf

>  <i_m_source_file_index>  (351) 
14

>  <i_lp_mmshare_version>  (351) 
48012

>  <i_f3d_flags>  (351) 
0

>  <s_epik_input>  (351) 
W2NIXTFuW2NIXW5jKGMxMiluKFtjSF1uMilDMzRbQ0gyXVtDQEhdNVtDSDJdW0NAQEhdKFtDSDJdNClbQ0gyXVtDQEhdKFtDSDJdNSlbQ0gyXTM=

>  <s_epik_cmdline>  (351) 
J2VwaWtfcHl0aG9uJywgJy1waHQnLCAnMi4wJywgJy1waCcsICc3LjAnLCAnLXRuJywgJzgnLCAnLW1hJywgJzIwMCcsICctaW1hZScsICc8aW5maWxlLm1hZT4nLCAnLW9tYWUnLCAnPG91dGZpbGUubWFlPic=

>  <r_lp_tautomer_probability>  (351) 
1

>  <r_epik_Ionization_Penalty>  (351) 
0.000216506

>  <r_epik_Ionization_Penalty_Charging>  (351) 
0

>  <r_epik_Ionization_Penalty_Neutral>  (351) 
0.000216506

>  <r_epik_State_Penalty>  (351) 
-0

>  <r_epik_Charging_Adjusted_Penalty>  (351) 
0

>  <i_epik_Tot_Q>  (351) 
0

>  <i_epik_Tot_abs_Q>  (351) 
0

>  <s_lp_Force_Field>  (351) 
OPLS3e

>  <r_lp_Energy>  (351) 
20.7146

>  <b_lp_Chiralities_Consistent>  (351) 
1

>  <s_lp_Variant>  (351) 
102:0-1

>  <s_i_glide_gridfile>  (351) 
pfpi4k_grid

>  <i_i_glide_lignum>  (351) 
14

>  <i_i_glide_rotatable_bonds>  (351) 
1

>  <r_i_docking_score>  (351) 
-3.27363

>  <r_i_glide_ligand_efficiency>  (351) 
-0.172297

>  <r_i_glide_ligand_efficiency_sa>  (351) 
-0.459756

>  <r_i_glide_ligand_efficiency_ln>  (351) 
-0.829937

>  <r_i_glide_gscore>  (351) 
-3.27363

>  <r_i_glide_lipo>  (351) 
-0.387192

>  <r_i_glide_hbond>  (351) 
0

>  <r_i_glide_metal>  (351) 
-0

>  <r_i_glide_rewards>  (351) 
-1.99797

>  <r_i_glide_evdw>  (351) 
-24.7479

>  <r_i_glide_ecoul>  (351) 
0.807215

>  <r_i_glide_erotb>  (351) 
0.271869

>  <r_i_glide_esite>  (351) 
-0.0440247

>  <r_i_glide_emodel>  (351) 
-28.8005

>  <r_i_glide_energy>  (351) 
-23.9407

>  <r_i_glide_einternal>  (351) 
0.0159026

>  <r_i_glide_intrahb_reward>  (351) 
-0

>  <i_i_glide_confnum>  (351) 
4

>  <i_i_glide_posenum>  (351) 
3

>  <r_i_glide_eff_state_penalty>  (351) 
0

>  <ligand_id>  (351) 
102

>  <original_smiles>  (351) 
c1ncc2ncn(C34CC5CC(CC(C5)C3)C4)c2n1

>  <smiles>  (351) 
[H]c1nc([H])c2nc([H])n(C34C([H])([H])C5([H])C([H])([H])C([H])(C([H])([H])C([H])(C5([H])[H])C3([H])[H])C4([H])[H])c2n1

$$$$
104:0:0
     RDKit          3D

 40 43  0  0  1  0  0  0  0  0999 V2000
    4.8709   -0.0776    1.3485 C   0  0  0  0  0  0  0  0  0  0  0  0
    5.7610   -0.5129    0.3313 O   0  0  0  0  0  0  0  0  0  0  0  0
    5.9171   -1.9140    0.3236 C   0  0  2  0  0  0  0  0  0  0  0  0
    7.0628   -2.3106   -0.6017 C   0  0  0  0  0  0  0  0  0  0  0  0
    6.9117   -3.1385   -1.6792 C   0  0  0  0  0  0  0  0  0  0  0  0
    5.5583   -3.7375   -2.0390 C   0  0  2  0  0  0  0  0  0  0  0  0
    4.9681   -2.6318   -2.8920 C   0  0  0  0  0  0  0  0  0  0  0  0
    4.0940   -1.7552   -2.3867 C   0  0  0  0  0  0  0  0  0  0  0  0
    3.5339   -0.5833   -3.1669 C   0  0  0  0  0  0  0  0  0  0  0  0
    3.5574   -1.9823   -0.9823 C   0  0  1  0  0  0  0  0  0  0  0  0
    2.5411   -3.1396   -1.0029 C   0  0  1  0  0  0  0  0  0  0  0  0
    2.1419   -3.6230   -2.2556 O   0  0  0  0  0  0  0  0  0  0  0  0
    3.3886   -4.1363   -0.2606 C   0  0  1  0  0  0  0  0  0  0  0  0
    4.8741   -4.0065   -0.6703 C   0  0  2  0  0  0  0  0  0  0  0  0
    4.5957   -2.6596    0.0001 C   0  0  1  0  0  0  0  0  0  0  0  0
    3.8317   -3.4723    1.0910 C   0  0  0  0  0  0  0  0  0  0  0  0
    2.7785   -2.7009    1.9211 C   0  0  0  0  0  0  0  0  0  0  0  0
    4.5724   -4.2979    2.1725 C   0  0  0  0  0  0  0  0  0  0  0  0
    4.6675    0.9455    1.1826 H   0  0  0  0  0  0  0  0  0  0  0  0
    5.2632   -0.2430    2.3635 H   0  0  0  0  0  0  0  0  0  0  0  0
    3.8671   -0.4821    1.2621 H   0  0  0  0  0  0  0  0  0  0  0  0
    6.2628   -2.2290    1.3024 H   0  0  0  0  0  0  0  0  0  0  0  0
    8.0372   -1.9414   -0.3378 H   0  0  0  0  0  0  0  0  0  0  0  0
    7.7512   -3.3877   -2.3162 H   0  0  0  0  0  0  0  0  0  0  0  0
    5.6371   -4.6418   -2.6447 H   0  0  0  0  0  0  0  0  0  0  0  0
    5.3541   -2.5295   -3.8924 H   0  0  0  0  0  0  0  0  0  0  0  0
    3.8482    0.3580   -2.7209 H   0  0  0  0  0  0  0  0  0  0  0  0
    2.4455   -0.6181   -3.1433 H   0  0  0  0  0  0  0  0  0  0  0  0
    3.8703   -0.5889   -4.2033 H   0  0  0  0  0  0  0  0  0  0  0  0
    3.1115   -1.0568   -0.6193 H   0  0  0  0  0  0  0  0  0  0  0  0
    1.6432   -2.9563   -0.4303 H   0  0  0  0  0  0  0  0  0  0  0  0
    2.5507   -4.4796   -2.3676 H   0  0  0  0  0  0  0  0  0  0  0  0
    2.9946   -5.1563   -0.1552 H   0  0  0  0  0  0  0  0  0  0  0  0
    5.4799   -4.7314   -0.1401 H   0  0  0  0  0  0  0  0  0  0  0  0
    3.2678   -2.1442    2.7215 H   0  0  0  0  0  0  0  0  0  0  0  0
    2.0419   -3.3621    2.3833 H   0  0  0  0  0  0  0  0  0  0  0  0
    2.2359   -1.9614    1.3377 H   0  0  0  0  0  0  0  0  0  0  0  0
    5.0125   -3.6284    2.9104 H   0  0  0  0  0  0  0  0  0  0  0  0
    5.3905   -4.9473    1.8517 H   0  0  0  0  0  0  0  0  0  0  0  0
    3.8741   -4.9459    2.7078 H   0  0  0  0  0  0  0  0  0  0  0  0
  1  2  1  0
  1 19  1  0
  1 20  1  0
  1 21  1  0
  2  3  1  0
  3 15  1  0
  3  4  1  0
  3 22  1  1
  4  5  2  0
  4 23  1  0
  5  6  1  0
  5 24  1  0
  6 14  1  0
  6  7  1  0
  6 25  1  6
  7  8  2  0
  7 26  1  0
  8  9  1  0
  8 10  1  0
  9 27  1  0
  9 28  1  0
  9 29  1  0
 10 15  1  0
 10 11  1  0
 10 30  1  1
 11 12  1  0
 11 13  1  0
 11 31  1  1
 12 32  1  0
 13 16  1  0
 13 14  1  0
 13 33  1  1
 14 15  1  0
 14 34  1  1
 15 16  1  1
 16 17  1  0
 16 18  1  0
 17 35  1  0
 17 36  1  0
 17 37  1  0
 18 38  1  0
 18 39  1  0
 18 40  1  0
M  END
>  <i_m_ct_stereo_status>  (352) 
1

>  <s_m_source_file>  (352) 
/var/tmp/pbs.5076255.sched01/tmpybatibx8/138x0dlab3k.sdf

>  <i_m_source_file_index>  (352) 
16

>  <i_lp_mmshare_version>  (352) 
48012

>  <i_f3d_flags>  (352) 
0

>  <s_epik_input>  (352) 
W0NIM11PW0NAQEhdMVtDSF09W0NIXVtDQEhdKFtDSF09QyhbQ0gzXSlbQ0BASF0yW0NAXTEzNClbQ0BASF0zW0NASF0oW0NAQEhdMltPSF0pQzQoW0NIM10pW0NIM10=

>  <s_epik_cmdline>  (352) 
J2VwaWtfcHl0aG9uJywgJy1waHQnLCAnMi4wJywgJy1waCcsICc3LjAnLCAnLXRuJywgJzgnLCAnLW1hJywgJzIwMCcsICctaW1hZScsICc8aW5maWxlLm1hZT4nLCAnLW9tYWUnLCAnPG91dGZpbGUubWFlPic=

>  <r_lp_tautomer_probability>  (352) 
1

>  <r_epik_Ionization_Penalty>  (352) 
3.02682e-07

>  <r_epik_Ionization_Penalty_Charging>  (352) 
0

>  <r_epik_Ionization_Penalty_Neutral>  (352) 
3.02682e-07

>  <r_epik_State_Penalty>  (352) 
-0

>  <r_epik_Charging_Adjusted_Penalty>  (352) 
0

>  <i_epik_Tot_Q>  (352) 
0

>  <i_epik_Tot_abs_Q>  (352) 
0

>  <s_lp_Force_Field>  (352) 
OPLS3e

>  <r_lp_Energy>  (352) 
81.9304

>  <b_lp_Chiralities_Consistent>  (352) 
1

>  <s_lp_Variant>  (352) 
104:0-1

>  <s_i_glide_gridfile>  (352) 
pfpi4k_grid

>  <i_i_glide_lignum>  (352) 
16

>  <i_i_glide_rotatable_bonds>  (352) 
2

>  <r_i_docking_score>  (352) 
-3.95089

>  <r_i_glide_ligand_efficiency>  (352) 
-0.219494

>  <r_i_glide_ligand_efficiency_sa>  (352) 
-0.575236

>  <r_i_glide_ligand_efficiency_ln>  (352) 
-1.01555

>  <r_i_glide_gscore>  (352) 
-3.95089

>  <r_i_glide_lipo>  (352) 
-0.609925

>  <r_i_glide_hbond>  (352) 
-0.32

>  <r_i_glide_metal>  (352) 
-0

>  <r_i_glide_rewards>  (352) 
-1.72947

>  <r_i_glide_evdw>  (352) 
-14.6137

>  <r_i_glide_ecoul>  (352) 
-3.73871

>  <r_i_glide_erotb>  (352) 
0

>  <r_i_glide_esite>  (352) 
0

>  <r_i_glide_emodel>  (352) 
-19.2529

>  <r_i_glide_energy>  (352) 
-18.3524

>  <r_i_glide_einternal>  (352) 
4.04898

>  <r_i_glide_intrahb_reward>  (352) 
-0

>  <i_i_glide_confnum>  (352) 
1

>  <i_i_glide_posenum>  (352) 
22

>  <r_i_glide_eff_state_penalty>  (352) 
0

>  <ligand_id>  (352) 
104

>  <original_smiles>  (352) 
COC1C=CC2C=C(C)C3C(O)C4C2C13C4(C)C

>  <smiles>  (352) 
[H]OC1([H])C2([H])C(C([H])([H])[H])=C([H])C3([H])C([H])=C([H])C([H])(OC([H])([H])[H])C24C3([H])C1([H])C4(C([H])([H])[H])C([H])([H])[H]

$$$$
104:0:1
     RDKit          3D

 40 43  0  0  1  0  0  0  0  0999 V2000
    6.2662   -0.1995    0.3071 C   0  0  0  0  0  0  0  0  0  0  0  0
    5.6964   -1.0803    1.2495 O   0  0  0  0  0  0  0  0  0  0  0  0
    5.7535   -2.4562    0.8968 C   0  0  2  0  0  0  0  0  0  0  0  0
    7.0045   -2.8529    0.1109 C   0  0  0  0  0  0  0  0  0  0  0  0
    6.9463   -3.4548   -1.1127 C   0  0  0  0  0  0  0  0  0  0  0  0
    5.6169   -3.8580   -1.7220 C   0  0  2  0  0  0  0  0  0  0  0  0
    5.2119   -2.6126   -2.4618 C   0  0  0  0  0  0  0  0  0  0  0  0
    4.2872   -1.7577   -1.9707 C   0  0  0  0  0  0  0  0  0  0  0  0
    3.9029   -0.4634   -2.6385 C   0  0  0  0  0  0  0  0  0  0  0  0
    3.5812   -2.1239   -0.6826 C   0  0  1  0  0  0  0  0  0  0  0  0
    2.5046   -3.1767   -1.0259 C   0  0  1  0  0  0  0  0  0  0  0  0
    2.2832   -3.4625   -2.3952 O   0  0  0  0  0  0  0  0  0  0  0  0
    3.1921   -4.3210   -0.3342 C   0  0  1  0  0  0  0  0  0  0  0  0
    4.7222   -4.2711   -0.5236 C   0  0  2  0  0  0  0  0  0  0  0  0
    4.4451   -3.0198    0.2927 C   0  0  1  0  0  0  0  0  0  0  0  0
    3.4922   -3.9059    1.1409 C   0  0  0  0  0  0  0  0  0  0  0  0
    2.4262   -3.1491    1.9485 C   0  0  0  0  0  0  0  0  0  0  0  0
    3.9991   -4.9565    2.1654 C   0  0  0  0  0  0  0  0  0  0  0  0
    6.0433    0.8261    0.5805 H   0  0  0  0  0  0  0  0  0  0  0  0
    5.9010   -0.3259   -0.7030 H   0  0  0  0  0  0  0  0  0  0  0  0
    7.3449   -0.2968    0.2528 H   0  0  0  0  0  0  0  0  0  0  0  0
    5.8843   -2.9402    1.8508 H   0  0  0  0  0  0  0  0  0  0  0  0
    7.9461   -2.6198    0.5712 H   0  0  0  0  0  0  0  0  0  0  0  0
    7.8421   -3.6507   -1.6765 H   0  0  0  0  0  0  0  0  0  0  0  0
    5.7140   -4.6585   -2.4564 H   0  0  0  0  0  0  0  0  0  0  0  0
    5.7524   -2.3831   -3.3571 H   0  0  0  0  0  0  0  0  0  0  0  0
    4.2228    0.3275   -1.9900 H   0  0  0  0  0  0  0  0  0  0  0  0
    2.8126   -0.3609   -2.7633 H   0  0  0  0  0  0  0  0  0  0  0  0
    4.4093   -0.3091   -3.5888 H   0  0  0  0  0  0  0  0  0  0  0  0
    3.1972   -1.2273   -0.1850 H   0  0  0  0  0  0  0  0  0  0  0  0
    1.5334   -3.0629   -0.5605 H   0  0  0  0  0  0  0  0  0  0  0  0
    2.4942   -4.3766   -2.5372 H   0  0  0  0  0  0  0  0  0  0  0  0
    2.7369   -5.3064   -0.3926 H   0  0  0  0  0  0  0  0  0  0  0  0
    5.1760   -5.1120   -0.0157 H   0  0  0  0  0  0  0  0  0  0  0  0
    2.8418   -2.7439    2.8712 H   0  0  0  0  0  0  0  0  0  0  0  0
    1.5743   -3.7762    2.2145 H   0  0  0  0  0  0  0  0  0  0  0  0
    2.0360   -2.2898    1.4228 H   0  0  0  0  0  0  0  0  0  0  0  0
    4.3616   -4.4560    3.0619 H   0  0  0  0  0  0  0  0  0  0  0  0
    4.8114   -5.6139    1.8621 H   0  0  0  0  0  0  0  0  0  0  0  0
    3.1894   -5.6182    2.4818 H   0  0  0  0  0  0  0  0  0  0  0  0
  1  2  1  0
  1 19  1  0
  1 20  1  0
  1 21  1  0
  2  3  1  0
  3 15  1  0
  3  4  1  0
  3 22  1  1
  4  5  2  0
  4 23  1  0
  5  6  1  0
  5 24  1  0
  6 14  1  0
  6  7  1  0
  6 25  1  6
  7  8  2  0
  7 26  1  0
  8  9  1  0
  8 10  1  0
  9 27  1  0
  9 28  1  0
  9 29  1  0
 10 15  1  0
 10 11  1  0
 10 30  1  1
 11 12  1  0
 11 13  1  0
 11 31  1  1
 12 32  1  0
 13 16  1  0
 13 14  1  0
 13 33  1  1
 14 15  1  0
 14 34  1  1
 15 16  1  1
 16 17  1  0
 16 18  1  0
 17 35  1  0
 17 36  1  0
 17 37  1  0
 18 38  1  0
 18 39  1  0
 18 40  1  0
M  END
>  <i_m_ct_stereo_status>  (353) 
1

>  <s_m_source_file>  (353) 
/var/tmp/pbs.5076255.sched01/tmpybatibx8/138x0dlab3k.sdf

>  <i_m_source_file_index>  (353) 
16

>  <i_lp_mmshare_version>  (353) 
48012

>  <i_f3d_flags>  (353) 
0

>  <s_epik_input>  (353) 
W0NIM11PW0NAQEhdMVtDSF09W0NIXVtDQEhdKFtDSF09QyhbQ0gzXSlbQ0BASF0yW0NAXTEzNClbQ0BASF0zW0NASF0oW0NAQEhdMltPSF0pQzQoW0NIM10pW0NIM10=

>  <s_epik_cmdline>  (353) 
J2VwaWtfcHl0aG9uJywgJy1waHQnLCAnMi4wJywgJy1waCcsICc3LjAnLCAnLXRuJywgJzgnLCAnLW1hJywgJzIwMCcsICctaW1hZScsICc8aW5maWxlLm1hZT4nLCAnLW9tYWUnLCAnPG91dGZpbGUubWFlPic=

>  <r_lp_tautomer_probability>  (353) 
1

>  <r_epik_Ionization_Penalty>  (353) 
3.02682e-07

>  <r_epik_Ionization_Penalty_Charging>  (353) 
0

>  <r_epik_Ionization_Penalty_Neutral>  (353) 
3.02682e-07

>  <r_epik_State_Penalty>  (353) 
-0

>  <r_epik_Charging_Adjusted_Penalty>  (353) 
0

>  <i_epik_Tot_Q>  (353) 
0

>  <i_epik_Tot_abs_Q>  (353) 
0

>  <s_lp_Force_Field>  (353) 
OPLS3e

>  <r_lp_Energy>  (353) 
81.9304

>  <b_lp_Chiralities_Consistent>  (353) 
1

>  <s_lp_Variant>  (353) 
104:0-1

>  <s_i_glide_gridfile>  (353) 
pfpi4k_grid

>  <i_i_glide_lignum>  (353) 
16

>  <i_i_glide_rotatable_bonds>  (353) 
2

>  <r_i_docking_score>  (353) 
-3.91142

>  <r_i_glide_ligand_efficiency>  (353) 
-0.217301

>  <r_i_glide_ligand_efficiency_sa>  (353) 
-0.56949

>  <r_i_glide_ligand_efficiency_ln>  (353) 
-1.00541

>  <r_i_glide_gscore>  (353) 
-3.91142

>  <r_i_glide_lipo>  (353) 
-0.671716

>  <r_i_glide_hbond>  (353) 
-0.32

>  <r_i_glide_metal>  (353) 
-0

>  <r_i_glide_rewards>  (353) 
-1.72947

>  <r_i_glide_evdw>  (353) 
-12.8924

>  <r_i_glide_ecoul>  (353) 
-3.63742

>  <r_i_glide_erotb>  (353) 
0

>  <r_i_glide_esite>  (353) 
0

>  <r_i_glide_emodel>  (353) 
-16.8957

>  <r_i_glide_energy>  (353) 
-16.5299

>  <r_i_glide_einternal>  (353) 
6.07222

>  <r_i_glide_intrahb_reward>  (353) 
-0

>  <i_i_glide_confnum>  (353) 
1

>  <i_i_glide_posenum>  (353) 
38

>  <r_i_glide_eff_state_penalty>  (353) 
0

>  <ligand_id>  (353) 
104

>  <original_smiles>  (353) 
COC1C=CC2C=C(C)C3C(O)C4C2C13C4(C)C

>  <smiles>  (353) 
[H]OC1([H])C2([H])C(C([H])([H])[H])=C([H])C3([H])C([H])=C([H])C([H])(OC([H])([H])[H])C24C3([H])C1([H])C4(C([H])([H])[H])C([H])([H])[H]

$$$$
104:0:2
     RDKit          3D

 40 43  0  0  1  0  0  0  0  0999 V2000
    2.4314    0.3003    2.2016 C   0  0  0  0  0  0  0  0  0  0  0  0
    2.7542   -0.7241    1.2781 O   0  0  0  0  0  0  0  0  0  0  0  0
    3.9783   -1.3913    1.5082 C   0  0  2  0  0  0  0  0  0  0  0  0
    5.2033   -0.4863    1.3772 C   0  0  0  0  0  0  0  0  0  0  0  0
    6.1791   -0.6580    0.4576 C   0  0  0  0  0  0  0  0  0  0  0  0
    6.1614   -1.7962   -0.5304 C   0  0  2  0  0  0  0  0  0  0  0  0
    5.3009   -1.1486   -1.6094 C   0  0  0  0  0  0  0  0  0  0  0  0
    3.9960   -1.4519   -1.7452 C   0  0  0  0  0  0  0  0  0  0  0  0
    3.0837   -0.8645   -2.7982 C   0  0  0  0  0  0  0  0  0  0  0  0
    3.4306   -2.5010   -0.8281 C   0  0  1  0  0  0  0  0  0  0  0  0
    3.9026   -3.8623   -1.3605 C   0  0  1  0  0  0  0  0  0  0  0  0
    4.6105   -3.9259   -2.5884 O   0  0  0  0  0  0  0  0  0  0  0  0
    4.7983   -4.2146   -0.2213 C   0  0  1  0  0  0  0  0  0  0  0  0
    5.5431   -2.9627    0.2599 C   0  0  2  0  0  0  0  0  0  0  0  0
    4.0984   -2.6006    0.5779 C   0  0  1  0  0  0  0  0  0  0  0  0
    3.9906   -4.0555    1.1122 C   0  0  0  0  0  0  0  0  0  0  0  0
    2.5540   -4.6102    1.1851 C   0  0  0  0  0  0  0  0  0  0  0  0
    4.5756   -4.4852    2.4824 C   0  0  0  0  0  0  0  0  0  0  0  0
    1.4381    0.6713    1.9743 H   0  0  0  0  0  0  0  0  0  0  0  0
    3.1219    1.1436    2.1240 H   0  0  0  0  0  0  0  0  0  0  0  0
    2.4357   -0.0587    3.2299 H   0  0  0  0  0  0  0  0  0  0  0  0
    4.0014   -1.7414    2.5397 H   0  0  0  0  0  0  0  0  0  0  0  0
    5.2499    0.3253    2.0913 H   0  0  0  0  0  0  0  0  0  0  0  0
    6.9935    0.0475    0.3433 H   0  0  0  0  0  0  0  0  0  0  0  0
    7.1748   -2.0000   -0.8938 H   0  0  0  0  0  0  0  0  0  0  0  0
    5.7433   -0.3911   -2.2457 H   0  0  0  0  0  0  0  0  0  0  0  0
    2.2660   -0.3102   -2.3346 H   0  0  0  0  0  0  0  0  0  0  0  0
    2.6350   -1.6613   -3.4061 H   0  0  0  0  0  0  0  0  0  0  0  0
    3.6198   -0.1841   -3.4659 H   0  0  0  0  0  0  0  0  0  0  0  0
    2.3443   -2.4472   -0.7937 H   0  0  0  0  0  0  0  0  0  0  0  0
    3.0713   -4.5420   -1.3658 H   0  0  0  0  0  0  0  0  0  0  0  0
    4.4961   -4.8220   -2.8758 H   0  0  0  0  0  0  0  0  0  0  0  0
    5.3834   -5.1234   -0.2670 H   0  0  0  0  0  0  0  0  0  0  0  0
    6.2156   -3.1761    1.0916 H   0  0  0  0  0  0  0  0  0  0  0  0
    2.0171   -4.2447    2.0734 H   0  0  0  0  0  0  0  0  0  0  0  0
    2.5209   -5.7027    1.1938 H   0  0  0  0  0  0  0  0  0  0  0  0
    1.9093   -4.2987    0.3505 H   0  0  0  0  0  0  0  0  0  0  0  0
    3.9644   -4.0898    3.2951 H   0  0  0  0  0  0  0  0  0  0  0  0
    5.5858   -4.1691    2.7032 H   0  0  0  0  0  0  0  0  0  0  0  0
    4.5669   -5.5695    2.5719 H   0  0  0  0  0  0  0  0  0  0  0  0
  1  2  1  0
  1 19  1  0
  1 20  1  0
  1 21  1  0
  2  3  1  0
  3 15  1  0
  3  4  1  0
  3 22  1  1
  4  5  2  0
  4 23  1  0
  5  6  1  0
  5 24  1  0
  6 14  1  0
  6  7  1  0
  6 25  1  6
  7  8  2  0
  7 26  1  0
  8  9  1  0
  8 10  1  0
  9 27  1  0
  9 28  1  0
  9 29  1  0
 10 15  1  0
 10 11  1  0
 10 30  1  1
 11 12  1  0
 11 13  1  0
 11 31  1  6
 12 32  1  0
 13 16  1  0
 13 14  1  0
 13 33  1  6
 14 15  1  0
 14 34  1  1
 15 16  1  1
 16 17  1  0
 16 18  1  0
 17 35  1  0
 17 36  1  0
 17 37  1  0
 18 38  1  0
 18 39  1  0
 18 40  1  0
M  END
>  <i_m_ct_stereo_status>  (354) 
1

>  <s_m_source_file>  (354) 
/var/tmp/pbs.5076255.sched01/tmpybatibx8/138x0dlab3k.sdf

>  <i_m_source_file_index>  (354) 
16

>  <i_lp_mmshare_version>  (354) 
48012

>  <i_f3d_flags>  (354) 
0

>  <s_epik_input>  (354) 
W0NIM11PW0NAQEhdMVtDSF09W0NIXVtDQEhdKFtDSF09QyhbQ0gzXSlbQ0BASF0yW0NAXTEzNClbQ0BASF0zW0NASF0oW0NAQEhdMltPSF0pQzQoW0NIM10pW0NIM10=

>  <s_epik_cmdline>  (354) 
J2VwaWtfcHl0aG9uJywgJy1waHQnLCAnMi4wJywgJy1waCcsICc3LjAnLCAnLXRuJywgJzgnLCAnLW1hJywgJzIwMCcsICctaW1hZScsICc8aW5maWxlLm1hZT4nLCAnLW9tYWUnLCAnPG91dGZpbGUubWFlPic=

>  <r_lp_tautomer_probability>  (354) 
1

>  <r_epik_Ionization_Penalty>  (354) 
3.02682e-07

>  <r_epik_Ionization_Penalty_Charging>  (354) 
0

>  <r_epik_Ionization_Penalty_Neutral>  (354) 
3.02682e-07

>  <r_epik_State_Penalty>  (354) 
-0

>  <r_epik_Charging_Adjusted_Penalty>  (354) 
0

>  <i_epik_Tot_Q>  (354) 
0

>  <i_epik_Tot_abs_Q>  (354) 
0

>  <s_lp_Force_Field>  (354) 
OPLS3e

>  <r_lp_Energy>  (354) 
81.9304

>  <b_lp_Chiralities_Consistent>  (354) 
1

>  <s_lp_Variant>  (354) 
104:0-1

>  <s_i_glide_gridfile>  (354) 
pfpi4k_grid

>  <i_i_glide_lignum>  (354) 
16

>  <i_i_glide_rotatable_bonds>  (354) 
2

>  <r_i_docking_score>  (354) 
-3.2234

>  <r_i_glide_ligand_efficiency>  (354) 
-0.179078

>  <r_i_glide_ligand_efficiency_sa>  (354) 
-0.469316

>  <r_i_glide_ligand_efficiency_ln>  (354) 
-0.828557

>  <r_i_glide_gscore>  (354) 
-3.2234

>  <r_i_glide_lipo>  (354) 
-0.357758

>  <r_i_glide_hbond>  (354) 
-0.205863

>  <r_i_glide_metal>  (354) 
-0

>  <r_i_glide_rewards>  (354) 
-1.72947

>  <r_i_glide_evdw>  (354) 
-12.0568

>  <r_i_glide_ecoul>  (354) 
-2.1831

>  <r_i_glide_erotb>  (354) 
0

>  <r_i_glide_esite>  (354) 
0

>  <r_i_glide_emodel>  (354) 
-16.7555

>  <r_i_glide_energy>  (354) 
-14.2399

>  <r_i_glide_einternal>  (354) 
1.04487

>  <r_i_glide_intrahb_reward>  (354) 
-0

>  <i_i_glide_confnum>  (354) 
2

>  <i_i_glide_posenum>  (354) 
25

>  <r_i_glide_eff_state_penalty>  (354) 
0

>  <ligand_id>  (354) 
104

>  <original_smiles>  (354) 
COC1C=CC2C=C(C)C3C(O)C4C2C13C4(C)C

>  <smiles>  (354) 
[H]OC1([H])C2([H])C(C([H])([H])[H])=C([H])C3([H])C([H])=C([H])C([H])(OC([H])([H])[H])C24C3([H])C1([H])C4(C([H])([H])[H])C([H])([H])[H]

$$$$
105:0:0
     RDKit          3D

 36 38  0  0  1  0  0  0  0  0999 V2000
    3.9400   -1.7036   -4.0169 C   0  0  0  0  0  0  0  0  0  0  0  0
    4.4825   -2.5377   -3.1205 C   0  0  0  0  0  0  0  0  0  0  0  0
    5.5179   -2.1373   -2.0872 C   0  0  0  0  0  0  0  0  0  0  0  0
    5.0189   -2.2377   -0.6223 C   0  0  1  0  0  0  0  0  0  0  0  0
    6.1645   -1.8373    0.3469 C   0  0  0  0  0  0  0  0  0  0  0  0
    5.6859   -1.9085    1.8111 C   0  0  2  0  0  0  0  0  0  0  0  0
    5.2367   -3.3444    2.1406 C   0  0  0  0  0  0  0  0  0  0  0  0
    4.0858   -3.7393    1.1993 C   0  0  1  0  0  0  0  0  0  0  0  0
    2.9024   -2.7717    1.3939 C   0  0  0  0  0  0  0  0  0  0  0  0
    3.3452   -1.3215    1.0859 C   0  0  1  0  0  0  0  0  0  0  0  0
    2.2156   -0.3954    1.2879 N   0  0  0  0  0  0  0  0  0  0  0  0
    4.5138   -0.9313    2.0165 C   0  0  0  0  0  0  0  0  0  0  0  0
    3.8382   -1.2622   -0.3789 C   0  0  0  0  0  0  0  0  0  0  0  0
    4.5629   -3.6792   -0.2641 C   0  0  0  0  0  0  0  0  0  0  0  0
    4.2274   -0.6634   -4.0577 H   0  0  0  0  0  0  0  0  0  0  0  0
    3.1935   -2.0477   -4.7178 H   0  0  0  0  0  0  0  0  0  0  0  0
    4.1750   -3.5740   -3.1170 H   0  0  0  0  0  0  0  0  0  0  0  0
    6.3970   -2.7629   -2.2373 H   0  0  0  0  0  0  0  0  0  0  0  0
    5.8248   -1.1126   -2.2852 H   0  0  0  0  0  0  0  0  0  0  0  0
    7.0217   -2.4994    0.2122 H   0  0  0  0  0  0  0  0  0  0  0  0
    6.5191   -0.8260    0.1317 H   0  0  0  0  0  0  0  0  0  0  0  0
    6.5043   -1.6196    2.4684 H   0  0  0  0  0  0  0  0  0  0  0  0
    6.0700   -4.0376    2.0235 H   0  0  0  0  0  0  0  0  0  0  0  0
    4.9153   -3.4166    3.1812 H   0  0  0  0  0  0  0  0  0  0  0  0
    3.7622   -4.7550    1.4277 H   0  0  0  0  0  0  0  0  0  0  0  0
    2.0924   -3.0605    0.7225 H   0  0  0  0  0  0  0  0  0  0  0  0
    2.5172   -2.8628    2.4125 H   0  0  0  0  0  0  0  0  0  0  0  0
    2.5052    0.5522    1.0912 H   0  0  0  0  0  0  0  0  0  0  0  0
    1.8581   -0.4571    2.2224 H   0  0  0  0  0  0  0  0  0  0  0  0
    4.1991   -0.9418    3.0613 H   0  0  0  0  0  0  0  0  0  0  0  0
    4.8462    0.0847    1.7971 H   0  0  0  0  0  0  0  0  0  0  0  0
    4.1626   -0.2548   -0.6272 H   0  0  0  0  0  0  0  0  0  0  0  0
    3.0128   -1.4980   -1.0540 H   0  0  0  0  0  0  0  0  0  0  0  0
    3.7469   -4.0119   -0.9070 H   0  0  0  0  0  0  0  0  0  0  0  0
    5.3841   -4.3798   -0.4228 H   0  0  0  0  0  0  0  0  0  0  0  0
    1.4866   -0.6550    0.5992 H   0  0  0  0  0  0  0  0  0  0  0  0
  1  2  2  0
  1 15  1  0
  1 16  1  0
  2  3  1  0
  2 17  1  0
  4  3  1  6
  3 18  1  0
  3 19  1  0
  4 13  1  0
  4 14  1  0
  4  5  1  0
  5  6  1  0
  5 20  1  0
  5 21  1  0
  6 12  1  0
  6  7  1  0
  6 22  1  1
  7  8  1  0
  7 23  1  0
  7 24  1  0
  8  9  1  0
  8 14  1  0
  8 25  1  1
  9 10  1  0
  9 26  1  0
  9 27  1  0
 10 11  1  6
 10 12  1  0
 10 13  1  0
 11 28  1  0
 11 29  1  0
 11 36  1  0
 12 30  1  0
 12 31  1  0
 13 32  1  0
 13 33  1  0
 14 34  1  0
 14 35  1  0
M  CHG  1  11   1
M  END
>  <i_m_ct_stereo_status>  (355) 
1

>  <s_m_source_file>  (355) 
/var/tmp/pbs.5076255.sched01/tmpybatibx8/138x0dlab3k.sdf

>  <i_m_source_file_index>  (355) 
17

>  <i_lp_mmshare_version>  (355) 
48012

>  <i_f3d_flags>  (355) 
0

>  <s_epik_input>  (355) 
W0NIMl09W0NIXVtDSDJdW0NAQF0xMltDSDJdW0NAQEhdM1tDSDJdW0NASF0oW0NIMl0yKVtDSDJdW0NAQF0oW05IMl0pKFtDSDJdMylbQ0gyXTE=

>  <s_epik_cmdline>  (355) 
J2VwaWtfcHl0aG9uJywgJy1waHQnLCAnMi4wJywgJy1waCcsICc3LjAnLCAnLXRuJywgJzgnLCAnLW1hJywgJzIwMCcsICctaW1hZScsICc8aW5maWxlLm1hZT4nLCAnLW9tYWUnLCAnPG91dGZpbGUubWFlPic=

>  <r_lp_tautomer_probability>  (355) 
1

>  <r_epik_Ionization_Penalty>  (355) 
0.000105407

>  <r_epik_Ionization_Penalty_Charging>  (355) 
0.000105407

>  <r_epik_Ionization_Penalty_Neutral>  (355) 
0

>  <r_epik_State_Penalty>  (355) 
-0

>  <r_epik_Charging_Adjusted_Penalty>  (355) 
0.000105407

>  <i_epik_Tot_Q>  (355) 
1

>  <i_epik_Tot_abs_Q>  (355) 
1

>  <s_lp_Force_Field>  (355) 
OPLS3e

>  <r_lp_Energy>  (355) 
7.41115

>  <b_lp_Chiralities_Consistent>  (355) 
1

>  <s_lp_Variant>  (355) 
105:0-1

>  <s_i_glide_gridfile>  (355) 
pfpi4k_grid

>  <i_i_glide_lignum>  (355) 
17

>  <i_i_glide_rotatable_bonds>  (355) 
2

>  <r_i_docking_score>  (355) 
-3.68531

>  <r_i_glide_ligand_efficiency>  (355) 
-0.263236

>  <r_i_glide_ligand_efficiency_sa>  (355) 
-0.634437

>  <r_i_glide_ligand_efficiency_ln>  (355) 
-1.01271

>  <r_i_glide_gscore>  (355) 
-3.68531

>  <r_i_glide_lipo>  (355) 
-0.461073

>  <r_i_glide_hbond>  (355) 
-0.2

>  <r_i_glide_metal>  (355) 
-0

>  <r_i_glide_rewards>  (355) 
-2.09781

>  <r_i_glide_evdw>  (355) 
-13.141

>  <r_i_glide_ecoul>  (355) 
-7.00214

>  <r_i_glide_erotb>  (355) 
0.871588

>  <r_i_glide_esite>  (355) 
-0.0906379

>  <r_i_glide_emodel>  (355) 
-25.9232

>  <r_i_glide_energy>  (355) 
-20.1432

>  <r_i_glide_einternal>  (355) 
0.145244

>  <r_i_glide_intrahb_reward>  (355) 
-0

>  <i_i_glide_confnum>  (355) 
5

>  <i_i_glide_posenum>  (355) 
34

>  <r_i_glide_eff_state_penalty>  (355) 
0

>  <ligand_id>  (355) 
105

>  <original_smiles>  (355) 
C=CCC12CC3CC(CC(N)(C3)C1)C2

>  <smiles>  (355) 
[H]C([H])=C([H])C([H])([H])C12C([H])([H])C3([H])C([H])([H])C([H])(C1([H])[H])C([H])([H])C([N+]([H])([H])[H])(C3([H])[H])C2([H])[H]

$$$$
105:0:1
     RDKit          3D

 36 38  0  0  1  0  0  0  0  0999 V2000
    4.5588   -3.6133   -3.9093 C   0  0  0  0  0  0  0  0  0  0  0  0
    4.4615   -2.5568   -3.0898 C   0  0  0  0  0  0  0  0  0  0  0  0
    5.5114   -2.1622   -2.0703 C   0  0  0  0  0  0  0  0  0  0  0  0
    5.0215   -2.2297   -0.5993 C   0  0  1  0  0  0  0  0  0  0  0  0
    6.1713   -1.8023    0.3546 C   0  0  0  0  0  0  0  0  0  0  0  0
    5.7005   -1.8455    1.8238 C   0  0  2  0  0  0  0  0  0  0  0  0
    5.2649   -3.2783    2.1863 C   0  0  0  0  0  0  0  0  0  0  0  0
    4.1121   -3.7028    1.2580 C   0  0  1  0  0  0  0  0  0  0  0  0
    2.9226   -2.7398    1.4432 C   0  0  0  0  0  0  0  0  0  0  0  0
    3.3535   -1.2932    1.1031 C   0  0  1  0  0  0  0  0  0  0  0  0
    2.2146   -0.3751    1.2883 N   0  0  0  0  0  0  0  0  0  0  0  0
    4.5226   -0.8727    2.0173 C   0  0  0  0  0  0  0  0  0  0  0  0
    3.8381   -1.2605   -0.3635 C   0  0  0  0  0  0  0  0  0  0  0  0
    4.5805   -3.6660   -0.2119 C   0  0  0  0  0  0  0  0  0  0  0  0
    5.4215   -4.2566   -3.8863 H   0  0  0  0  0  0  0  0  0  0  0  0
    3.7741   -3.8476   -4.6077 H   0  0  0  0  0  0  0  0  0  0  0  0
    3.5839   -1.9376   -3.1506 H   0  0  0  0  0  0  0  0  0  0  0  0
    6.3914   -2.7940   -2.1997 H   0  0  0  0  0  0  0  0  0  0  0  0
    5.8206   -1.1465   -2.3044 H   0  0  0  0  0  0  0  0  0  0  0  0
    7.0324   -2.4620    0.2291 H   0  0  0  0  0  0  0  0  0  0  0  0
    6.5149   -0.7936    0.1154 H   0  0  0  0  0  0  0  0  0  0  0  0
    6.5215   -1.5351    2.4687 H   0  0  0  0  0  0  0  0  0  0  0  0
    6.1032   -3.9655    2.0782 H   0  0  0  0  0  0  0  0  0  0  0  0
    4.9510   -3.3290    3.2278 H   0  0  0  0  0  0  0  0  0  0  0  0
    3.7978   -4.7161    1.5132 H   0  0  0  0  0  0  0  0  0  0  0  0
    2.1109   -3.0504    0.7833 H   0  0  0  0  0  0  0  0  0  0  0  0
    2.5466   -2.8148    2.4651 H   0  0  0  0  0  0  0  0  0  0  0  0
    2.4930    0.5702    1.0674 H   0  0  0  0  0  0  0  0  0  0  0  0
    1.8607   -0.4187    2.2240 H   0  0  0  0  0  0  0  0  0  0  0  0
    4.2141   -0.8643    3.0627 H   0  0  0  0  0  0  0  0  0  0  0  0
    4.8441    0.1398    1.7710 H   0  0  0  0  0  0  0  0  0  0  0  0
    4.1511   -0.2560   -0.6381 H   0  0  0  0  0  0  0  0  0  0  0  0
    3.0092   -1.5199   -1.0167 H   0  0  0  0  0  0  0  0  0  0  0  0
    3.7703   -4.0193   -0.8554 H   0  0  0  0  0  0  0  0  0  0  0  0
    5.4052   -4.3661   -0.3563 H   0  0  0  0  0  0  0  0  0  0  0  0
    1.4889   -0.6545    0.6076 H   0  0  0  0  0  0  0  0  0  0  0  0
  1  2  2  0
  1 15  1  0
  1 16  1  0
  2  3  1  0
  2 17  1  0
  4  3  1  6
  3 18  1  0
  3 19  1  0
  4 13  1  0
  4 14  1  0
  4  5  1  0
  5  6  1  0
  5 20  1  0
  5 21  1  0
  6 12  1  0
  6  7  1  0
  6 22  1  1
  7  8  1  0
  7 23  1  0
  7 24  1  0
  8  9  1  0
  8 14  1  0
  8 25  1  1
  9 10  1  0
  9 26  1  0
  9 27  1  0
 10 11  1  6
 10 12  1  0
 10 13  1  0
 11 28  1  0
 11 29  1  0
 11 36  1  0
 12 30  1  0
 12 31  1  0
 13 32  1  0
 13 33  1  0
 14 34  1  0
 14 35  1  0
M  CHG  1  11   1
M  END
>  <i_m_ct_stereo_status>  (356) 
1

>  <s_m_source_file>  (356) 
/var/tmp/pbs.5076255.sched01/tmpybatibx8/138x0dlab3k.sdf

>  <i_m_source_file_index>  (356) 
17

>  <i_lp_mmshare_version>  (356) 
48012

>  <i_f3d_flags>  (356) 
0

>  <s_epik_input>  (356) 
W0NIMl09W0NIXVtDSDJdW0NAQF0xMltDSDJdW0NAQEhdM1tDSDJdW0NASF0oW0NIMl0yKVtDSDJdW0NAQF0oW05IMl0pKFtDSDJdMylbQ0gyXTE=

>  <s_epik_cmdline>  (356) 
J2VwaWtfcHl0aG9uJywgJy1waHQnLCAnMi4wJywgJy1waCcsICc3LjAnLCAnLXRuJywgJzgnLCAnLW1hJywgJzIwMCcsICctaW1hZScsICc8aW5maWxlLm1hZT4nLCAnLW9tYWUnLCAnPG91dGZpbGUubWFlPic=

>  <r_lp_tautomer_probability>  (356) 
1

>  <r_epik_Ionization_Penalty>  (356) 
0.000105407

>  <r_epik_Ionization_Penalty_Charging>  (356) 
0.000105407

>  <r_epik_Ionization_Penalty_Neutral>  (356) 
0

>  <r_epik_State_Penalty>  (356) 
-0

>  <r_epik_Charging_Adjusted_Penalty>  (356) 
0.000105407

>  <i_epik_Tot_Q>  (356) 
1

>  <i_epik_Tot_abs_Q>  (356) 
1

>  <s_lp_Force_Field>  (356) 
OPLS3e

>  <r_lp_Energy>  (356) 
7.41115

>  <b_lp_Chiralities_Consistent>  (356) 
1

>  <s_lp_Variant>  (356) 
105:0-1

>  <s_i_glide_gridfile>  (356) 
pfpi4k_grid

>  <i_i_glide_lignum>  (356) 
17

>  <i_i_glide_rotatable_bonds>  (356) 
2

>  <r_i_docking_score>  (356) 
-3.65215

>  <r_i_glide_ligand_efficiency>  (356) 
-0.260868

>  <r_i_glide_ligand_efficiency_sa>  (356) 
-0.628729

>  <r_i_glide_ligand_efficiency_ln>  (356) 
-1.0036

>  <r_i_glide_gscore>  (356) 
-3.65215

>  <r_i_glide_lipo>  (356) 
-0.505212

>  <r_i_glide_hbond>  (356) 
-0.2

>  <r_i_glide_metal>  (356) 
-0

>  <r_i_glide_rewards>  (356) 
-2.09781

>  <r_i_glide_evdw>  (356) 
-13.3845

>  <r_i_glide_ecoul>  (356) 
-6.40448

>  <r_i_glide_erotb>  (356) 
0.871588

>  <r_i_glide_esite>  (356) 
-0.0908139

>  <r_i_glide_emodel>  (356) 
-25.549

>  <r_i_glide_energy>  (356) 
-19.789

>  <r_i_glide_einternal>  (356) 
0.0489131

>  <r_i_glide_intrahb_reward>  (356) 
-0

>  <i_i_glide_confnum>  (356) 
5

>  <i_i_glide_posenum>  (356) 
29

>  <r_i_glide_eff_state_penalty>  (356) 
0

>  <ligand_id>  (356) 
105

>  <original_smiles>  (356) 
C=CCC12CC3CC(CC(N)(C3)C1)C2

>  <smiles>  (356) 
[H]C([H])=C([H])C([H])([H])C12C([H])([H])C3([H])C([H])([H])C([H])(C1([H])[H])C([H])([H])C([N+]([H])([H])[H])(C3([H])[H])C2([H])[H]

$$$$
105:0:2
     RDKit          3D

 36 38  0  0  1  0  0  0  0  0999 V2000
    2.8461   -0.3091   -4.5719 C   0  0  0  0  0  0  0  0  0  0  0  0
    3.3134   -1.4760   -4.1004 C   0  0  0  0  0  0  0  0  0  0  0  0
    4.5989   -1.6149   -3.3124 C   0  0  0  0  0  0  0  0  0  0  0  0
    4.4728   -2.1979   -1.8918 C   0  0  1  0  0  0  0  0  0  0  0  0
    5.8681   -2.3210   -1.2308 C   0  0  0  0  0  0  0  0  0  0  0  0
    5.7416   -2.8881    0.2002 C   0  0  2  0  0  0  0  0  0  0  0  0
    5.0969   -4.2845    0.1437 C   0  0  0  0  0  0  0  0  0  0  0  0
    3.7056   -4.1626   -0.4983 C   0  0  1  0  0  0  0  0  0  0  0  0
    2.8171   -3.2224    0.3325 C   0  0  0  0  0  0  0  0  0  0  0  0
    3.4669   -1.8216    0.4161 C   0  0  1  0  0  0  0  0  0  0  0  0
    2.6125   -0.9224    1.2140 N   0  0  0  0  0  0  0  0  0  0  0  0
    4.8693   -1.9410    1.0509 C   0  0  0  0  0  0  0  0  0  0  0  0
    3.6211   -1.2582   -1.0155 C   0  0  0  0  0  0  0  0  0  0  0  0
    3.8328   -3.6012   -1.9245 C   0  0  0  0  0  0  0  0  0  0  0  0
    3.3738    0.6196   -4.4089 H   0  0  0  0  0  0  0  0  0  0  0  0
    1.9253   -0.2674   -5.1282 H   0  0  0  0  0  0  0  0  0  0  0  0
    2.7566   -2.3804   -4.3011 H   0  0  0  0  0  0  0  0  0  0  0  0
    5.2839   -2.2219   -3.9004 H   0  0  0  0  0  0  0  0  0  0  0  0
    5.0042   -0.6103   -3.2240 H   0  0  0  0  0  0  0  0  0  0  0  0
    6.5218   -2.9644   -1.8254 H   0  0  0  0  0  0  0  0  0  0  0  0
    6.3486   -1.3445   -1.1809 H   0  0  0  0  0  0  0  0  0  0  0  0
    6.7327   -2.9660    0.6479 H   0  0  0  0  0  0  0  0  0  0  0  0
    5.7181   -4.9637   -0.4420 H   0  0  0  0  0  0  0  0  0  0  0  0
    5.0151   -4.7120    1.1428 H   0  0  0  0  0  0  0  0  0  0  0  0
    3.2429   -5.1471   -0.5344 H   0  0  0  0  0  0  0  0  0  0  0  0
    1.8366   -3.1508   -0.1399 H   0  0  0  0  0  0  0  0  0  0  0  0
    2.6667   -3.6521    1.3234 H   0  0  0  0  0  0  0  0  0  0  0  0
    3.0302   -0.0081    1.2792 H   0  0  0  0  0  0  0  0  0  0  0  0
    2.4670   -1.2942    2.1405 H   0  0  0  0  0  0  0  0  0  0  0  0
    4.8027   -2.3163    2.0717 H   0  0  0  0  0  0  0  0  0  0  0  0
    5.3460   -0.9599    1.1027 H   0  0  0  0  0  0  0  0  0  0  0  0
    4.0834   -0.2670   -0.9766 H   0  0  0  0  0  0  0  0  0  0  0  0
    2.6481   -1.1366   -1.4934 H   0  0  0  0  0  0  0  0  0  0  0  0
    2.8404   -3.5879   -2.3765 H   0  0  0  0  0  0  0  0  0  0  0  0
    4.4476   -4.2579   -2.5417 H   0  0  0  0  0  0  0  0  0  0  0  0
    1.7276   -0.8521    0.7070 H   0  0  0  0  0  0  0  0  0  0  0  0
  1  2  2  0
  1 15  1  0
  1 16  1  0
  2  3  1  0
  2 17  1  0
  4  3  1  6
  3 18  1  0
  3 19  1  0
  4 13  1  0
  4 14  1  0
  4  5  1  0
  5  6  1  0
  5 20  1  0
  5 21  1  0
  6 12  1  0
  6  7  1  0
  6 22  1  1
  7  8  1  0
  7 23  1  0
  7 24  1  0
  8  9  1  0
  8 14  1  0
  8 25  1  6
  9 10  1  0
  9 26  1  0
  9 27  1  0
 10 11  1  1
 10 12  1  0
 10 13  1  0
 11 28  1  0
 11 29  1  0
 11 36  1  0
 12 30  1  0
 12 31  1  0
 13 32  1  0
 13 33  1  0
 14 34  1  0
 14 35  1  0
M  CHG  1  11   1
M  END
>  <i_m_ct_stereo_status>  (357) 
1

>  <s_m_source_file>  (357) 
/var/tmp/pbs.5076255.sched01/tmpybatibx8/138x0dlab3k.sdf

>  <i_m_source_file_index>  (357) 
17

>  <i_lp_mmshare_version>  (357) 
48012

>  <i_f3d_flags>  (357) 
0

>  <s_epik_input>  (357) 
W0NIMl09W0NIXVtDSDJdW0NAQF0xMltDSDJdW0NAQEhdM1tDSDJdW0NASF0oW0NIMl0yKVtDSDJdW0NAQF0oW05IMl0pKFtDSDJdMylbQ0gyXTE=

>  <s_epik_cmdline>  (357) 
J2VwaWtfcHl0aG9uJywgJy1waHQnLCAnMi4wJywgJy1waCcsICc3LjAnLCAnLXRuJywgJzgnLCAnLW1hJywgJzIwMCcsICctaW1hZScsICc8aW5maWxlLm1hZT4nLCAnLW9tYWUnLCAnPG91dGZpbGUubWFlPic=

>  <r_lp_tautomer_probability>  (357) 
1

>  <r_epik_Ionization_Penalty>  (357) 
0.000105407

>  <r_epik_Ionization_Penalty_Charging>  (357) 
0.000105407

>  <r_epik_Ionization_Penalty_Neutral>  (357) 
0

>  <r_epik_State_Penalty>  (357) 
-0

>  <r_epik_Charging_Adjusted_Penalty>  (357) 
0.000105407

>  <i_epik_Tot_Q>  (357) 
1

>  <i_epik_Tot_abs_Q>  (357) 
1

>  <s_lp_Force_Field>  (357) 
OPLS3e

>  <r_lp_Energy>  (357) 
7.41115

>  <b_lp_Chiralities_Consistent>  (357) 
1

>  <s_lp_Variant>  (357) 
105:0-1

>  <s_i_glide_gridfile>  (357) 
pfpi4k_grid

>  <i_i_glide_lignum>  (357) 
17

>  <i_i_glide_rotatable_bonds>  (357) 
2

>  <r_i_docking_score>  (357) 
-3.47747

>  <r_i_glide_ligand_efficiency>  (357) 
-0.248391

>  <r_i_glide_ligand_efficiency_sa>  (357) 
-0.598657

>  <r_i_glide_ligand_efficiency_ln>  (357) 
-0.955596

>  <r_i_glide_gscore>  (357) 
-3.47747

>  <r_i_glide_lipo>  (357) 
-0.464702

>  <r_i_glide_hbond>  (357) 
-0.2

>  <r_i_glide_metal>  (357) 
-0

>  <r_i_glide_rewards>  (357) 
-2.09781

>  <r_i_glide_evdw>  (357) 
-12.9972

>  <r_i_glide_ecoul>  (357) 
-5.79908

>  <r_i_glide_erotb>  (357) 
0.871588

>  <r_i_glide_esite>  (357) 
-0.0668154

>  <r_i_glide_emodel>  (357) 
-24.1021

>  <r_i_glide_energy>  (357) 
-18.7963

>  <r_i_glide_einternal>  (357) 
0.0740872

>  <r_i_glide_intrahb_reward>  (357) 
-0

>  <i_i_glide_confnum>  (357) 
5

>  <i_i_glide_posenum>  (357) 
7

>  <r_i_glide_eff_state_penalty>  (357) 
0

>  <ligand_id>  (357) 
105

>  <original_smiles>  (357) 
C=CCC12CC3CC(CC(N)(C3)C1)C2

>  <smiles>  (357) 
[H]C([H])=C([H])C([H])([H])C12C([H])([H])C3([H])C([H])([H])C([H])(C1([H])[H])C([H])([H])C([N+]([H])([H])[H])(C3([H])[H])C2([H])[H]

$$$$
106:0:0
     RDKit          3D

 60 65  0  0  1  0  0  0  0  0999 V2000
    4.6443   -3.5691   -2.6563 C   0  0  0  0  0  0  0  0  0  0  0  0
    4.1867   -3.3266   -1.1985 C   0  0  1  0  0  0  0  0  0  0  0  0
    2.8751   -3.8553   -1.1765 O   0  0  0  0  0  0  0  0  0  0  0  0
    5.0701   -4.2736   -0.2176 C   0  0  0  0  0  0  0  0  0  0  0  0
    5.4968   -3.9513    1.3477 C   0  0  2  0  0  0  0  0  0  0  0  0
    6.9021   -3.7107    1.2712 O   0  0  0  0  0  0  0  0  0  0  0  0
    5.2915   -5.2136    2.2991 C   0  0  2  0  0  0  0  0  0  0  0  0
    6.1876   -5.0765    3.3937 O   0  0  0  0  0  0  0  0  0  0  0  0
    5.6919   -6.5598    1.6104 C   0  0  0  0  0  0  0  0  0  0  0  0
    4.5109   -7.4571    1.2825 C   0  0  0  0  0  0  0  0  0  0  0  0
    3.4171   -7.5494    2.0591 C   0  0  0  0  0  0  0  0  0  0  0  0
    2.3581   -8.4725    1.6885 C   0  0  0  0  0  0  0  0  0  0  0  0
    1.2411   -8.5997    2.4147 C   0  0  0  0  0  0  0  0  0  0  0  0
    0.9591   -7.8605    3.7045 C   0  0  0  0  0  0  0  0  0  0  0  0
    1.9052   -6.6726    3.9123 C   0  0  0  0  0  0  0  0  0  0  0  0
    1.5401   -5.7486    4.6395 O   0  0  0  0  0  0  0  0  0  0  0  0
    3.3445   -6.7000    3.3297 C   0  0  1  0  0  0  0  0  0  0  0  0
    4.2095   -7.3673    4.4302 C   0  0  0  0  0  0  0  0  0  0  0  0
    3.8665   -5.2527    2.9848 C   0  0  2  0  0  0  0  0  0  0  0  0
    2.8788   -4.3735    2.1628 C   0  0  0  0  0  0  0  0  0  0  0  0
    3.2797   -2.8810    2.2426 C   0  0  2  0  0  0  0  0  0  0  0  0
    2.6816   -2.2554    3.5268 C   0  0  0  0  0  0  0  0  0  0  0  0
    2.7894   -2.1314    1.1421 O   0  0  0  0  0  0  0  0  0  0  0  0
    3.9000   -1.5011    0.5673 C   0  0  1  0  0  0  0  0  0  0  0  0
    4.4288   -0.3556    1.4165 C   0  0  0  0  0  0  0  0  0  0  0  0
    5.2805   -1.2431    2.4047 C   0  0  0  0  0  0  0  0  0  0  0  0
    4.8060   -2.7037    2.0685 C   0  0  1  0  0  0  0  0  0  0  0  0
    4.9633   -2.1942    0.8394 O   0  0  0  0  0  0  0  0  0  0  0  0
    4.0003   -1.7461   -0.9454 C   0  0  1  0  0  0  0  0  0  0  0  0
    5.0429   -0.9758   -1.5298 O   0  0  0  0  0  0  0  0  0  0  0  0
    5.6740   -3.2425   -2.8157 H   0  0  0  0  0  0  0  0  0  0  0  0
    4.0123   -3.0456   -3.3756 H   0  0  0  0  0  0  0  0  0  0  0  0
    4.6180   -4.6311   -2.9097 H   0  0  0  0  0  0  0  0  0  0  0  0
    2.8892   -4.6969   -1.6405 H   0  0  0  0  0  0  0  0  0  0  0  0
    4.5666   -5.2358   -0.2501 H   0  0  0  0  0  0  0  0  0  0  0  0
    6.0031   -4.4805   -0.7414 H   0  0  0  0  0  0  0  0  0  0  0  0
    6.9991   -2.9038    0.7903 H   0  0  0  0  0  0  0  0  0  0  0  0
    6.0983   -5.8335    3.9487 H   0  0  0  0  0  0  0  0  0  0  0  0
    6.2572   -6.3850    0.6997 H   0  0  0  0  0  0  0  0  0  0  0  0
    6.3759   -7.1483    2.2216 H   0  0  0  0  0  0  0  0  0  0  0  0
    4.6078   -8.0767    0.4033 H   0  0  0  0  0  0  0  0  0  0  0  0
    2.4624   -9.0789    0.8036 H   0  0  0  0  0  0  0  0  0  0  0  0
    0.4850   -9.3036    2.1038 H   0  0  0  0  0  0  0  0  0  0  0  0
   -0.0650   -7.4854    3.6701 H   0  0  0  0  0  0  0  0  0  0  0  0
    1.0219   -8.5479    4.5492 H   0  0  0  0  0  0  0  0  0  0  0  0
    3.8276   -8.3535    4.6898 H   0  0  0  0  0  0  0  0  0  0  0  0
    4.2260   -6.7731    5.3444 H   0  0  0  0  0  0  0  0  0  0  0  0
    5.2425   -7.5168    4.1250 H   0  0  0  0  0  0  0  0  0  0  0  0
    3.9456   -4.7461    3.9489 H   0  0  0  0  0  0  0  0  0  0  0  0
    2.8522   -4.7265    1.1401 H   0  0  0  0  0  0  0  0  0  0  0  0
    1.8472   -4.4691    2.4862 H   0  0  0  0  0  0  0  0  0  0  0  0
    3.1367   -2.6608    4.4296 H   0  0  0  0  0  0  0  0  0  0  0  0
    1.6088   -2.4427    3.5896 H   0  0  0  0  0  0  0  0  0  0  0  0
    2.7976   -1.1730    3.5597 H   0  0  0  0  0  0  0  0  0  0  0  0
    5.0473    0.3229    0.8323 H   0  0  0  0  0  0  0  0  0  0  0  0
    3.6077    0.1904    1.8830 H   0  0  0  0  0  0  0  0  0  0  0  0
    6.3496   -1.1025    2.2366 H   0  0  0  0  0  0  0  0  0  0  0  0
    5.0950   -0.9730    3.4457 H   0  0  0  0  0  0  0  0  0  0  0  0
    3.0704   -1.4000   -1.4039 H   0  0  0  0  0  0  0  0  0  0  0  0
    4.8479   -0.0646   -1.3635 H   0  0  0  0  0  0  0  0  0  0  0  0
  1  2  1  0
  1 31  1  0
  1 32  1  0
  1 33  1  0
  2 29  1  0
  2  3  1  6
  2  4  1  0
  3 34  1  0
  4  5  1  0
  4 35  1  0
  4 36  1  0
  5 27  1  0
  5  6  1  6
  5  7  1  0
  6 37  1  0
  7 19  1  0
  7  8  1  1
  7  9  1  0
  8 38  1  0
  9 10  1  0
  9 39  1  0
  9 40  1  0
 10 11  2  0
 10 41  1  0
 11 17  1  0
 11 12  1  0
 12 13  2  0
 12 42  1  0
 13 14  1  0
 13 43  1  0
 14 15  1  0
 14 44  1  0
 14 45  1  0
 15 16  2  0
 15 17  1  0
 17 18  1  1
 17 19  1  0
 18 46  1  0
 18 47  1  0
 18 48  1  0
 19 20  1  0
 19 49  1  1
 20 21  1  0
 20 50  1  0
 20 51  1  0
 21 27  1  0
 21 22  1  1
 21 23  1  0
 22 52  1  0
 22 53  1  0
 22 54  1  0
 24 23  1  1
 24 28  1  0
 24 25  1  0
 24 29  1  0
 25 26  1  0
 25 55  1  0
 25 56  1  0
 27 26  1  6
 26 57  1  0
 26 58  1  0
 27 28  1  0
 29 30  1  0
 29 59  1  6
 30 60  1  0
M  END
>  <i_m_ct_stereo_status>  (358) 
1

>  <s_m_source_file>  (358) 
/var/tmp/pbs.5076255.sched01/tmpybatibx8/138x0dlab3k.sdf

>  <i_m_source_file_index>  (358) 
18

>  <i_lp_mmshare_version>  (358) 
48012

>  <i_f3d_flags>  (358) 
0

>  <s_epik_input>  (358) 
W0NAXTEyM09bQ0BdNChbQ0gzXSlbQ0BAXShPMikoW0NIMl1bQ0gyXTEpW0NAXShbT0hdKShbQ0gyXVtDQEBdKFtDSDNdKShbT0hdKVtDQEBIXTNbT0hdKVtDQEBdNShbT0hdKVtDQEBIXShbQ0gyXTQpW0NAXTYoW0NIM10pQyg9W0NIXVtDSDJdNSlbQ0hdPVtDSF1bQ0gyXUM2PU8=

>  <s_epik_cmdline>  (358) 
J2VwaWtfcHl0aG9uJywgJy1waHQnLCAnMi4wJywgJy1waCcsICc3LjAnLCAnLXRuJywgJzgnLCAnLW1hJywgJzIwMCcsICctaW1hZScsICc8aW5maWxlLm1hZT4nLCAnLW9tYWUnLCAnPG91dGZpbGUubWFlPic=

>  <r_lp_tautomer_probability>  (358) 
1

>  <r_epik_Ionization_Penalty>  (358) 
4.4482e-07

>  <r_epik_Ionization_Penalty_Charging>  (358) 
0

>  <r_epik_Ionization_Penalty_Neutral>  (358) 
4.4482e-07

>  <r_epik_State_Penalty>  (358) 
-0

>  <r_epik_Charging_Adjusted_Penalty>  (358) 
0

>  <i_epik_Tot_Q>  (358) 
0

>  <i_epik_Tot_abs_Q>  (358) 
0

>  <s_lp_Force_Field>  (358) 
OPLS3e

>  <r_lp_Energy>  (358) 
155.875

>  <b_lp_Chiralities_Consistent>  (358) 
1

>  <s_lp_Variant>  (358) 
106:0-1

>  <s_i_glide_gridfile>  (358) 
pfpi4k_grid

>  <i_i_glide_lignum>  (358) 
18

>  <i_i_glide_rotatable_bonds>  (358) 
4

>  <r_i_docking_score>  (358) 
-3.53522

>  <r_i_glide_ligand_efficiency>  (358) 
-0.117841

>  <r_i_glide_ligand_efficiency_sa>  (358) 
-0.366158

>  <r_i_glide_ligand_efficiency_ln>  (358) 
-0.80324

>  <r_i_glide_gscore>  (358) 
-3.53522

>  <r_i_glide_lipo>  (358) 
-0.581195

>  <r_i_glide_hbond>  (358) 
0

>  <r_i_glide_metal>  (358) 
-0

>  <r_i_glide_rewards>  (358) 
-0.555817

>  <r_i_glide_evdw>  (358) 
-28.4384

>  <r_i_glide_ecoul>  (358) 
-6.26426

>  <r_i_glide_erotb>  (358) 
0

>  <r_i_glide_esite>  (358) 
-0.0366489

>  <r_i_glide_emodel>  (358) 
-42.3217

>  <r_i_glide_energy>  (358) 
-34.7026

>  <r_i_glide_einternal>  (358) 
0.518872

>  <r_i_glide_intrahb_reward>  (358) 
-0

>  <i_i_glide_confnum>  (358) 
1

>  <i_i_glide_posenum>  (358) 
11

>  <r_i_glide_eff_state_penalty>  (358) 
0

>  <ligand_id>  (358) 
106

>  <original_smiles>  (358) 
CC1(O)CC2(O)C3(O)CC=C4C=CCC(=O)C4(C)C3CC3(C)OC4(CCC32O4)C1O

>  <smiles>  (358) 
[H]OC1([H])C23OC4(C([H])([H])[H])C([H])([H])C5([H])C6(C([H])([H])[H])C(=O)C([H])([H])C([H])=C([H])C6=C([H])C([H])([H])C5(O[H])C(O[H])(C([H])([H])C1(O[H])C([H])([H])[H])C4(O2)C([H])([H])C3([H])[H]

$$$$
106:0:1
     RDKit          3D

 60 65  0  0  1  0  0  0  0  0999 V2000
    4.6451   -3.5679   -2.6512 C   0  0  0  0  0  0  0  0  0  0  0  0
    4.1925   -3.3281   -1.1904 C   0  0  1  0  0  0  0  0  0  0  0  0
    2.8791   -3.8538   -1.1701 O   0  0  0  0  0  0  0  0  0  0  0  0
    5.0771   -4.2791   -0.2170 C   0  0  0  0  0  0  0  0  0  0  0  0
    5.5143   -3.9542    1.3443 C   0  0  2  0  0  0  0  0  0  0  0  0
    6.9276   -3.7172    1.2750 O   0  0  0  0  0  0  0  0  0  0  0  0
    5.3009   -5.2221    2.2917 C   0  0  2  0  0  0  0  0  0  0  0  0
    6.2053   -5.1034    3.3744 O   0  0  0  0  0  0  0  0  0  0  0  0
    5.6949   -6.5712    1.6062 C   0  0  0  0  0  0  0  0  0  0  0  0
    4.5117   -7.4660    1.2815 C   0  0  0  0  0  0  0  0  0  0  0  0
    3.4190   -7.5575    2.0589 C   0  0  0  0  0  0  0  0  0  0  0  0
    2.3581   -8.4779    1.6899 C   0  0  0  0  0  0  0  0  0  0  0  0
    1.2418   -8.6046    2.4165 C   0  0  0  0  0  0  0  0  0  0  0  0
    0.9654   -7.8657    3.7072 C   0  0  0  0  0  0  0  0  0  0  0  0
    1.9145   -6.6802    3.9169 C   0  0  0  0  0  0  0  0  0  0  0  0
    1.5522   -5.7563    4.6424 O   0  0  0  0  0  0  0  0  0  0  0  0
    3.3532   -6.7090    3.3314 C   0  0  1  0  0  0  0  0  0  0  0  0
    4.2171   -7.3823    4.4282 C   0  0  0  0  0  0  0  0  0  0  0  0
    3.8807   -5.2620    2.9865 C   0  0  2  0  0  0  0  0  0  0  0  0
    2.8905   -4.3791    2.1701 C   0  0  0  0  0  0  0  0  0  0  0  0
    3.2944   -2.8881    2.2511 C   0  0  2  0  0  0  0  0  0  0  0  0
    2.7004   -2.2652    3.5389 C   0  0  0  0  0  0  0  0  0  0  0  0
    2.7953   -2.1350    1.1539 O   0  0  0  0  0  0  0  0  0  0  0  0
    3.9045   -1.5035    0.5778 C   0  0  1  0  0  0  0  0  0  0  0  0
    4.4461   -0.3658    1.4280 C   0  0  0  0  0  0  0  0  0  0  0  0
    5.2981   -1.2584    2.4118 C   0  0  0  0  0  0  0  0  0  0  0  0
    4.8197   -2.7136    2.0742 C   0  0  1  0  0  0  0  0  0  0  0  0
    4.9611   -2.2031    0.8459 O   0  0  0  0  0  0  0  0  0  0  0  0
    4.0060   -1.7479   -0.9359 C   0  0  1  0  0  0  0  0  0  0  0  0
    5.0457   -0.9772   -1.5279 O   0  0  0  0  0  0  0  0  0  0  0  0
    5.6769   -3.2411   -2.8095 H   0  0  0  0  0  0  0  0  0  0  0  0
    4.0123   -3.0389   -3.3676 H   0  0  0  0  0  0  0  0  0  0  0  0
    4.6165   -4.6303   -2.9059 H   0  0  0  0  0  0  0  0  0  0  0  0
    2.8917   -4.6934   -1.6349 H   0  0  0  0  0  0  0  0  0  0  0  0
    4.5686   -5.2401   -0.2491 H   0  0  0  0  0  0  0  0  0  0  0  0
    6.0080   -4.4807   -0.7462 H   0  0  0  0  0  0  0  0  0  0  0  0
    7.3508   -4.5138    0.9971 H   0  0  0  0  0  0  0  0  0  0  0  0
    6.0975   -5.8468    3.9466 H   0  0  0  0  0  0  0  0  0  0  0  0
    6.2556   -6.4015    0.6926 H   0  0  0  0  0  0  0  0  0  0  0  0
    6.3753   -7.1647    2.2202 H   0  0  0  0  0  0  0  0  0  0  0  0
    4.6071   -8.0834    0.3977 H   0  0  0  0  0  0  0  0  0  0  0  0
    2.4607   -9.0841    0.8024 H   0  0  0  0  0  0  0  0  0  0  0  0
    0.4811   -9.3053    2.1073 H   0  0  0  0  0  0  0  0  0  0  0  0
   -0.0597   -7.4909    3.6777 H   0  0  0  0  0  0  0  0  0  0  0  0
    1.0296   -8.5547    4.5509 H   0  0  0  0  0  0  0  0  0  0  0  0
    3.8330   -8.3663    4.6868 H   0  0  0  0  0  0  0  0  0  0  0  0
    4.2362   -6.7892    5.3429 H   0  0  0  0  0  0  0  0  0  0  0  0
    5.2495   -7.5343    4.1226 H   0  0  0  0  0  0  0  0  0  0  0  0
    3.9652   -4.7598    3.9530 H   0  0  0  0  0  0  0  0  0  0  0  0
    2.8586   -4.7257    1.1450 H   0  0  0  0  0  0  0  0  0  0  0  0
    1.8592   -4.4738    2.4985 H   0  0  0  0  0  0  0  0  0  0  0  0
    3.1575   -2.6752    4.4390 H   0  0  0  0  0  0  0  0  0  0  0  0
    1.6268   -2.4510    3.6021 H   0  0  0  0  0  0  0  0  0  0  0  0
    2.8194   -1.1828    3.5732 H   0  0  0  0  0  0  0  0  0  0  0  0
    5.0685    0.3084    0.8438 H   0  0  0  0  0  0  0  0  0  0  0  0
    3.6278    0.1818    1.8977 H   0  0  0  0  0  0  0  0  0  0  0  0
    6.3650   -1.1236    2.2361 H   0  0  0  0  0  0  0  0  0  0  0  0
    5.1179   -0.9898    3.4550 H   0  0  0  0  0  0  0  0  0  0  0  0
    3.0754   -1.4005   -1.3924 H   0  0  0  0  0  0  0  0  0  0  0  0
    4.8623   -0.0676   -1.3474 H   0  0  0  0  0  0  0  0  0  0  0  0
  1  2  1  0
  1 31  1  0
  1 32  1  0
  1 33  1  0
  2 29  1  0
  2  3  1  6
  2  4  1  0
  3 34  1  0
  4  5  1  0
  4 35  1  0
  4 36  1  0
  5 27  1  0
  5  6  1  6
  5  7  1  0
  6 37  1  0
  7 19  1  0
  7  8  1  1
  7  9  1  0
  8 38  1  0
  9 10  1  0
  9 39  1  0
  9 40  1  0
 10 11  2  0
 10 41  1  0
 11 17  1  0
 11 12  1  0
 12 13  2  0
 12 42  1  0
 13 14  1  0
 13 43  1  0
 14 15  1  0
 14 44  1  0
 14 45  1  0
 15 16  2  0
 15 17  1  0
 17 18  1  1
 17 19  1  0
 18 46  1  0
 18 47  1  0
 18 48  1  0
 19 20  1  0
 19 49  1  1
 20 21  1  0
 20 50  1  0
 20 51  1  0
 21 27  1  0
 21 22  1  1
 21 23  1  0
 22 52  1  0
 22 53  1  0
 22 54  1  0
 24 23  1  1
 24 28  1  0
 24 25  1  0
 24 29  1  0
 25 26  1  0
 25 55  1  0
 25 56  1  0
 27 26  1  6
 26 57  1  0
 26 58  1  0
 27 28  1  0
 29 30  1  0
 29 59  1  6
 30 60  1  0
M  END
>  <i_m_ct_stereo_status>  (359) 
1

>  <s_m_source_file>  (359) 
/var/tmp/pbs.5076255.sched01/tmpybatibx8/138x0dlab3k.sdf

>  <i_m_source_file_index>  (359) 
18

>  <i_lp_mmshare_version>  (359) 
48012

>  <i_f3d_flags>  (359) 
0

>  <s_epik_input>  (359) 
W0NAXTEyM09bQ0BdNChbQ0gzXSlbQ0BAXShPMikoW0NIMl1bQ0gyXTEpW0NAXShbT0hdKShbQ0gyXVtDQEBdKFtDSDNdKShbT0hdKVtDQEBIXTNbT0hdKVtDQEBdNShbT0hdKVtDQEBIXShbQ0gyXTQpW0NAXTYoW0NIM10pQyg9W0NIXVtDSDJdNSlbQ0hdPVtDSF1bQ0gyXUM2PU8=

>  <s_epik_cmdline>  (359) 
J2VwaWtfcHl0aG9uJywgJy1waHQnLCAnMi4wJywgJy1waCcsICc3LjAnLCAnLXRuJywgJzgnLCAnLW1hJywgJzIwMCcsICctaW1hZScsICc8aW5maWxlLm1hZT4nLCAnLW9tYWUnLCAnPG91dGZpbGUubWFlPic=

>  <r_lp_tautomer_probability>  (359) 
1

>  <r_epik_Ionization_Penalty>  (359) 
4.4482e-07

>  <r_epik_Ionization_Penalty_Charging>  (359) 
0

>  <r_epik_Ionization_Penalty_Neutral>  (359) 
4.4482e-07

>  <r_epik_State_Penalty>  (359) 
-0

>  <r_epik_Charging_Adjusted_Penalty>  (359) 
0

>  <i_epik_Tot_Q>  (359) 
0

>  <i_epik_Tot_abs_Q>  (359) 
0

>  <s_lp_Force_Field>  (359) 
OPLS3e

>  <r_lp_Energy>  (359) 
155.875

>  <b_lp_Chiralities_Consistent>  (359) 
1

>  <s_lp_Variant>  (359) 
106:0-1

>  <s_i_glide_gridfile>  (359) 
pfpi4k_grid

>  <i_i_glide_lignum>  (359) 
18

>  <i_i_glide_rotatable_bonds>  (359) 
4

>  <r_i_docking_score>  (359) 
-3.53383

>  <r_i_glide_ligand_efficiency>  (359) 
-0.117794

>  <r_i_glide_ligand_efficiency_sa>  (359) 
-0.366014

>  <r_i_glide_ligand_efficiency_ln>  (359) 
-0.802924

>  <r_i_glide_gscore>  (359) 
-3.53383

>  <r_i_glide_lipo>  (359) 
-0.582754

>  <r_i_glide_hbond>  (359) 
0

>  <r_i_glide_metal>  (359) 
-0

>  <r_i_glide_rewards>  (359) 
-0.555817

>  <r_i_glide_evdw>  (359) 
-28.4675

>  <r_i_glide_ecoul>  (359) 
-6.23971

>  <r_i_glide_erotb>  (359) 
0

>  <r_i_glide_esite>  (359) 
-0.0359214

>  <r_i_glide_emodel>  (359) 
-42.3183

>  <r_i_glide_energy>  (359) 
-34.7072

>  <r_i_glide_einternal>  (359) 
0.539881

>  <r_i_glide_intrahb_reward>  (359) 
-0

>  <i_i_glide_confnum>  (359) 
1

>  <i_i_glide_posenum>  (359) 
35

>  <r_i_glide_eff_state_penalty>  (359) 
0

>  <ligand_id>  (359) 
106

>  <original_smiles>  (359) 
CC1(O)CC2(O)C3(O)CC=C4C=CCC(=O)C4(C)C3CC3(C)OC4(CCC32O4)C1O

>  <smiles>  (359) 
[H]OC1([H])C23OC4(C([H])([H])[H])C([H])([H])C5([H])C6(C([H])([H])[H])C(=O)C([H])([H])C([H])=C([H])C6=C([H])C([H])([H])C5(O[H])C(O[H])(C([H])([H])C1(O[H])C([H])([H])[H])C4(O2)C([H])([H])C3([H])[H]

$$$$
106:0:2
     RDKit          3D

 60 65  0  0  1  0  0  0  0  0999 V2000
    4.6440   -3.5633   -2.6510 C   0  0  0  0  0  0  0  0  0  0  0  0
    4.1927   -3.3236   -1.1905 C   0  0  1  0  0  0  0  0  0  0  0  0
    2.8803   -3.8529   -1.1708 O   0  0  0  0  0  0  0  0  0  0  0  0
    5.0799   -4.2761   -0.2198 C   0  0  0  0  0  0  0  0  0  0  0  0
    5.5121   -3.9600    1.3439 C   0  0  2  0  0  0  0  0  0  0  0  0
    6.9301   -3.7813    1.2829 O   0  0  0  0  0  0  0  0  0  0  0  0
    5.2988   -5.2222    2.2924 C   0  0  2  0  0  0  0  0  0  0  0  0
    6.2038   -5.0796    3.3803 O   0  0  0  0  0  0  0  0  0  0  0  0
    5.7020   -6.5664    1.6053 C   0  0  0  0  0  0  0  0  0  0  0  0
    4.5229   -7.4640    1.2767 C   0  0  0  0  0  0  0  0  0  0  0  0
    3.4269   -7.5574    2.0582 C   0  0  0  0  0  0  0  0  0  0  0  0
    2.3723   -8.4817    1.6875 C   0  0  0  0  0  0  0  0  0  0  0  0
    1.2520   -8.6104    2.4167 C   0  0  0  0  0  0  0  0  0  0  0  0
    0.9785   -7.8719    3.7067 C   0  0  0  0  0  0  0  0  0  0  0  0
    1.9217   -6.6809    3.9184 C   0  0  0  0  0  0  0  0  0  0  0  0
    1.5565   -5.7576    4.6421 O   0  0  0  0  0  0  0  0  0  0  0  0
    3.3600   -6.7086    3.3302 C   0  0  1  0  0  0  0  0  0  0  0  0
    4.2264   -7.3794    4.4273 C   0  0  0  0  0  0  0  0  0  0  0  0
    3.8792   -5.2601    2.9847 C   0  0  2  0  0  0  0  0  0  0  0  0
    2.8900   -4.3791    2.1693 C   0  0  0  0  0  0  0  0  0  0  0  0
    3.2954   -2.8886    2.2525 C   0  0  2  0  0  0  0  0  0  0  0  0
    2.6996   -2.2670    3.5400 C   0  0  0  0  0  0  0  0  0  0  0  0
    2.7985   -2.1369    1.1570 O   0  0  0  0  0  0  0  0  0  0  0  0
    3.9102   -1.5040    0.5794 C   0  0  1  0  0  0  0  0  0  0  0  0
    4.4404   -0.3628    1.4311 C   0  0  0  0  0  0  0  0  0  0  0  0
    5.2962   -1.2539    2.4129 C   0  0  0  0  0  0  0  0  0  0  0  0
    4.8238   -2.7149    2.0764 C   0  0  1  0  0  0  0  0  0  0  0  0
    4.9732   -2.2015    0.8497 O   0  0  0  0  0  0  0  0  0  0  0  0
    4.0043   -1.7452   -0.9329 C   0  0  1  0  0  0  0  0  0  0  0  0
    5.0419   -0.9726   -1.5251 O   0  0  0  0  0  0  0  0  0  0  0  0
    5.6752   -3.2374   -2.8087 H   0  0  0  0  0  0  0  0  0  0  0  0
    4.0110   -3.0335   -3.3665 H   0  0  0  0  0  0  0  0  0  0  0  0
    4.6152   -4.6252   -2.9051 H   0  0  0  0  0  0  0  0  0  0  0  0
    2.8954   -4.6918   -1.6323 H   0  0  0  0  0  0  0  0  0  0  0  0
    4.5756   -5.2374   -0.2526 H   0  0  0  0  0  0  0  0  0  0  0  0
    6.0129   -4.4717   -0.7485 H   0  0  0  0  0  0  0  0  0  0  0  0
    7.2063   -3.4982    2.1438 H   0  0  0  0  0  0  0  0  0  0  0  0
    7.0794   -5.1860    3.0382 H   0  0  0  0  0  0  0  0  0  0  0  0
    6.2661   -6.3938    0.6923 H   0  0  0  0  0  0  0  0  0  0  0  0
    6.3791   -7.1524    2.2254 H   0  0  0  0  0  0  0  0  0  0  0  0
    4.6190   -8.0799    0.3955 H   0  0  0  0  0  0  0  0  0  0  0  0
    2.4749   -9.0860    0.8018 H   0  0  0  0  0  0  0  0  0  0  0  0
    0.4962   -9.3122    2.1065 H   0  0  0  0  0  0  0  0  0  0  0  0
   -0.0471   -7.4995    3.6783 H   0  0  0  0  0  0  0  0  0  0  0  0
    1.0442   -8.5601    4.5504 H   0  0  0  0  0  0  0  0  0  0  0  0
    3.8482   -8.3670    4.6854 H   0  0  0  0  0  0  0  0  0  0  0  0
    4.2454   -6.7866    5.3397 H   0  0  0  0  0  0  0  0  0  0  0  0
    5.2609   -7.5189    4.1231 H   0  0  0  0  0  0  0  0  0  0  0  0
    3.9694   -4.7606    3.9512 H   0  0  0  0  0  0  0  0  0  0  0  0
    2.8612   -4.7252    1.1450 H   0  0  0  0  0  0  0  0  0  0  0  0
    1.8602   -4.4749    2.5001 H   0  0  0  0  0  0  0  0  0  0  0  0
    3.1572   -2.6770    4.4400 H   0  0  0  0  0  0  0  0  0  0  0  0
    1.6261   -2.4553    3.6034 H   0  0  0  0  0  0  0  0  0  0  0  0
    2.8153   -1.1832    3.5761 H   0  0  0  0  0  0  0  0  0  0  0  0
    5.0623    0.3142    0.8445 H   0  0  0  0  0  0  0  0  0  0  0  0
    3.6195    0.1822    1.8989 H   0  0  0  0  0  0  0  0  0  0  0  0
    6.3634   -1.1118    2.2387 H   0  0  0  0  0  0  0  0  0  0  0  0
    5.1134   -0.9854    3.4548 H   0  0  0  0  0  0  0  0  0  0  0  0
    3.0724   -1.3992   -1.3896 H   0  0  0  0  0  0  0  0  0  0  0  0
    4.8546   -0.0611   -1.3470 H   0  0  0  0  0  0  0  0  0  0  0  0
  1  2  1  0
  1 31  1  0
  1 32  1  0
  1 33  1  0
  2 29  1  0
  2  3  1  6
  2  4  1  0
  3 34  1  0
  4  5  1  0
  4 35  1  0
  4 36  1  0
  5 27  1  0
  5  6  1  6
  5  7  1  0
  6 37  1  0
  7 19  1  0
  7  8  1  1
  7  9  1  0
  8 38  1  0
  9 10  1  0
  9 39  1  0
  9 40  1  0
 10 11  2  0
 10 41  1  0
 11 17  1  0
 11 12  1  0
 12 13  2  0
 12 42  1  0
 13 14  1  0
 13 43  1  0
 14 15  1  0
 14 44  1  0
 14 45  1  0
 15 16  2  0
 15 17  1  0
 17 18  1  1
 17 19  1  0
 18 46  1  0
 18 47  1  0
 18 48  1  0
 19 20  1  0
 19 49  1  1
 20 21  1  0
 20 50  1  0
 20 51  1  0
 21 27  1  0
 21 22  1  1
 21 23  1  0
 22 52  1  0
 22 53  1  0
 22 54  1  0
 24 23  1  1
 24 28  1  0
 24 25  1  0
 24 29  1  0
 25 26  1  0
 25 55  1  0
 25 56  1  0
 27 26  1  6
 26 57  1  0
 26 58  1  0
 27 28  1  0
 29 30  1  0
 29 59  1  6
 30 60  1  0
M  END
>  <i_m_ct_stereo_status>  (360) 
1

>  <s_m_source_file>  (360) 
/var/tmp/pbs.5076255.sched01/tmpybatibx8/138x0dlab3k.sdf

>  <i_m_source_file_index>  (360) 
18

>  <i_lp_mmshare_version>  (360) 
48012

>  <i_f3d_flags>  (360) 
0

>  <s_epik_input>  (360) 
W0NAXTEyM09bQ0BdNChbQ0gzXSlbQ0BAXShPMikoW0NIMl1bQ0gyXTEpW0NAXShbT0hdKShbQ0gyXVtDQEBdKFtDSDNdKShbT0hdKVtDQEBIXTNbT0hdKVtDQEBdNShbT0hdKVtDQEBIXShbQ0gyXTQpW0NAXTYoW0NIM10pQyg9W0NIXVtDSDJdNSlbQ0hdPVtDSF1bQ0gyXUM2PU8=

>  <s_epik_cmdline>  (360) 
J2VwaWtfcHl0aG9uJywgJy1waHQnLCAnMi4wJywgJy1waCcsICc3LjAnLCAnLXRuJywgJzgnLCAnLW1hJywgJzIwMCcsICctaW1hZScsICc8aW5maWxlLm1hZT4nLCAnLW9tYWUnLCAnPG91dGZpbGUubWFlPic=

>  <r_lp_tautomer_probability>  (360) 
1

>  <r_epik_Ionization_Penalty>  (360) 
4.4482e-07

>  <r_epik_Ionization_Penalty_Charging>  (360) 
0

>  <r_epik_Ionization_Penalty_Neutral>  (360) 
4.4482e-07

>  <r_epik_State_Penalty>  (360) 
-0

>  <r_epik_Charging_Adjusted_Penalty>  (360) 
0

>  <i_epik_Tot_Q>  (360) 
0

>  <i_epik_Tot_abs_Q>  (360) 
0

>  <s_lp_Force_Field>  (360) 
OPLS3e

>  <r_lp_Energy>  (360) 
155.875

>  <b_lp_Chiralities_Consistent>  (360) 
1

>  <s_lp_Variant>  (360) 
106:0-1

>  <s_i_glide_gridfile>  (360) 
pfpi4k_grid

>  <i_i_glide_lignum>  (360) 
18

>  <i_i_glide_rotatable_bonds>  (360) 
4

>  <r_i_docking_score>  (360) 
-3.51104

>  <r_i_glide_ligand_efficiency>  (360) 
-0.117035

>  <r_i_glide_ligand_efficiency_sa>  (360) 
-0.363654

>  <r_i_glide_ligand_efficiency_ln>  (360) 
-0.797747

>  <r_i_glide_gscore>  (360) 
-3.51104

>  <r_i_glide_lipo>  (360) 
-0.584078

>  <r_i_glide_hbond>  (360) 
0

>  <r_i_glide_metal>  (360) 
-0

>  <r_i_glide_rewards>  (360) 
-0.555817

>  <r_i_glide_evdw>  (360) 
-28.4603

>  <r_i_glide_ecoul>  (360) 
-6.08469

>  <r_i_glide_erotb>  (360) 
0

>  <r_i_glide_esite>  (360) 
-0.0354275

>  <r_i_glide_emodel>  (360) 
-42.1044

>  <r_i_glide_energy>  (360) 
-34.545

>  <r_i_glide_einternal>  (360) 
0.561056

>  <r_i_glide_intrahb_reward>  (360) 
-0

>  <i_i_glide_confnum>  (360) 
1

>  <i_i_glide_posenum>  (360) 
9

>  <r_i_glide_eff_state_penalty>  (360) 
0

>  <ligand_id>  (360) 
106

>  <original_smiles>  (360) 
CC1(O)CC2(O)C3(O)CC=C4C=CCC(=O)C4(C)C3CC3(C)OC4(CCC32O4)C1O

>  <smiles>  (360) 
[H]OC1([H])C23OC4(C([H])([H])[H])C([H])([H])C5([H])C6(C([H])([H])[H])C(=O)C([H])([H])C([H])=C([H])C6=C([H])C([H])([H])C5(O[H])C(O[H])(C([H])([H])C1(O[H])C([H])([H])[H])C4(O2)C([H])([H])C3([H])[H]

$$$$
107:0:0
     RDKit          3D

 35 37  0  0  1  0  0  0  0  0999 V2000
    4.3863   -4.1277   -3.6970 C   0  0  0  0  0  0  0  0  0  0  0  0
    3.6439   -3.3979   -2.6555 N   0  0  0  0  0  0  0  0  0  0  0  0
    2.5155   -2.6191   -3.2219 C   0  0  0  0  0  0  0  0  0  0  0  0
    4.5284   -2.6282   -1.7203 C   0  0  2  0  0  0  0  0  0  0  0  0
    5.5278   -3.5514   -0.9521 C   0  0  1  0  0  0  0  0  0  0  0  0
    6.4981   -2.7091   -0.0861 C   0  0  0  0  0  0  0  0  0  0  0  0
    5.6914   -1.9035    0.9532 C   0  0  2  0  0  0  0  0  0  0  0  0
    4.8971   -2.8747    1.8537 C   0  0  0  0  0  0  0  0  0  0  0  0
    3.9336   -3.7148    0.9934 C   0  0  2  0  0  0  0  0  0  0  0  0
    4.7510   -4.5271   -0.0355 C   0  0  0  0  0  0  0  0  0  0  0  0
    2.9504   -2.7727    0.2615 C   0  0  0  0  0  0  0  0  0  0  0  0
    3.7456   -1.8078   -0.6511 C   0  0  1  0  0  0  0  0  0  0  0  0
    4.7129   -0.9677    0.2169 C   0  0  0  0  0  0  0  0  0  0  0  0
    4.9893   -3.4728   -4.3138 H   0  0  0  0  0  0  0  0  0  0  0  0
    3.6789   -4.6519   -4.3324 H   0  0  0  0  0  0  0  0  0  0  0  0
    5.0145   -4.9048   -3.2869 H   0  0  0  0  0  0  0  0  0  0  0  0
    2.8703   -1.7347   -3.7418 H   0  0  0  0  0  0  0  0  0  0  0  0
    1.8115   -2.3066   -2.4633 H   0  0  0  0  0  0  0  0  0  0  0  0
    1.9392   -3.2124   -3.9290 H   0  0  0  0  0  0  0  0  0  0  0  0
    5.1109   -1.9231   -2.3165 H   0  0  0  0  0  0  0  0  0  0  0  0
    6.1641   -4.1116   -1.6284 H   0  0  0  0  0  0  0  0  0  0  0  0
    7.2163   -3.3588    0.4202 H   0  0  0  0  0  0  0  0  0  0  0  0
    7.0819   -2.0406   -0.7188 H   0  0  0  0  0  0  0  0  0  0  0  0
    6.3682   -1.3033    1.5683 H   0  0  0  0  0  0  0  0  0  0  0  0
    5.5842   -3.5310    2.3887 H   0  0  0  0  0  0  0  0  0  0  0  0
    4.3406   -2.3134    2.6050 H   0  0  0  0  0  0  0  0  0  0  0  0
    3.3700   -4.3963    1.6312 H   0  0  0  0  0  0  0  0  0  0  0  0
    4.0931   -5.1718   -0.6182 H   0  0  0  0  0  0  0  0  0  0  0  0
    5.4379   -5.2008    0.4799 H   0  0  0  0  0  0  0  0  0  0  0  0
    2.2442   -3.3652   -0.3207 H   0  0  0  0  0  0  0  0  0  0  0  0
    2.3477   -2.2122    0.9776 H   0  0  0  0  0  0  0  0  0  0  0  0
    3.0791   -1.0737   -1.1006 H   0  0  0  0  0  0  0  0  0  0  0  0
    4.1459   -0.3732    0.9358 H   0  0  0  0  0  0  0  0  0  0  0  0
    5.2600   -0.2574   -0.4083 H   0  0  0  0  0  0  0  0  0  0  0  0
    3.2096   -4.1212   -2.1005 H   0  0  0  0  0  0  0  0  0  0  0  0
  1  2  1  0
  1 14  1  0
  1 15  1  0
  1 16  1  0
  2  3  1  0
  2  4  1  0
  2 35  1  0
  3 17  1  0
  3 18  1  0
  3 19  1  0
  4 12  1  0
  4  5  1  0
  4 20  1  6
  5 10  1  0
  5  6  1  0
  5 21  1  6
  6  7  1  0
  6 22  1  0
  6 23  1  0
  7 13  1  0
  7  8  1  0
  7 24  1  1
  8  9  1  0
  8 25  1  0
  8 26  1  0
  9 10  1  0
  9 11  1  0
  9 27  1  1
 10 28  1  0
 10 29  1  0
 11 12  1  0
 11 30  1  0
 11 31  1  0
 12 13  1  0
 12 32  1  6
 13 33  1  0
 13 34  1  0
M  CHG  1   2   1
M  END
>  <i_m_ct_stereo_status>  (361) 
1

>  <s_m_source_file>  (361) 
/var/tmp/pbs.5076255.sched01/tmpybatibx8/138x0dlab3k.sdf

>  <i_m_source_file_index>  (361) 
19

>  <i_lp_mmshare_version>  (361) 
48012

>  <i_f3d_flags>  (361) 
0

>  <s_epik_input>  (361) 
W0NIM11OKFtDSDNdKVtDQEhdKFtDQEBIXTEyKVtDQEhdM1tDSDJdW0NAQEhdKFtDSDJdMilbQ0gyXVtDQEBIXShbQ0gyXTEpW0NIMl0z

>  <s_epik_cmdline>  (361) 
J2VwaWtfcHl0aG9uJywgJy1waHQnLCAnMi4wJywgJy1waCcsICc3LjAnLCAnLXRuJywgJzgnLCAnLW1hJywgJzIwMCcsICctaW1hZScsICc8aW5maWxlLm1hZT4nLCAnLW9tYWUnLCAnPG91dGZpbGUubWFlPic=

>  <r_epik_Ionization_Penalty>  (361) 
0.000601644

>  <r_epik_Ionization_Penalty_Charging>  (361) 
0.000601644

>  <r_epik_Ionization_Penalty_Neutral>  (361) 
0

>  <r_epik_State_Penalty>  (361) 
0.000379002

>  <r_epik_Charging_Adjusted_Penalty>  (361) 
0.000980646

>  <i_epik_Tot_Q>  (361) 
1

>  <i_epik_Tot_abs_Q>  (361) 
1

>  <s_lp_Force_Field>  (361) 
OPLS3e

>  <r_lp_Energy>  (361) 
17.2036

>  <b_lp_Chiralities_Consistent>  (361) 
1

>  <s_lp_Variant>  (361) 
107:0-1

>  <s_i_glide_gridfile>  (361) 
pfpi4k_grid

>  <i_i_glide_lignum>  (361) 
19

>  <i_i_glide_rotatable_bonds>  (361) 
1

>  <r_i_docking_score>  (361) 
-3.92054

>  <r_i_glide_ligand_efficiency>  (361) 
-0.30158

>  <r_i_glide_ligand_efficiency_sa>  (361) 
-0.709116

>  <r_i_glide_ligand_efficiency_ln>  (361) 
-1.09975

>  <r_i_glide_gscore>  (361) 
-3.92054

>  <r_i_glide_lipo>  (361) 
-0.432446

>  <r_i_glide_hbond>  (361) 
0

>  <r_i_glide_metal>  (361) 
-0

>  <r_i_glide_rewards>  (361) 
-2.17971

>  <r_i_glide_evdw>  (361) 
-13.7634

>  <r_i_glide_ecoul>  (361) 
-3.88244

>  <r_i_glide_erotb>  (361) 
0

>  <r_i_glide_esite>  (361) 
-0.0378528

>  <r_i_glide_emodel>  (361) 
-22.3719

>  <r_i_glide_energy>  (361) 
-17.6459

>  <r_i_glide_einternal>  (361) 
0.155687

>  <r_i_glide_intrahb_reward>  (361) 
-0

>  <i_i_glide_confnum>  (361) 
1

>  <i_i_glide_posenum>  (361) 
16

>  <r_i_glide_eff_state_penalty>  (361) 
0

>  <ligand_id>  (361) 
107

>  <original_smiles>  (361) 
CN(C)C1C2CC3CC(C2)CC1C3

>  <smiles>  (361) 
[H]C1([H])C2([H])C([H])([H])C3([H])C([H])([H])C1([H])C([H])([H])C([H])(C2([H])[H])C3([H])[N+]([H])(C([H])([H])[H])C([H])([H])[H]

$$$$
107:0:1
     RDKit          3D

 35 37  0  0  1  0  0  0  0  0999 V2000
    4.6185   -0.4306    2.3861 C   0  0  0  0  0  0  0  0  0  0  0  0
    4.3466   -1.8354    2.0196 N   0  0  0  0  0  0  0  0  0  0  0  0
    4.3487   -2.7202    3.2034 C   0  0  0  0  0  0  0  0  0  0  0  0
    5.1786   -2.3487    0.8789 C   0  0  2  0  0  0  0  0  0  0  0  0
    5.1415   -1.4163   -0.3684 C   0  0  1  0  0  0  0  0  0  0  0  0
    6.0794   -1.9450   -1.4783 C   0  0  0  0  0  0  0  0  0  0  0  0
    5.6205   -3.3412   -1.9239 C   0  0  2  0  0  0  0  0  0  0  0  0
    4.1825   -3.2584   -2.4663 C   0  0  0  0  0  0  0  0  0  0  0  0
    3.2388   -2.7528   -1.3537 C   0  0  2  0  0  0  0  0  0  0  0  0
    3.7010   -1.3452   -0.9299 C   0  0  0  0  0  0  0  0  0  0  0  0
    3.2853   -3.7123   -0.1475 C   0  0  0  0  0  0  0  0  0  0  0  0
    4.7328   -3.7663    0.4039 C   0  0  1  0  0  0  0  0  0  0  0  0
    5.6690   -4.2911   -0.7116 C   0  0  0  0  0  0  0  0  0  0  0  0
    5.6659   -0.2879    2.6223 H   0  0  0  0  0  0  0  0  0  0  0  0
    4.0385   -0.1358    3.2517 H   0  0  0  0  0  0  0  0  0  0  0  0
    4.3405    0.2618    1.6028 H   0  0  0  0  0  0  0  0  0  0  0  0
    5.3576   -2.8894    3.5608 H   0  0  0  0  0  0  0  0  0  0  0  0
    3.8898   -3.6804    3.0086 H   0  0  0  0  0  0  0  0  0  0  0  0
    3.7806   -2.2812    4.0142 H   0  0  0  0  0  0  0  0  0  0  0  0
    6.2133   -2.4153    1.2154 H   0  0  0  0  0  0  0  0  0  0  0  0
    5.5078   -0.4156   -0.1564 H   0  0  0  0  0  0  0  0  0  0  0  0
    6.0471   -1.2667   -2.3139 H   0  0  0  0  0  0  0  0  0  0  0  0
    7.1092   -1.9836   -1.1144 H   0  0  0  0  0  0  0  0  0  0  0  0
    6.2844   -3.7147   -2.7090 H   0  0  0  0  0  0  0  0  0  0  0  0
    4.1378   -2.5811   -3.3173 H   0  0  0  0  0  0  0  0  0  0  0  0
    3.8737   -4.2369   -2.8286 H   0  0  0  0  0  0  0  0  0  0  0  0
    2.2175   -2.7024   -1.7345 H   0  0  0  0  0  0  0  0  0  0  0  0
    3.0167   -0.9366   -0.1832 H   0  0  0  0  0  0  0  0  0  0  0  0
    3.6435   -0.6734   -1.7857 H   0  0  0  0  0  0  0  0  0  0  0  0
    2.5930   -3.3729    0.6236 H   0  0  0  0  0  0  0  0  0  0  0  0
    2.9435   -4.7078   -0.4380 H   0  0  0  0  0  0  0  0  0  0  0  0
    4.8039   -4.5135    1.1921 H   0  0  0  0  0  0  0  0  0  0  0  0
    5.3617   -5.2957   -1.0156 H   0  0  0  0  0  0  0  0  0  0  0  0
    6.6884   -4.3732   -0.3219 H   0  0  0  0  0  0  0  0  0  0  0  0
    3.3994   -1.8424    1.6625 H   0  0  0  0  0  0  0  0  0  0  0  0
  1  2  1  0
  1 14  1  0
  1 15  1  0
  1 16  1  0
  2  3  1  0
  2  4  1  0
  2 35  1  0
  3 17  1  0
  3 18  1  0
  3 19  1  0
  4 12  1  0
  4  5  1  0
  4 20  1  1
  5 10  1  0
  5  6  1  0
  5 21  1  1
  6  7  1  0
  6 22  1  0
  6 23  1  0
  7 13  1  0
  7  8  1  0
  7 24  1  6
  8  9  1  0
  8 25  1  0
  8 26  1  0
  9 10  1  0
  9 11  1  0
  9 27  1  6
 10 28  1  0
 10 29  1  0
 11 12  1  0
 11 30  1  0
 11 31  1  0
 12 13  1  0
 12 32  1  1
 13 33  1  0
 13 34  1  0
M  CHG  1   2   1
M  END
>  <i_m_ct_stereo_status>  (362) 
1

>  <s_m_source_file>  (362) 
/var/tmp/pbs.5076255.sched01/tmpybatibx8/138x0dlab3k.sdf

>  <i_m_source_file_index>  (362) 
19

>  <i_lp_mmshare_version>  (362) 
48012

>  <i_f3d_flags>  (362) 
0

>  <s_epik_input>  (362) 
W0NIM11OKFtDSDNdKVtDQEhdKFtDQEBIXTEyKVtDQEhdM1tDSDJdW0NAQEhdKFtDSDJdMilbQ0gyXVtDQEBIXShbQ0gyXTEpW0NIMl0z

>  <s_epik_cmdline>  (362) 
J2VwaWtfcHl0aG9uJywgJy1waHQnLCAnMi4wJywgJy1waCcsICc3LjAnLCAnLXRuJywgJzgnLCAnLW1hJywgJzIwMCcsICctaW1hZScsICc8aW5maWxlLm1hZT4nLCAnLW9tYWUnLCAnPG91dGZpbGUubWFlPic=

>  <r_epik_Ionization_Penalty>  (362) 
0.000601644

>  <r_epik_Ionization_Penalty_Charging>  (362) 
0.000601644

>  <r_epik_Ionization_Penalty_Neutral>  (362) 
0

>  <r_epik_State_Penalty>  (362) 
0.000379002

>  <r_epik_Charging_Adjusted_Penalty>  (362) 
0.000980646

>  <i_epik_Tot_Q>  (362) 
1

>  <i_epik_Tot_abs_Q>  (362) 
1

>  <s_lp_Force_Field>  (362) 
OPLS3e

>  <r_lp_Energy>  (362) 
17.2036

>  <b_lp_Chiralities_Consistent>  (362) 
1

>  <s_lp_Variant>  (362) 
107:0-1

>  <s_i_glide_gridfile>  (362) 
pfpi4k_grid

>  <i_i_glide_lignum>  (362) 
19

>  <i_i_glide_rotatable_bonds>  (362) 
1

>  <r_i_docking_score>  (362) 
-3.45213

>  <r_i_glide_ligand_efficiency>  (362) 
-0.265548

>  <r_i_glide_ligand_efficiency_sa>  (362) 
-0.624393

>  <r_i_glide_ligand_efficiency_ln>  (362) 
-0.968353

>  <r_i_glide_gscore>  (362) 
-3.45213

>  <r_i_glide_lipo>  (362) 
-0.388683

>  <r_i_glide_hbond>  (362) 
0

>  <r_i_glide_metal>  (362) 
-0

>  <r_i_glide_rewards>  (362) 
-2.17971

>  <r_i_glide_evdw>  (362) 
-11.8798

>  <r_i_glide_ecoul>  (362) 
-1.93166

>  <r_i_glide_erotb>  (362) 
0

>  <r_i_glide_esite>  (362) 
0

>  <r_i_glide_emodel>  (362) 
-18.0153

>  <r_i_glide_energy>  (362) 
-13.8115

>  <r_i_glide_einternal>  (362) 
0.0291415

>  <r_i_glide_intrahb_reward>  (362) 
-0

>  <i_i_glide_confnum>  (362) 
1

>  <i_i_glide_posenum>  (362) 
3

>  <r_i_glide_eff_state_penalty>  (362) 
0

>  <ligand_id>  (362) 
107

>  <original_smiles>  (362) 
CN(C)C1C2CC3CC(C2)CC1C3

>  <smiles>  (362) 
[H]C1([H])C2([H])C([H])([H])C3([H])C([H])([H])C1([H])C([H])([H])C([H])(C2([H])[H])C3([H])[N+]([H])(C([H])([H])[H])C([H])([H])[H]

$$$$
107:0:2
     RDKit          3D

 35 37  0  0  1  0  0  0  0  0999 V2000
    2.3325    0.0358   -5.0290 C   0  0  0  0  0  0  0  0  0  0  0  0
    3.3429    0.0286   -3.9639 N   0  0  0  0  0  0  0  0  0  0  0  0
    4.1723    1.2210   -4.1422 C   0  0  0  0  0  0  0  0  0  0  0  0
    4.1520   -1.2478   -3.8748 C   0  0  2  0  0  0  0  0  0  0  0  0
    3.2689   -2.5273   -3.8512 C   0  0  1  0  0  0  0  0  0  0  0  0
    4.1314   -3.7980   -3.8780 C   0  0  0  0  0  0  0  0  0  0  0  0
    4.9956   -3.8170   -2.6023 C   0  0  2  0  0  0  0  0  0  0  0  0
    4.1587   -3.7764   -1.3034 C   0  0  0  0  0  0  0  0  0  0  0  0
    3.3227   -2.4918   -1.3010 C   0  0  2  0  0  0  0  0  0  0  0  0
    2.4182   -2.5115   -2.5603 C   0  0  0  0  0  0  0  0  0  0  0  0
    4.2790   -1.2848   -1.3297 C   0  0  0  0  0  0  0  0  0  0  0  0
    5.1042   -1.3328   -2.6244 C   0  0  1  0  0  0  0  0  0  0  0  0
    5.9427   -2.6327   -2.6286 C   0  0  0  0  0  0  0  0  0  0  0  0
    2.7944   -0.1476   -6.0091 H   0  0  0  0  0  0  0  0  0  0  0  0
    1.8165    1.0055   -5.0626 H   0  0  0  0  0  0  0  0  0  0  0  0
    1.5920   -0.7362   -4.8616 H   0  0  0  0  0  0  0  0  0  0  0  0
    4.6979    0.9925   -5.0812 H   0  0  0  0  0  0  0  0  0  0  0  0
    4.7698    1.3351   -3.2344 H   0  0  0  0  0  0  0  0  0  0  0  0
    3.6280    2.1522   -4.3626 H   0  0  0  0  0  0  0  0  0  0  0  0
    4.7727   -1.3050   -4.7635 H   0  0  0  0  0  0  0  0  0  0  0  0
    2.6096   -2.6237   -4.7174 H   0  0  0  0  0  0  0  0  0  0  0  0
    3.4764   -4.6503   -3.9350 H   0  0  0  0  0  0  0  0  0  0  0  0
    4.7658   -3.8272   -4.7714 H   0  0  0  0  0  0  0  0  0  0  0  0
    5.5842   -4.7024   -2.6087 H   0  0  0  0  0  0  0  0  0  0  0  0
    3.5007   -4.6391   -1.1857 H   0  0  0  0  0  0  0  0  0  0  0  0
    4.8343   -3.7995   -0.4502 H   0  0  0  0  0  0  0  0  0  0  0  0
    2.7092   -2.4398   -0.3984 H   0  0  0  0  0  0  0  0  0  0  0  0
    1.8322   -1.6226   -2.5673 H   0  0  0  0  0  0  0  0  0  0  0  0
    1.7232   -3.3568   -2.5322 H   0  0  0  0  0  0  0  0  0  0  0  0
    3.7510   -0.3376   -1.2967 H   0  0  0  0  0  0  0  0  0  0  0  0
    4.9422   -1.2857   -0.4588 H   0  0  0  0  0  0  0  0  0  0  0  0
    5.7947   -0.4961   -2.5299 H   0  0  0  0  0  0  0  0  0  0  0  0
    6.5863   -2.6609   -1.7543 H   0  0  0  0  0  0  0  0  0  0  0  0
    6.5749   -2.7068   -3.5038 H   0  0  0  0  0  0  0  0  0  0  0  0
    2.8464    0.1100   -3.0696 H   0  0  0  0  0  0  0  0  0  0  0  0
  1  2  1  0
  1 14  1  0
  1 15  1  0
  1 16  1  0
  2  3  1  0
  2  4  1  0
  2 35  1  0
  3 17  1  0
  3 18  1  0
  3 19  1  0
  4 12  1  0
  4  5  1  0
  4 20  1  6
  5 10  1  0
  5  6  1  0
  5 21  1  6
  6  7  1  0
  6 22  1  0
  6 23  1  0
  7 13  1  0
  7  8  1  0
  7 24  1  1
  8  9  1  0
  8 25  1  0
  8 26  1  0
  9 10  1  0
  9 11  1  0
  9 27  1  1
 10 28  1  0
 10 29  1  0
 11 12  1  0
 11 30  1  0
 11 31  1  0
 12 13  1  0
 12 32  1  1
 13 33  1  0
 13 34  1  0
M  CHG  1   2   1
M  END
>  <i_m_ct_stereo_status>  (363) 
1

>  <s_m_source_file>  (363) 
/var/tmp/pbs.5076255.sched01/tmpybatibx8/138x0dlab3k.sdf

>  <i_m_source_file_index>  (363) 
19

>  <i_lp_mmshare_version>  (363) 
48012

>  <i_f3d_flags>  (363) 
0

>  <s_epik_input>  (363) 
W0NIM11OKFtDSDNdKVtDQEhdKFtDQEBIXTEyKVtDQEhdM1tDSDJdW0NAQEhdKFtDSDJdMilbQ0gyXVtDQEBIXShbQ0gyXTEpW0NIMl0z

>  <s_epik_cmdline>  (363) 
J2VwaWtfcHl0aG9uJywgJy1waHQnLCAnMi4wJywgJy1waCcsICc3LjAnLCAnLXRuJywgJzgnLCAnLW1hJywgJzIwMCcsICctaW1hZScsICc8aW5maWxlLm1hZT4nLCAnLW9tYWUnLCAnPG91dGZpbGUubWFlPic=

>  <r_epik_Ionization_Penalty>  (363) 
0.000601644

>  <r_epik_Ionization_Penalty_Charging>  (363) 
0.000601644

>  <r_epik_Ionization_Penalty_Neutral>  (363) 
0

>  <r_epik_State_Penalty>  (363) 
0.000379002

>  <r_epik_Charging_Adjusted_Penalty>  (363) 
0.000980646

>  <i_epik_Tot_Q>  (363) 
1

>  <i_epik_Tot_abs_Q>  (363) 
1

>  <s_lp_Force_Field>  (363) 
OPLS3e

>  <r_lp_Energy>  (363) 
17.2036

>  <b_lp_Chiralities_Consistent>  (363) 
1

>  <s_lp_Variant>  (363) 
107:0-1

>  <s_i_glide_gridfile>  (363) 
pfpi4k_grid

>  <i_i_glide_lignum>  (363) 
19

>  <i_i_glide_rotatable_bonds>  (363) 
1

>  <r_i_docking_score>  (363) 
-2.88409

>  <r_i_glide_ligand_efficiency>  (363) 
-0.221853

>  <r_i_glide_ligand_efficiency_sa>  (363) 
-0.521651

>  <r_i_glide_ligand_efficiency_ln>  (363) 
-0.809013

>  <r_i_glide_gscore>  (363) 
-2.88409

>  <r_i_glide_lipo>  (363) 
-0.314759

>  <r_i_glide_hbond>  (363) 
0

>  <r_i_glide_metal>  (363) 
-0

>  <r_i_glide_rewards>  (363) 
-2.17971

>  <r_i_glide_evdw>  (363) 
-3.56619

>  <r_i_glide_ecoul>  (363) 
-1.40878

>  <r_i_glide_erotb>  (363) 
0

>  <r_i_glide_esite>  (363) 
0

>  <r_i_glide_emodel>  (363) 
-8.14254

>  <r_i_glide_energy>  (363) 
-4.97497

>  <r_i_glide_einternal>  (363) 
0.134327

>  <r_i_glide_intrahb_reward>  (363) 
-0

>  <i_i_glide_confnum>  (363) 
1

>  <i_i_glide_posenum>  (363) 
1

>  <r_i_glide_eff_state_penalty>  (363) 
0

>  <ligand_id>  (363) 
107

>  <original_smiles>  (363) 
CN(C)C1C2CC3CC(C2)CC1C3

>  <smiles>  (363) 
[H]C1([H])C2([H])C([H])([H])C3([H])C([H])([H])C1([H])C([H])([H])C([H])(C2([H])[H])C3([H])[N+]([H])(C([H])([H])[H])C([H])([H])[H]

$$$$
109:0:0
     RDKit          3D

 34 38  0  0  1  0  0  0  0  0999 V2000
    4.7443   -5.5858    0.8340 C   0  0  0  0  0  0  0  0  0  0  0  0
    5.0480   -4.2928    0.6499 C   0  0  0  0  0  0  0  0  0  0  0  0
    5.2527   -3.2843    1.7711 C   0  0  1  0  0  0  0  0  0  0  0  0
    6.4545   -2.5190    1.2402 C   0  0  0  0  0  0  0  0  0  0  0  0
    6.0403   -2.3122   -0.2124 C   0  0  1  0  0  0  0  0  0  0  0  0
    5.4206   -3.6320   -0.6840 C   0  0  2  0  0  0  0  0  0  0  0  0
    4.2786   -3.3418   -1.6848 C   0  0  0  0  0  0  0  0  0  0  0  0
    4.5096   -2.3750   -2.6802 C   0  0  0  0  0  0  0  0  0  0  0  0
    3.5079   -2.3159   -3.6771 C   0  0  0  0  0  0  0  0  0  0  0  0
    2.2702   -2.9675   -3.4635 C   0  0  0  0  0  0  0  0  0  0  0  0
    1.9785   -3.4494   -2.1655 C   0  0  0  0  0  0  0  0  0  0  0  0
    2.9799   -3.3991   -1.1805 C   0  0  0  0  0  0  0  0  0  0  0  0
    2.7370   -2.8726    0.0610 O   0  0  0  0  0  0  0  0  0  0  0  0
    3.6011   -1.7726    0.5006 C   0  0  1  0  0  0  0  0  0  0  0  0
    4.0823   -2.2700    1.8892 C   0  0  1  0  0  0  0  0  0  0  0  0
    3.0226   -2.7947    2.6637 O   0  0  0  0  0  0  0  0  0  0  0  0
    4.8995   -1.2847   -0.3356 C   0  0  2  0  0  0  0  0  0  0  0  0
    4.7761   -1.0818   -1.8829 C   0  0  0  0  0  0  0  0  0  0  0  0
    4.6767   -6.2759    0.0070 H   0  0  0  0  0  0  0  0  0  0  0  0
    4.5580   -5.9734    1.8261 H   0  0  0  0  0  0  0  0  0  0  0  0
    5.4762   -3.7549    2.7308 H   0  0  0  0  0  0  0  0  0  0  0  0
    6.6678   -1.5881    1.7628 H   0  0  0  0  0  0  0  0  0  0  0  0
    7.3513   -3.1407    1.2818 H   0  0  0  0  0  0  0  0  0  0  0  0
    6.8994   -2.0313   -0.8213 H   0  0  0  0  0  0  0  0  0  0  0  0
    6.1708   -4.2540   -1.1637 H   0  0  0  0  0  0  0  0  0  0  0  0
    3.5712   -1.5959   -4.4864 H   0  0  0  0  0  0  0  0  0  0  0  0
    1.4825   -2.8925   -4.1988 H   0  0  0  0  0  0  0  0  0  0  0  0
    0.9385   -3.5823   -1.9030 H   0  0  0  0  0  0  0  0  0  0  0  0
    2.9520   -0.9057    0.6189 H   0  0  0  0  0  0  0  0  0  0  0  0
    4.4426   -1.4014    2.4367 H   0  0  0  0  0  0  0  0  0  0  0  0
    2.3449   -2.1368    2.7141 H   0  0  0  0  0  0  0  0  0  0  0  0
    5.2406   -0.3450    0.0969 H   0  0  0  0  0  0  0  0  0  0  0  0
    5.7094   -0.6739   -2.2652 H   0  0  0  0  0  0  0  0  0  0  0  0
    4.0251   -0.3246   -2.0967 H   0  0  0  0  0  0  0  0  0  0  0  0
  1  2  2  0
  1 19  1  0
  1 20  1  0
  2  6  1  0
  2  3  1  0
  3 15  1  0
  3  4  1  0
  3 21  1  1
  4  5  1  0
  4 22  1  0
  4 23  1  0
  5 17  1  0
  5  6  1  0
  5 24  1  6
  6  7  1  0
  6 25  1  6
  7 12  2  0
  7  8  1  0
  8 18  1  0
  8  9  2  0
  9 10  1  0
  9 26  1  0
 10 11  2  0
 10 27  1  0
 11 12  1  0
 11 28  1  0
 12 13  1  0
 13 14  1  0
 14 15  1  0
 14 17  1  0
 14 29  1  1
 15 16  1  0
 15 30  1  1
 16 31  1  0
 17 18  1  0
 17 32  1  1
 18 33  1  0
 18 34  1  0
M  END
>  <i_m_ct_stereo_status>  (364) 
1

>  <s_m_source_file>  (364) 
/var/tmp/pbs.5076255.sched01/tmpybatibx8/138x0dlab3k.sdf

>  <i_m_source_file_index>  (364) 
21

>  <i_lp_mmshare_version>  (364) 
48012

>  <i_f3d_flags>  (364) 
0

>  <s_epik_input>  (364) 
W0NIMl09QyhbQ0BASF0xMilbQ0BASF0zW0NASF0oW0NIMl0xKVtDQEBIXTRbQ0BIXShbQ0BIXTJbT0hdKU9jNWMzYyhbQ0gyXTQpW2NIXVtjSF1bY0hdNQ==

>  <s_epik_cmdline>  (364) 
J2VwaWtfcHl0aG9uJywgJy1waHQnLCAnMi4wJywgJy1waCcsICc3LjAnLCAnLXRuJywgJzgnLCAnLW1hJywgJzIwMCcsICctaW1hZScsICc8aW5maWxlLm1hZT4nLCAnLW9tYWUnLCAnPG91dGZpbGUubWFlPic=

>  <r_lp_tautomer_probability>  (364) 
1

>  <r_epik_Ionization_Penalty>  (364) 
4.30334e-08

>  <r_epik_Ionization_Penalty_Charging>  (364) 
0

>  <r_epik_Ionization_Penalty_Neutral>  (364) 
4.30334e-08

>  <r_epik_State_Penalty>  (364) 
-0

>  <r_epik_Charging_Adjusted_Penalty>  (364) 
0

>  <i_epik_Tot_Q>  (364) 
0

>  <i_epik_Tot_abs_Q>  (364) 
0

>  <s_lp_Force_Field>  (364) 
OPLS3e

>  <r_lp_Energy>  (364) 
133.519

>  <b_lp_Chiralities_Consistent>  (364) 
1

>  <s_lp_Variant>  (364) 
109:0-1

>  <s_i_glide_gridfile>  (364) 
pfpi4k_grid

>  <i_i_glide_lignum>  (364) 
21

>  <i_i_glide_rotatable_bonds>  (364) 
1

>  <r_i_docking_score>  (364) 
-3.89947

>  <r_i_glide_ligand_efficiency>  (364) 
-0.216637

>  <r_i_glide_ligand_efficiency_sa>  (364) 
-0.56775

>  <r_i_glide_ligand_efficiency_ln>  (364) 
-1.00234

>  <r_i_glide_gscore>  (364) 
-3.89947

>  <r_i_glide_lipo>  (364) 
-1.12425

>  <r_i_glide_hbond>  (364) 
0

>  <r_i_glide_metal>  (364) 
-0

>  <r_i_glide_rewards>  (364) 
-1.7707

>  <r_i_glide_evdw>  (364) 
-23.2283

>  <r_i_glide_ecoul>  (364) 
1.046

>  <r_i_glide_erotb>  (364) 
0

>  <r_i_glide_esite>  (364) 
0

>  <r_i_glide_emodel>  (364) 
-27.2153

>  <r_i_glide_energy>  (364) 
-22.1823

>  <r_i_glide_einternal>  (364) 
0.331952

>  <r_i_glide_intrahb_reward>  (364) 
-0

>  <i_i_glide_confnum>  (364) 
2

>  <i_i_glide_posenum>  (364) 
8

>  <r_i_glide_eff_state_penalty>  (364) 
0

>  <ligand_id>  (364) 
109

>  <original_smiles>  (364) 
C=C1C2CC3C1c1c4cccc1OC(C2O)C3C4

>  <smiles>  (364) 
[H]OC1([H])C2([H])Oc3c([H])c([H])c([H])c4c3C3([H])C(=C([H])[H])C1([H])C([H])([H])C3([H])C2([H])C4([H])[H]

$$$$
109:0:1
     RDKit          3D

 34 38  0  0  1  0  0  0  0  0999 V2000
    4.5409   -5.8354    0.7660 C   0  0  0  0  0  0  0  0  0  0  0  0
    4.8582   -4.5304    0.7230 C   0  0  0  0  0  0  0  0  0  0  0  0
    4.9510   -3.6200    1.9408 C   0  0  1  0  0  0  0  0  0  0  0  0
    6.1916   -2.8198    1.5858 C   0  0  0  0  0  0  0  0  0  0  0  0
    5.9091   -2.4833    0.1263 C   0  0  1  0  0  0  0  0  0  0  0  0
    5.3440   -3.7555   -0.5114 C   0  0  2  0  0  0  0  0  0  0  0  0
    4.2976   -3.3783   -1.5841 C   0  0  0  0  0  0  0  0  0  0  0  0
    4.6082   -2.3275   -2.4642 C   0  0  0  0  0  0  0  0  0  0  0  0
    3.7021   -2.1891   -3.5469 C   0  0  0  0  0  0  0  0  0  0  0  0
    2.4516   -2.8488   -3.4947 C   0  0  0  0  0  0  0  0  0  0  0  0
    2.0422   -3.3939   -2.2660 C   0  0  0  0  0  0  0  0  0  0  0  0
    2.9603   -3.4568   -1.2013 C   0  0  0  0  0  0  0  0  0  0  0  0
    2.6241   -3.0657    0.0614 O   0  0  0  0  0  0  0  0  0  0  0  0
    3.4202   -1.9954    0.6665 C   0  0  1  0  0  0  0  0  0  0  0  0
    3.7731   -2.6088    2.0451 C   0  0  1  0  0  0  0  0  0  0  0  0
    2.6464   -3.1994    2.6604 O   0  0  0  0  0  0  0  0  0  0  0  0
    4.7806   -1.4421   -0.0077 C   0  0  2  0  0  0  0  0  0  0  0  0
    4.7998   -1.1048   -1.5404 C   0  0  0  0  0  0  0  0  0  0  0  0
    4.5511   -6.4492   -0.1239 H   0  0  0  0  0  0  0  0  0  0  0  0
    4.2728   -6.3040    1.7026 H   0  0  0  0  0  0  0  0  0  0  0  0
    5.0926   -4.1772    2.8690 H   0  0  0  0  0  0  0  0  0  0  0  0
    6.3484   -1.9348    2.2047 H   0  0  0  0  0  0  0  0  0  0  0  0
    7.0830   -3.4451    1.6561 H   0  0  0  0  0  0  0  0  0  0  0  0
    6.8185   -2.1504   -0.3749 H   0  0  0  0  0  0  0  0  0  0  0  0
    6.1406   -4.3265   -0.9809 H   0  0  0  0  0  0  0  0  0  0  0  0
    3.8345   -1.4066   -4.2826 H   0  0  0  0  0  0  0  0  0  0  0  0
    1.7246   -2.7131   -4.2824 H   0  0  0  0  0  0  0  0  0  0  0  0
    0.9949   -3.5893   -2.1044 H   0  0  0  0  0  0  0  0  0  0  0  0
    2.7454   -1.1528    0.7992 H   0  0  0  0  0  0  0  0  0  0  0  0
    4.0797   -1.7954    2.7004 H   0  0  0  0  0  0  0  0  0  0  0  0
    2.3626   -3.9078    2.0942 H   0  0  0  0  0  0  0  0  0  0  0  0
    5.0771   -0.5445    0.5278 H   0  0  0  0  0  0  0  0  0  0  0  0
    5.7635   -0.6708   -1.8019 H   0  0  0  0  0  0  0  0  0  0  0  0
    4.0635   -0.3344   -1.7637 H   0  0  0  0  0  0  0  0  0  0  0  0
  1  2  2  0
  1 19  1  0
  1 20  1  0
  2  6  1  0
  2  3  1  0
  3 15  1  0
  3  4  1  0
  3 21  1  1
  4  5  1  0
  4 22  1  0
  4 23  1  0
  5 17  1  0
  5  6  1  0
  5 24  1  6
  6  7  1  0
  6 25  1  6
  7 12  2  0
  7  8  1  0
  8 18  1  0
  8  9  2  0
  9 10  1  0
  9 26  1  0
 10 11  2  0
 10 27  1  0
 11 12  1  0
 11 28  1  0
 12 13  1  0
 13 14  1  0
 14 15  1  0
 14 17  1  0
 14 29  1  1
 15 16  1  0
 15 30  1  1
 16 31  1  0
 17 18  1  0
 17 32  1  1
 18 33  1  0
 18 34  1  0
M  END
>  <i_m_ct_stereo_status>  (365) 
1

>  <s_m_source_file>  (365) 
/var/tmp/pbs.5076255.sched01/tmpybatibx8/138x0dlab3k.sdf

>  <i_m_source_file_index>  (365) 
21

>  <i_lp_mmshare_version>  (365) 
48012

>  <i_f3d_flags>  (365) 
0

>  <s_epik_input>  (365) 
W0NIMl09QyhbQ0BASF0xMilbQ0BASF0zW0NASF0oW0NIMl0xKVtDQEBIXTRbQ0BIXShbQ0BIXTJbT0hdKU9jNWMzYyhbQ0gyXTQpW2NIXVtjSF1bY0hdNQ==

>  <s_epik_cmdline>  (365) 
J2VwaWtfcHl0aG9uJywgJy1waHQnLCAnMi4wJywgJy1waCcsICc3LjAnLCAnLXRuJywgJzgnLCAnLW1hJywgJzIwMCcsICctaW1hZScsICc8aW5maWxlLm1hZT4nLCAnLW9tYWUnLCAnPG91dGZpbGUubWFlPic=

>  <r_lp_tautomer_probability>  (365) 
1

>  <r_epik_Ionization_Penalty>  (365) 
4.30334e-08

>  <r_epik_Ionization_Penalty_Charging>  (365) 
0

>  <r_epik_Ionization_Penalty_Neutral>  (365) 
4.30334e-08

>  <r_epik_State_Penalty>  (365) 
-0

>  <r_epik_Charging_Adjusted_Penalty>  (365) 
0

>  <i_epik_Tot_Q>  (365) 
0

>  <i_epik_Tot_abs_Q>  (365) 
0

>  <s_lp_Force_Field>  (365) 
OPLS3e

>  <r_lp_Energy>  (365) 
133.519

>  <b_lp_Chiralities_Consistent>  (365) 
1

>  <s_lp_Variant>  (365) 
109:0-1

>  <s_i_glide_gridfile>  (365) 
pfpi4k_grid

>  <i_i_glide_lignum>  (365) 
21

>  <i_i_glide_rotatable_bonds>  (365) 
1

>  <r_i_docking_score>  (365) 
-3.88836

>  <r_i_glide_ligand_efficiency>  (365) 
-0.21602

>  <r_i_glide_ligand_efficiency_sa>  (365) 
-0.566133

>  <r_i_glide_ligand_efficiency_ln>  (365) 
-0.999483

>  <r_i_glide_gscore>  (365) 
-3.88836

>  <r_i_glide_lipo>  (365) 
-1.1748

>  <r_i_glide_hbond>  (365) 
0

>  <r_i_glide_metal>  (365) 
-0

>  <r_i_glide_rewards>  (365) 
-1.7707

>  <r_i_glide_evdw>  (365) 
-22.5479

>  <r_i_glide_ecoul>  (365) 
1.23023

>  <r_i_glide_erotb>  (365) 
0

>  <r_i_glide_esite>  (365) 
0

>  <r_i_glide_emodel>  (365) 
-26.4997

>  <r_i_glide_energy>  (365) 
-21.3177

>  <r_i_glide_einternal>  (365) 
0.0012783

>  <r_i_glide_intrahb_reward>  (365) 
-0

>  <i_i_glide_confnum>  (365) 
2

>  <i_i_glide_posenum>  (365) 
23

>  <r_i_glide_eff_state_penalty>  (365) 
0

>  <ligand_id>  (365) 
109

>  <original_smiles>  (365) 
C=C1C2CC3C1c1c4cccc1OC(C2O)C3C4

>  <smiles>  (365) 
[H]OC1([H])C2([H])Oc3c([H])c([H])c([H])c4c3C3([H])C(=C([H])[H])C1([H])C([H])([H])C3([H])C2([H])C4([H])[H]

$$$$
109:0:2
     RDKit          3D

 34 38  0  0  1  0  0  0  0  0999 V2000
    4.3345   -6.1306    0.4622 C   0  0  0  0  0  0  0  0  0  0  0  0
    4.6388   -4.8465    0.7031 C   0  0  0  0  0  0  0  0  0  0  0  0
    4.5344   -4.1759    2.0653 C   0  0  1  0  0  0  0  0  0  0  0  0
    5.8072   -3.3515    2.0638 C   0  0  0  0  0  0  0  0  0  0  0  0
    5.7578   -2.7493    0.6664 C   0  0  1  0  0  0  0  0  0  0  0  0
    5.3115   -3.8729   -0.2772 C   0  0  2  0  0  0  0  0  0  0  0  0
    4.4443   -3.2844   -1.4164 C   0  0  0  0  0  0  0  0  0  0  0  0
    4.8850   -2.0934   -2.0241 C   0  0  0  0  0  0  0  0  0  0  0  0
    4.1676   -1.7350   -3.1888 C   0  0  0  0  0  0  0  0  0  0  0  0
    2.9253   -2.3552   -3.4668 C   0  0  0  0  0  0  0  0  0  0  0  0
    2.3243   -3.1097   -2.4387 C   0  0  0  0  0  0  0  0  0  0  0  0
    3.0625   -3.4074   -1.2757 C   0  0  0  0  0  0  0  0  0  0  0  0
    2.5182   -3.2143   -0.0365 O   0  0  0  0  0  0  0  0  0  0  0  0
    3.2117   -2.3111    0.8854 C   0  0  1  0  0  0  0  0  0  0  0  0
    3.3484   -3.1801    2.1636 C   0  0  1  0  0  0  0  0  0  0  0  0
    2.1489   -3.8494    2.4988 O   0  0  0  0  0  0  0  0  0  0  0  0
    4.6587   -1.6781    0.5487 C   0  0  2  0  0  0  0  0  0  0  0  0
    4.9178   -1.0702   -0.8687 C   0  0  0  0  0  0  0  0  0  0  0  0
    4.4938   -6.5703   -0.5117 H   0  0  0  0  0  0  0  0  0  0  0  0
    3.9217   -6.7545    1.2416 H   0  0  0  0  0  0  0  0  0  0  0  0
    4.5267   -4.8944    2.8878 H   0  0  0  0  0  0  0  0  0  0  0  0
    5.8585   -2.6062    2.8591 H   0  0  0  0  0  0  0  0  0  0  0  0
    6.6731   -4.0079    2.1400 H   0  0  0  0  0  0  0  0  0  0  0  0
    6.7331   -2.3478    0.3907 H   0  0  0  0  0  0  0  0  0  0  0  0
    6.1767   -4.3701   -0.7109 H   0  0  0  0  0  0  0  0  0  0  0  0
    4.4092   -0.8310   -3.7354 H   0  0  0  0  0  0  0  0  0  0  0  0
    2.3266   -2.0543   -4.3136 H   0  0  0  0  0  0  0  0  0  0  0  0
    1.2661   -3.3112   -2.4858 H   0  0  0  0  0  0  0  0  0  0  0  0
    2.5267   -1.4850    1.0671 H   0  0  0  0  0  0  0  0  0  0  0  0
    3.5429   -2.5056    2.9948 H   0  0  0  0  0  0  0  0  0  0  0  0
    1.4759   -3.1954    2.6034 H   0  0  0  0  0  0  0  0  0  0  0  0
    4.8608   -0.9020    1.2829 H   0  0  0  0  0  0  0  0  0  0  0  0
    5.9049   -0.6119   -0.8815 H   0  0  0  0  0  0  0  0  0  0  0  0
    4.2032   -0.2699   -1.0515 H   0  0  0  0  0  0  0  0  0  0  0  0
  1  2  2  0
  1 19  1  0
  1 20  1  0
  2  6  1  0
  2  3  1  0
  3 15  1  0
  3  4  1  0
  3 21  1  1
  4  5  1  0
  4 22  1  0
  4 23  1  0
  5 17  1  0
  5  6  1  0
  5 24  1  6
  6  7  1  0
  6 25  1  6
  7 12  2  0
  7  8  1  0
  8 18  1  0
  8  9  2  0
  9 10  1  0
  9 26  1  0
 10 11  2  0
 10 27  1  0
 11 12  1  0
 11 28  1  0
 12 13  1  0
 13 14  1  0
 14 15  1  0
 14 17  1  0
 14 29  1  1
 15 16  1  0
 15 30  1  1
 16 31  1  0
 17 18  1  0
 17 32  1  1
 18 33  1  0
 18 34  1  0
M  END
>  <i_m_ct_stereo_status>  (366) 
1

>  <s_m_source_file>  (366) 
/var/tmp/pbs.5076255.sched01/tmpybatibx8/138x0dlab3k.sdf

>  <i_m_source_file_index>  (366) 
21

>  <i_lp_mmshare_version>  (366) 
48012

>  <i_f3d_flags>  (366) 
0

>  <s_epik_input>  (366) 
W0NIMl09QyhbQ0BASF0xMilbQ0BASF0zW0NASF0oW0NIMl0xKVtDQEBIXTRbQ0BIXShbQ0BIXTJbT0hdKU9jNWMzYyhbQ0gyXTQpW2NIXVtjSF1bY0hdNQ==

>  <s_epik_cmdline>  (366) 
J2VwaWtfcHl0aG9uJywgJy1waHQnLCAnMi4wJywgJy1waCcsICc3LjAnLCAnLXRuJywgJzgnLCAnLW1hJywgJzIwMCcsICctaW1hZScsICc8aW5maWxlLm1hZT4nLCAnLW9tYWUnLCAnPG91dGZpbGUubWFlPic=

>  <r_lp_tautomer_probability>  (366) 
1

>  <r_epik_Ionization_Penalty>  (366) 
4.30334e-08

>  <r_epik_Ionization_Penalty_Charging>  (366) 
0

>  <r_epik_Ionization_Penalty_Neutral>  (366) 
4.30334e-08

>  <r_epik_State_Penalty>  (366) 
-0

>  <r_epik_Charging_Adjusted_Penalty>  (366) 
0

>  <i_epik_Tot_Q>  (366) 
0

>  <i_epik_Tot_abs_Q>  (366) 
0

>  <s_lp_Force_Field>  (366) 
OPLS3e

>  <r_lp_Energy>  (366) 
133.519

>  <b_lp_Chiralities_Consistent>  (366) 
1

>  <s_lp_Variant>  (366) 
109:0-1

>  <s_i_glide_gridfile>  (366) 
pfpi4k_grid

>  <i_i_glide_lignum>  (366) 
21

>  <i_i_glide_rotatable_bonds>  (366) 
1

>  <r_i_docking_score>  (366) 
-3.88605

>  <r_i_glide_ligand_efficiency>  (366) 
-0.215892

>  <r_i_glide_ligand_efficiency_sa>  (366) 
-0.565796

>  <r_i_glide_ligand_efficiency_ln>  (366) 
-0.998889

>  <r_i_glide_gscore>  (366) 
-3.88605

>  <r_i_glide_lipo>  (366) 
-0.847859

>  <r_i_glide_hbond>  (366) 
0

>  <r_i_glide_metal>  (366) 
-0

>  <r_i_glide_rewards>  (366) 
-1.7707

>  <r_i_glide_evdw>  (366) 
-22.2861

>  <r_i_glide_ecoul>  (366) 
-1.02122

>  <r_i_glide_erotb>  (366) 
0

>  <r_i_glide_esite>  (366) 
0

>  <r_i_glide_emodel>  (366) 
-28.3682

>  <r_i_glide_energy>  (366) 
-23.3073

>  <r_i_glide_einternal>  (366) 
0.329304

>  <r_i_glide_intrahb_reward>  (366) 
-0

>  <i_i_glide_confnum>  (366) 
2

>  <i_i_glide_posenum>  (366) 
36

>  <r_i_glide_eff_state_penalty>  (366) 
0

>  <ligand_id>  (366) 
109

>  <original_smiles>  (366) 
C=C1C2CC3C1c1c4cccc1OC(C2O)C3C4

>  <smiles>  (366) 
[H]OC1([H])C2([H])Oc3c([H])c([H])c([H])c4c3C3([H])C(=C([H])[H])C1([H])C([H])([H])C3([H])C2([H])C4([H])[H]

$$$$
110:0:0
     RDKit          3D

 81 87  0  0  1  0  0  0  0  0999 V2000
    4.7416   -2.9359    9.5409 C   0  0  0  0  0  0  0  0  0  0  0  0
    4.0129   -3.5427    8.3411 C   0  0  0  0  0  0  0  0  0  0  0  0
    3.9516   -4.9883    8.2564 C   0  0  0  0  0  0  0  0  0  0  0  0
    2.9106   -5.6867    7.7552 C   0  0  0  0  0  0  0  0  0  0  0  0
    2.9150   -7.1271    7.6089 C   0  0  0  0  0  0  0  0  0  0  0  0
    1.9918   -7.7869    6.8742 C   0  0  0  0  0  0  0  0  0  0  0  0
    0.8511   -7.1674    6.0752 C   0  0  0  0  0  0  0  0  0  0  0  0
    0.2013   -8.3274    5.3070 C   0  0  0  0  0  0  0  0  0  0  0  0
    0.5613   -9.5830    6.1109 C   0  0  1  0  0  0  0  0  0  0  0  0
    0.6131  -10.8031    5.2817 N   0  0  0  0  0  0  0  0  0  0  0  0
    1.9266   -9.2944    6.7754 C   0  0  1  0  0  0  0  0  0  0  0  0
    3.1241   -9.8155    5.9624 C   0  0  0  0  0  0  0  0  0  0  0  0
    1.9597   -9.8484    8.0817 O   0  0  0  0  0  0  0  0  0  0  0  0
    3.4750   -2.7421    7.4008 C   0  0  0  0  0  0  0  0  0  0  0  0
    2.8313   -3.1405    6.0711 C   0  0  0  0  0  0  0  0  0  0  0  0
    1.5613   -2.5015    5.9356 O   0  0  0  0  0  0  0  0  0  0  0  0
    1.6474   -1.0577    6.0036 C   0  0  2  0  0  0  0  0  0  0  0  0
    0.1971   -0.4875    5.9149 C   0  0  0  0  0  0  0  0  0  0  0  0
   -0.4760   -0.7650    4.5567 C   0  0  0  0  0  0  0  0  0  0  0  0
    0.4073   -0.3120    3.3703 C   0  0  0  0  0  0  0  0  0  0  0  0
    1.8079   -0.9556    3.4000 C   0  0  2  0  0  0  0  0  0  0  0  0
    2.4765   -0.5775    4.7573 C   0  0  0  0  0  0  0  0  0  0  0  0
    2.6198   -0.4451    2.3294 O   0  0  0  0  0  0  0  0  0  0  0  0
    3.9699   -1.1334    2.3949 O   0  0  0  0  0  0  0  0  0  0  0  0
    3.7995   -2.5586    2.2042 C   0  0  0  0  0  0  0  0  0  0  0  0
    2.9424   -3.0840    3.2312 O   0  0  0  0  0  0  0  0  0  0  0  0
    1.6155   -2.3665    3.1798 O   0  0  0  0  0  0  0  0  0  0  0  0
    3.1740   -2.9219    0.8256 C   0  0  1  0  0  0  0  0  0  0  0  0
    4.1037   -2.4359   -0.3105 C   0  0  0  0  0  0  0  0  0  0  0  0
    5.4782   -3.1390   -0.2117 C   0  0  2  0  0  0  0  0  0  0  0  0
    5.3107   -4.6702   -0.3116 C   0  0  0  0  0  0  0  0  0  0  0  0
    4.4005   -5.1570    0.8317 C   0  0  2  0  0  0  0  0  0  0  0  0
    3.0242   -4.4663    0.7236 C   0  0  0  0  0  0  0  0  0  0  0  0
    5.0452   -4.8023    2.1865 C   0  0  0  0  0  0  0  0  0  0  0  0
    5.1959   -3.2615    2.2927 C   0  0  1  0  0  0  0  0  0  0  0  0
    6.1268   -2.7882    1.1438 C   0  0  0  0  0  0  0  0  0  0  0  0
    2.3403   -0.6297    7.3331 C   0  0  0  0  0  0  0  0  0  0  0  0
    1.9254    0.3082    8.0348 O   0  0  0  0  0  0  0  0  0  0  0  0
    3.4745   -1.3798    7.6337 O   0  0  0  0  0  0  0  0  0  0  0  0
    4.2735   -3.2791   10.4573 H   0  0  0  0  0  0  0  0  0  0  0  0
    4.7469   -1.8462    9.5482 H   0  0  0  0  0  0  0  0  0  0  0  0
    5.7854   -3.2518    9.5515 H   0  0  0  0  0  0  0  0  0  0  0  0
    4.8044   -5.5215    8.6223 H   0  0  0  0  0  0  0  0  0  0  0  0
    2.0108   -5.1750    7.4361 H   0  0  0  0  0  0  0  0  0  0  0  0
    3.6954   -7.7069    8.0891 H   0  0  0  0  0  0  0  0  0  0  0  0
    0.1304   -6.6992    6.7484 H   0  0  0  0  0  0  0  0  0  0  0  0
    1.2068   -6.4023    5.3839 H   0  0  0  0  0  0  0  0  0  0  0  0
   -0.8767   -8.2018    5.1851 H   0  0  0  0  0  0  0  0  0  0  0  0
    0.6397   -8.3839    4.3107 H   0  0  0  0  0  0  0  0  0  0  0  0
   -0.2003   -9.7210    6.8796 H   0  0  0  0  0  0  0  0  0  0  0  0
    1.2497  -10.6796    4.5346 H   0  0  0  0  0  0  0  0  0  0  0  0
   -0.3427  -10.9850    4.9275 H   0  0  0  0  0  0  0  0  0  0  0  0
    3.0887   -9.4355    4.9401 H   0  0  0  0  0  0  0  0  0  0  0  0
    3.1332  -10.9042    5.9265 H   0  0  0  0  0  0  0  0  0  0  0  0
    4.0747   -9.5070    6.3971 H   0  0  0  0  0  0  0  0  0  0  0  0
    1.8162  -10.8033    8.0407 H   0  0  0  0  0  0  0  0  0  0  0  0
    3.6006   -2.8121    5.3764 H   0  0  0  0  0  0  0  0  0  0  0  0
    2.7330   -4.2050    5.7921 H   0  0  0  0  0  0  0  0  0  0  0  0
   -0.4282   -0.8772    6.7198 H   0  0  0  0  0  0  0  0  0  0  0  0
    0.2187    0.5969    6.0629 H   0  0  0  0  0  0  0  0  0  0  0  0
   -0.6933   -1.8223    4.4643 H   0  0  0  0  0  0  0  0  0  0  0  0
   -1.4346   -0.2508    4.5116 H   0  0  0  0  0  0  0  0  0  0  0  0
   -0.0839   -0.5305    2.4161 H   0  0  0  0  0  0  0  0  0  0  0  0
    0.5111    0.7744    3.3926 H   0  0  0  0  0  0  0  0  0  0  0  0
    2.5085    0.5158    4.8264 H   0  0  0  0  0  0  0  0  0  0  0  0
    3.5503   -0.8580    4.7937 H   0  0  0  0  0  0  0  0  0  0  0  0
    2.1747   -2.4524    0.7115 H   0  0  0  0  0  0  0  0  0  0  0  0
    3.6417   -2.6376   -1.2810 H   0  0  0  0  0  0  0  0  0  0  0  0
    4.2394   -1.3569   -0.2304 H   0  0  0  0  0  0  0  0  0  0  0  0
    6.1201   -2.7984   -1.0199 H   0  0  0  0  0  0  0  0  0  0  0  0
    4.8882   -4.9497   -1.2782 H   0  0  0  0  0  0  0  0  0  0  0  0
    6.2837   -5.1623   -0.2526 H   0  0  0  0  0  0  0  0  0  0  0  0
    4.2864   -6.2391    0.7555 H   0  0  0  0  0  0  0  0  0  0  0  0
    2.3769   -4.8472    1.5098 H   0  0  0  0  0  0  0  0  0  0  0  0
    2.5537   -4.7451   -0.2195 H   0  0  0  0  0  0  0  0  0  0  0  0
    4.4454   -5.1929    3.0070 H   0  0  0  0  0  0  0  0  0  0  0  0
    6.0172   -5.2945    2.2811 H   0  0  0  0  0  0  0  0  0  0  0  0
    5.6656   -3.0259    3.2460 H   0  0  0  0  0  0  0  0  0  0  0  0
    7.1133   -3.2597    1.2251 H   0  0  0  0  0  0  0  0  0  0  0  0
    6.3022   -1.7137    1.2148 H   0  0  0  0  0  0  0  0  0  0  0  0
    0.8933  -11.5737    5.8742 H   0  0  0  0  0  0  0  0  0  0  0  0
  1  2  1  0
  1 40  1  0
  1 41  1  0
  1 42  1  0
  2  3  1  0
  2 14  2  3
  3  4  2  3
  3 43  1  0
  4  5  1  0
  4 44  1  0
  5  6  2  3
  5 45  1  0
  6 11  1  0
  6  7  1  0
  7  8  1  0
  7 46  1  0
  7 47  1  0
  8  9  1  0
  8 48  1  0
  8 49  1  0
  9 10  1  0
  9 11  1  0
  9 50  1  1
 10 51  1  0
 10 52  1  0
 10 81  1  0
 11 12  1  0
 11 13  1  1
 12 53  1  0
 12 54  1  0
 12 55  1  0
 13 56  1  0
 14 39  1  0
 14 15  1  0
 15 16  1  0
 15 57  1  0
 15 58  1  0
 17 16  1  1
 17 22  1  0
 17 18  1  0
 17 37  1  0
 18 19  1  0
 18 59  1  0
 18 60  1  0
 19 20  1  0
 19 61  1  0
 19 62  1  0
 20 21  1  0
 20 63  1  0
 20 64  1  0
 21 27  1  6
 21 22  1  0
 21 23  1  0
 22 65  1  0
 22 66  1  0
 23 24  1  0
 24 25  1  0
 25 35  1  0
 25 26  1  0
 25 28  1  0
 26 27  1  0
 28 33  1  0
 28 29  1  0
 28 67  1  6
 29 30  1  0
 29 68  1  0
 29 69  1  0
 30 36  1  0
 30 31  1  0
 30 70  1  6
 31 32  1  0
 31 71  1  0
 31 72  1  0
 32 33  1  0
 32 34  1  0
 32 73  1  1
 33 74  1  0
 33 75  1  0
 34 35  1  0
 34 76  1  0
 34 77  1  0
 35 36  1  0
 35 78  1  1
 36 79  1  0
 36 80  1  0
 37 38  2  0
 37 39  1  0
M  CHG  1  10   1
M  END
>  <i_m_ct_stereo_status>  (367) 
1

>  <s_m_source_file>  (367) 
/var/tmp/pbs.5076255.sched01/tmpybatibx8/138x0dlab3k.sdf

>  <i_m_source_file_index>  (367) 
22

>  <i_lp_mmshare_version>  (367) 
48012

>  <i_f3d_flags>  (367) 
0

>  <s_epik_input>  (367) 
W05IMl1bQ0BASF0xW0NIMl1bQ0gyXS9DKFtDQEBdMShbQ0gzXSlbT0hdKT1bQ0hdXFtDSF09W0NIXVxDKFxbQ0gzXSk9QyhPQzI9TykvW0NIMl1PW0NAQF0yM1tDSDJdW0NIMl1bQ0gyXUM0KFtDSDJdMylPT1tDQEBdNShPTzQpW0NASF02W0NIMl1bQ0BASF03W0NIMl1bQ0BIXShbQ0gyXTYpW0NIMl1bQ0BIXTVbQ0gyXTc=

>  <s_epik_cmdline>  (367) 
J2VwaWtfcHl0aG9uJywgJy1waHQnLCAnMi4wJywgJy1waCcsICc3LjAnLCAnLXRuJywgJzgnLCAnLW1hJywgJzIwMCcsICctaW1hZScsICc8aW5maWxlLm1hZT4nLCAnLW9tYWUnLCAnPG91dGZpbGUubWFlPic=

>  <r_epik_Ionization_Penalty>  (367) 
0.0231352

>  <r_epik_Ionization_Penalty_Charging>  (367) 
0.0231339

>  <r_epik_Ionization_Penalty_Neutral>  (367) 
1.32465e-06

>  <r_epik_State_Penalty>  (367) 
0.0187057

>  <r_epik_Charging_Adjusted_Penalty>  (367) 
0.0418396

>  <i_epik_Tot_Q>  (367) 
1

>  <i_epik_Tot_abs_Q>  (367) 
1

>  <s_lp_Force_Field>  (367) 
OPLS3e

>  <r_lp_Energy>  (367) 
16.6929

>  <b_lp_Chiralities_Consistent>  (367) 
1

>  <s_lp_Variant>  (367) 
110:0-1

>  <s_i_glide_gridfile>  (367) 
pfpi4k_grid

>  <i_i_glide_lignum>  (367) 
22

>  <i_i_glide_rotatable_bonds>  (367) 
3

>  <r_i_docking_score>  (367) 
-3.60084

>  <r_i_glide_ligand_efficiency>  (367) 
-0.0923292

>  <r_i_glide_ligand_efficiency_sa>  (367) 
-0.313108

>  <r_i_glide_ligand_efficiency_ln>  (367) 
-0.772122

>  <r_i_glide_gscore>  (367) 
-3.60084

>  <r_i_glide_lipo>  (367) 
-0.284729

>  <r_i_glide_hbond>  (367) 
-0.56

>  <r_i_glide_metal>  (367) 
-0

>  <r_i_glide_rewards>  (367) 
0

>  <r_i_glide_evdw>  (367) 
-23.419

>  <r_i_glide_ecoul>  (367) 
-10.8495

>  <r_i_glide_erotb>  (367) 
0.139555

>  <r_i_glide_esite>  (367) 
-0.0972882

>  <r_i_glide_emodel>  (367) 
-44.0313

>  <r_i_glide_energy>  (367) 
-34.2685

>  <r_i_glide_einternal>  (367) 
3.1825

>  <r_i_glide_intrahb_reward>  (367) 
-0

>  <i_i_glide_confnum>  (367) 
2

>  <i_i_glide_posenum>  (367) 
12

>  <r_i_glide_eff_state_penalty>  (367) 
0

>  <ligand_id>  (367) 
110

>  <original_smiles>  (367) 
CC(C=CC=C1CCC(N)C1(C)O)=C1COC2(CCCC3(C2)OOC2(OO3)C3CC4CC(C3)CC2C4)C(=O)O1

>  <smiles>  (367) 
[H]OC1(C([H])([H])[H])C(=C([H])C([H])=C([H])C(=C2OC(=O)C3(OC2([H])[H])C([H])([H])C([H])([H])C([H])([H])C2(OOC4(OO2)C2([H])C([H])([H])C5([H])C([H])([H])C([H])(C2([H])[H])C([H])([H])C4([H])C5([H])[H])C3([H])[H])C([H])([H])[H])C([H])([H])C([H])([H])C1([H])[N+]([H])([H])[H]

$$$$
110:0:1
     RDKit          3D

 81 87  0  0  1  0  0  0  0  0999 V2000
    1.6317   -2.4648    8.9400 C   0  0  0  0  0  0  0  0  0  0  0  0
    1.2394   -2.8527    7.5312 C   0  0  0  0  0  0  0  0  0  0  0  0
    0.6279   -4.1402    7.3136 C   0  0  0  0  0  0  0  0  0  0  0  0
    1.1730   -5.1618    6.6475 C   0  0  0  0  0  0  0  0  0  0  0  0
    0.4627   -6.4197    6.4497 C   0  0  0  0  0  0  0  0  0  0  0  0
    1.0021   -7.5253    5.9337 C   0  0  0  0  0  0  0  0  0  0  0  0
    2.4410   -7.6704    5.4789 C   0  0  0  0  0  0  0  0  0  0  0  0
    2.6520   -9.1595    5.2129 C   0  0  0  0  0  0  0  0  0  0  0  0
    1.2549   -9.7236    4.9342 C   0  0  1  0  0  0  0  0  0  0  0  0
    1.1588  -11.1618    5.2530 N   0  0  0  0  0  0  0  0  0  0  0  0
    0.2748   -8.8532    5.7546 C   0  0  1  0  0  0  0  0  0  0  0  0
   -0.0587   -9.4555    7.1349 C   0  0  0  0  0  0  0  0  0  0  0  0
   -0.9238   -8.6656    5.0183 O   0  0  0  0  0  0  0  0  0  0  0  0
    1.4263   -1.9920    6.5078 C   0  0  0  0  0  0  0  0  0  0  0  0
    1.1097   -2.2892    5.0520 C   0  0  0  0  0  0  0  0  0  0  0  0
    0.4357   -1.1843    4.4468 O   0  0  0  0  0  0  0  0  0  0  0  0
    1.1138    0.0808    4.5930 C   0  0  2  0  0  0  0  0  0  0  0  0
    0.1827    1.1815    4.0027 C   0  0  0  0  0  0  0  0  0  0  0  0
    0.0100    1.0638    2.4725 C   0  0  0  0  0  0  0  0  0  0  0  0
    1.3588    0.9927    1.7327 C   0  0  0  0  0  0  0  0  0  0  0  0
    2.2546   -0.1522    2.2661 C   0  0  2  0  0  0  0  0  0  0  0  0
    2.4658    0.0564    3.8020 C   0  0  0  0  0  0  0  0  0  0  0  0
    3.5200   -0.1162    1.6087 O   0  0  0  0  0  0  0  0  0  0  0  0
    4.3541   -1.2739    2.1258 O   0  0  0  0  0  0  0  0  0  0  0  0
    3.6937   -2.5105    1.8139 C   0  0  0  0  0  0  0  0  0  0  0  0
    2.4100   -2.5385    2.4271 O   0  0  0  0  0  0  0  0  0  0  0  0
    1.5980   -1.3785    1.9307 O   0  0  0  0  0  0  0  0  0  0  0  0
    3.5354   -2.7366    0.2822 C   0  0  1  0  0  0  0  0  0  0  0  0
    4.9287   -2.7946   -0.3842 C   0  0  0  0  0  0  0  0  0  0  0  0
    5.7530   -3.9748    0.1909 C   0  0  2  0  0  0  0  0  0  0  0  0
    5.0290   -5.3143   -0.0534 C   0  0  0  0  0  0  0  0  0  0  0  0
    3.6507   -5.2677    0.6255 C   0  0  2  0  0  0  0  0  0  0  0  0
    2.8275   -4.0964    0.0408 C   0  0  0  0  0  0  0  0  0  0  0  0
    3.8286   -5.0591    2.1422 C   0  0  0  0  0  0  0  0  0  0  0  0
    4.5432   -3.7039    2.3861 C   0  0  1  0  0  0  0  0  0  0  0  0
    5.9351   -3.7691    1.7072 C   0  0  0  0  0  0  0  0  0  0  0  0
    1.3741    0.3302    6.1064 C   0  0  0  0  0  0  0  0  0  0  0  0
    1.1728    1.4276    6.6478 O   0  0  0  0  0  0  0  0  0  0  0  0
    1.9008   -0.7357    6.7757 O   0  0  0  0  0  0  0  0  0  0  0  0
    0.7500   -2.4938    9.5802 H   0  0  0  0  0  0  0  0  0  0  0  0
    2.0729   -1.4718    9.0004 H   0  0  0  0  0  0  0  0  0  0  0  0
    2.3669   -3.1753    9.3196 H   0  0  0  0  0  0  0  0  0  0  0  0
   -0.3656   -4.2438    7.7261 H   0  0  0  0  0  0  0  0  0  0  0  0
    2.1688   -5.0433    6.2363 H   0  0  0  0  0  0  0  0  0  0  0  0
   -0.5751   -6.4518    6.7495 H   0  0  0  0  0  0  0  0  0  0  0  0
    2.5916   -7.0799    4.5743 H   0  0  0  0  0  0  0  0  0  0  0  0
    3.1251   -7.3104    6.2472 H   0  0  0  0  0  0  0  0  0  0  0  0
    3.3504   -9.3339    4.3935 H   0  0  0  0  0  0  0  0  0  0  0  0
    3.0679   -9.6243    6.1063 H   0  0  0  0  0  0  0  0  0  0  0  0
    1.0504   -9.5892    3.8675 H   0  0  0  0  0  0  0  0  0  0  0  0
    1.3874  -11.3555    6.2326 H   0  0  0  0  0  0  0  0  0  0  0  0
    1.7820  -11.7075    4.6771 H   0  0  0  0  0  0  0  0  0  0  0  0
    0.8527   -9.6804    7.6910 H   0  0  0  0  0  0  0  0  0  0  0  0
   -0.6106  -10.3909    7.0375 H   0  0  0  0  0  0  0  0  0  0  0  0
   -0.6581   -8.7960    7.7592 H   0  0  0  0  0  0  0  0  0  0  0  0
   -1.3944   -9.4995    4.9735 H   0  0  0  0  0  0  0  0  0  0  0  0
    2.0952   -2.4942    4.6476 H   0  0  0  0  0  0  0  0  0  0  0  0
    0.5481   -3.2088    4.8723 H   0  0  0  0  0  0  0  0  0  0  0  0
   -0.8052    1.1685    4.4754 H   0  0  0  0  0  0  0  0  0  0  0  0
    0.5795    2.1764    4.2040 H   0  0  0  0  0  0  0  0  0  0  0  0
   -0.5881    0.1801    2.2378 H   0  0  0  0  0  0  0  0  0  0  0  0
   -0.5649    1.9180    2.0972 H   0  0  0  0  0  0  0  0  0  0  0  0
    1.1836    0.8889    0.6648 H   0  0  0  0  0  0  0  0  0  0  0  0
    1.8764    1.9392    1.8576 H   0  0  0  0  0  0  0  0  0  0  0  0
    2.9059    1.0419    3.9299 H   0  0  0  0  0  0  0  0  0  0  0  0
    3.2215   -0.6307    4.2172 H   0  0  0  0  0  0  0  0  0  0  0  0
    2.9416   -1.9376   -0.1782 H   0  0  0  0  0  0  0  0  0  0  0  0
    4.8298   -2.9060   -1.4677 H   0  0  0  0  0  0  0  0  0  0  0  0
    5.4654   -1.8604   -0.1999 H   0  0  0  0  0  0  0  0  0  0  0  0
    6.7323   -4.0083   -0.2913 H   0  0  0  0  0  0  0  0  0  0  0  0
    4.9140   -5.4950   -1.1206 H   0  0  0  0  0  0  0  0  0  0  0  0
    5.6193   -6.1463    0.3346 H   0  0  0  0  0  0  0  0  0  0  0  0
    3.1368   -6.2143    0.4420 H   0  0  0  0  0  0  0  0  0  0  0  0
    1.8426   -4.1064    0.5011 H   0  0  0  0  0  0  0  0  0  0  0  0
    2.6656   -4.2583   -1.0262 H   0  0  0  0  0  0  0  0  0  0  0  0
    2.8631   -5.0904    2.6476 H   0  0  0  0  0  0  0  0  0  0  0  0
    4.4047   -5.8824    2.5672 H   0  0  0  0  0  0  0  0  0  0  0  0
    4.6805   -3.5736    3.4585 H   0  0  0  0  0  0  0  0  0  0  0  0
    6.5328   -4.5832    2.1243 H   0  0  0  0  0  0  0  0  0  0  0  0
    6.4982   -2.8549    1.8965 H   0  0  0  0  0  0  0  0  0  0  0  0
    0.2028  -11.4575    5.1095 H   0  0  0  0  0  0  0  0  0  0  0  0
  1  2  1  0
  1 40  1  0
  1 41  1  0
  1 42  1  0
  2  3  1  0
  2 14  2  3
  3  4  2  3
  3 43  1  0
  4  5  1  0
  4 44  1  0
  5  6  2  3
  5 45  1  0
  6 11  1  0
  6  7  1  0
  7  8  1  0
  7 46  1  0
  7 47  1  0
  8  9  1  0
  8 48  1  0
  8 49  1  0
  9 10  1  0
  9 11  1  0
  9 50  1  6
 10 51  1  0
 10 52  1  0
 10 81  1  0
 11 12  1  0
 11 13  1  6
 12 53  1  0
 12 54  1  0
 12 55  1  0
 13 56  1  0
 14 39  1  0
 14 15  1  0
 15 16  1  0
 15 57  1  0
 15 58  1  0
 17 16  1  1
 17 22  1  0
 17 18  1  0
 17 37  1  0
 18 19  1  0
 18 59  1  0
 18 60  1  0
 19 20  1  0
 19 61  1  0
 19 62  1  0
 20 21  1  0
 20 63  1  0
 20 64  1  0
 21 27  1  1
 21 22  1  0
 21 23  1  0
 22 65  1  0
 22 66  1  0
 23 24  1  0
 24 25  1  0
 25 35  1  0
 25 26  1  0
 25 28  1  0
 26 27  1  0
 28 33  1  0
 28 29  1  0
 28 67  1  6
 29 30  1  0
 29 68  1  0
 29 69  1  0
 30 36  1  0
 30 31  1  0
 30 70  1  6
 31 32  1  0
 31 71  1  0
 31 72  1  0
 32 33  1  0
 32 34  1  0
 32 73  1  1
 33 74  1  0
 33 75  1  0
 34 35  1  0
 34 76  1  0
 34 77  1  0
 35 36  1  0
 35 78  1  1
 36 79  1  0
 36 80  1  0
 37 38  2  0
 37 39  1  0
M  CHG  1  10   1
M  END
>  <i_m_ct_stereo_status>  (368) 
1

>  <s_m_source_file>  (368) 
/var/tmp/pbs.5076255.sched01/tmpybatibx8/138x0dlab3k.sdf

>  <i_m_source_file_index>  (368) 
22

>  <i_lp_mmshare_version>  (368) 
48012

>  <i_f3d_flags>  (368) 
0

>  <s_epik_input>  (368) 
W05IMl1bQ0BASF0xW0NIMl1bQ0gyXS9DKFtDQEBdMShbQ0gzXSlbT0hdKT1bQ0hdXFtDSF09W0NIXVxDKFxbQ0gzXSk9QyhPQzI9TykvW0NIMl1PW0NAQF0yM1tDSDJdW0NIMl1bQ0gyXUM0KFtDSDJdMylPT1tDQEBdNShPTzQpW0NASF02W0NIMl1bQ0BASF03W0NIMl1bQ0BIXShbQ0gyXTYpW0NIMl1bQ0BIXTVbQ0gyXTc=

>  <s_epik_cmdline>  (368) 
J2VwaWtfcHl0aG9uJywgJy1waHQnLCAnMi4wJywgJy1waCcsICc3LjAnLCAnLXRuJywgJzgnLCAnLW1hJywgJzIwMCcsICctaW1hZScsICc8aW5maWxlLm1hZT4nLCAnLW9tYWUnLCAnPG91dGZpbGUubWFlPic=

>  <r_epik_Ionization_Penalty>  (368) 
0.0231352

>  <r_epik_Ionization_Penalty_Charging>  (368) 
0.0231339

>  <r_epik_Ionization_Penalty_Neutral>  (368) 
1.32465e-06

>  <r_epik_State_Penalty>  (368) 
0.0187057

>  <r_epik_Charging_Adjusted_Penalty>  (368) 
0.0418396

>  <i_epik_Tot_Q>  (368) 
1

>  <i_epik_Tot_abs_Q>  (368) 
1

>  <s_lp_Force_Field>  (368) 
OPLS3e

>  <r_lp_Energy>  (368) 
16.6929

>  <b_lp_Chiralities_Consistent>  (368) 
1

>  <s_lp_Variant>  (368) 
110:0-1

>  <s_i_glide_gridfile>  (368) 
pfpi4k_grid

>  <i_i_glide_lignum>  (368) 
22

>  <i_i_glide_rotatable_bonds>  (368) 
3

>  <r_i_docking_score>  (368) 
-3.38091

>  <r_i_glide_ligand_efficiency>  (368) 
-0.0866901

>  <r_i_glide_ligand_efficiency_sa>  (368) 
-0.293984

>  <r_i_glide_ligand_efficiency_ln>  (368) 
-0.724964

>  <r_i_glide_gscore>  (368) 
-3.38091

>  <r_i_glide_lipo>  (368) 
-0.160163

>  <r_i_glide_hbond>  (368) 
-0.375887

>  <r_i_glide_metal>  (368) 
-0

>  <r_i_glide_rewards>  (368) 
0

>  <r_i_glide_evdw>  (368) 
-29.4447

>  <r_i_glide_ecoul>  (368) 
-9.23904

>  <r_i_glide_erotb>  (368) 
0.139555

>  <r_i_glide_esite>  (368) 
-0.126327

>  <r_i_glide_emodel>  (368) 
-47.4808

>  <r_i_glide_energy>  (368) 
-38.6837

>  <r_i_glide_einternal>  (368) 
4.85379

>  <r_i_glide_intrahb_reward>  (368) 
-0

>  <i_i_glide_confnum>  (368) 
3

>  <i_i_glide_posenum>  (368) 
4

>  <r_i_glide_eff_state_penalty>  (368) 
0

>  <ligand_id>  (368) 
110

>  <original_smiles>  (368) 
CC(C=CC=C1CCC(N)C1(C)O)=C1COC2(CCCC3(C2)OOC2(OO3)C3CC4CC(C3)CC2C4)C(=O)O1

>  <smiles>  (368) 
[H]OC1(C([H])([H])[H])C(=C([H])C([H])=C([H])C(=C2OC(=O)C3(OC2([H])[H])C([H])([H])C([H])([H])C([H])([H])C2(OOC4(OO2)C2([H])C([H])([H])C5([H])C([H])([H])C([H])(C2([H])[H])C([H])([H])C4([H])C5([H])[H])C3([H])[H])C([H])([H])[H])C([H])([H])C([H])([H])C1([H])[N+]([H])([H])[H]

$$$$
110:0:2
     RDKit          3D

 81 87  0  0  1  0  0  0  0  0999 V2000
    1.7051   -2.9984    8.9209 C   0  0  0  0  0  0  0  0  0  0  0  0
    1.3197   -3.3082    7.4763 C   0  0  0  0  0  0  0  0  0  0  0  0
    0.8320   -4.6510    7.1822 C   0  0  0  0  0  0  0  0  0  0  0  0
    1.0723   -5.3769    6.0944 C   0  0  0  0  0  0  0  0  0  0  0  0
    0.4218   -6.6349    5.8162 C   0  0  0  0  0  0  0  0  0  0  0  0
    0.5094   -7.2730    4.6248 C   0  0  0  0  0  0  0  0  0  0  0  0
    1.2259   -6.7505    3.3960 C   0  0  0  0  0  0  0  0  0  0  0  0
    1.2802   -7.9164    2.4041 C   0  0  0  0  0  0  0  0  0  0  0  0
    0.1216   -8.8283    2.8235 C   0  0  1  0  0  0  0  0  0  0  0  0
    0.3519  -10.2348    2.4584 N   0  0  0  0  0  0  0  0  0  0  0  0
   -0.0524   -8.6377    4.3447 C   0  0  1  0  0  0  0  0  0  0  0  0
    0.7039   -9.6793    5.1953 C   0  0  0  0  0  0  0  0  0  0  0  0
   -1.4230   -8.6510    4.6586 O   0  0  0  0  0  0  0  0  0  0  0  0
    1.3494   -2.3330    6.5545 C   0  0  0  0  0  0  0  0  0  0  0  0
    1.0092   -2.4783    5.0630 C   0  0  0  0  0  0  0  0  0  0  0  0
    0.2720   -1.3696    4.5836 O   0  0  0  0  0  0  0  0  0  0  0  0
    0.8614   -0.0968    4.8464 C   0  0  2  0  0  0  0  0  0  0  0  0
   -0.1930    0.9307    4.3564 C   0  0  0  0  0  0  0  0  0  0  0  0
   -0.3936    0.9148    2.8178 C   0  0  0  0  0  0  0  0  0  0  0  0
    0.9368    1.0069    2.0423 C   0  0  0  0  0  0  0  0  0  0  0  0
    1.9414   -0.0884    2.4684 C   0  0  2  0  0  0  0  0  0  0  0  0
    2.1826    0.0308    4.0139 C   0  0  0  0  0  0  0  0  0  0  0  0
    3.1789    0.1192    1.7945 O   0  0  0  0  0  0  0  0  0  0  0  0
    4.1197   -0.9935    2.1928 O   0  0  0  0  0  0  0  0  0  0  0  0
    3.5754   -2.2550    1.7987 C   0  0  0  0  0  0  0  0  0  0  0  0
    2.3183   -2.4591    2.4221 O   0  0  0  0  0  0  0  0  0  0  0  0
    1.3833   -1.3406    2.0618 O   0  0  0  0  0  0  0  0  0  0  0  0
    3.4057   -2.3726    0.2642 C   0  0  1  0  0  0  0  0  0  0  0  0
    4.7783   -2.2430   -0.4364 C   0  0  0  0  0  0  0  0  0  0  0  0
    5.7245   -3.3831    0.0234 C   0  0  2  0  0  0  0  0  0  0  0  0
    5.1222   -4.7601   -0.3238 C   0  0  0  0  0  0  0  0  0  0  0  0
    3.7667   -4.8963    0.3792 C   0  0  2  0  0  0  0  0  0  0  0  0
    2.8219   -3.7686   -0.0917 C   0  0  0  0  0  0  0  0  0  0  0  0
    3.9642   -4.7842    1.8985 C   0  0  0  0  0  0  0  0  0  0  0  0
    4.5525   -3.3994    2.2505 C   0  0  1  0  0  0  0  0  0  0  0  0
    5.9263   -3.2813    1.5497 C   0  0  0  0  0  0  0  0  0  0  0  0
    1.1195    0.0307    6.3780 C   0  0  0  0  0  0  0  0  0  0  0  0
    0.8234    1.0551    7.0143 O   0  0  0  0  0  0  0  0  0  0  0  0
    1.7034   -1.0598    6.9514 O   0  0  0  0  0  0  0  0  0  0  0  0
    0.8427   -3.1562    9.5706 H   0  0  0  0  0  0  0  0  0  0  0  0
    2.0477   -1.9725    9.0646 H   0  0  0  0  0  0  0  0  0  0  0  0
    2.5092   -3.6608    9.2429 H   0  0  0  0  0  0  0  0  0  0  0  0
    0.1678   -5.0401    7.9465 H   0  0  0  0  0  0  0  0  0  0  0  0
    1.7828   -4.9958    5.3570 H   0  0  0  0  0  0  0  0  0  0  0  0
   -0.1573   -7.1122    6.6036 H   0  0  0  0  0  0  0  0  0  0  0  0
    0.6963   -5.8970    2.9667 H   0  0  0  0  0  0  0  0  0  0  0  0
    2.2314   -6.4549    3.6728 H   0  0  0  0  0  0  0  0  0  0  0  0
    1.2222   -7.5928    1.3600 H   0  0  0  0  0  0  0  0  0  0  0  0
    2.2341   -8.4290    2.5273 H   0  0  0  0  0  0  0  0  0  0  0  0
   -0.7719   -8.4800    2.2993 H   0  0  0  0  0  0  0  0  0  0  0  0
    1.2141  -10.5477    2.8891 H   0  0  0  0  0  0  0  0  0  0  0  0
    0.4119  -10.3072    1.4554 H   0  0  0  0  0  0  0  0  0  0  0  0
    1.7620   -9.7108    4.9249 H   0  0  0  0  0  0  0  0  0  0  0  0
    0.2887  -10.6787    5.0702 H   0  0  0  0  0  0  0  0  0  0  0  0
    0.6484   -9.4566    6.2611 H   0  0  0  0  0  0  0  0  0  0  0  0
   -1.6869   -9.5789    4.8777 H   0  0  0  0  0  0  0  0  0  0  0  0
    2.0011   -2.6172    4.6424 H   0  0  0  0  0  0  0  0  0  0  0  0
    0.4200   -3.3382    4.7522 H   0  0  0  0  0  0  0  0  0  0  0  0
   -1.1659    0.7554    4.8328 H   0  0  0  0  0  0  0  0  0  0  0  0
    0.0979    1.9421    4.6358 H   0  0  0  0  0  0  0  0  0  0  0  0
   -0.9211    0.0047    2.5348 H   0  0  0  0  0  0  0  0  0  0  0  0
   -1.0638    1.7353    2.5235 H   0  0  0  0  0  0  0  0  0  0  0  0
    0.7449    0.9620    0.9694 H   0  0  0  0  0  0  0  0  0  0  0  0
    1.3689    1.9843    2.2311 H   0  0  0  0  0  0  0  0  0  0  0  0
    2.5393    1.0373    4.2112 H   0  0  0  0  0  0  0  0  0  0  0  0
    3.0072   -0.6196    4.3618 H   0  0  0  0  0  0  0  0  0  0  0  0
    2.7277   -1.6026   -0.1242 H   0  0  0  0  0  0  0  0  0  0  0  0
    4.6622   -2.2789   -1.5286 H   0  0  0  0  0  0  0  0  0  0  0  0
    5.2303   -1.2781   -0.1864 H   0  0  0  0  0  0  0  0  0  0  0  0
    6.6893   -3.2882   -0.4748 H   0  0  0  0  0  0  0  0  0  0  0  0
    4.9899   -4.8659   -1.4003 H   0  0  0  0  0  0  0  0  0  0  0  0
    5.7911   -5.5644   -0.0140 H   0  0  0  0  0  0  0  0  0  0  0  0
    3.3344   -5.8681    0.1351 H   0  0  0  0  0  0  0  0  0  0  0  0
    1.8515   -3.9121    0.3812 H   0  0  0  0  0  0  0  0  0  0  0  0
    2.6451   -3.8650   -1.1696 H   0  0  0  0  0  0  0  0  0  0  0  0
    3.0074   -4.8950    2.3942 H   0  0  0  0  0  0  0  0  0  0  0  0
    4.6050   -5.5910    2.2604 H   0  0  0  0  0  0  0  0  0  0  0  0
    4.6957   -3.3493    3.3281 H   0  0  0  0  0  0  0  0  0  0  0  0
    6.5982   -4.0736    1.8920 H   0  0  0  0  0  0  0  0  0  0  0  0
    6.4093   -2.3375    1.8089 H   0  0  0  0  0  0  0  0  0  0  0  0
   -0.4136  -10.7994    2.8035 H   0  0  0  0  0  0  0  0  0  0  0  0
  1  2  1  0
  1 40  1  0
  1 41  1  0
  1 42  1  0
  2  3  1  0
  2 14  2  3
  3  4  2  3
  3 43  1  0
  4  5  1  0
  4 44  1  0
  5  6  2  3
  5 45  1  0
  6 11  1  0
  6  7  1  0
  7  8  1  0
  7 46  1  0
  7 47  1  0
  8  9  1  0
  8 48  1  0
  8 49  1  0
  9 10  1  0
  9 11  1  0
  9 50  1  6
 10 51  1  0
 10 52  1  0
 10 81  1  0
 11 12  1  0
 11 13  1  6
 12 53  1  0
 12 54  1  0
 12 55  1  0
 13 56  1  0
 14 39  1  0
 14 15  1  0
 15 16  1  0
 15 57  1  0
 15 58  1  0
 17 16  1  1
 17 22  1  0
 17 18  1  0
 17 37  1  0
 18 19  1  0
 18 59  1  0
 18 60  1  0
 19 20  1  0
 19 61  1  0
 19 62  1  0
 20 21  1  0
 20 63  1  0
 20 64  1  0
 21 27  1  1
 21 22  1  0
 21 23  1  0
 22 65  1  0
 22 66  1  0
 23 24  1  0
 24 25  1  0
 25 35  1  0
 25 26  1  0
 25 28  1  0
 26 27  1  0
 28 33  1  0
 28 29  1  0
 28 67  1  6
 29 30  1  0
 29 68  1  0
 29 69  1  0
 30 36  1  0
 30 31  1  0
 30 70  1  6
 31 32  1  0
 31 71  1  0
 31 72  1  0
 32 33  1  0
 32 34  1  0
 32 73  1  1
 33 74  1  0
 33 75  1  0
 34 35  1  0
 34 76  1  0
 34 77  1  0
 35 36  1  0
 35 78  1  1
 36 79  1  0
 36 80  1  0
 37 38  2  0
 37 39  1  0
M  CHG  1  10   1
M  END
>  <i_m_ct_stereo_status>  (369) 
1

>  <s_m_source_file>  (369) 
/var/tmp/pbs.5076255.sched01/tmpybatibx8/138x0dlab3k.sdf

>  <i_m_source_file_index>  (369) 
22

>  <i_lp_mmshare_version>  (369) 
48012

>  <i_f3d_flags>  (369) 
0

>  <s_epik_input>  (369) 
W05IMl1bQ0BASF0xW0NIMl1bQ0gyXS9DKFtDQEBdMShbQ0gzXSlbT0hdKT1bQ0hdXFtDSF09W0NIXVxDKFxbQ0gzXSk9QyhPQzI9TykvW0NIMl1PW0NAQF0yM1tDSDJdW0NIMl1bQ0gyXUM0KFtDSDJdMylPT1tDQEBdNShPTzQpW0NASF02W0NIMl1bQ0BASF03W0NIMl1bQ0BIXShbQ0gyXTYpW0NIMl1bQ0BIXTVbQ0gyXTc=

>  <s_epik_cmdline>  (369) 
J2VwaWtfcHl0aG9uJywgJy1waHQnLCAnMi4wJywgJy1waCcsICc3LjAnLCAnLXRuJywgJzgnLCAnLW1hJywgJzIwMCcsICctaW1hZScsICc8aW5maWxlLm1hZT4nLCAnLW9tYWUnLCAnPG91dGZpbGUubWFlPic=

>  <r_epik_Ionization_Penalty>  (369) 
0.0231352

>  <r_epik_Ionization_Penalty_Charging>  (369) 
0.0231339

>  <r_epik_Ionization_Penalty_Neutral>  (369) 
1.32465e-06

>  <r_epik_State_Penalty>  (369) 
0.0187057

>  <r_epik_Charging_Adjusted_Penalty>  (369) 
0.0418396

>  <i_epik_Tot_Q>  (369) 
1

>  <i_epik_Tot_abs_Q>  (369) 
1

>  <s_lp_Force_Field>  (369) 
OPLS3e

>  <r_lp_Energy>  (369) 
16.6929

>  <b_lp_Chiralities_Consistent>  (369) 
1

>  <s_lp_Variant>  (369) 
110:0-1

>  <s_i_glide_gridfile>  (369) 
pfpi4k_grid

>  <i_i_glide_lignum>  (369) 
22

>  <i_i_glide_rotatable_bonds>  (369) 
3

>  <r_i_docking_score>  (369) 
-3.32015

>  <r_i_glide_ligand_efficiency>  (369) 
-0.0851321

>  <r_i_glide_ligand_efficiency_sa>  (369) 
-0.288701

>  <r_i_glide_ligand_efficiency_ln>  (369) 
-0.711935

>  <r_i_glide_gscore>  (369) 
-3.32015

>  <r_i_glide_lipo>  (369) 
-0.192999

>  <r_i_glide_hbond>  (369) 
-0.16

>  <r_i_glide_metal>  (369) 
-0

>  <r_i_glide_rewards>  (369) 
0

>  <r_i_glide_evdw>  (369) 
-31.3492

>  <r_i_glide_ecoul>  (369) 
-10.0605

>  <r_i_glide_erotb>  (369) 
0.139555

>  <r_i_glide_esite>  (369) 
-0.030167

>  <r_i_glide_emodel>  (369) 
-49.917

>  <r_i_glide_energy>  (369) 
-41.4098

>  <r_i_glide_einternal>  (369) 
3.48121

>  <r_i_glide_intrahb_reward>  (369) 
-0

>  <i_i_glide_confnum>  (369) 
2

>  <i_i_glide_posenum>  (369) 
6

>  <r_i_glide_eff_state_penalty>  (369) 
0

>  <ligand_id>  (369) 
110

>  <original_smiles>  (369) 
CC(C=CC=C1CCC(N)C1(C)O)=C1COC2(CCCC3(C2)OOC2(OO3)C3CC4CC(C3)CC2C4)C(=O)O1

>  <smiles>  (369) 
[H]OC1(C([H])([H])[H])C(=C([H])C([H])=C([H])C(=C2OC(=O)C3(OC2([H])[H])C([H])([H])C([H])([H])C([H])([H])C2(OOC4(OO2)C2([H])C([H])([H])C5([H])C([H])([H])C([H])(C2([H])[H])C([H])([H])C4([H])C5([H])[H])C3([H])[H])C([H])([H])[H])C([H])([H])C([H])([H])C1([H])[N+]([H])([H])[H]

$$$$
110:1:0
     RDKit          3D

 81 87  0  0  1  0  0  0  0  0999 V2000
    0.5022    3.9723    3.7042 C   0  0  0  0  0  0  0  0  0  0  0  0
   -0.7556    3.7585    4.5493 C   0  0  0  0  0  0  0  0  0  0  0  0
   -2.0551    4.1468    3.9813 C   0  0  0  0  0  0  0  0  0  0  0  0
   -2.2374    4.9233    2.8917 C   0  0  0  0  0  0  0  0  0  0  0  0
   -3.5534    5.2803    2.4048 C   0  0  0  0  0  0  0  0  0  0  0  0
   -3.7976    6.3478    1.6169 C   0  0  0  0  0  0  0  0  0  0  0  0
   -2.7736    7.3625    1.1830 C   0  0  0  0  0  0  0  0  0  0  0  0
   -3.4695    8.2697    0.1684 C   0  0  0  0  0  0  0  0  0  0  0  0
   -4.9518    8.1659    0.4866 C   0  0  1  0  0  0  0  0  0  0  0  0
   -5.7745    8.4270   -0.7172 N   0  0  0  0  0  0  0  0  0  0  0  0
   -5.1523    6.7372    1.0397 C   0  0  1  0  0  0  0  0  0  0  0  0
   -5.5646    5.7416   -0.0343 C   0  0  0  0  0  0  0  0  0  0  0  0
   -6.1572    6.7488    2.0309 O   0  0  0  0  0  0  0  0  0  0  0  0
   -0.7291    3.2278    5.7784 C   0  0  0  0  0  0  0  0  0  0  0  0
    0.4762    2.7035    6.5641 C   0  0  0  0  0  0  0  0  0  0  0  0
    0.4943    3.2167    7.8809 O   0  0  0  0  0  0  0  0  0  0  0  0
   -0.7002    2.9950    8.6230 C   0  0  2  0  0  0  0  0  0  0  0  0
   -0.5837    3.7193   10.0064 C   0  0  0  0  0  0  0  0  0  0  0  0
    0.4587    3.1005   10.9614 C   0  0  0  0  0  0  0  0  0  0  0  0
    0.2649    1.5785   11.1567 C   0  0  0  0  0  0  0  0  0  0  0  0
    0.2309    0.8489    9.7888 C   0  0  2  0  0  0  0  0  0  0  0  0
   -0.8629    1.4662    8.8840 C   0  0  0  0  0  0  0  0  0  0  0  0
   -0.0811   -0.5218    9.9280 O   0  0  0  0  0  0  0  0  0  0  0  0
    1.0005   -1.2069   10.7098 O   0  0  0  0  0  0  0  0  0  0  0  0
    2.2458   -1.0567   10.0559 C   0  0  0  0  0  0  0  0  0  0  0  0
    2.5190    0.3186    9.9395 O   0  0  0  0  0  0  0  0  0  0  0  0
    1.4569    0.9684    9.1098 O   0  0  0  0  0  0  0  0  0  0  0  0
    3.3449   -1.6744   10.9711 C   0  0  2  0  0  0  0  0  0  0  0  0
    4.7485   -1.4930   10.3157 C   0  0  0  0  0  0  0  0  0  0  0  0
    4.8042   -2.2225    8.9561 C   0  0  1  0  0  0  0  0  0  0  0  0
    4.5391   -3.7302    9.1469 C   0  0  0  0  0  0  0  0  0  0  0  0
    3.1413   -3.9133    9.7683 C   0  0  1  0  0  0  0  0  0  0  0  0
    3.0916   -3.2022   11.1393 C   0  0  0  0  0  0  0  0  0  0  0  0
    2.0642   -3.3011    8.8427 C   0  0  0  0  0  0  0  0  0  0  0  0
    2.3161   -1.7794    8.6715 C   0  0  2  0  0  0  0  0  0  0  0  0
    3.7268   -1.6128    8.0333 C   0  0  0  0  0  0  0  0  0  0  0  0
   -1.8700    3.5448    7.7921 C   0  0  0  0  0  0  0  0  0  0  0  0
   -2.8110    4.1812    8.3049 O   0  0  0  0  0  0  0  0  0  0  0  0
   -1.9050    3.2327    6.5120 O   0  0  0  0  0  0  0  0  0  0  0  0
    0.5088    4.9784    3.2849 H   0  0  0  0  0  0  0  0  0  0  0  0
    0.5226    3.2654    2.8773 H   0  0  0  0  0  0  0  0  0  0  0  0
    1.4432    3.8799    4.2296 H   0  0  0  0  0  0  0  0  0  0  0  0
   -2.9460    3.7769    4.4767 H   0  0  0  0  0  0  0  0  0  0  0  0
   -1.3859    5.2901    2.3422 H   0  0  0  0  0  0  0  0  0  0  0  0
   -4.3724    4.6085    2.5988 H   0  0  0  0  0  0  0  0  0  0  0  0
   -2.4654    7.9570    2.0420 H   0  0  0  0  0  0  0  0  0  0  0  0
   -1.8762    6.9138    0.7575 H   0  0  0  0  0  0  0  0  0  0  0  0
   -3.1197    9.3026    0.2231 H   0  0  0  0  0  0  0  0  0  0  0  0
   -3.2485    7.9022   -0.8335 H   0  0  0  0  0  0  0  0  0  0  0  0
   -5.2086    8.9014    1.2502 H   0  0  0  0  0  0  0  0  0  0  0  0
   -5.5685    7.7049   -1.3884 H   0  0  0  0  0  0  0  0  0  0  0  0
   -5.5662    9.3361   -1.1092 H   0  0  0  0  0  0  0  0  0  0  0  0
   -4.8389    5.7463   -0.8502 H   0  0  0  0  0  0  0  0  0  0  0  0
   -6.5637    5.9218   -0.4373 H   0  0  0  0  0  0  0  0  0  0  0  0
   -5.5796    4.7349    0.3842 H   0  0  0  0  0  0  0  0  0  0  0  0
   -6.5684    5.8948    2.0531 H   0  0  0  0  0  0  0  0  0  0  0  0
    0.4645    1.6145    6.5497 H   0  0  0  0  0  0  0  0  0  0  0  0
    1.4297    2.9621    6.1209 H   0  0  0  0  0  0  0  0  0  0  0  0
   -0.3919    4.7918    9.8893 H   0  0  0  0  0  0  0  0  0  0  0  0
   -1.5407    3.6717   10.5283 H   0  0  0  0  0  0  0  0  0  0  0  0
    1.4520    3.2959   10.5553 H   0  0  0  0  0  0  0  0  0  0  0  0
    0.4149    3.6106   11.9332 H   0  0  0  0  0  0  0  0  0  0  0  0
    1.0335    1.1922   11.8278 H   0  0  0  0  0  0  0  0  0  0  0  0
   -0.6813    1.4182   11.6794 H   0  0  0  0  0  0  0  0  0  0  0  0
   -1.7995    1.3933    9.4205 H   0  0  0  0  0  0  0  0  0  0  0  0
   -1.0131    0.8726    7.9753 H   0  0  0  0  0  0  0  0  0  0  0  0
    3.3346   -1.1979   11.9617 H   0  0  0  0  0  0  0  0  0  0  0  0
    4.9699   -0.4337   10.1685 H   0  0  0  0  0  0  0  0  0  0  0  0
    5.5348   -1.8768   10.9655 H   0  0  0  0  0  0  0  0  0  0  0  0
    5.7944   -2.0924    8.5131 H   0  0  0  0  0  0  0  0  0  0  0  0
    4.6004   -4.2510    8.1914 H   0  0  0  0  0  0  0  0  0  0  0  0
    5.3039   -4.1814    9.7827 H   0  0  0  0  0  0  0  0  0  0  0  0
    2.9525   -4.9816    9.9038 H   0  0  0  0  0  0  0  0  0  0  0  0
    3.8242   -3.6495   11.8133 H   0  0  0  0  0  0  0  0  0  0  0  0
    2.1184   -3.3718   11.6013 H   0  0  0  0  0  0  0  0  0  0  0  0
    2.0806   -3.8103    7.8733 H   0  0  0  0  0  0  0  0  0  0  0  0
    1.0721   -3.4736    9.2623 H   0  0  0  0  0  0  0  0  0  0  0  0
    1.5761   -1.3786    7.9792 H   0  0  0  0  0  0  0  0  0  0  0  0
    3.9485   -0.5586    7.8618 H   0  0  0  0  0  0  0  0  0  0  0  0
    3.7756   -2.0928    7.0503 H   0  0  0  0  0  0  0  0  0  0  0  0
   -6.7384    8.3590   -0.4529 H   0  0  0  0  0  0  0  0  0  0  0  0
  1  2  1  0
  1 40  1  0
  1 41  1  0
  1 42  1  0
  2  3  1  0
  2 14  2  3
  3  4  2  3
  3 43  1  0
  4  5  1  0
  4 44  1  0
  5  6  2  3
  5 45  1  0
  6 11  1  0
  6  7  1  0
  7  8  1  0
  7 46  1  0
  7 47  1  0
  8  9  1  0
  8 48  1  0
  8 49  1  0
  9 10  1  0
  9 11  1  0
  9 50  1  1
 10 51  1  0
 10 52  1  0
 10 81  1  0
 11 12  1  0
 11 13  1  1
 12 53  1  0
 12 54  1  0
 12 55  1  0
 13 56  1  0
 14 39  1  0
 14 15  1  0
 15 16  1  0
 15 57  1  0
 15 58  1  0
 17 16  1  6
 17 22  1  0
 17 18  1  0
 17 37  1  0
 18 19  1  0
 18 59  1  0
 18 60  1  0
 19 20  1  0
 19 61  1  0
 19 62  1  0
 20 21  1  0
 20 63  1  0
 20 64  1  0
 21 27  1  6
 21 22  1  0
 21 23  1  0
 22 65  1  0
 22 66  1  0
 23 24  1  0
 24 25  1  0
 25 35  1  0
 25 26  1  0
 25 28  1  0
 26 27  1  0
 28 33  1  0
 28 29  1  0
 28 67  1  1
 29 30  1  0
 29 68  1  0
 29 69  1  0
 30 36  1  0
 30 31  1  0
 30 70  1  6
 31 32  1  0
 31 71  1  0
 31 72  1  0
 32 33  1  0
 32 34  1  0
 32 73  1  1
 33 74  1  0
 33 75  1  0
 34 35  1  0
 34 76  1  0
 34 77  1  0
 35 36  1  0
 35 78  1  6
 36 79  1  0
 36 80  1  0
 37 38  2  0
 37 39  1  0
M  CHG  1  10   1
M  END
>  <i_m_ct_stereo_status>  (370) 
1

>  <s_m_source_file>  (370) 
/var/tmp/pbs.5076255.sched01/tmpybatibx8/138x0dlab3k.sdf

>  <i_m_source_file_index>  (370) 
23

>  <i_lp_mmshare_version>  (370) 
48012

>  <i_f3d_flags>  (370) 
0

>  <s_epik_input>  (370) 
W05IMl1bQ0BASF0xW0NIMl1bQ0gyXS9DKFtDQEBdMShbQ0gzXSlbT0hdKT1bQ0hdXFtDSF09W0NIXVxDKFxbQ0gzXSk9QyhPQzI9TykvW0NIMl1PW0NAQF0yM1tDSDJdW0NIMl1bQ0gyXUM0KFtDSDJdMylPT1tDQEBdNShPTzQpW0NASF02W0NIMl1bQ0BASF03W0NIMl1bQ0BIXShbQ0gyXTYpW0NIMl1bQ0BIXTVbQ0gyXTc=

>  <s_epik_cmdline>  (370) 
J2VwaWtfcHl0aG9uJywgJy1waHQnLCAnMi4wJywgJy1waCcsICc3LjAnLCAnLXRuJywgJzgnLCAnLW1hJywgJzIwMCcsICctaW1hZScsICc8aW5maWxlLm1hZT4nLCAnLW9tYWUnLCAnPG91dGZpbGUubWFlPic=

>  <r_epik_Ionization_Penalty>  (370) 
0.0231352

>  <r_epik_Ionization_Penalty_Charging>  (370) 
0.0231339

>  <r_epik_Ionization_Penalty_Neutral>  (370) 
1.32465e-06

>  <r_epik_State_Penalty>  (370) 
0.0187057

>  <r_epik_Charging_Adjusted_Penalty>  (370) 
0.0418396

>  <i_epik_Tot_Q>  (370) 
1

>  <i_epik_Tot_abs_Q>  (370) 
1

>  <s_lp_Force_Field>  (370) 
OPLS3e

>  <r_lp_Energy>  (370) 
15.7254

>  <b_lp_Chiralities_Consistent>  (370) 
1

>  <s_lp_Variant>  (370) 
110:0-2

>  <s_i_glide_gridfile>  (370) 
pfpi4k_grid

>  <i_i_glide_lignum>  (370) 
23

>  <i_i_glide_rotatable_bonds>  (370) 
3

>  <r_i_docking_score>  (370) 
-2.50241

>  <r_i_glide_ligand_efficiency>  (370) 
-0.0641644

>  <r_i_glide_ligand_efficiency_sa>  (370) 
-0.217595

>  <r_i_glide_ligand_efficiency_ln>  (370) 
-0.536588

>  <r_i_glide_gscore>  (370) 
-2.50241

>  <r_i_glide_lipo>  (370) 
-0.72418

>  <r_i_glide_hbond>  (370) 
0

>  <r_i_glide_metal>  (370) 
-0

>  <r_i_glide_rewards>  (370) 
-0.0321061

>  <r_i_glide_evdw>  (370) 
-26.7225

>  <r_i_glide_ecoul>  (370) 
-3.52538

>  <r_i_glide_erotb>  (370) 
0.139555

>  <r_i_glide_esite>  (370) 
-0.0207494

>  <r_i_glide_emodel>  (370) 
-34.1282

>  <r_i_glide_energy>  (370) 
-30.2478

>  <r_i_glide_einternal>  (370) 
2.56587

>  <r_i_glide_intrahb_reward>  (370) 
-0

>  <i_i_glide_confnum>  (370) 
1

>  <i_i_glide_posenum>  (370) 
40

>  <r_i_glide_eff_state_penalty>  (370) 
0

>  <ligand_id>  (370) 
110

>  <original_smiles>  (370) 
CC(C=CC=C1CCC(N)C1(C)O)=C1COC2(CCCC3(C2)OOC2(OO3)C3CC4CC(C3)CC2C4)C(=O)O1

>  <smiles>  (370) 
[H]OC1(C([H])([H])[H])C(=C([H])C([H])=C([H])C(=C2OC(=O)C3(OC2([H])[H])C([H])([H])C([H])([H])C([H])([H])C2(OOC4(OO2)C2([H])C([H])([H])C5([H])C([H])([H])C([H])(C2([H])[H])C([H])([H])C4([H])C5([H])[H])C3([H])[H])C([H])([H])[H])C([H])([H])C([H])([H])C1([H])[N+]([H])([H])[H]

$$$$
110:1:1
     RDKit          3D

 81 87  0  0  1  0  0  0  0  0999 V2000
    4.6518   -1.3554    5.5455 C   0  0  0  0  0  0  0  0  0  0  0  0
    3.1503   -1.5355    5.6762 C   0  0  0  0  0  0  0  0  0  0  0  0
    2.2724   -0.3848    5.4996 C   0  0  0  0  0  0  0  0  0  0  0  0
    2.6607    0.8742    5.2105 C   0  0  0  0  0  0  0  0  0  0  0  0
    1.7276    1.9612    4.9787 C   0  0  0  0  0  0  0  0  0  0  0  0
    0.6014    1.8987    4.2268 C   0  0  0  0  0  0  0  0  0  0  0  0
    0.1298    0.7001    3.4129 C   0  0  0  0  0  0  0  0  0  0  0  0
   -1.2715    1.0343    2.9605 C   0  0  0  0  0  0  0  0  0  0  0  0
   -1.3567    2.5501    2.9562 C   0  0  1  0  0  0  0  0  0  0  0  0
   -2.7448    3.0174    3.1104 N   0  0  0  0  0  0  0  0  0  0  0  0
   -0.4076    3.0343    4.0777 C   0  0  1  0  0  0  0  0  0  0  0  0
   -1.1172    3.3049    5.4213 C   0  0  0  0  0  0  0  0  0  0  0  0
    0.1914    4.2580    3.6800 O   0  0  0  0  0  0  0  0  0  0  0  0
    2.5757   -2.7360    5.9638 C   0  0  0  0  0  0  0  0  0  0  0  0
    3.2276   -4.0945    6.2037 C   0  0  0  0  0  0  0  0  0  0  0  0
    2.7175   -4.7065    7.3880 O   0  0  0  0  0  0  0  0  0  0  0  0
    1.2963   -4.8484    7.4000 C   0  0  2  0  0  0  0  0  0  0  0  0
    0.8764   -5.4164    8.7976 C   0  0  0  0  0  0  0  0  0  0  0  0
    1.3383   -6.8595    9.0619 C   0  0  0  0  0  0  0  0  0  0  0  0
    0.9291   -7.8385    7.9368 C   0  0  0  0  0  0  0  0  0  0  0  0
    1.4040   -7.3121    6.5438 C   0  0  2  0  0  0  0  0  0  0  0  0
    0.8618   -5.8749    6.3022 C   0  0  0  0  0  0  0  0  0  0  0  0
    0.9045   -8.1120    5.4771 O   0  0  0  0  0  0  0  0  0  0  0  0
    1.4688   -9.5138    5.6060 O   0  0  0  0  0  0  0  0  0  0  0  0
    2.9049   -9.4656    5.5931 C   0  0  0  0  0  0  0  0  0  0  0  0
    3.3675   -8.6536    6.6731 O   0  0  0  0  0  0  0  0  0  0  0  0
    2.8256   -7.2616    6.4859 O   0  0  0  0  0  0  0  0  0  0  0  0
    3.4329  -10.9084    5.8252 C   0  0  2  0  0  0  0  0  0  0  0  0
    4.9861  -10.9064    5.8606 C   0  0  0  0  0  0  0  0  0  0  0  0
    5.5467  -10.4295    4.5061 C   0  0  1  0  0  0  0  0  0  0  0  0
    5.0748  -11.3618    3.3709 C   0  0  0  0  0  0  0  0  0  0  0  0
    3.5353  -11.3390    3.3238 C   0  0  1  0  0  0  0  0  0  0  0  0
    2.9704  -11.8363    4.6688 C   0  0  0  0  0  0  0  0  0  0  0  0
    3.0341   -9.9009    3.0584 C   0  0  0  0  0  0  0  0  0  0  0  0
    3.4900   -8.9650    4.2131 C   0  0  2  0  0  0  0  0  0  0  0  0
    5.0474   -8.9924    4.2460 C   0  0  0  0  0  0  0  0  0  0  0  0
    0.6533   -3.4626    7.1293 C   0  0  0  0  0  0  0  0  0  0  0  0
   -0.3496   -3.0547    7.7526 O   0  0  0  0  0  0  0  0  0  0  0  0
    1.2055   -2.7433    6.1241 O   0  0  0  0  0  0  0  0  0  0  0  0
    4.9180   -0.4613    6.1036 H   0  0  0  0  0  0  0  0  0  0  0  0
    4.9361   -1.2028    4.5046 H   0  0  0  0  0  0  0  0  0  0  0  0
    5.2538   -2.1604    5.9557 H   0  0  0  0  0  0  0  0  0  0  0  0
    1.2046   -0.5665    5.5998 H   0  0  0  0  0  0  0  0  0  0  0  0
    3.7152    1.1247    5.1358 H   0  0  0  0  0  0  0  0  0  0  0  0
    1.9435    2.8909    5.4749 H   0  0  0  0  0  0  0  0  0  0  0  0
    0.8004    0.5507    2.5655 H   0  0  0  0  0  0  0  0  0  0  0  0
    0.0182   -0.2330    3.9597 H   0  0  0  0  0  0  0  0  0  0  0  0
   -1.5150    0.5837    1.9950 H   0  0  0  0  0  0  0  0  0  0  0  0
   -1.9553    0.6365    3.7090 H   0  0  0  0  0  0  0  0  0  0  0  0
   -0.9742    2.8807    1.9986 H   0  0  0  0  0  0  0  0  0  0  0  0
   -3.0514    2.7480    4.0336 H   0  0  0  0  0  0  0  0  0  0  0  0
   -3.3477    2.5813    2.4231 H   0  0  0  0  0  0  0  0  0  0  0  0
   -1.6649    2.4206    5.7494 H   0  0  0  0  0  0  0  0  0  0  0  0
   -1.8161    4.1395    5.3491 H   0  0  0  0  0  0  0  0  0  0  0  0
   -0.4079    3.5669    6.2083 H   0  0  0  0  0  0  0  0  0  0  0  0
    0.3349    4.2514    2.7390 H   0  0  0  0  0  0  0  0  0  0  0  0
    3.0895   -4.7323    5.3148 H   0  0  0  0  0  0  0  0  0  0  0  0
    4.2984   -4.0066    6.3433 H   0  0  0  0  0  0  0  0  0  0  0  0
    1.2189   -4.7658    9.6054 H   0  0  0  0  0  0  0  0  0  0  0  0
   -0.2052   -5.4094    8.8771 H   0  0  0  0  0  0  0  0  0  0  0  0
    2.4246   -6.8675    9.1677 H   0  0  0  0  0  0  0  0  0  0  0  0
    0.9322   -7.2084   10.0166 H   0  0  0  0  0  0  0  0  0  0  0  0
    1.2869   -8.8476    8.1598 H   0  0  0  0  0  0  0  0  0  0  0  0
   -0.1580   -7.9209    7.9245 H   0  0  0  0  0  0  0  0  0  0  0  0
   -0.2202   -5.9299    6.3604 H   0  0  0  0  0  0  0  0  0  0  0  0
    1.0686   -5.5671    5.2694 H   0  0  0  0  0  0  0  0  0  0  0  0
    3.0364  -11.2857    6.7689 H   0  0  0  0  0  0  0  0  0  0  0  0
    5.3578  -10.2599    6.6590 H   0  0  0  0  0  0  0  0  0  0  0  0
    5.3589  -11.9022    6.0746 H   0  0  0  0  0  0  0  0  0  0  0  0
    6.6373  -10.4462    4.5392 H   0  0  0  0  0  0  0  0  0  0  0  0
    5.4869  -11.0463    2.4101 H   0  0  0  0  0  0  0  0  0  0  0  0
    5.4334  -12.3812    3.5255 H   0  0  0  0  0  0  0  0  0  0  0  0
    3.1999  -11.9991    2.5209 H   0  0  0  0  0  0  0  0  0  0  0  0
    3.2923  -12.8572    4.8517 H   0  0  0  0  0  0  0  0  0  0  0  0
    1.8817  -11.8653    4.6216 H   0  0  0  0  0  0  0  0  0  0  0  0
    3.4167   -9.5455    2.0966 H   0  0  0  0  0  0  0  0  0  0  0  0
    1.9456   -9.8935    2.9793 H   0  0  0  0  0  0  0  0  0  0  0  0
    3.1662   -7.9457    3.9889 H   0  0  0  0  0  0  0  0  0  0  0  0
    5.4274   -8.3314    5.0263 H   0  0  0  0  0  0  0  0  0  0  0  0
    5.4666   -8.6249    3.3066 H   0  0  0  0  0  0  0  0  0  0  0  0
   -2.7581    4.0221    3.0176 H   0  0  0  0  0  0  0  0  0  0  0  0
  1  2  1  0
  1 40  1  0
  1 41  1  0
  1 42  1  0
  2  3  1  0
  2 14  2  3
  3  4  2  3
  3 43  1  0
  4  5  1  0
  4 44  1  0
  5  6  2  3
  5 45  1  0
  6 11  1  0
  6  7  1  0
  7  8  1  0
  7 46  1  0
  7 47  1  0
  8  9  1  0
  8 48  1  0
  8 49  1  0
  9 10  1  0
  9 11  1  0
  9 50  1  6
 10 51  1  0
 10 52  1  0
 10 81  1  0
 11 12  1  0
 11 13  1  6
 12 53  1  0
 12 54  1  0
 12 55  1  0
 13 56  1  0
 14 39  1  0
 14 15  1  0
 15 16  1  0
 15 57  1  0
 15 58  1  0
 17 16  1  1
 17 22  1  0
 17 18  1  0
 17 37  1  0
 18 19  1  0
 18 59  1  0
 18 60  1  0
 19 20  1  0
 19 61  1  0
 19 62  1  0
 20 21  1  0
 20 63  1  0
 20 64  1  0
 21 27  1  1
 21 22  1  0
 21 23  1  0
 22 65  1  0
 22 66  1  0
 23 24  1  0
 24 25  1  0
 25 35  1  0
 25 26  1  0
 25 28  1  0
 26 27  1  0
 28 33  1  0
 28 29  1  0
 28 67  1  1
 29 30  1  0
 29 68  1  0
 29 69  1  0
 30 36  1  0
 30 31  1  0
 30 70  1  1
 31 32  1  0
 31 71  1  0
 31 72  1  0
 32 33  1  0
 32 34  1  0
 32 73  1  6
 33 74  1  0
 33 75  1  0
 34 35  1  0
 34 76  1  0
 34 77  1  0
 35 36  1  0
 35 78  1  6
 36 79  1  0
 36 80  1  0
 37 38  2  0
 37 39  1  0
M  CHG  1  10   1
M  END
>  <i_m_ct_stereo_status>  (371) 
1

>  <s_m_source_file>  (371) 
/var/tmp/pbs.5076255.sched01/tmpybatibx8/138x0dlab3k.sdf

>  <i_m_source_file_index>  (371) 
23

>  <i_lp_mmshare_version>  (371) 
48012

>  <i_f3d_flags>  (371) 
0

>  <s_epik_input>  (371) 
W05IMl1bQ0BASF0xW0NIMl1bQ0gyXS9DKFtDQEBdMShbQ0gzXSlbT0hdKT1bQ0hdXFtDSF09W0NIXVxDKFxbQ0gzXSk9QyhPQzI9TykvW0NIMl1PW0NAQF0yM1tDSDJdW0NIMl1bQ0gyXUM0KFtDSDJdMylPT1tDQEBdNShPTzQpW0NASF02W0NIMl1bQ0BASF03W0NIMl1bQ0BIXShbQ0gyXTYpW0NIMl1bQ0BIXTVbQ0gyXTc=

>  <s_epik_cmdline>  (371) 
J2VwaWtfcHl0aG9uJywgJy1waHQnLCAnMi4wJywgJy1waCcsICc3LjAnLCAnLXRuJywgJzgnLCAnLW1hJywgJzIwMCcsICctaW1hZScsICc8aW5maWxlLm1hZT4nLCAnLW9tYWUnLCAnPG91dGZpbGUubWFlPic=

>  <r_epik_Ionization_Penalty>  (371) 
0.0231352

>  <r_epik_Ionization_Penalty_Charging>  (371) 
0.0231339

>  <r_epik_Ionization_Penalty_Neutral>  (371) 
1.32465e-06

>  <r_epik_State_Penalty>  (371) 
0.0187057

>  <r_epik_Charging_Adjusted_Penalty>  (371) 
0.0418396

>  <i_epik_Tot_Q>  (371) 
1

>  <i_epik_Tot_abs_Q>  (371) 
1

>  <s_lp_Force_Field>  (371) 
OPLS3e

>  <r_lp_Energy>  (371) 
15.7254

>  <b_lp_Chiralities_Consistent>  (371) 
1

>  <s_lp_Variant>  (371) 
110:0-2

>  <s_i_glide_gridfile>  (371) 
pfpi4k_grid

>  <i_i_glide_lignum>  (371) 
23

>  <i_i_glide_rotatable_bonds>  (371) 
3

>  <r_i_docking_score>  (371) 
-2.31924

>  <r_i_glide_ligand_efficiency>  (371) 
-0.0594677

>  <r_i_glide_ligand_efficiency_sa>  (371) 
-0.201667

>  <r_i_glide_ligand_efficiency_ln>  (371) 
-0.497311

>  <r_i_glide_gscore>  (371) 
-2.31924

>  <r_i_glide_lipo>  (371) 
-0.0142193

>  <r_i_glide_hbond>  (371) 
-0.20694

>  <r_i_glide_metal>  (371) 
-0

>  <r_i_glide_rewards>  (371) 
0

>  <r_i_glide_evdw>  (371) 
-23.8302

>  <r_i_glide_ecoul>  (371) 
-6.4664

>  <r_i_glide_erotb>  (371) 
0.139555

>  <r_i_glide_esite>  (371) 
-0.0761639

>  <r_i_glide_emodel>  (371) 
-32.6297

>  <r_i_glide_energy>  (371) 
-30.2966

>  <r_i_glide_einternal>  (371) 
4.13018

>  <r_i_glide_intrahb_reward>  (371) 
-0

>  <i_i_glide_confnum>  (371) 
4

>  <i_i_glide_posenum>  (371) 
3

>  <r_i_glide_eff_state_penalty>  (371) 
0

>  <ligand_id>  (371) 
110

>  <original_smiles>  (371) 
CC(C=CC=C1CCC(N)C1(C)O)=C1COC2(CCCC3(C2)OOC2(OO3)C3CC4CC(C3)CC2C4)C(=O)O1

>  <smiles>  (371) 
[H]OC1(C([H])([H])[H])C(=C([H])C([H])=C([H])C(=C2OC(=O)C3(OC2([H])[H])C([H])([H])C([H])([H])C([H])([H])C2(OOC4(OO2)C2([H])C([H])([H])C5([H])C([H])([H])C([H])(C2([H])[H])C([H])([H])C4([H])C5([H])[H])C3([H])[H])C([H])([H])[H])C([H])([H])C([H])([H])C1([H])[N+]([H])([H])[H]

$$$$
110:1:2
     RDKit          3D

 81 87  0  0  1  0  0  0  0  0999 V2000
    4.3961   -3.1392    6.7539 C   0  0  0  0  0  0  0  0  0  0  0  0
    3.2361   -3.4558    5.8183 C   0  0  0  0  0  0  0  0  0  0  0  0
    2.5334   -2.2946    5.3179 C   0  0  0  0  0  0  0  0  0  0  0  0
    1.3329   -2.2167    4.6682 C   0  0  0  0  0  0  0  0  0  0  0  0
    0.7085   -1.0381    4.1416 C   0  0  0  0  0  0  0  0  0  0  0  0
    1.2408    0.2201    4.0577 C   0  0  0  0  0  0  0  0  0  0  0  0
    2.5787    0.6371    4.5747 C   0  0  0  0  0  0  0  0  0  0  0  0
    2.8151    2.0464    4.1404 C   0  0  0  0  0  0  0  0  0  0  0  0
    1.4131    2.6012    3.8891 C   0  0  1  0  0  0  0  0  0  0  0  0
    1.4716    3.6721    2.8804 N   0  0  0  0  0  0  0  0  0  0  0  0
    0.5478    1.4038    3.4327 C   0  0  1  0  0  0  0  0  0  0  0  0
    0.4756    1.2074    1.9083 C   0  0  0  0  0  0  0  0  0  0  0  0
   -0.7689    1.5252    3.9482 O   0  0  0  0  0  0  0  0  0  0  0  0
    2.9209   -4.7098    5.4320 C   0  0  0  0  0  0  0  0  0  0  0  0
    3.5412   -6.0473    5.8757 C   0  0  0  0  0  0  0  0  0  0  0  0
    2.5356   -6.9695    6.3234 O   0  0  0  0  0  0  0  0  0  0  0  0
    1.4651   -7.1547    5.3599 C   0  0  2  0  0  0  0  0  0  0  0  0
    0.3523   -8.0156    5.9777 C   0  0  0  0  0  0  0  0  0  0  0  0
    0.8149   -9.4605    6.2204 C   0  0  0  0  0  0  0  0  0  0  0  0
    1.4003  -10.1073    4.9534 C   0  0  0  0  0  0  0  0  0  0  0  0
    2.5553   -9.2500    4.3362 C   0  0  2  0  0  0  0  0  0  0  0  0
    2.0040   -7.8111    4.0656 C   0  0  0  0  0  0  0  0  0  0  0  0
    3.0079   -9.7382    3.0788 O   0  0  0  0  0  0  0  0  0  0  0  0
    3.6356  -11.1196    3.3009 O   0  0  0  0  0  0  0  0  0  0  0  0
    4.7068  -11.0112    4.2620 C   0  0  0  0  0  0  0  0  0  0  0  0
    4.2187  -10.4910    5.5027 O   0  0  0  0  0  0  0  0  0  0  0  0
    3.6456   -9.1109    5.2338 O   0  0  0  0  0  0  0  0  0  0  0  0
    5.2450  -12.4587    4.5277 C   0  0  2  0  0  0  0  0  0  0  0  0
    6.3784  -12.4017    5.5793 C   0  0  0  0  0  0  0  0  0  0  0  0
    7.5637  -11.5743    5.0471 C   0  0  1  0  0  0  0  0  0  0  0  0
    8.1092  -12.1931    3.7404 C   0  0  0  0  0  0  0  0  0  0  0  0
    6.9778  -12.2132    2.6898 C   0  0  1  0  0  0  0  0  0  0  0  0
    5.8003  -13.0579    3.2138 C   0  0  0  0  0  0  0  0  0  0  0  0
    6.4884  -10.7718    2.4215 C   0  0  0  0  0  0  0  0  0  0  0  0
    5.9289  -10.1532    3.7266 C   0  0  2  0  0  0  0  0  0  0  0  0
    7.0765  -10.1347    4.7772 C   0  0  0  0  0  0  0  0  0  0  0  0
    0.9344   -5.7630    4.9222 C   0  0  0  0  0  0  0  0  0  0  0  0
   -0.3002   -5.5169    4.8780 O   0  0  0  0  0  0  0  0  0  0  0  0
    1.8619   -4.8869    4.5705 O   0  0  0  0  0  0  0  0  0  0  0  0
    4.0754   -2.3756    7.4538 H   0  0  0  0  0  0  0  0  0  0  0  0
    5.2388   -2.6959    6.2269 H   0  0  0  0  0  0  0  0  0  0  0  0
    4.7833   -3.9557    7.3474 H   0  0  0  0  0  0  0  0  0  0  0  0
    3.1492   -1.4277    5.5261 H   0  0  0  0  0  0  0  0  0  0  0  0
    0.7118   -3.0940    4.4476 H   0  0  0  0  0  0  0  0  0  0  0  0
   -0.2515   -1.1806    3.6927 H   0  0  0  0  0  0  0  0  0  0  0  0
    2.5697    0.5814    5.6685 H   0  0  0  0  0  0  0  0  0  0  0  0
    3.3747   -0.0032    4.1772 H   0  0  0  0  0  0  0  0  0  0  0  0
    3.3800    2.6009    4.8925 H   0  0  0  0  0  0  0  0  0  0  0  0
    3.4051    2.0086    3.2252 H   0  0  0  0  0  0  0  0  0  0  0  0
    1.0333    2.9859    4.8349 H   0  0  0  0  0  0  0  0  0  0  0  0
    1.7561    3.2615    2.0070 H   0  0  0  0  0  0  0  0  0  0  0  0
    2.1312    4.3831    3.1578 H   0  0  0  0  0  0  0  0  0  0  0  0
    1.4829    1.1266    1.4916 H   0  0  0  0  0  0  0  0  0  0  0  0
   -0.0341    2.0385    1.4256 H   0  0  0  0  0  0  0  0  0  0  0  0
   -0.0615    0.2992    1.6300 H   0  0  0  0  0  0  0  0  0  0  0  0
   -1.2456    2.1471    3.4402 H   0  0  0  0  0  0  0  0  0  0  0  0
    4.1338   -6.3982    5.0084 H   0  0  0  0  0  0  0  0  0  0  0  0
    4.2559   -5.8725    6.6835 H   0  0  0  0  0  0  0  0  0  0  0  0
   -0.0299   -7.5787    6.9010 H   0  0  0  0  0  0  0  0  0  0  0  0
   -0.5092   -8.0573    5.3130 H   0  0  0  0  0  0  0  0  0  0  0  0
    1.5690   -9.4453    7.0006 H   0  0  0  0  0  0  0  0  0  0  0  0
   -0.0184  -10.0581    6.5838 H   0  0  0  0  0  0  0  0  0  0  0  0
    1.7471  -11.1304    5.1785 H   0  0  0  0  0  0  0  0  0  0  0  0
    0.6141  -10.2205    4.2067 H   0  0  0  0  0  0  0  0  0  0  0  0
    1.1725   -7.9096    3.3764 H   0  0  0  0  0  0  0  0  0  0  0  0
    2.7509   -7.2238    3.5246 H   0  0  0  0  0  0  0  0  0  0  0  0
    4.4229  -13.0706    4.8971 H   0  0  0  0  0  0  0  0  0  0  0  0
    6.0216  -11.9632    6.5121 H   0  0  0  0  0  0  0  0  0  0  0  0
    6.7132  -13.4046    5.8303 H   0  0  0  0  0  0  0  0  0  0  0  0
    8.3665  -11.5584    5.7864 H   0  0  0  0  0  0  0  0  0  0  0  0
    8.9612  -11.6171    3.3732 H   0  0  0  0  0  0  0  0  0  0  0  0
    8.4822  -13.2045    3.9153 H   0  0  0  0  0  0  0  0  0  0  0  0
    7.3586  -12.6407    1.7616 H   0  0  0  0  0  0  0  0  0  0  0  0
    6.1227  -14.0845    3.3669 H   0  0  0  0  0  0  0  0  0  0  0  0
    5.0189  -13.1006    2.4559 H   0  0  0  0  0  0  0  0  0  0  0  0
    7.3026  -10.1520    2.0444 H   0  0  0  0  0  0  0  0  0  0  0  0
    5.7141  -10.7739    1.6518 H   0  0  0  0  0  0  0  0  0  0  0  0
    5.6126   -9.1164    3.5293 H   0  0  0  0  0  0  0  0  0  0  0  0
    6.7347   -9.6849    5.7096 H   0  0  0  0  0  0  0  0  0  0  0  0
    7.9066   -9.5181    4.4295 H   0  0  0  0  0  0  0  0  0  0  0  0
    0.5547    4.0612    2.6925 H   0  0  0  0  0  0  0  0  0  0  0  0
  1  2  1  0
  1 40  1  0
  1 41  1  0
  1 42  1  0
  2  3  1  0
  2 14  2  3
  3  4  2  3
  3 43  1  0
  4  5  1  0
  4 44  1  0
  5  6  2  3
  5 45  1  0
  6 11  1  0
  6  7  1  0
  7  8  1  0
  7 46  1  0
  7 47  1  0
  8  9  1  0
  8 48  1  0
  8 49  1  0
  9 10  1  0
  9 11  1  0
  9 50  1  1
 10 51  1  0
 10 52  1  0
 10 81  1  0
 11 12  1  0
 11 13  1  1
 12 53  1  0
 12 54  1  0
 12 55  1  0
 13 56  1  0
 14 39  1  0
 14 15  1  0
 15 16  1  0
 15 57  1  0
 15 58  1  0
 17 16  1  1
 17 22  1  0
 17 18  1  0
 17 37  1  0
 18 19  1  0
 18 59  1  0
 18 60  1  0
 19 20  1  0
 19 61  1  0
 19 62  1  0
 20 21  1  0
 20 63  1  0
 20 64  1  0
 21 27  1  1
 21 22  1  0
 21 23  1  0
 22 65  1  0
 22 66  1  0
 23 24  1  0
 24 25  1  0
 25 35  1  0
 25 26  1  0
 25 28  1  0
 26 27  1  0
 28 33  1  0
 28 29  1  0
 28 67  1  1
 29 30  1  0
 29 68  1  0
 29 69  1  0
 30 36  1  0
 30 31  1  0
 30 70  1  1
 31 32  1  0
 31 71  1  0
 31 72  1  0
 32 33  1  0
 32 34  1  0
 32 73  1  6
 33 74  1  0
 33 75  1  0
 34 35  1  0
 34 76  1  0
 34 77  1  0
 35 36  1  0
 35 78  1  6
 36 79  1  0
 36 80  1  0
 37 38  2  0
 37 39  1  0
M  CHG  1  10   1
M  END
>  <i_m_ct_stereo_status>  (372) 
1

>  <s_m_source_file>  (372) 
/var/tmp/pbs.5076255.sched01/tmpybatibx8/138x0dlab3k.sdf

>  <i_m_source_file_index>  (372) 
23

>  <i_lp_mmshare_version>  (372) 
48012

>  <i_f3d_flags>  (372) 
0

>  <s_epik_input>  (372) 
W05IMl1bQ0BASF0xW0NIMl1bQ0gyXS9DKFtDQEBdMShbQ0gzXSlbT0hdKT1bQ0hdXFtDSF09W0NIXVxDKFxbQ0gzXSk9QyhPQzI9TykvW0NIMl1PW0NAQF0yM1tDSDJdW0NIMl1bQ0gyXUM0KFtDSDJdMylPT1tDQEBdNShPTzQpW0NASF02W0NIMl1bQ0BASF03W0NIMl1bQ0BIXShbQ0gyXTYpW0NIMl1bQ0BIXTVbQ0gyXTc=

>  <s_epik_cmdline>  (372) 
J2VwaWtfcHl0aG9uJywgJy1waHQnLCAnMi4wJywgJy1waCcsICc3LjAnLCAnLXRuJywgJzgnLCAnLW1hJywgJzIwMCcsICctaW1hZScsICc8aW5maWxlLm1hZT4nLCAnLW9tYWUnLCAnPG91dGZpbGUubWFlPic=

>  <r_epik_Ionization_Penalty>  (372) 
0.0231352

>  <r_epik_Ionization_Penalty_Charging>  (372) 
0.0231339

>  <r_epik_Ionization_Penalty_Neutral>  (372) 
1.32465e-06

>  <r_epik_State_Penalty>  (372) 
0.0187057

>  <r_epik_Charging_Adjusted_Penalty>  (372) 
0.0418396

>  <i_epik_Tot_Q>  (372) 
1

>  <i_epik_Tot_abs_Q>  (372) 
1

>  <s_lp_Force_Field>  (372) 
OPLS3e

>  <r_lp_Energy>  (372) 
15.7254

>  <b_lp_Chiralities_Consistent>  (372) 
1

>  <s_lp_Variant>  (372) 
110:0-2

>  <s_i_glide_gridfile>  (372) 
pfpi4k_grid

>  <i_i_glide_lignum>  (372) 
23

>  <i_i_glide_rotatable_bonds>  (372) 
3

>  <r_i_docking_score>  (372) 
-2.21674

>  <r_i_glide_ligand_efficiency>  (372) 
-0.0568396

>  <r_i_glide_ligand_efficiency_sa>  (372) 
-0.192755

>  <r_i_glide_ligand_efficiency_ln>  (372) 
-0.475333

>  <r_i_glide_gscore>  (372) 
-2.21674

>  <r_i_glide_lipo>  (372) 
-0.0231826

>  <r_i_glide_hbond>  (372) 
-0.0645975

>  <r_i_glide_metal>  (372) 
-0

>  <r_i_glide_rewards>  (372) 
0

>  <r_i_glide_evdw>  (372) 
-27.3881

>  <r_i_glide_ecoul>  (372) 
-5.17616

>  <r_i_glide_erotb>  (372) 
0.139555

>  <r_i_glide_esite>  (372) 
-0.122689

>  <r_i_glide_emodel>  (372) 
-31.9837

>  <r_i_glide_energy>  (372) 
-32.5643

>  <r_i_glide_einternal>  (372) 
7.04874

>  <r_i_glide_intrahb_reward>  (372) 
-0

>  <i_i_glide_confnum>  (372) 
4

>  <i_i_glide_posenum>  (372) 
10

>  <r_i_glide_eff_state_penalty>  (372) 
0

>  <ligand_id>  (372) 
110

>  <original_smiles>  (372) 
CC(C=CC=C1CCC(N)C1(C)O)=C1COC2(CCCC3(C2)OOC2(OO3)C3CC4CC(C3)CC2C4)C(=O)O1

>  <smiles>  (372) 
[H]OC1(C([H])([H])[H])C(=C([H])C([H])=C([H])C(=C2OC(=O)C3(OC2([H])[H])C([H])([H])C([H])([H])C([H])([H])C2(OOC4(OO2)C2([H])C([H])([H])C5([H])C([H])([H])C([H])(C2([H])[H])C([H])([H])C4([H])C5([H])[H])C3([H])[H])C([H])([H])[H])C([H])([H])C([H])([H])C1([H])[N+]([H])([H])[H]

$$$$
110:2:0
     RDKit          3D

 81 87  0  0  1  0  0  0  0  0999 V2000
    1.5086    1.5598    2.7342 C   0  0  0  0  0  0  0  0  0  0  0  0
    2.3435    0.3141    2.9831 C   0  0  0  0  0  0  0  0  0  0  0  0
    3.7448    0.3466    2.5896 C   0  0  0  0  0  0  0  0  0  0  0  0
    4.3211   -0.1668    1.4899 C   0  0  0  0  0  0  0  0  0  0  0  0
    3.6632   -0.8763    0.4104 C   0  0  0  0  0  0  0  0  0  0  0  0
    4.3138   -1.5284   -0.5698 C   0  0  0  0  0  0  0  0  0  0  0  0
    5.8233   -1.6126   -0.7205 C   0  0  0  0  0  0  0  0  0  0  0  0
    6.0953   -2.6647   -1.7997 C   0  0  0  0  0  0  0  0  0  0  0  0
    4.8089   -2.7226   -2.6326 C   0  0  1  0  0  0  0  0  0  0  0  0
    4.6253   -4.0305   -3.2838 N   0  0  0  0  0  0  0  0  0  0  0  0
    3.6590   -2.3784   -1.6453 C   0  0  1  0  0  0  0  0  0  0  0  0
    3.0016   -3.6035   -1.0005 C   0  0  0  0  0  0  0  0  0  0  0  0
    2.6556   -1.6850   -2.3204 O   0  0  0  0  0  0  0  0  0  0  0  0
    1.8162   -0.7197    3.6687 C   0  0  0  0  0  0  0  0  0  0  0  0
    2.5054   -2.0246    4.0661 C   0  0  0  0  0  0  0  0  0  0  0  0
    2.2791   -2.3559    5.4456 O   0  0  0  0  0  0  0  0  0  0  0  0
    0.9012   -2.3519    5.8284 C   0  0  2  0  0  0  0  0  0  0  0  0
    0.7884   -2.5807    7.3750 C   0  0  0  0  0  0  0  0  0  0  0  0
    1.2181   -3.9791    7.8312 C   0  0  0  0  0  0  0  0  0  0  0  0
    0.4926   -5.1131    7.0686 C   0  0  0  0  0  0  0  0  0  0  0  0
    0.6104   -4.9216    5.5298 C   0  0  1  0  0  0  0  0  0  0  0  0
    0.1571   -3.5255    5.1193 C   0  0  0  0  0  0  0  0  0  0  0  0
    1.9492   -5.1191    5.0466 O   0  0  0  0  0  0  0  0  0  0  0  0
    2.3993   -6.5209    5.3726 O   0  0  0  0  0  0  0  0  0  0  0  0
    1.5402   -7.4666    4.7090 C   0  0  0  0  0  0  0  0  0  0  0  0
    0.1908   -7.2602    5.1769 O   0  0  0  0  0  0  0  0  0  0  0  0
   -0.2394   -5.8559    4.8536 O   0  0  0  0  0  0  0  0  0  0  0  0
    1.6278   -7.3729    3.1404 C   0  0  1  0  0  0  0  0  0  0  0  0
    3.0824   -7.6409    2.6625 C   0  0  0  0  0  0  0  0  0  0  0  0
    3.5308   -9.0480    3.1138 C   0  0  2  0  0  0  0  0  0  0  0  0
    2.6125  -10.1168    2.4837 C   0  0  0  0  0  0  0  0  0  0  0  0
    1.1632   -9.8641    2.9427 C   0  0  2  0  0  0  0  0  0  0  0  0
    0.7127   -8.4518    2.4981 C   0  0  0  0  0  0  0  0  0  0  0  0
    1.0817   -9.9559    4.4828 C   0  0  0  0  0  0  0  0  0  0  0  0
    1.9967   -8.8852    5.1317 C   0  0  1  0  0  0  0  0  0  0  0  0
    3.4574   -9.1219    4.6558 C   0  0  0  0  0  0  0  0  0  0  0  0
    0.2667   -1.0004    5.4341 C   0  0  0  0  0  0  0  0  0  0  0  0
   -0.5286   -0.3980    6.1542 O   0  0  0  0  0  0  0  0  0  0  0  0
    0.5536   -0.5633    4.1717 O   0  0  0  0  0  0  0  0  0  0  0  0
    2.1329    2.4496    2.7129 H   0  0  0  0  0  0  0  0  0  0  0  0
    0.7509    1.7046    3.5065 H   0  0  0  0  0  0  0  0  0  0  0  0
    1.0017    1.4911    1.7751 H   0  0  0  0  0  0  0  0  0  0  0  0
    4.4014    0.8591    3.2713 H   0  0  0  0  0  0  0  0  0  0  0  0
    5.3897   -0.0141    1.3927 H   0  0  0  0  0  0  0  0  0  0  0  0
    2.5807   -0.8936    0.4163 H   0  0  0  0  0  0  0  0  0  0  0  0
    6.1882   -0.6403   -1.0344 H   0  0  0  0  0  0  0  0  0  0  0  0
    6.3177   -1.8711    0.2143 H   0  0  0  0  0  0  0  0  0  0  0  0
    6.9798   -2.4374   -2.3988 H   0  0  0  0  0  0  0  0  0  0  0  0
    6.2811   -3.6235   -1.3142 H   0  0  0  0  0  0  0  0  0  0  0  0
    4.8724   -1.9623   -3.4132 H   0  0  0  0  0  0  0  0  0  0  0  0
    4.4876   -4.7291   -2.5680 H   0  0  0  0  0  0  0  0  0  0  0  0
    5.4317   -4.2922   -3.8393 H   0  0  0  0  0  0  0  0  0  0  0  0
    3.7498   -4.2476   -0.5364 H   0  0  0  0  0  0  0  0  0  0  0  0
    2.4554   -4.1850   -1.7415 H   0  0  0  0  0  0  0  0  0  0  0  0
    2.2679   -3.3244   -0.2423 H   0  0  0  0  0  0  0  0  0  0  0  0
    1.9386   -1.4584   -1.7030 H   0  0  0  0  0  0  0  0  0  0  0  0
    2.1542   -2.8196    3.4073 H   0  0  0  0  0  0  0  0  0  0  0  0
    3.5737   -1.9639    3.9139 H   0  0  0  0  0  0  0  0  0  0  0  0
    1.3370   -1.8176    7.9314 H   0  0  0  0  0  0  0  0  0  0  0  0
   -0.2449   -2.4517    7.6894 H   0  0  0  0  0  0  0  0  0  0  0  0
    2.2908   -4.0769    7.6812 H   0  0  0  0  0  0  0  0  0  0  0  0
    1.0393   -4.0934    8.8981 H   0  0  0  0  0  0  0  0  0  0  0  0
    0.8511   -6.0877    7.4064 H   0  0  0  0  0  0  0  0  0  0  0  0
   -0.5708   -5.0829    7.3301 H   0  0  0  0  0  0  0  0  0  0  0  0
   -0.8862   -3.4236    5.4327 H   0  0  0  0  0  0  0  0  0  0  0  0
    0.1277   -3.4188    4.0243 H   0  0  0  0  0  0  0  0  0  0  0  0
    1.3172   -6.3854    2.7894 H   0  0  0  0  0  0  0  0  0  0  0  0
    3.1498   -7.5587    1.5776 H   0  0  0  0  0  0  0  0  0  0  0  0
    3.7560   -6.8903    3.0740 H   0  0  0  0  0  0  0  0  0  0  0  0
    4.5554   -9.2300    2.7853 H   0  0  0  0  0  0  0  0  0  0  0  0
    2.6797  -10.0864    1.3949 H   0  0  0  0  0  0  0  0  0  0  0  0
    2.9352  -11.1225    2.7682 H   0  0  0  0  0  0  0  0  0  0  0  0
    0.5132  -10.6186    2.4915 H   0  0  0  0  0  0  0  0  0  0  0  0
   -0.3282   -8.2940    2.7822 H   0  0  0  0  0  0  0  0  0  0  0  0
    0.7487   -8.3745    1.4127 H   0  0  0  0  0  0  0  0  0  0  0  0
    0.0501   -9.8266    4.7998 H   0  0  0  0  0  0  0  0  0  0  0  0
    1.3639  -10.9565    4.8035 H   0  0  0  0  0  0  0  0  0  0  0  0
    1.9468   -8.9876    6.2251 H   0  0  0  0  0  0  0  0  0  0  0  0
    3.8228  -10.0891    4.9928 H   0  0  0  0  0  0  0  0  0  0  0  0
    4.1288   -8.3792    5.0822 H   0  0  0  0  0  0  0  0  0  0  0  0
    3.7773   -4.0281   -3.8313 H   0  0  0  0  0  0  0  0  0  0  0  0
  1  2  1  0
  1 40  1  0
  1 41  1  0
  1 42  1  0
  2  3  1  0
  2 14  2  3
  3  4  2  3
  3 43  1  0
  4  5  1  0
  4 44  1  0
  5  6  2  3
  5 45  1  0
  6 11  1  0
  6  7  1  0
  7  8  1  0
  7 46  1  0
  7 47  1  0
  8  9  1  0
  8 48  1  0
  8 49  1  0
  9 10  1  0
  9 11  1  0
  9 50  1  6
 10 51  1  0
 10 52  1  0
 10 81  1  0
 11 12  1  0
 11 13  1  6
 12 53  1  0
 12 54  1  0
 12 55  1  0
 13 56  1  0
 14 39  1  0
 14 15  1  0
 15 16  1  0
 15 57  1  0
 15 58  1  0
 17 16  1  6
 17 22  1  0
 17 18  1  0
 17 37  1  0
 18 19  1  0
 18 59  1  0
 18 60  1  0
 19 20  1  0
 19 61  1  0
 19 62  1  0
 20 21  1  0
 20 63  1  0
 20 64  1  0
 21 27  1  6
 21 22  1  0
 21 23  1  0
 22 65  1  0
 22 66  1  0
 23 24  1  0
 24 25  1  0
 25 35  1  0
 25 26  1  0
 25 28  1  0
 26 27  1  0
 28 33  1  0
 28 29  1  0
 28 67  1  6
 29 30  1  0
 29 68  1  0
 29 69  1  0
 30 36  1  0
 30 31  1  0
 30 70  1  1
 31 32  1  0
 31 71  1  0
 31 72  1  0
 32 33  1  0
 32 34  1  0
 32 73  1  6
 33 74  1  0
 33 75  1  0
 34 35  1  0
 34 76  1  0
 34 77  1  0
 35 36  1  0
 35 78  1  1
 36 79  1  0
 36 80  1  0
 37 38  2  0
 37 39  1  0
M  CHG  1  10   1
M  END
>  <i_m_ct_stereo_status>  (373) 
1

>  <s_m_source_file>  (373) 
/var/tmp/pbs.5076255.sched01/tmpybatibx8/138x0dlab3k.sdf

>  <i_m_source_file_index>  (373) 
24

>  <i_lp_mmshare_version>  (373) 
48012

>  <i_f3d_flags>  (373) 
0

>  <s_epik_input>  (373) 
W05IMl1bQ0BASF0xW0NIMl1bQ0gyXS9DKFtDQEBdMShbQ0gzXSlbT0hdKT1bQ0hdXFtDSF09W0NIXVxDKFxbQ0gzXSk9QyhPQzI9TykvW0NIMl1PW0NAQF0yM1tDSDJdW0NIMl1bQ0gyXUM0KFtDSDJdMylPT1tDQEBdNShPTzQpW0NASF02W0NIMl1bQ0BASF03W0NIMl1bQ0BIXShbQ0gyXTYpW0NIMl1bQ0BIXTVbQ0gyXTc=

>  <s_epik_cmdline>  (373) 
J2VwaWtfcHl0aG9uJywgJy1waHQnLCAnMi4wJywgJy1waCcsICc3LjAnLCAnLXRuJywgJzgnLCAnLW1hJywgJzIwMCcsICctaW1hZScsICc8aW5maWxlLm1hZT4nLCAnLW9tYWUnLCAnPG91dGZpbGUubWFlPic=

>  <r_epik_Ionization_Penalty>  (373) 
0.0231352

>  <r_epik_Ionization_Penalty_Charging>  (373) 
0.0231339

>  <r_epik_Ionization_Penalty_Neutral>  (373) 
1.32465e-06

>  <r_epik_State_Penalty>  (373) 
0.0187057

>  <r_epik_Charging_Adjusted_Penalty>  (373) 
0.0418396

>  <i_epik_Tot_Q>  (373) 
1

>  <i_epik_Tot_abs_Q>  (373) 
1

>  <s_lp_Force_Field>  (373) 
OPLS3e

>  <r_lp_Energy>  (373) 
19.0433

>  <b_lp_Chiralities_Consistent>  (373) 
1

>  <s_lp_Variant>  (373) 
110:0-3

>  <s_i_glide_gridfile>  (373) 
pfpi4k_grid

>  <i_i_glide_lignum>  (373) 
24

>  <i_i_glide_rotatable_bonds>  (373) 
3

>  <r_i_docking_score>  (373) 
-3.60366

>  <r_i_glide_ligand_efficiency>  (373) 
-0.0924015

>  <r_i_glide_ligand_efficiency_sa>  (373) 
-0.313353

>  <r_i_glide_ligand_efficiency_ln>  (373) 
-0.772727

>  <r_i_glide_gscore>  (373) 
-3.60366

>  <r_i_glide_lipo>  (373) 
-0.35316

>  <r_i_glide_hbond>  (373) 
-0.16

>  <r_i_glide_metal>  (373) 
-0

>  <r_i_glide_rewards>  (373) 
0

>  <r_i_glide_evdw>  (373) 
-31.8906

>  <r_i_glide_ecoul>  (373) 
-10.6121

>  <r_i_glide_erotb>  (373) 
0.139555

>  <r_i_glide_esite>  (373) 
-0.0436992

>  <r_i_glide_emodel>  (373) 
-49.2366

>  <r_i_glide_energy>  (373) 
-42.5028

>  <r_i_glide_einternal>  (373) 
6.60153

>  <r_i_glide_intrahb_reward>  (373) 
-0

>  <i_i_glide_confnum>  (373) 
4

>  <i_i_glide_posenum>  (373) 
16

>  <r_i_glide_eff_state_penalty>  (373) 
0

>  <ligand_id>  (373) 
110

>  <original_smiles>  (373) 
CC(C=CC=C1CCC(N)C1(C)O)=C1COC2(CCCC3(C2)OOC2(OO3)C3CC4CC(C3)CC2C4)C(=O)O1

>  <smiles>  (373) 
[H]OC1(C([H])([H])[H])C(=C([H])C([H])=C([H])C(=C2OC(=O)C3(OC2([H])[H])C([H])([H])C([H])([H])C([H])([H])C2(OOC4(OO2)C2([H])C([H])([H])C5([H])C([H])([H])C([H])(C2([H])[H])C([H])([H])C4([H])C5([H])[H])C3([H])[H])C([H])([H])[H])C([H])([H])C([H])([H])C1([H])[N+]([H])([H])[H]

$$$$
110:2:1
     RDKit          3D

 81 87  0  0  1  0  0  0  0  0999 V2000
    0.2035   -6.0350    8.3033 C   0  0  0  0  0  0  0  0  0  0  0  0
    0.2028   -5.8154    6.8021 C   0  0  0  0  0  0  0  0  0  0  0  0
   -0.5440   -6.7064    5.9485 C   0  0  0  0  0  0  0  0  0  0  0  0
   -0.1849   -7.9266    5.5069 C   0  0  0  0  0  0  0  0  0  0  0  0
    1.0797   -8.6040    5.7341 C   0  0  0  0  0  0  0  0  0  0  0  0
    1.4647   -9.6979    5.0551 C   0  0  0  0  0  0  0  0  0  0  0  0
    0.6674  -10.4153    3.9757 C   0  0  0  0  0  0  0  0  0  0  0  0
    1.6290  -11.3946    3.3104 C   0  0  0  0  0  0  0  0  0  0  0  0
    2.7202  -11.6746    4.3466 C   0  0  1  0  0  0  0  0  0  0  0  0
    3.9929  -12.0666    3.7037 N   0  0  0  0  0  0  0  0  0  0  0  0
    2.8259  -10.3678    5.1785 C   0  0  1  0  0  0  0  0  0  0  0  0
    3.9188   -9.4042    4.6623 C   0  0  0  0  0  0  0  0  0  0  0  0
    3.1058  -10.6565    6.5288 O   0  0  0  0  0  0  0  0  0  0  0  0
    0.7406   -4.6721    6.2978 C   0  0  0  0  0  0  0  0  0  0  0  0
    0.7683   -4.2423    4.8369 C   0  0  0  0  0  0  0  0  0  0  0  0
    0.3911   -2.8745    4.6790 O   0  0  0  0  0  0  0  0  0  0  0  0
    1.1251   -1.9781    5.5072 C   0  0  2  0  0  0  0  0  0  0  0  0
    0.5219   -0.5408    5.3447 C   0  0  0  0  0  0  0  0  0  0  0  0
    0.7547    0.0798    3.9589 C   0  0  0  0  0  0  0  0  0  0  0  0
    2.2391    0.0700    3.5344 C   0  0  0  0  0  0  0  0  0  0  0  0
    2.8600   -1.3557    3.6554 C   0  0  1  0  0  0  0  0  0  0  0  0
    2.6263   -1.9347    5.0716 C   0  0  0  0  0  0  0  0  0  0  0  0
    2.3163   -2.2776    2.7170 O   0  0  0  0  0  0  0  0  0  0  0  0
    2.6037   -1.7818    1.3278 O   0  0  0  0  0  0  0  0  0  0  0  0
    4.0164   -1.7147    1.1391 C   0  0  0  0  0  0  0  0  0  0  0  0
    4.5657   -0.7960    2.0841 O   0  0  0  0  0  0  0  0  0  0  0  0
    4.2684   -1.2826    3.4812 O   0  0  0  0  0  0  0  0  0  0  0  0
    4.7163   -3.1198    1.1953 C   0  0  1  0  0  0  0  0  0  0  0  0
    4.1384   -4.0563    0.0974 C   0  0  0  0  0  0  0  0  0  0  0  0
    4.3654   -3.4417   -1.3025 C   0  0  2  0  0  0  0  0  0  0  0  0
    5.8702   -3.2728   -1.5642 C   0  0  0  0  0  0  0  0  0  0  0  0
    6.4706   -2.3656   -0.4808 C   0  0  2  0  0  0  0  0  0  0  0  0
    6.2409   -2.9672    0.9208 C   0  0  0  0  0  0  0  0  0  0  0  0
    5.7703   -1.0061   -0.5393 C   0  0  0  0  0  0  0  0  0  0  0  0
    4.2601   -1.1417   -0.2731 C   0  0  1  0  0  0  0  0  0  0  0  0
    3.6705   -2.0759   -1.3639 C   0  0  0  0  0  0  0  0  0  0  0  0
    1.0033   -2.4534    6.9843 C   0  0  0  0  0  0  0  0  0  0  0  0
    0.7804   -1.6912    7.9192 O   0  0  0  0  0  0  0  0  0  0  0  0
    1.2169   -3.7668    7.1907 O   0  0  0  0  0  0  0  0  0  0  0  0
   -0.6852   -6.5828    8.6050 H   0  0  0  0  0  0  0  0  0  0  0  0
    0.2212   -5.0984    8.8656 H   0  0  0  0  0  0  0  0  0  0  0  0
    1.0655   -6.6267    8.6039 H   0  0  0  0  0  0  0  0  0  0  0  0
   -1.5249   -6.3576    5.6652 H   0  0  0  0  0  0  0  0  0  0  0  0
   -0.9219   -8.4633    4.9274 H   0  0  0  0  0  0  0  0  0  0  0  0
    1.7452   -8.1942    6.4843 H   0  0  0  0  0  0  0  0  0  0  0  0
   -0.1575  -10.9591    4.4330 H   0  0  0  0  0  0  0  0  0  0  0  0
    0.2516   -9.7249    3.2429 H   0  0  0  0  0  0  0  0  0  0  0  0
    1.1193  -12.2968    2.9709 H   0  0  0  0  0  0  0  0  0  0  0  0
    2.0687  -10.9152    2.4375 H   0  0  0  0  0  0  0  0  0  0  0  0
    2.3891  -12.4988    4.9833 H   0  0  0  0  0  0  0  0  0  0  0  0
    4.3162  -11.2921    3.1440 H   0  0  0  0  0  0  0  0  0  0  0  0
    3.8678  -12.8670    3.0954 H   0  0  0  0  0  0  0  0  0  0  0  0
    3.7785   -9.1856    3.6022 H   0  0  0  0  0  0  0  0  0  0  0  0
    4.9176   -9.8192    4.7935 H   0  0  0  0  0  0  0  0  0  0  0  0
    3.9130   -8.4537    5.1950 H   0  0  0  0  0  0  0  0  0  0  0  0
    2.4353  -11.2583    6.8792 H   0  0  0  0  0  0  0  0  0  0  0  0
    1.7718   -4.4311    4.4485 H   0  0  0  0  0  0  0  0  0  0  0  0
    0.1021   -4.8396    4.2309 H   0  0  0  0  0  0  0  0  0  0  0  0
   -0.5423   -0.5190    5.5903 H   0  0  0  0  0  0  0  0  0  0  0  0
    0.9773    0.1289    6.0687 H   0  0  0  0  0  0  0  0  0  0  0  0
    0.1629   -0.4678    3.2266 H   0  0  0  0  0  0  0  0  0  0  0  0
    0.3857    1.1094    3.9517 H   0  0  0  0  0  0  0  0  0  0  0  0
    2.3516    0.5039    2.5376 H   0  0  0  0  0  0  0  0  0  0  0  0
    2.7922    0.7354    4.2033 H   0  0  0  0  0  0  0  0  0  0  0  0
    3.1073   -1.2558    5.7694 H   0  0  0  0  0  0  0  0  0  0  0  0
    3.1645   -2.8849    5.1929 H   0  0  0  0  0  0  0  0  0  0  0  0
    4.5764   -3.5831    2.1732 H   0  0  0  0  0  0  0  0  0  0  0  0
    4.6049   -5.0419    0.1505 H   0  0  0  0  0  0  0  0  0  0  0  0
    3.0710   -4.2071    0.2582 H   0  0  0  0  0  0  0  0  0  0  0  0
    3.9532   -4.0987   -2.0678 H   0  0  0  0  0  0  0  0  0  0  0  0
    6.3299   -4.2536   -1.5192 H   0  0  0  0  0  0  0  0  0  0  0  0
    6.0603   -2.8731   -2.5647 H   0  0  0  0  0  0  0  0  0  0  0  0
    7.5428   -2.2454   -0.6696 H   0  0  0  0  0  0  0  0  0  0  0  0
    6.6961   -2.3235    1.6752 H   0  0  0  0  0  0  0  0  0  0  0  0
    6.7454   -3.9307    0.9902 H   0  0  0  0  0  0  0  0  0  0  0  0
    6.2198   -0.3118    0.1702 H   0  0  0  0  0  0  0  0  0  0  0  0
    5.8635   -0.5783   -1.5295 H   0  0  0  0  0  0  0  0  0  0  0  0
    3.8369   -0.1474   -0.3303 H   0  0  0  0  0  0  0  0  0  0  0  0
    3.7781   -1.6478   -2.3571 H   0  0  0  0  0  0  0  0  0  0  0  0
    2.6015   -2.2243   -1.2096 H   0  0  0  0  0  0  0  0  0  0  0  0
    4.6757  -12.2621    4.4212 H   0  0  0  0  0  0  0  0  0  0  0  0
  1  2  1  0
  1 40  1  0
  1 41  1  0
  1 42  1  0
  2  3  1  0
  2 14  2  3
  3  4  2  3
  3 43  1  0
  4  5  1  0
  4 44  1  0
  5  6  2  3
  5 45  1  0
  6 11  1  0
  6  7  1  0
  7  8  1  0
  7 46  1  0
  7 47  1  0
  8  9  1  0
  8 48  1  0
  8 49  1  0
  9 10  1  0
  9 11  1  0
  9 50  1  1
 10 51  1  0
 10 52  1  0
 10 81  1  0
 11 12  1  0
 11 13  1  1
 12 53  1  0
 12 54  1  0
 12 55  1  0
 13 56  1  0
 14 39  1  0
 14 15  1  0
 15 16  1  0
 15 57  1  0
 15 58  1  0
 17 16  1  6
 17 22  1  0
 17 18  1  0
 17 37  1  0
 18 19  1  0
 18 59  1  0
 18 60  1  0
 19 20  1  0
 19 61  1  0
 19 62  1  0
 20 21  1  0
 20 63  1  0
 20 64  1  0
 21 27  1  6
 21 22  1  0
 21 23  1  0
 22 65  1  0
 22 66  1  0
 23 24  1  0
 24 25  1  0
 25 35  1  0
 25 26  1  0
 25 28  1  0
 26 27  1  0
 28 33  1  0
 28 29  1  0
 28 67  1  1
 29 30  1  0
 29 68  1  0
 29 69  1  0
 30 36  1  0
 30 31  1  0
 30 70  1  6
 31 32  1  0
 31 71  1  0
 31 72  1  0
 32 33  1  0
 32 34  1  0
 32 73  1  6
 33 74  1  0
 33 75  1  0
 34 35  1  0
 34 76  1  0
 34 77  1  0
 35 36  1  0
 35 78  1  1
 36 79  1  0
 36 80  1  0
 37 38  2  0
 37 39  1  0
M  CHG  1  10   1
M  END
>  <i_m_ct_stereo_status>  (374) 
1

>  <s_m_source_file>  (374) 
/var/tmp/pbs.5076255.sched01/tmpybatibx8/138x0dlab3k.sdf

>  <i_m_source_file_index>  (374) 
24

>  <i_lp_mmshare_version>  (374) 
48012

>  <i_f3d_flags>  (374) 
0

>  <s_epik_input>  (374) 
W05IMl1bQ0BASF0xW0NIMl1bQ0gyXS9DKFtDQEBdMShbQ0gzXSlbT0hdKT1bQ0hdXFtDSF09W0NIXVxDKFxbQ0gzXSk9QyhPQzI9TykvW0NIMl1PW0NAQF0yM1tDSDJdW0NIMl1bQ0gyXUM0KFtDSDJdMylPT1tDQEBdNShPTzQpW0NASF02W0NIMl1bQ0BASF03W0NIMl1bQ0BIXShbQ0gyXTYpW0NIMl1bQ0BIXTVbQ0gyXTc=

>  <s_epik_cmdline>  (374) 
J2VwaWtfcHl0aG9uJywgJy1waHQnLCAnMi4wJywgJy1waCcsICc3LjAnLCAnLXRuJywgJzgnLCAnLW1hJywgJzIwMCcsICctaW1hZScsICc8aW5maWxlLm1hZT4nLCAnLW9tYWUnLCAnPG91dGZpbGUubWFlPic=

>  <r_epik_Ionization_Penalty>  (374) 
0.0231352

>  <r_epik_Ionization_Penalty_Charging>  (374) 
0.0231339

>  <r_epik_Ionization_Penalty_Neutral>  (374) 
1.32465e-06

>  <r_epik_State_Penalty>  (374) 
0.0187057

>  <r_epik_Charging_Adjusted_Penalty>  (374) 
0.0418396

>  <i_epik_Tot_Q>  (374) 
1

>  <i_epik_Tot_abs_Q>  (374) 
1

>  <s_lp_Force_Field>  (374) 
OPLS3e

>  <r_lp_Energy>  (374) 
19.0433

>  <b_lp_Chiralities_Consistent>  (374) 
1

>  <s_lp_Variant>  (374) 
110:0-3

>  <s_i_glide_gridfile>  (374) 
pfpi4k_grid

>  <i_i_glide_lignum>  (374) 
24

>  <i_i_glide_rotatable_bonds>  (374) 
3

>  <r_i_docking_score>  (374) 
-3.06505

>  <r_i_glide_ligand_efficiency>  (374) 
-0.0785912

>  <r_i_glide_ligand_efficiency_sa>  (374) 
-0.266519

>  <r_i_glide_ligand_efficiency_ln>  (374) 
-0.657235

>  <r_i_glide_gscore>  (374) 
-3.06505

>  <r_i_glide_lipo>  (374) 
-0.410053

>  <r_i_glide_hbond>  (374) 
-0.16

>  <r_i_glide_metal>  (374) 
-0

>  <r_i_glide_rewards>  (374) 
0

>  <r_i_glide_evdw>  (374) 
-28.8945

>  <r_i_glide_ecoul>  (374) 
-7.5655

>  <r_i_glide_erotb>  (374) 
0.139555

>  <r_i_glide_esite>  (374) 
-0.0550088

>  <r_i_glide_emodel>  (374) 
-41.0624

>  <r_i_glide_energy>  (374) 
-36.46

>  <r_i_glide_einternal>  (374) 
7.33177

>  <r_i_glide_intrahb_reward>  (374) 
-0

>  <i_i_glide_confnum>  (374) 
5

>  <i_i_glide_posenum>  (374) 
30

>  <r_i_glide_eff_state_penalty>  (374) 
0

>  <ligand_id>  (374) 
110

>  <original_smiles>  (374) 
CC(C=CC=C1CCC(N)C1(C)O)=C1COC2(CCCC3(C2)OOC2(OO3)C3CC4CC(C3)CC2C4)C(=O)O1

>  <smiles>  (374) 
[H]OC1(C([H])([H])[H])C(=C([H])C([H])=C([H])C(=C2OC(=O)C3(OC2([H])[H])C([H])([H])C([H])([H])C([H])([H])C2(OOC4(OO2)C2([H])C([H])([H])C5([H])C([H])([H])C([H])(C2([H])[H])C([H])([H])C4([H])C5([H])[H])C3([H])[H])C([H])([H])[H])C([H])([H])C([H])([H])C1([H])[N+]([H])([H])[H]

$$$$
110:2:2
     RDKit          3D

 81 87  0  0  1  0  0  0  0  0999 V2000
   -1.7817   -4.1471    7.2673 C   0  0  0  0  0  0  0  0  0  0  0  0
   -0.4715   -3.5528    6.7454 C   0  0  0  0  0  0  0  0  0  0  0  0
   -0.0214   -2.3114    7.3704 C   0  0  0  0  0  0  0  0  0  0  0  0
    0.2285   -1.1150    6.7981 C   0  0  0  0  0  0  0  0  0  0  0  0
    0.0701   -0.7735    5.3995 C   0  0  0  0  0  0  0  0  0  0  0  0
    0.5058    0.3927    4.8671 C   0  0  0  0  0  0  0  0  0  0  0  0
    1.1820    1.5188    5.6265 C   0  0  0  0  0  0  0  0  0  0  0  0
    1.7216    2.4834    4.5681 C   0  0  0  0  0  0  0  0  0  0  0  0
    0.8709    2.2326    3.3190 C   0  0  1  0  0  0  0  0  0  0  0  0
    1.6002    2.5559    2.0815 N   0  0  0  0  0  0  0  0  0  0  0  0
    0.4557    0.7389    3.3878 C   0  0  1  0  0  0  0  0  0  0  0  0
    1.3990   -0.1892    2.5932 C   0  0  0  0  0  0  0  0  0  0  0  0
   -0.8626    0.5893    2.9045 O   0  0  0  0  0  0  0  0  0  0  0  0
    0.2405   -4.2159    5.8290 C   0  0  0  0  0  0  0  0  0  0  0  0
    1.5905   -3.8349    5.2167 C   0  0  0  0  0  0  0  0  0  0  0  0
    2.4994   -4.9255    5.2093 O   0  0  0  0  0  0  0  0  0  0  0  0
    1.9896   -6.1233    4.6176 C   0  0  2  0  0  0  0  0  0  0  0  0
    3.0327   -7.2704    4.8144 C   0  0  0  0  0  0  0  0  0  0  0  0
    4.3371   -7.0714    4.0212 C   0  0  0  0  0  0  0  0  0  0  0  0
    4.0904   -6.8102    2.5189 C   0  0  0  0  0  0  0  0  0  0  0  0
    3.0884   -5.6437    2.2932 C   0  0  1  0  0  0  0  0  0  0  0  0
    1.7844   -5.9005    3.0848 C   0  0  0  0  0  0  0  0  0  0  0  0
    3.6102   -4.3834    2.6883 O   0  0  0  0  0  0  0  0  0  0  0  0
    4.8300   -4.0752    1.8723 O   0  0  0  0  0  0  0  0  0  0  0  0
    4.4784   -4.0112    0.4974 C   0  0  0  0  0  0  0  0  0  0  0  0
    3.9453   -5.2699    0.1077 O   0  0  0  0  0  0  0  0  0  0  0  0
    2.7169   -5.5785    0.9279 O   0  0  0  0  0  0  0  0  0  0  0  0
    3.4981   -2.8340    0.1701 C   0  0  1  0  0  0  0  0  0  0  0  0
    4.1293   -1.4678    0.5607 C   0  0  0  0  0  0  0  0  0  0  0  0
    5.4368   -1.2498   -0.2275 C   0  0  2  0  0  0  0  0  0  0  0  0
    5.1257   -1.2276   -1.7378 C   0  0  0  0  0  0  0  0  0  0  0  0
    4.5017   -2.5699   -2.1494 C   0  0  2  0  0  0  0  0  0  0  0  0
    3.2069   -2.8017   -1.3581 C   0  0  0  0  0  0  0  0  0  0  0  0
    5.4734   -3.7156   -1.8332 C   0  0  0  0  0  0  0  0  0  0  0  0
    5.7874   -3.7666   -0.3098 C   0  0  1  0  0  0  0  0  0  0  0  0
    6.4122   -2.4022    0.1034 C   0  0  0  0  0  0  0  0  0  0  0  0
    0.6491   -6.4592    5.2980 C   0  0  0  0  0  0  0  0  0  0  0  0
    0.3331   -7.6221    5.6168 O   0  0  0  0  0  0  0  0  0  0  0  0
   -0.2158   -5.4618    5.4439 O   0  0  0  0  0  0  0  0  0  0  0  0
   -1.9570   -3.8692    8.3041 H   0  0  0  0  0  0  0  0  0  0  0  0
   -1.7923   -5.2378    7.2056 H   0  0  0  0  0  0  0  0  0  0  0  0
   -2.6197   -3.7733    6.6825 H   0  0  0  0  0  0  0  0  0  0  0  0
    0.1632   -2.3754    8.4283 H   0  0  0  0  0  0  0  0  0  0  0  0
    0.5845   -0.3499    7.4675 H   0  0  0  0  0  0  0  0  0  0  0  0
   -0.3955   -1.4929    4.7426 H   0  0  0  0  0  0  0  0  0  0  0  0
    0.4503    2.0168    6.2632 H   0  0  0  0  0  0  0  0  0  0  0  0
    1.9880    1.1532    6.2626 H   0  0  0  0  0  0  0  0  0  0  0  0
    1.6836    3.5241    4.8986 H   0  0  0  0  0  0  0  0  0  0  0  0
    2.7669    2.2429    4.3697 H   0  0  0  0  0  0  0  0  0  0  0  0
   -0.0157    2.8683    3.3812 H   0  0  0  0  0  0  0  0  0  0  0  0
    2.3958    1.9520    1.9885 H   0  0  0  0  0  0  0  0  0  0  0  0
    1.8920    3.5325    2.0907 H   0  0  0  0  0  0  0  0  0  0  0  0
    2.4339   -0.0460    2.9110 H   0  0  0  0  0  0  0  0  0  0  0  0
    1.3435   -0.0026    1.5197 H   0  0  0  0  0  0  0  0  0  0  0  0
    1.1559   -1.2422    2.7363 H   0  0  0  0  0  0  0  0  0  0  0  0
   -0.9282    0.9339    2.0248 H   0  0  0  0  0  0  0  0  0  0  0  0
    1.4194   -3.4467    4.2121 H   0  0  0  0  0  0  0  0  0  0  0  0
    2.0520   -3.0254    5.7730 H   0  0  0  0  0  0  0  0  0  0  0  0
    3.2594   -7.4372    5.8720 H   0  0  0  0  0  0  0  0  0  0  0  0
    2.6032   -8.2164    4.4820 H   0  0  0  0  0  0  0  0  0  0  0  0
    4.8804   -6.2337    4.4555 H   0  0  0  0  0  0  0  0  0  0  0  0
    4.9747   -7.9534    4.1407 H   0  0  0  0  0  0  0  0  0  0  0  0
    5.0429   -6.6574    2.0063 H   0  0  0  0  0  0  0  0  0  0  0  0
    3.6679   -7.7185    2.0803 H   0  0  0  0  0  0  0  0  0  0  0  0
    1.3633   -6.8353    2.7151 H   0  0  0  0  0  0  0  0  0  0  0  0
    1.0291   -5.1408    2.8500 H   0  0  0  0  0  0  0  0  0  0  0  0
    2.5531   -2.9406    0.7068 H   0  0  0  0  0  0  0  0  0  0  0  0
    3.4363   -0.6473    0.3523 H   0  0  0  0  0  0  0  0  0  0  0  0
    4.3350   -1.4377    1.6315 H   0  0  0  0  0  0  0  0  0  0  0  0
    5.8853   -0.2964    0.0609 H   0  0  0  0  0  0  0  0  0  0  0  0
    4.4646   -0.3949   -1.9855 H   0  0  0  0  0  0  0  0  0  0  0  0
    6.0336   -1.0705   -2.3148 H   0  0  0  0  0  0  0  0  0  0  0  0
    4.2882   -2.5488   -3.2204 H   0  0  0  0  0  0  0  0  0  0  0  0
    2.7215   -3.7238   -1.6815 H   0  0  0  0  0  0  0  0  0  0  0  0
    2.5325   -1.9902   -1.6155 H   0  0  0  0  0  0  0  0  0  0  0  0
    5.0324   -4.6560   -2.1632 H   0  0  0  0  0  0  0  0  0  0  0  0
    6.3855   -3.5885   -2.4163 H   0  0  0  0  0  0  0  0  0  0  0  0
    6.5028   -4.5766   -0.1195 H   0  0  0  0  0  0  0  0  0  0  0  0
    7.3631   -2.2433   -0.4034 H   0  0  0  0  0  0  0  0  0  0  0  0
    6.6354   -2.3910    1.1715 H   0  0  0  0  0  0  0  0  0  0  0  0
    0.9765    2.4699    1.2887 H   0  0  0  0  0  0  0  0  0  0  0  0
  1  2  1  0
  1 40  1  0
  1 41  1  0
  1 42  1  0
  2  3  1  0
  2 14  2  3
  3  4  2  3
  3 43  1  0
  4  5  1  0
  4 44  1  0
  5  6  2  3
  5 45  1  0
  6 11  1  0
  6  7  1  0
  7  8  1  0
  7 46  1  0
  7 47  1  0
  8  9  1  0
  8 48  1  0
  8 49  1  0
  9 10  1  0
  9 11  1  0
  9 50  1  1
 10 51  1  0
 10 52  1  0
 10 81  1  0
 11 12  1  0
 11 13  1  6
 12 53  1  0
 12 54  1  0
 12 55  1  0
 13 56  1  0
 14 39  1  0
 14 15  1  0
 15 16  1  0
 15 57  1  0
 15 58  1  0
 17 16  1  1
 17 22  1  0
 17 18  1  0
 17 37  1  0
 18 19  1  0
 18 59  1  0
 18 60  1  0
 19 20  1  0
 19 61  1  0
 19 62  1  0
 20 21  1  0
 20 63  1  0
 20 64  1  0
 21 27  1  6
 21 22  1  0
 21 23  1  0
 22 65  1  0
 22 66  1  0
 23 24  1  0
 24 25  1  0
 25 35  1  0
 25 26  1  0
 25 28  1  0
 26 27  1  0
 28 33  1  0
 28 29  1  0
 28 67  1  1
 29 30  1  0
 29 68  1  0
 29 69  1  0
 30 36  1  0
 30 31  1  0
 30 70  1  1
 31 32  1  0
 31 71  1  0
 31 72  1  0
 32 33  1  0
 32 34  1  0
 32 73  1  6
 33 74  1  0
 33 75  1  0
 34 35  1  0
 34 76  1  0
 34 77  1  0
 35 36  1  0
 35 78  1  6
 36 79  1  0
 36 80  1  0
 37 38  2  0
 37 39  1  0
M  CHG  1  10   1
M  END
>  <i_m_ct_stereo_status>  (375) 
1

>  <s_m_source_file>  (375) 
/var/tmp/pbs.5076255.sched01/tmpybatibx8/138x0dlab3k.sdf

>  <i_m_source_file_index>  (375) 
24

>  <i_lp_mmshare_version>  (375) 
48012

>  <i_f3d_flags>  (375) 
0

>  <s_epik_input>  (375) 
W05IMl1bQ0BASF0xW0NIMl1bQ0gyXS9DKFtDQEBdMShbQ0gzXSlbT0hdKT1bQ0hdXFtDSF09W0NIXVxDKFxbQ0gzXSk9QyhPQzI9TykvW0NIMl1PW0NAQF0yM1tDSDJdW0NIMl1bQ0gyXUM0KFtDSDJdMylPT1tDQEBdNShPTzQpW0NASF02W0NIMl1bQ0BASF03W0NIMl1bQ0BIXShbQ0gyXTYpW0NIMl1bQ0BIXTVbQ0gyXTc=

>  <s_epik_cmdline>  (375) 
J2VwaWtfcHl0aG9uJywgJy1waHQnLCAnMi4wJywgJy1waCcsICc3LjAnLCAnLXRuJywgJzgnLCAnLW1hJywgJzIwMCcsICctaW1hZScsICc8aW5maWxlLm1hZT4nLCAnLW9tYWUnLCAnPG91dGZpbGUubWFlPic=

>  <r_epik_Ionization_Penalty>  (375) 
0.0231352

>  <r_epik_Ionization_Penalty_Charging>  (375) 
0.0231339

>  <r_epik_Ionization_Penalty_Neutral>  (375) 
1.32465e-06

>  <r_epik_State_Penalty>  (375) 
0.0187057

>  <r_epik_Charging_Adjusted_Penalty>  (375) 
0.0418396

>  <i_epik_Tot_Q>  (375) 
1

>  <i_epik_Tot_abs_Q>  (375) 
1

>  <s_lp_Force_Field>  (375) 
OPLS3e

>  <r_lp_Energy>  (375) 
19.0433

>  <b_lp_Chiralities_Consistent>  (375) 
1

>  <s_lp_Variant>  (375) 
110:0-3

>  <s_i_glide_gridfile>  (375) 
pfpi4k_grid

>  <i_i_glide_lignum>  (375) 
24

>  <i_i_glide_rotatable_bonds>  (375) 
3

>  <r_i_docking_score>  (375) 
-2.58481

>  <r_i_glide_ligand_efficiency>  (375) 
-0.0662771

>  <r_i_glide_ligand_efficiency_sa>  (375) 
-0.22476

>  <r_i_glide_ligand_efficiency_ln>  (375) 
-0.554256

>  <r_i_glide_gscore>  (375) 
-2.58481

>  <r_i_glide_lipo>  (375) 
-0.23187

>  <r_i_glide_hbond>  (375) 
-0.0424596

>  <r_i_glide_metal>  (375) 
-0

>  <r_i_glide_rewards>  (375) 
-0.043448

>  <r_i_glide_evdw>  (375) 
-34.064

>  <r_i_glide_ecoul>  (375) 
-4.09554

>  <r_i_glide_erotb>  (375) 
0.139555

>  <r_i_glide_esite>  (375) 
-0.0890538

>  <r_i_glide_emodel>  (375) 
-42.5832

>  <r_i_glide_energy>  (375) 
-38.1595

>  <r_i_glide_einternal>  (375) 
5.10517

>  <r_i_glide_intrahb_reward>  (375) 
-0

>  <i_i_glide_confnum>  (375) 
4

>  <i_i_glide_posenum>  (375) 
10

>  <r_i_glide_eff_state_penalty>  (375) 
0

>  <ligand_id>  (375) 
110

>  <original_smiles>  (375) 
CC(C=CC=C1CCC(N)C1(C)O)=C1COC2(CCCC3(C2)OOC2(OO3)C3CC4CC(C3)CC2C4)C(=O)O1

>  <smiles>  (375) 
[H]OC1(C([H])([H])[H])C(=C([H])C([H])=C([H])C(=C2OC(=O)C3(OC2([H])[H])C([H])([H])C([H])([H])C([H])([H])C2(OOC4(OO2)C2([H])C([H])([H])C5([H])C([H])([H])C([H])(C2([H])[H])C([H])([H])C4([H])C5([H])[H])C3([H])[H])C([H])([H])[H])C([H])([H])C([H])([H])C1([H])[N+]([H])([H])[H]

$$$$
110:3:0
     RDKit          3D

 81 87  0  0  1  0  0  0  0  0999 V2000
    1.5767    1.9954    3.8398 C   0  0  0  0  0  0  0  0  0  0  0  0
    0.6096    1.3018    4.7982 C   0  0  0  0  0  0  0  0  0  0  0  0
   -0.7136    1.9183    4.9631 C   0  0  0  0  0  0  0  0  0  0  0  0
   -1.2543    2.3912    6.1036 C   0  0  0  0  0  0  0  0  0  0  0  0
   -0.6075    2.4350    7.4061 C   0  0  0  0  0  0  0  0  0  0  0  0
   -1.1683    3.0103    8.4989 C   0  0  0  0  0  0  0  0  0  0  0  0
   -2.5257    3.6791    8.5373 C   0  0  0  0  0  0  0  0  0  0  0  0
   -2.7848    4.0105   10.0062 C   0  0  0  0  0  0  0  0  0  0  0  0
   -1.4025    4.0918   10.6608 C   0  0  1  0  0  0  0  0  0  0  0  0
   -1.4518    3.7914   12.1081 N   0  0  0  0  0  0  0  0  0  0  0  0
   -0.5075    3.1103    9.8619 C   0  0  1  0  0  0  0  0  0  0  0  0
   -0.3949    1.7183   10.5079 C   0  0  0  0  0  0  0  0  0  0  0  0
    0.7913    3.6571    9.7304 O   0  0  0  0  0  0  0  0  0  0  0  0
    0.8879    0.1399    5.3994 C   0  0  0  0  0  0  0  0  0  0  0  0
    2.1802   -0.6764    5.2915 C   0  0  0  0  0  0  0  0  0  0  0  0
    1.9131   -2.0504    5.0880 O   0  0  0  0  0  0  0  0  0  0  0  0
    0.9783   -2.6622    5.9727 C   0  0  2  0  0  0  0  0  0  0  0  0
    1.6282   -2.8428    7.3716 C   0  0  0  0  0  0  0  0  0  0  0  0
    2.7908   -3.8627    7.3502 C   0  0  0  0  0  0  0  0  0  0  0  0
    2.3872   -5.2381    6.7716 C   0  0  0  0  0  0  0  0  0  0  0  0
    1.7555   -5.1175    5.3638 C   0  0  1  0  0  0  0  0  0  0  0  0
    0.6097   -4.0783    5.4087 C   0  0  0  0  0  0  0  0  0  0  0  0
    2.6691   -4.7094    4.3657 O   0  0  0  0  0  0  0  0  0  0  0  0
    3.7556   -5.7255    4.2481 O   0  0  0  0  0  0  0  0  0  0  0  0
    3.2090   -6.9736    3.8683 C   0  0  0  0  0  0  0  0  0  0  0  0
    2.2831   -7.3781    4.8597 O   0  0  0  0  0  0  0  0  0  0  0  0
    1.1856   -6.3538    4.9847 O   0  0  0  0  0  0  0  0  0  0  0  0
    2.5697   -6.9621    2.4450 C   0  0  1  0  0  0  0  0  0  0  0  0
    3.6167   -6.5587    1.3725 C   0  0  0  0  0  0  0  0  0  0  0  0
    4.7861   -7.5703    1.3711 C   0  0  2  0  0  0  0  0  0  0  0  0
    4.2667   -8.9820    1.0298 C   0  0  0  0  0  0  0  0  0  0  0  0
    3.2109   -9.3917    2.0702 C   0  0  2  0  0  0  0  0  0  0  0  0
    2.0443   -8.3762    2.0742 C   0  0  0  0  0  0  0  0  0  0  0  0
    3.8570   -9.4175    3.4704 C   0  0  0  0  0  0  0  0  0  0  0  0
    4.3844   -8.0001    3.8438 C   0  0  1  0  0  0  0  0  0  0  0  0
    5.4341   -7.5736    2.7735 C   0  0  0  0  0  0  0  0  0  0  0  0
   -0.2755   -1.7659    6.0494 C   0  0  0  0  0  0  0  0  0  0  0  0
   -1.4134   -2.2497    6.1125 O   0  0  0  0  0  0  0  0  0  0  0  0
   -0.0945   -0.4640    6.1515 O   0  0  0  0  0  0  0  0  0  0  0  0
    1.3728    3.0652    3.7725 H   0  0  0  0  0  0  0  0  0  0  0  0
    1.4590    1.5906    2.8335 H   0  0  0  0  0  0  0  0  0  0  0  0
    2.6159    1.8690    4.1393 H   0  0  0  0  0  0  0  0  0  0  0  0
   -1.3321    1.9763    4.0749 H   0  0  0  0  0  0  0  0  0  0  0  0
   -2.2640    2.7706    6.0272 H   0  0  0  0  0  0  0  0  0  0  0  0
    0.3734    1.9964    7.5164 H   0  0  0  0  0  0  0  0  0  0  0  0
   -2.4989    4.5884    7.9367 H   0  0  0  0  0  0  0  0  0  0  0  0
   -3.3094    3.0342    8.1409 H   0  0  0  0  0  0  0  0  0  0  0  0
   -3.3562    4.9333   10.1112 H   0  0  0  0  0  0  0  0  0  0  0  0
   -3.3663    3.2063   10.4570 H   0  0  0  0  0  0  0  0  0  0  0  0
   -1.0337    5.1137   10.5281 H   0  0  0  0  0  0  0  0  0  0  0  0
   -1.8618    2.8675   12.2687 H   0  0  0  0  0  0  0  0  0  0  0  0
   -2.0466    4.4438   12.5938 H   0  0  0  0  0  0  0  0  0  0  0  0
   -1.3846    1.2802   10.5926 H   0  0  0  0  0  0  0  0  0  0  0  0
    0.0302    1.7485   11.5108 H   0  0  0  0  0  0  0  0  0  0  0  0
    0.2266    1.0462    9.9179 H   0  0  0  0  0  0  0  0  0  0  0  0
    1.2051    3.7133   10.5726 H   0  0  0  0  0  0  0  0  0  0  0  0
    2.7901   -0.3473    4.4528 H   0  0  0  0  0  0  0  0  0  0  0  0
    2.7768   -0.5193    6.1884 H   0  0  0  0  0  0  0  0  0  0  0  0
    1.9795   -1.8955    7.7859 H   0  0  0  0  0  0  0  0  0  0  0  0
    0.8756   -3.1919    8.0785 H   0  0  0  0  0  0  0  0  0  0  0  0
    3.6083   -3.4534    6.7520 H   0  0  0  0  0  0  0  0  0  0  0  0
    3.1818   -3.9867    8.3664 H   0  0  0  0  0  0  0  0  0  0  0  0
    3.2424   -5.9128    6.7828 H   0  0  0  0  0  0  0  0  0  0  0  0
    1.6596   -5.6882    7.4497 H   0  0  0  0  0  0  0  0  0  0  0  0
   -0.1316   -4.4915    6.0958 H   0  0  0  0  0  0  0  0  0  0  0  0
    0.0990   -4.0191    4.4422 H   0  0  0  0  0  0  0  0  0  0  0  0
    1.7413   -6.2591    2.3981 H   0  0  0  0  0  0  0  0  0  0  0  0
    3.1680   -6.5160    0.3753 H   0  0  0  0  0  0  0  0  0  0  0  0
    3.9993   -5.5569    1.5725 H   0  0  0  0  0  0  0  0  0  0  0  0
    5.5271   -7.2703    0.6284 H   0  0  0  0  0  0  0  0  0  0  0  0
    3.8274   -9.0041    0.0367 H   0  0  0  0  0  0  0  0  0  0  0  0
    5.0833   -9.7068    1.0009 H   0  0  0  0  0  0  0  0  0  0  0  0
    2.8406  -10.3881    1.8202 H   0  0  0  0  0  0  0  0  0  0  0  0
    1.2790   -8.7008    2.7794 H   0  0  0  0  0  0  0  0  0  0  0  0
    1.5624   -8.3729    1.0928 H   0  0  0  0  0  0  0  0  0  0  0  0
    3.1253   -9.7559    4.2051 H   0  0  0  0  0  0  0  0  0  0  0  0
    4.6632  -10.1553    3.4893 H   0  0  0  0  0  0  0  0  0  0  0  0
    4.8676   -8.0513    4.8273 H   0  0  0  0  0  0  0  0  0  0  0  0
    6.2969   -8.2424    2.7809 H   0  0  0  0  0  0  0  0  0  0  0  0
    5.8227   -6.5784    2.9965 H   0  0  0  0  0  0  0  0  0  0  0  0
   -0.5218    3.8158   12.4999 H   0  0  0  0  0  0  0  0  0  0  0  0
  1  2  1  0
  1 40  1  0
  1 41  1  0
  1 42  1  0
  2  3  1  0
  2 14  2  3
  3  4  2  3
  3 43  1  0
  4  5  1  0
  4 44  1  0
  5  6  2  3
  5 45  1  0
  6 11  1  0
  6  7  1  0
  7  8  1  0
  7 46  1  0
  7 47  1  0
  8  9  1  0
  8 48  1  0
  8 49  1  0
  9 10  1  0
  9 11  1  0
  9 50  1  1
 10 51  1  0
 10 52  1  0
 10 81  1  0
 11 12  1  0
 11 13  1  6
 12 53  1  0
 12 54  1  0
 12 55  1  0
 13 56  1  0
 14 39  1  0
 14 15  1  0
 15 16  1  0
 15 57  1  0
 15 58  1  0
 17 16  1  6
 17 22  1  0
 17 18  1  0
 17 37  1  0
 18 19  1  0
 18 59  1  0
 18 60  1  0
 19 20  1  0
 19 61  1  0
 19 62  1  0
 20 21  1  0
 20 63  1  0
 20 64  1  0
 21 27  1  6
 21 22  1  0
 21 23  1  0
 22 65  1  0
 22 66  1  0
 23 24  1  0
 24 25  1  0
 25 35  1  0
 25 26  1  0
 25 28  1  0
 26 27  1  0
 28 33  1  0
 28 29  1  0
 28 67  1  1
 29 30  1  0
 29 68  1  0
 29 69  1  0
 30 36  1  0
 30 31  1  0
 30 70  1  6
 31 32  1  0
 31 71  1  0
 31 72  1  0
 32 33  1  0
 32 34  1  0
 32 73  1  6
 33 74  1  0
 33 75  1  0
 34 35  1  0
 34 76  1  0
 34 77  1  0
 35 36  1  0
 35 78  1  1
 36 79  1  0
 36 80  1  0
 37 38  2  0
 37 39  1  0
M  CHG  1  10   1
M  END
>  <i_m_ct_stereo_status>  (376) 
1

>  <s_m_source_file>  (376) 
/var/tmp/pbs.5076255.sched01/tmpybatibx8/138x0dlab3k.sdf

>  <i_m_source_file_index>  (376) 
25

>  <i_lp_mmshare_version>  (376) 
48012

>  <i_f3d_flags>  (376) 
0

>  <s_epik_input>  (376) 
W05IMl1bQ0BASF0xW0NIMl1bQ0gyXS9DKFtDQEBdMShbQ0gzXSlbT0hdKT1bQ0hdXFtDSF09W0NIXVxDKFxbQ0gzXSk9QyhPQzI9TykvW0NIMl1PW0NAQF0yM1tDSDJdW0NIMl1bQ0gyXUM0KFtDSDJdMylPT1tDQEBdNShPTzQpW0NASF02W0NIMl1bQ0BASF03W0NIMl1bQ0BIXShbQ0gyXTYpW0NIMl1bQ0BIXTVbQ0gyXTc=

>  <s_epik_cmdline>  (376) 
J2VwaWtfcHl0aG9uJywgJy1waHQnLCAnMi4wJywgJy1waCcsICc3LjAnLCAnLXRuJywgJzgnLCAnLW1hJywgJzIwMCcsICctaW1hZScsICc8aW5maWxlLm1hZT4nLCAnLW9tYWUnLCAnPG91dGZpbGUubWFlPic=

>  <r_epik_Ionization_Penalty>  (376) 
0.0231352

>  <r_epik_Ionization_Penalty_Charging>  (376) 
0.0231339

>  <r_epik_Ionization_Penalty_Neutral>  (376) 
1.32465e-06

>  <r_epik_State_Penalty>  (376) 
0.0187057

>  <r_epik_Charging_Adjusted_Penalty>  (376) 
0.0418396

>  <i_epik_Tot_Q>  (376) 
1

>  <i_epik_Tot_abs_Q>  (376) 
1

>  <s_lp_Force_Field>  (376) 
OPLS3e

>  <r_lp_Energy>  (376) 
18.4628

>  <b_lp_Chiralities_Consistent>  (376) 
1

>  <s_lp_Variant>  (376) 
110:0-4

>  <s_i_glide_gridfile>  (376) 
pfpi4k_grid

>  <i_i_glide_lignum>  (376) 
25

>  <i_i_glide_rotatable_bonds>  (376) 
3

>  <r_i_docking_score>  (376) 
-2.73889

>  <r_i_glide_ligand_efficiency>  (376) 
-0.070228

>  <r_i_glide_ligand_efficiency_sa>  (376) 
-0.238158

>  <r_i_glide_ligand_efficiency_ln>  (376) 
-0.587296

>  <r_i_glide_gscore>  (376) 
-2.73889

>  <r_i_glide_lipo>  (376) 
-0.200083

>  <r_i_glide_hbond>  (376) 
-0.195718

>  <r_i_glide_metal>  (376) 
-0

>  <r_i_glide_rewards>  (376) 
0

>  <r_i_glide_evdw>  (376) 
-26.6312

>  <r_i_glide_ecoul>  (376) 
-6.94045

>  <r_i_glide_erotb>  (376) 
0.139555

>  <r_i_glide_esite>  (376) 
-0.110017

>  <r_i_glide_emodel>  (376) 
-37.6997

>  <r_i_glide_energy>  (376) 
-33.5717

>  <r_i_glide_einternal>  (376) 
4.28552

>  <r_i_glide_intrahb_reward>  (376) 
-0

>  <i_i_glide_confnum>  (376) 
5

>  <i_i_glide_posenum>  (376) 
20

>  <r_i_glide_eff_state_penalty>  (376) 
0

>  <ligand_id>  (376) 
110

>  <original_smiles>  (376) 
CC(C=CC=C1CCC(N)C1(C)O)=C1COC2(CCCC3(C2)OOC2(OO3)C3CC4CC(C3)CC2C4)C(=O)O1

>  <smiles>  (376) 
[H]OC1(C([H])([H])[H])C(=C([H])C([H])=C([H])C(=C2OC(=O)C3(OC2([H])[H])C([H])([H])C([H])([H])C([H])([H])C2(OOC4(OO2)C2([H])C([H])([H])C5([H])C([H])([H])C([H])(C2([H])[H])C([H])([H])C4([H])C5([H])[H])C3([H])[H])C([H])([H])[H])C([H])([H])C([H])([H])C1([H])[N+]([H])([H])[H]

$$$$
110:3:1
     RDKit          3D

 81 87  0  0  1  0  0  0  0  0999 V2000
    1.3824    2.0343    2.5488 C   0  0  0  0  0  0  0  0  0  0  0  0
    0.5220    1.6156    3.7497 C   0  0  0  0  0  0  0  0  0  0  0  0
   -0.7065    2.3957    3.9788 C   0  0  0  0  0  0  0  0  0  0  0  0
   -1.1757    2.8679    5.1642 C   0  0  0  0  0  0  0  0  0  0  0  0
   -0.5014    2.7794    6.4443 C   0  0  0  0  0  0  0  0  0  0  0  0
   -1.1193    2.9610    7.6340 C   0  0  0  0  0  0  0  0  0  0  0  0
   -2.5974    3.2353    7.8154 C   0  0  0  0  0  0  0  0  0  0  0  0
   -2.8574    3.1478    9.3217 C   0  0  0  0  0  0  0  0  0  0  0  0
   -1.4982    3.4184    9.9831 C   0  0  1  0  0  0  0  0  0  0  0  0
   -1.3888    2.7972   11.3233 N   0  0  0  0  0  0  0  0  0  0  0  0
   -0.4349    2.8861    8.9866 C   0  0  1  0  0  0  0  0  0  0  0  0
    0.0233    1.4419    9.2783 C   0  0  0  0  0  0  0  0  0  0  0  0
    0.6941    3.7363    8.9969 O   0  0  0  0  0  0  0  0  0  0  0  0
    0.8109    0.5466    4.4743 C   0  0  0  0  0  0  0  0  0  0  0  0
    2.0126   -0.3888    4.3574 C   0  0  0  0  0  0  0  0  0  0  0  0
    1.6352   -1.7624    4.4441 O   0  0  0  0  0  0  0  0  0  0  0  0
    0.7952   -2.1138    5.5716 C   0  0  2  0  0  0  0  0  0  0  0  0
    1.6420   -2.0933    6.8709 C   0  0  0  0  0  0  0  0  0  0  0  0
    2.7141   -3.2115    6.8722 C   0  0  0  0  0  0  0  0  0  0  0  0
    2.1263   -4.6167    6.6266 C   0  0  0  0  0  0  0  0  0  0  0  0
    1.2929   -4.6782    5.3269 C   0  0  1  0  0  0  0  0  0  0  0  0
    0.2443   -3.5451    5.3449 C   0  0  0  0  0  0  0  0  0  0  0  0
    2.0672   -4.5394    4.1397 O   0  0  0  0  0  0  0  0  0  0  0  0
    3.0552   -5.6569    4.0625 O   0  0  0  0  0  0  0  0  0  0  0  0
    2.3662   -6.9060    4.0045 C   0  0  0  0  0  0  0  0  0  0  0  0
    1.5690   -7.0440    5.1847 O   0  0  0  0  0  0  0  0  0  0  0  0
    0.5851   -5.9163    5.2574 O   0  0  0  0  0  0  0  0  0  0  0  0
    1.5128   -7.0746    2.7114 C   0  0  1  0  0  0  0  0  0  0  0  0
    2.4047   -6.9590    1.4490 C   0  0  0  0  0  0  0  0  0  0  0  0
    3.4882   -8.0615    1.4673 C   0  0  2  0  0  0  0  0  0  0  0  0
    2.8194   -9.4498    1.4648 C   0  0  0  0  0  0  0  0  0  0  0  0
    1.9165   -9.5793    2.7048 C   0  0  2  0  0  0  0  0  0  0  0  0
    0.8382   -8.4749    2.6860 C   0  0  0  0  0  0  0  0  0  0  0  0
    2.7723   -9.4252    3.9803 C   0  0  0  0  0  0  0  0  0  0  0  0
    3.4520   -8.0331    4.0002 C   0  0  1  0  0  0  0  0  0  0  0  0
    4.3443   -7.8913    2.7415 C   0  0  0  0  0  0  0  0  0  0  0  0
   -0.3567   -1.1032    5.6574 C   0  0  0  0  0  0  0  0  0  0  0  0
   -1.5074   -1.4506    6.0000 O   0  0  0  0  0  0  0  0  0  0  0  0
   -0.0789    0.1788    5.4724 O   0  0  0  0  0  0  0  0  0  0  0  0
    1.2538    3.0895    2.3221 H   0  0  0  0  0  0  0  0  0  0  0  0
    1.0708    1.4858    1.6613 H   0  0  0  0  0  0  0  0  0  0  0  0
    2.4417    1.8603    2.7109 H   0  0  0  0  0  0  0  0  0  0  0  0
   -1.3257    2.5778    3.1120 H   0  0  0  0  0  0  0  0  0  0  0  0
   -2.1329    3.3664    5.1282 H   0  0  0  0  0  0  0  0  0  0  0  0
    0.5607    2.5715    6.4561 H   0  0  0  0  0  0  0  0  0  0  0  0
   -2.8260    4.2309    7.4410 H   0  0  0  0  0  0  0  0  0  0  0  0
   -3.2051    2.5182    7.2650 H   0  0  0  0  0  0  0  0  0  0  0  0
   -3.6302    3.8452    9.6488 H   0  0  0  0  0  0  0  0  0  0  0  0
   -3.1987    2.1453    9.5672 H   0  0  0  0  0  0  0  0  0  0  0  0
   -1.3888    4.5022   10.0940 H   0  0  0  0  0  0  0  0  0  0  0  0
   -1.5193    1.8023   11.2238 H   0  0  0  0  0  0  0  0  0  0  0  0
   -2.1206    3.0775   11.9616 H   0  0  0  0  0  0  0  0  0  0  0  0
   -0.8238    0.7554    9.2343 H   0  0  0  0  0  0  0  0  0  0  0  0
    0.4827    1.3429   10.2635 H   0  0  0  0  0  0  0  0  0  0  0  0
    0.7697    1.0994    8.5605 H   0  0  0  0  0  0  0  0  0  0  0  0
    1.0924    3.7421    9.8519 H   0  0  0  0  0  0  0  0  0  0  0  0
    2.5052   -0.2662    3.3963 H   0  0  0  0  0  0  0  0  0  0  0  0
    2.7429   -0.1328    5.1175 H   0  0  0  0  0  0  0  0  0  0  0  0
    2.1174   -1.1261    7.0438 H   0  0  0  0  0  0  0  0  0  0  0  0
    0.9878   -2.2393    7.7267 H   0  0  0  0  0  0  0  0  0  0  0  0
    3.4515   -2.9898    6.0991 H   0  0  0  0  0  0  0  0  0  0  0  0
    3.2504   -3.1920    7.8301 H   0  0  0  0  0  0  0  0  0  0  0  0
    2.9304   -5.3636    6.6367 H   0  0  0  0  0  0  0  0  0  0  0  0
    1.4872   -4.8733    7.4697 H   0  0  0  0  0  0  0  0  0  0  0  0
   -0.4017   -3.7641    6.1836 H   0  0  0  0  0  0  0  0  0  0  0  0
   -0.3994   -3.6016    4.4591 H   0  0  0  0  0  0  0  0  0  0  0  0
    0.7338   -6.3121    2.6545 H   0  0  0  0  0  0  0  0  0  0  0  0
    1.7966   -7.0468    0.5414 H   0  0  0  0  0  0  0  0  0  0  0  0
    2.8816   -5.9783    1.4006 H   0  0  0  0  0  0  0  0  0  0  0  0
    4.1260   -7.9779    0.5825 H   0  0  0  0  0  0  0  0  0  0  0  0
    2.2360   -9.5931    0.5582 H   0  0  0  0  0  0  0  0  0  0  0  0
    3.5695  -10.2408    1.4630 H   0  0  0  0  0  0  0  0  0  0  0  0
    1.4441  -10.5649    2.6953 H   0  0  0  0  0  0  0  0  0  0  0  0
    0.1719   -8.5990    3.5405 H   0  0  0  0  0  0  0  0  0  0  0  0
    0.2113   -8.5967    1.7956 H   0  0  0  0  0  0  0  0  0  0  0  0
    2.1423   -9.5639    4.8601 H   0  0  0  0  0  0  0  0  0  0  0  0
    3.5154  -10.2252    4.0210 H   0  0  0  0  0  0  0  0  0  0  0  0
    4.0766   -7.9522    4.9028 H   0  0  0  0  0  0  0  0  0  0  0  0
    5.1493   -8.6276    2.7457 H   0  0  0  0  0  0  0  0  0  0  0  0
    4.8314   -6.9129    2.7168 H   0  0  0  0  0  0  0  0  0  0  0  0
   -0.4813    2.9670   11.7243 H   0  0  0  0  0  0  0  0  0  0  0  0
  1  2  1  0
  1 40  1  0
  1 41  1  0
  1 42  1  0
  2  3  1  0
  2 14  2  3
  3  4  2  3
  3 43  1  0
  4  5  1  0
  4 44  1  0
  5  6  2  3
  5 45  1  0
  6 11  1  0
  6  7  1  0
  7  8  1  0
  7 46  1  0
  7 47  1  0
  8  9  1  0
  8 48  1  0
  8 49  1  0
  9 10  1  0
  9 11  1  0
  9 50  1  1
 10 51  1  0
 10 52  1  0
 10 81  1  0
 11 12  1  0
 11 13  1  6
 12 53  1  0
 12 54  1  0
 12 55  1  0
 13 56  1  0
 14 39  1  0
 14 15  1  0
 15 16  1  0
 15 57  1  0
 15 58  1  0
 17 16  1  6
 17 22  1  0
 17 18  1  0
 17 37  1  0
 18 19  1  0
 18 59  1  0
 18 60  1  0
 19 20  1  0
 19 61  1  0
 19 62  1  0
 20 21  1  0
 20 63  1  0
 20 64  1  0
 21 27  1  6
 21 22  1  0
 21 23  1  0
 22 65  1  0
 22 66  1  0
 23 24  1  0
 24 25  1  0
 25 35  1  0
 25 26  1  0
 25 28  1  0
 26 27  1  0
 28 33  1  0
 28 29  1  0
 28 67  1  6
 29 30  1  0
 29 68  1  0
 29 69  1  0
 30 36  1  0
 30 31  1  0
 30 70  1  6
 31 32  1  0
 31 71  1  0
 31 72  1  0
 32 33  1  0
 32 34  1  0
 32 73  1  1
 33 74  1  0
 33 75  1  0
 34 35  1  0
 34 76  1  0
 34 77  1  0
 35 36  1  0
 35 78  1  1
 36 79  1  0
 36 80  1  0
 37 38  2  0
 37 39  1  0
M  CHG  1  10   1
M  END
>  <i_m_ct_stereo_status>  (377) 
1

>  <s_m_source_file>  (377) 
/var/tmp/pbs.5076255.sched01/tmpybatibx8/138x0dlab3k.sdf

>  <i_m_source_file_index>  (377) 
25

>  <i_lp_mmshare_version>  (377) 
48012

>  <i_f3d_flags>  (377) 
0

>  <s_epik_input>  (377) 
W05IMl1bQ0BASF0xW0NIMl1bQ0gyXS9DKFtDQEBdMShbQ0gzXSlbT0hdKT1bQ0hdXFtDSF09W0NIXVxDKFxbQ0gzXSk9QyhPQzI9TykvW0NIMl1PW0NAQF0yM1tDSDJdW0NIMl1bQ0gyXUM0KFtDSDJdMylPT1tDQEBdNShPTzQpW0NASF02W0NIMl1bQ0BASF03W0NIMl1bQ0BIXShbQ0gyXTYpW0NIMl1bQ0BIXTVbQ0gyXTc=

>  <s_epik_cmdline>  (377) 
J2VwaWtfcHl0aG9uJywgJy1waHQnLCAnMi4wJywgJy1waCcsICc3LjAnLCAnLXRuJywgJzgnLCAnLW1hJywgJzIwMCcsICctaW1hZScsICc8aW5maWxlLm1hZT4nLCAnLW9tYWUnLCAnPG91dGZpbGUubWFlPic=

>  <r_epik_Ionization_Penalty>  (377) 
0.0231352

>  <r_epik_Ionization_Penalty_Charging>  (377) 
0.0231339

>  <r_epik_Ionization_Penalty_Neutral>  (377) 
1.32465e-06

>  <r_epik_State_Penalty>  (377) 
0.0187057

>  <r_epik_Charging_Adjusted_Penalty>  (377) 
0.0418396

>  <i_epik_Tot_Q>  (377) 
1

>  <i_epik_Tot_abs_Q>  (377) 
1

>  <s_lp_Force_Field>  (377) 
OPLS3e

>  <r_lp_Energy>  (377) 
18.4628

>  <b_lp_Chiralities_Consistent>  (377) 
1

>  <s_lp_Variant>  (377) 
110:0-4

>  <s_i_glide_gridfile>  (377) 
pfpi4k_grid

>  <i_i_glide_lignum>  (377) 
25

>  <i_i_glide_rotatable_bonds>  (377) 
3

>  <r_i_docking_score>  (377) 
-2.65337

>  <r_i_glide_ligand_efficiency>  (377) 
-0.0680351

>  <r_i_glide_ligand_efficiency_sa>  (377) 
-0.230721

>  <r_i_glide_ligand_efficiency_ln>  (377) 
-0.568958

>  <r_i_glide_gscore>  (377) 
-2.65337

>  <r_i_glide_lipo>  (377) 
-0.161204

>  <r_i_glide_hbond>  (377) 
-0.112695

>  <r_i_glide_metal>  (377) 
-0

>  <r_i_glide_rewards>  (377) 
0

>  <r_i_glide_evdw>  (377) 
-28.0529

>  <r_i_glide_ecoul>  (377) 
-6.56996

>  <r_i_glide_erotb>  (377) 
0.139555

>  <r_i_glide_esite>  (377) 
-0.130887

>  <r_i_glide_emodel>  (377) 
-38.3963

>  <r_i_glide_energy>  (377) 
-34.6228

>  <r_i_glide_einternal>  (377) 
4.11905

>  <r_i_glide_intrahb_reward>  (377) 
-0

>  <i_i_glide_confnum>  (377) 
5

>  <i_i_glide_posenum>  (377) 
37

>  <r_i_glide_eff_state_penalty>  (377) 
0

>  <ligand_id>  (377) 
110

>  <original_smiles>  (377) 
CC(C=CC=C1CCC(N)C1(C)O)=C1COC2(CCCC3(C2)OOC2(OO3)C3CC4CC(C3)CC2C4)C(=O)O1

>  <smiles>  (377) 
[H]OC1(C([H])([H])[H])C(=C([H])C([H])=C([H])C(=C2OC(=O)C3(OC2([H])[H])C([H])([H])C([H])([H])C([H])([H])C2(OOC4(OO2)C2([H])C([H])([H])C5([H])C([H])([H])C([H])(C2([H])[H])C([H])([H])C4([H])C5([H])[H])C3([H])[H])C([H])([H])[H])C([H])([H])C([H])([H])C1([H])[N+]([H])([H])[H]

$$$$
110:3:2
     RDKit          3D

 81 87  0  0  1  0  0  0  0  0999 V2000
   -0.9138    3.2101    2.7849 C   0  0  0  0  0  0  0  0  0  0  0  0
   -1.8784    2.5835    3.6458 C   0  0  0  0  0  0  0  0  0  0  0  0
   -3.3040    2.8493    3.4732 C   0  0  0  0  0  0  0  0  0  0  0  0
   -4.0421    3.7669    2.8629 C   0  0  0  0  0  0  0  0  0  0  0  0
   -3.6523    4.9517    2.0987 C   0  0  0  0  0  0  0  0  0  0  0  0
   -4.4618    5.8408    1.5485 C   0  0  0  0  0  0  0  0  0  0  0  0
   -5.9521    5.8330    1.6647 C   0  0  0  0  0  0  0  0  0  0  0  0
   -6.3672    7.1717    1.0660 C   0  0  0  0  0  0  0  0  0  0  0  0
   -5.2278    7.6016    0.1389 C   0  0  1  0  0  0  0  0  0  0  0  0
   -5.1275    9.0546   -0.0284 N   0  0  0  0  0  0  0  0  0  0  0  0
   -3.9723    7.0394    0.7648 C   0  0  1  0  0  0  0  0  0  0  0  0
   -3.1968    7.9936    1.6732 C   0  0  0  0  0  0  0  0  0  0  0  0
   -3.1185    6.7072   -0.2946 O   0  0  0  0  0  0  0  0  0  0  0  0
   -1.3692    1.6297    4.4444 C   0  0  0  0  0  0  0  0  0  0  0  0
    0.1222    1.2700    4.6084 C   0  0  0  0  0  0  0  0  0  0  0  0
    0.3594   -0.1248    4.6381 O   0  0  0  0  0  0  0  0  0  0  0  0
   -0.4641   -0.8511    5.5200 C   0  0  2  0  0  0  0  0  0  0  0  0
   -0.0933   -0.5819    6.9948 C   0  0  0  0  0  0  0  0  0  0  0  0
    1.2720   -1.1806    7.3251 C   0  0  0  0  0  0  0  0  0  0  0  0
    1.3836   -2.6895    6.9985 C   0  0  0  0  0  0  0  0  0  0  0  0
    0.9948   -3.0015    5.5234 C   0  0  1  0  0  0  0  0  0  0  0  0
   -0.3686   -2.3839    5.2295 C   0  0  0  0  0  0  0  0  0  0  0  0
    1.8928   -2.4731    4.5721 O   0  0  0  0  0  0  0  0  0  0  0  0
    3.2542   -3.0937    4.7907 O   0  0  0  0  0  0  0  0  0  0  0  0
    3.1690   -4.5030    4.6006 C   0  0  0  0  0  0  0  0  0  0  0  0
    2.2450   -5.0274    5.5467 O   0  0  0  0  0  0  0  0  0  0  0  0
    0.8724   -4.3977    5.3212 O   0  0  0  0  0  0  0  0  0  0  0  0
    2.8025   -4.9155    3.1233 C   0  0  1  0  0  0  0  0  0  0  0  0
    3.8594   -4.3635    2.1246 C   0  0  0  0  0  0  0  0  0  0  0  0
    5.2479   -4.9369    2.4664 C   0  0  2  0  0  0  0  0  0  0  0  0
    5.2329   -6.4762    2.3488 C   0  0  0  0  0  0  0  0  0  0  0  0
    4.1856   -7.0421    3.3317 C   0  0  2  0  0  0  0  0  0  0  0  0
    2.7911   -6.4673    2.9947 C   0  0  0  0  0  0  0  0  0  0  0  0
    4.5556   -6.6397    4.7746 C   0  0  0  0  0  0  0  0  0  0  0  0
    4.5658   -5.0931    4.9220 C   0  0  1  0  0  0  0  0  0  0  0  0
    5.5891   -4.5249    3.9120 C   0  0  0  0  0  0  0  0  0  0  0  0
   -1.9084   -0.4321    5.2622 C   0  0  0  0  0  0  0  0  0  0  0  0
   -2.7837   -1.2626    5.1757 O   0  0  0  0  0  0  0  0  0  0  0  0
   -2.2013    0.8586    5.2115 O   0  0  0  0  0  0  0  0  0  0  0  0
   -1.2149    4.2034    2.5351 H   0  0  0  0  0  0  0  0  0  0  0  0
   -0.8329    2.5648    1.9025 H   0  0  0  0  0  0  0  0  0  0  0  0
    0.0837    3.4493    3.1862 H   0  0  0  0  0  0  0  0  0  0  0  0
   -3.9365    2.1630    3.8917 H   0  0  0  0  0  0  0  0  0  0  0  0
   -5.1209    3.6450    2.9342 H   0  0  0  0  0  0  0  0  0  0  0  0
   -2.6354    5.2865    1.9992 H   0  0  0  0  0  0  0  0  0  0  0  0
   -6.2883    4.9678    1.0945 H   0  0  0  0  0  0  0  0  0  0  0  0
   -6.2788    5.7189    2.7077 H   0  0  0  0  0  0  0  0  0  0  0  0
   -7.3077    7.0771    0.5307 H   0  0  0  0  0  0  0  0  0  0  0  0
   -6.4645    7.8862    1.8837 H   0  0  0  0  0  0  0  0  0  0  0  0
   -5.3563    7.1243   -0.8364 H   0  0  0  0  0  0  0  0  0  0  0  0
   -4.9645    9.4544    0.8830 H   0  0  0  0  0  0  0  0  0  0  0  0
   -5.9771    9.4099   -0.4331 H   0  0  0  0  0  0  0  0  0  0  0  0
   -3.8325    8.3144    2.4929 H   0  0  0  0  0  0  0  0  0  0  0  0
   -2.8936    8.8904    1.1429 H   0  0  0  0  0  0  0  0  0  0  0  0
   -2.2648    7.5557    2.0526 H   0  0  0  0  0  0  0  0  0  0  0  0
   -3.3357    5.8550   -0.6486 H   0  0  0  0  0  0  0  0  0  0  0  0
    0.7401    1.6417    3.8163 H   0  0  0  0  0  0  0  0  0  0  0  0
    0.4620    1.7606    5.5167 H   0  0  0  0  0  0  0  0  0  0  0  0
   -0.1511    0.4808    7.2543 H   0  0  0  0  0  0  0  0  0  0  0  0
   -0.8181   -1.0707    7.6342 H   0  0  0  0  0  0  0  0  0  0  0  0
    2.0150   -0.6401    6.7500 H   0  0  0  0  0  0  0  0  0  0  0  0
    1.4841   -1.0218    8.3749 H   0  0  0  0  0  0  0  0  0  0  0  0
    2.3897   -3.0535    7.2299 H   0  0  0  0  0  0  0  0  0  0  0  0
    0.7037   -3.2467    7.6558 H   0  0  0  0  0  0  0  0  0  0  0  0
   -1.0693   -2.8985    5.8998 H   0  0  0  0  0  0  0  0  0  0  0  0
   -0.7198   -2.6430    4.2271 H   0  0  0  0  0  0  0  0  0  0  0  0
    1.8145   -4.5214    2.8559 H   0  0  0  0  0  0  0  0  0  0  0  0
    3.5877   -4.6229    1.1025 H   0  0  0  0  0  0  0  0  0  0  0  0
    3.8843   -3.2751    2.1769 H   0  0  0  0  0  0  0  0  0  0  0  0
    5.9927   -4.5341    1.7775 H   0  0  0  0  0  0  0  0  0  0  0  0
    4.9958   -6.7753    1.3235 H   0  0  0  0  0  0  0  0  0  0  0  0
    6.2222   -6.8911    2.5607 H   0  0  0  0  0  0  0  0  0  0  0  0
    4.1652   -8.1308    3.2414 H   0  0  0  0  0  0  0  0  0  0  0  0
    2.0442   -6.8974    3.6626 H   0  0  0  0  0  0  0  0  0  0  0  0
    2.5049   -6.7599    1.9855 H   0  0  0  0  0  0  0  0  0  0  0  0
    3.8436   -7.0756    5.4687 H   0  0  0  0  0  0  0  0  0  0  0  0
    5.5213   -7.0688    5.0379 H   0  0  0  0  0  0  0  0  0  0  0  0
    4.8777   -4.8271    5.9369 H   0  0  0  0  0  0  0  0  0  0  0  0
    6.5786   -4.8919    4.1733 H   0  0  0  0  0  0  0  0  0  0  0  0
    5.6359   -3.4380    3.9754 H   0  0  0  0  0  0  0  0  0  0  0  0
   -4.3175    9.2576   -0.5976 H   0  0  0  0  0  0  0  0  0  0  0  0
  1  2  1  0
  1 40  1  0
  1 41  1  0
  1 42  1  0
  2  3  1  0
  2 14  2  3
  3  4  2  3
  3 43  1  0
  4  5  1  0
  4 44  1  0
  5  6  2  3
  5 45  1  0
  6 11  1  0
  6  7  1  0
  7  8  1  0
  7 46  1  0
  7 47  1  0
  8  9  1  0
  8 48  1  0
  8 49  1  0
  9 10  1  0
  9 11  1  0
  9 50  1  6
 10 51  1  0
 10 52  1  0
 10 81  1  0
 11 12  1  0
 11 13  1  6
 12 53  1  0
 12 54  1  0
 12 55  1  0
 13 56  1  0
 14 39  1  0
 14 15  1  0
 15 16  1  0
 15 57  1  0
 15 58  1  0
 17 16  1  6
 17 22  1  0
 17 18  1  0
 17 37  1  0
 18 19  1  0
 18 59  1  0
 18 60  1  0
 19 20  1  0
 19 61  1  0
 19 62  1  0
 20 21  1  0
 20 63  1  0
 20 64  1  0
 21 27  1  1
 21 22  1  0
 21 23  1  0
 22 65  1  0
 22 66  1  0
 23 24  1  0
 24 25  1  0
 25 35  1  0
 25 26  1  0
 25 28  1  0
 26 27  1  0
 28 33  1  0
 28 29  1  0
 28 67  1  6
 29 30  1  0
 29 68  1  0
 29 69  1  0
 30 36  1  0
 30 31  1  0
 30 70  1  6
 31 32  1  0
 31 71  1  0
 31 72  1  0
 32 33  1  0
 32 34  1  0
 32 73  1  1
 33 74  1  0
 33 75  1  0
 34 35  1  0
 34 76  1  0
 34 77  1  0
 35 36  1  0
 35 78  1  1
 36 79  1  0
 36 80  1  0
 37 38  2  0
 37 39  1  0
M  CHG  1  10   1
M  END
>  <i_m_ct_stereo_status>  (378) 
1

>  <s_m_source_file>  (378) 
/var/tmp/pbs.5076255.sched01/tmpybatibx8/138x0dlab3k.sdf

>  <i_m_source_file_index>  (378) 
25

>  <i_lp_mmshare_version>  (378) 
48012

>  <i_f3d_flags>  (378) 
0

>  <s_epik_input>  (378) 
W05IMl1bQ0BASF0xW0NIMl1bQ0gyXS9DKFtDQEBdMShbQ0gzXSlbT0hdKT1bQ0hdXFtDSF09W0NIXVxDKFxbQ0gzXSk9QyhPQzI9TykvW0NIMl1PW0NAQF0yM1tDSDJdW0NIMl1bQ0gyXUM0KFtDSDJdMylPT1tDQEBdNShPTzQpW0NASF02W0NIMl1bQ0BASF03W0NIMl1bQ0BIXShbQ0gyXTYpW0NIMl1bQ0BIXTVbQ0gyXTc=

>  <s_epik_cmdline>  (378) 
J2VwaWtfcHl0aG9uJywgJy1waHQnLCAnMi4wJywgJy1waCcsICc3LjAnLCAnLXRuJywgJzgnLCAnLW1hJywgJzIwMCcsICctaW1hZScsICc8aW5maWxlLm1hZT4nLCAnLW9tYWUnLCAnPG91dGZpbGUubWFlPic=

>  <r_epik_Ionization_Penalty>  (378) 
0.0231352

>  <r_epik_Ionization_Penalty_Charging>  (378) 
0.0231339

>  <r_epik_Ionization_Penalty_Neutral>  (378) 
1.32465e-06

>  <r_epik_State_Penalty>  (378) 
0.0187057

>  <r_epik_Charging_Adjusted_Penalty>  (378) 
0.0418396

>  <i_epik_Tot_Q>  (378) 
1

>  <i_epik_Tot_abs_Q>  (378) 
1

>  <s_lp_Force_Field>  (378) 
OPLS3e

>  <r_lp_Energy>  (378) 
18.4628

>  <b_lp_Chiralities_Consistent>  (378) 
1

>  <s_lp_Variant>  (378) 
110:0-4

>  <s_i_glide_gridfile>  (378) 
pfpi4k_grid

>  <i_i_glide_lignum>  (378) 
25

>  <i_i_glide_rotatable_bonds>  (378) 
3

>  <r_i_docking_score>  (378) 
-0.848631

>  <r_i_glide_ligand_efficiency>  (378) 
-0.0217598

>  <r_i_glide_ligand_efficiency_sa>  (378) 
-0.0737919

>  <r_i_glide_ligand_efficiency_ln>  (378) 
-0.18197

>  <r_i_glide_gscore>  (378) 
-0.848631

>  <r_i_glide_lipo>  (378) 
-0.97436

>  <r_i_glide_hbond>  (378) 
0

>  <r_i_glide_metal>  (378) 
-0

>  <r_i_glide_rewards>  (378) 
0

>  <r_i_glide_evdw>  (378) 
-6.13174

>  <r_i_glide_ecoul>  (378) 
0.325693

>  <r_i_glide_erotb>  (378) 
0.139555

>  <r_i_glide_esite>  (378) 
-0.0621476

>  <r_i_glide_emodel>  (378) 
-3.06686

>  <r_i_glide_energy>  (378) 
-5.80604

>  <r_i_glide_einternal>  (378) 
1.4202

>  <r_i_glide_intrahb_reward>  (378) 
-0

>  <i_i_glide_confnum>  (378) 
5

>  <i_i_glide_posenum>  (378) 
1

>  <r_i_glide_eff_state_penalty>  (378) 
0

>  <ligand_id>  (378) 
110

>  <original_smiles>  (378) 
CC(C=CC=C1CCC(N)C1(C)O)=C1COC2(CCCC3(C2)OOC2(OO3)C3CC4CC(C3)CC2C4)C(=O)O1

>  <smiles>  (378) 
[H]OC1(C([H])([H])[H])C(=C([H])C([H])=C([H])C(=C2OC(=O)C3(OC2([H])[H])C([H])([H])C([H])([H])C([H])([H])C2(OOC4(OO2)C2([H])C([H])([H])C5([H])C([H])([H])C([H])(C2([H])[H])C([H])([H])C4([H])C5([H])[H])C3([H])[H])C([H])([H])[H])C([H])([H])C([H])([H])C1([H])[N+]([H])([H])[H]

$$$$
110:4:0
     RDKit          3D

 81 87  0  0  1  0  0  0  0  0999 V2000
    9.0170   -5.4389    1.5010 C   0  0  0  0  0  0  0  0  0  0  0  0
    7.5548   -5.0411    1.4831 C   0  0  0  0  0  0  0  0  0  0  0  0
    7.2682   -3.7186    0.9235 C   0  0  0  0  0  0  0  0  0  0  0  0
    6.3346   -3.5359   -0.0195 C   0  0  0  0  0  0  0  0  0  0  0  0
    5.9717   -2.2389   -0.5272 C   0  0  0  0  0  0  0  0  0  0  0  0
    4.9812   -2.0268   -1.4350 C   0  0  0  0  0  0  0  0  0  0  0  0
    4.6421   -0.6720   -1.9793 C   0  0  0  0  0  0  0  0  0  0  0  0
    3.6709   -0.8812   -3.1434 C   0  0  0  0  0  0  0  0  0  0  0  0
    3.0125   -2.2204   -2.8308 C   0  0  1  0  0  0  0  0  0  0  0  0
    2.4916   -2.8955   -4.0246 N   0  0  0  0  0  0  0  0  0  0  0  0
    4.0776   -3.0581   -2.0880 C   0  0  1  0  0  0  0  0  0  0  0  0
    4.9201   -3.9034   -3.0536 C   0  0  0  0  0  0  0  0  0  0  0  0
    3.3932   -3.8632   -1.1274 O   0  0  0  0  0  0  0  0  0  0  0  0
    6.6265   -5.8845    1.8505 C   0  0  0  0  0  0  0  0  0  0  0  0
    5.1244   -5.6086    1.9780 C   0  0  0  0  0  0  0  0  0  0  0  0
    4.3722   -6.6942    1.4512 O   0  0  0  0  0  0  0  0  0  0  0  0
    4.6930   -7.9695    2.0755 C   0  0  2  0  0  0  0  0  0  0  0  0
    3.8629   -9.0350    1.3181 C   0  0  0  0  0  0  0  0  0  0  0  0
    2.3366   -8.8920    1.5404 C   0  0  0  0  0  0  0  0  0  0  0  0
    1.9450   -8.8179    3.0239 C   0  0  0  0  0  0  0  0  0  0  0  0
    2.7091   -7.6971    3.7331 C   0  0  2  0  0  0  0  0  0  0  0  0
    4.2439   -7.9034    3.5748 C   0  0  0  0  0  0  0  0  0  0  0  0
    2.3785   -7.7124    5.1356 O   0  0  0  0  0  0  0  0  0  0  0  0
    3.1014   -6.5737    5.8036 O   0  0  0  0  0  0  0  0  0  0  0  0
    2.6457   -5.3237    5.2382 C   0  0  0  0  0  0  0  0  0  0  0  0
    2.9305   -5.3214    3.8246 O   0  0  0  0  0  0  0  0  0  0  0  0
    2.2057   -6.4537    3.1977 O   0  0  0  0  0  0  0  0  0  0  0  0
    1.1251   -5.0822    5.4522 C   0  0  1  0  0  0  0  0  0  0  0  0
    0.8213   -5.0129    6.9612 C   0  0  0  0  0  0  0  0  0  0  0  0
    1.5972   -3.8383    7.6211 C   0  0  2  0  0  0  0  0  0  0  0  0
    1.1970   -2.4963    6.9741 C   0  0  0  0  0  0  0  0  0  0  0  0
    1.5253   -2.5581    5.4725 C   0  0  2  0  0  0  0  0  0  0  0  0
    0.7438   -3.7242    4.8169 C   0  0  0  0  0  0  0  0  0  0  0  0
    3.0371   -2.7891    5.2784 C   0  0  0  0  0  0  0  0  0  0  0  0
    3.4278   -4.1470    5.9161 C   0  0  1  0  0  0  0  0  0  0  0  0
    3.1124   -4.0668    7.4309 C   0  0  0  0  0  0  0  0  0  0  0  0
    6.2025   -8.2338    1.9161 C   0  0  0  0  0  0  0  0  0  0  0  0
    6.6694   -9.3375    1.6063 O   0  0  0  0  0  0  0  0  0  0  0  0
    7.0090   -7.1675    2.2337 O   0  0  0  0  0  0  0  0  0  0  0  0
    9.3578   -5.4803    0.4698 H   0  0  0  0  0  0  0  0  0  0  0  0
    9.1754   -6.4072    1.9738 H   0  0  0  0  0  0  0  0  0  0  0  0
    9.5965   -4.6998    2.0459 H   0  0  0  0  0  0  0  0  0  0  0  0
    7.8135   -2.8660    1.2699 H   0  0  0  0  0  0  0  0  0  0  0  0
    5.8480   -4.4175   -0.3973 H   0  0  0  0  0  0  0  0  0  0  0  0
    6.5197   -1.3798   -0.1541 H   0  0  0  0  0  0  0  0  0  0  0  0
    4.2141   -0.0950   -1.1710 H   0  0  0  0  0  0  0  0  0  0  0  0
    5.5312   -0.1646   -2.3215 H   0  0  0  0  0  0  0  0  0  0  0  0
    2.9528   -0.0608   -3.2170 H   0  0  0  0  0  0  0  0  0  0  0  0
    4.2345   -0.9154   -4.0770 H   0  0  0  0  0  0  0  0  0  0  0  0
    2.1730   -2.0254   -2.1737 H   0  0  0  0  0  0  0  0  0  0  0  0
    3.2947   -3.1250   -4.5844 H   0  0  0  0  0  0  0  0  0  0  0  0
    1.8793   -2.2948   -4.5663 H   0  0  0  0  0  0  0  0  0  0  0  0
    5.4356   -3.3023   -3.8061 H   0  0  0  0  0  0  0  0  0  0  0  0
    4.3150   -4.6464   -3.5667 H   0  0  0  0  0  0  0  0  0  0  0  0
    5.6762   -4.4721   -2.5232 H   0  0  0  0  0  0  0  0  0  0  0  0
    3.1122   -4.6728   -1.5274 H   0  0  0  0  0  0  0  0  0  0  0  0
    5.0150   -5.4140    3.0393 H   0  0  0  0  0  0  0  0  0  0  0  0
    4.7319   -4.6838    1.5273 H   0  0  0  0  0  0  0  0  0  0  0  0
    4.0719   -9.0199    0.2383 H   0  0  0  0  0  0  0  0  0  0  0  0
    4.1416  -10.0332    1.6414 H   0  0  0  0  0  0  0  0  0  0  0  0
    1.9664   -8.0110    1.0122 H   0  0  0  0  0  0  0  0  0  0  0  0
    1.8396   -9.7515    1.0783 H   0  0  0  0  0  0  0  0  0  0  0  0
    0.8624   -8.7004    3.1277 H   0  0  0  0  0  0  0  0  0  0  0  0
    2.1918   -9.7624    3.4912 H   0  0  0  0  0  0  0  0  0  0  0  0
    4.4798   -8.8840    3.9590 H   0  0  0  0  0  0  0  0  0  0  0  0
    4.8537   -7.2262    4.2162 H   0  0  0  0  0  0  0  0  0  0  0  0
    0.5129   -5.8810    4.9881 H   0  0  0  0  0  0  0  0  0  0  0  0
   -0.2530   -4.8784    7.1360 H   0  0  0  0  0  0  0  0  0  0  0  0
    1.1160   -5.9435    7.4522 H   0  0  0  0  0  0  0  0  0  0  0  0
    1.3698   -3.7971    8.6889 H   0  0  0  0  0  0  0  0  0  0  0  0
    0.1346   -2.3037    7.1160 H   0  0  0  0  0  0  0  0  0  0  0  0
    1.7275   -1.6701    7.4486 H   0  0  0  0  0  0  0  0  0  0  0  0
    1.2401   -1.6091    5.0111 H   0  0  0  0  0  0  0  0  0  0  0  0
    0.9469   -3.7168    3.7469 H   0  0  0  0  0  0  0  0  0  0  0  0
   -0.3267   -3.5298    4.9183 H   0  0  0  0  0  0  0  0  0  0  0  0
    3.2946   -2.7620    4.2201 H   0  0  0  0  0  0  0  0  0  0  0  0
    3.6008   -1.9717    5.7325 H   0  0  0  0  0  0  0  0  0  0  0  0
    4.5009   -4.2922    5.7892 H   0  0  0  0  0  0  0  0  0  0  0  0
    3.6738   -3.2564    7.9043 H   0  0  0  0  0  0  0  0  0  0  0  0
    3.4212   -4.9800    7.9412 H   0  0  0  0  0  0  0  0  0  0  0  0
    2.0132   -3.7502   -3.7725 H   0  0  0  0  0  0  0  0  0  0  0  0
  1  2  1  0
  1 40  1  0
  1 41  1  0
  1 42  1  0
  2  3  1  0
  2 14  2  3
  3  4  2  3
  3 43  1  0
  4  5  1  0
  4 44  1  0
  5  6  2  3
  5 45  1  0
  6 11  1  0
  6  7  1  0
  7  8  1  0
  7 46  1  0
  7 47  1  0
  8  9  1  0
  8 48  1  0
  8 49  1  0
  9 10  1  0
  9 11  1  0
  9 50  1  1
 10 51  1  0
 10 52  1  0
 10 81  1  0
 11 12  1  0
 11 13  1  1
 12 53  1  0
 12 54  1  0
 12 55  1  0
 13 56  1  0
 14 39  1  0
 14 15  1  0
 15 16  1  0
 15 57  1  0
 15 58  1  0
 17 16  1  6
 17 22  1  0
 17 18  1  0
 17 37  1  0
 18 19  1  0
 18 59  1  0
 18 60  1  0
 19 20  1  0
 19 61  1  0
 19 62  1  0
 20 21  1  0
 20 63  1  0
 20 64  1  0
 21 27  1  6
 21 22  1  0
 21 23  1  0
 22 65  1  0
 22 66  1  0
 23 24  1  0
 24 25  1  0
 25 35  1  0
 25 26  1  0
 25 28  1  0
 26 27  1  0
 28 33  1  0
 28 29  1  0
 28 67  1  6
 29 30  1  0
 29 68  1  0
 29 69  1  0
 30 36  1  0
 30 31  1  0
 30 70  1  1
 31 32  1  0
 31 71  1  0
 31 72  1  0
 32 33  1  0
 32 34  1  0
 32 73  1  6
 33 74  1  0
 33 75  1  0
 34 35  1  0
 34 76  1  0
 34 77  1  0
 35 36  1  0
 35 78  1  1
 36 79  1  0
 36 80  1  0
 37 38  2  0
 37 39  1  0
M  CHG  1  10   1
M  END
>  <i_m_ct_stereo_status>  (379) 
1

>  <s_m_source_file>  (379) 
/var/tmp/pbs.5076255.sched01/tmpybatibx8/138x0dlab3k.sdf

>  <i_m_source_file_index>  (379) 
26

>  <i_lp_mmshare_version>  (379) 
48012

>  <i_f3d_flags>  (379) 
0

>  <s_epik_input>  (379) 
W05IMl1bQ0BASF0xW0NIMl1bQ0gyXS9DKFtDQEBdMShbQ0gzXSlbT0hdKT1bQ0hdXFtDSF09W0NIXVxDKFxbQ0gzXSk9QyhPQzI9TykvW0NIMl1PW0NAQF0yM1tDSDJdW0NIMl1bQ0gyXUM0KFtDSDJdMylPT1tDQEBdNShPTzQpW0NASF02W0NIMl1bQ0BASF03W0NIMl1bQ0BIXShbQ0gyXTYpW0NIMl1bQ0BIXTVbQ0gyXTc=

>  <s_epik_cmdline>  (379) 
J2VwaWtfcHl0aG9uJywgJy1waHQnLCAnMi4wJywgJy1waCcsICc3LjAnLCAnLXRuJywgJzgnLCAnLW1hJywgJzIwMCcsICctaW1hZScsICc8aW5maWxlLm1hZT4nLCAnLW9tYWUnLCAnPG91dGZpbGUubWFlPic=

>  <r_epik_Ionization_Penalty>  (379) 
0.0231352

>  <r_epik_Ionization_Penalty_Charging>  (379) 
0.0231339

>  <r_epik_Ionization_Penalty_Neutral>  (379) 
1.32465e-06

>  <r_epik_State_Penalty>  (379) 
0.0187057

>  <r_epik_Charging_Adjusted_Penalty>  (379) 
0.0418396

>  <i_epik_Tot_Q>  (379) 
1

>  <i_epik_Tot_abs_Q>  (379) 
1

>  <s_lp_Force_Field>  (379) 
OPLS3e

>  <r_lp_Energy>  (379) 
16.6948

>  <b_lp_Chiralities_Consistent>  (379) 
1

>  <s_lp_Variant>  (379) 
110:0-5

>  <s_i_glide_gridfile>  (379) 
pfpi4k_grid

>  <i_i_glide_lignum>  (379) 
26

>  <i_i_glide_rotatable_bonds>  (379) 
3

>  <r_i_docking_score>  (379) 
-3.51022

>  <r_i_glide_ligand_efficiency>  (379) 
-0.0900057

>  <r_i_glide_ligand_efficiency_sa>  (379) 
-0.305229

>  <r_i_glide_ligand_efficiency_ln>  (379) 
-0.752692

>  <r_i_glide_gscore>  (379) 
-3.51022

>  <r_i_glide_lipo>  (379) 
-0.488241

>  <r_i_glide_hbond>  (379) 
-0.32

>  <r_i_glide_metal>  (379) 
-0

>  <r_i_glide_rewards>  (379) 
-0.109976

>  <r_i_glide_evdw>  (379) 
-31.3721

>  <r_i_glide_ecoul>  (379) 
-7.74327

>  <r_i_glide_erotb>  (379) 
0.139555

>  <r_i_glide_esite>  (379) 
-0.00146649

>  <r_i_glide_emodel>  (379) 
-46.0265

>  <r_i_glide_energy>  (379) 
-39.1154

>  <r_i_glide_einternal>  (379) 
3.77534

>  <r_i_glide_intrahb_reward>  (379) 
-0

>  <i_i_glide_confnum>  (379) 
2

>  <i_i_glide_posenum>  (379) 
5

>  <r_i_glide_eff_state_penalty>  (379) 
0

>  <ligand_id>  (379) 
110

>  <original_smiles>  (379) 
CC(C=CC=C1CCC(N)C1(C)O)=C1COC2(CCCC3(C2)OOC2(OO3)C3CC4CC(C3)CC2C4)C(=O)O1

>  <smiles>  (379) 
[H]OC1(C([H])([H])[H])C(=C([H])C([H])=C([H])C(=C2OC(=O)C3(OC2([H])[H])C([H])([H])C([H])([H])C([H])([H])C2(OOC4(OO2)C2([H])C([H])([H])C5([H])C([H])([H])C([H])(C2([H])[H])C([H])([H])C4([H])C5([H])[H])C3([H])[H])C([H])([H])[H])C([H])([H])C([H])([H])C1([H])[N+]([H])([H])[H]

$$$$
110:4:1
     RDKit          3D

 81 87  0  0  1  0  0  0  0  0999 V2000
    1.1801   -3.7162    4.6081 C   0  0  0  0  0  0  0  0  0  0  0  0
    1.7939   -2.3714    4.2703 C   0  0  0  0  0  0  0  0  0  0  0  0
    2.9917   -2.2847    3.4656 C   0  0  0  0  0  0  0  0  0  0  0  0
    3.7471   -3.3224    3.0517 C   0  0  0  0  0  0  0  0  0  0  0  0
    4.8398   -3.1198    2.1023 C   0  0  0  0  0  0  0  0  0  0  0  0
    4.7376   -2.6522    0.8490 C   0  0  0  0  0  0  0  0  0  0  0  0
    5.9219   -2.5320   -0.1072 C   0  0  0  0  0  0  0  0  0  0  0  0
    5.3494   -2.2810   -1.5069 C   0  0  0  0  0  0  0  0  0  0  0  0
    3.9650   -1.6760   -1.2561 C   0  0  1  0  0  0  0  0  0  0  0  0
    3.0233   -1.8896   -2.3674 N   0  0  0  0  0  0  0  0  0  0  0  0
    3.4697   -2.2795    0.0743 C   0  0  1  0  0  0  0  0  0  0  0  0
    2.6092   -3.5505   -0.1280 C   0  0  0  0  0  0  0  0  0  0  0  0
    2.7290   -1.2495    0.7148 O   0  0  0  0  0  0  0  0  0  0  0  0
    1.1552   -1.2251    4.6513 C   0  0  0  0  0  0  0  0  0  0  0  0
    1.6411    0.2036    4.3957 C   0  0  0  0  0  0  0  0  0  0  0  0
    0.5635    1.0685    4.0373 O   0  0  0  0  0  0  0  0  0  0  0  0
   -0.5266    1.0522    4.9539 C   0  0  2  0  0  0  0  0  0  0  0  0
   -1.6480    1.9491    4.3391 C   0  0  0  0  0  0  0  0  0  0  0  0
   -1.2673    3.4375    4.2609 C   0  0  0  0  0  0  0  0  0  0  0  0
   -0.7713    3.9951    5.6156 C   0  0  0  0  0  0  0  0  0  0  0  0
    0.4057    3.1659    6.1904 C   0  0  2  0  0  0  0  0  0  0  0  0
   -0.0511    1.6663    6.3184 C   0  0  0  0  0  0  0  0  0  0  0  0
    0.7468    3.6573    7.4819 O   0  0  0  0  0  0  0  0  0  0  0  0
    1.9382    2.8532    7.9845 O   0  0  0  0  0  0  0  0  0  0  0  0
    3.0468    3.0130    7.0803 C   0  0  0  0  0  0  0  0  0  0  0  0
    2.6896    2.5725    5.7779 O   0  0  0  0  0  0  0  0  0  0  0  0
    1.5041    3.3746    5.2989 O   0  0  0  0  0  0  0  0  0  0  0  0
    3.5307    4.4961    6.9818 C   0  0  1  0  0  0  0  0  0  0  0  0
    4.0172    4.9827    8.3726 C   0  0  0  0  0  0  0  0  0  0  0  0
    5.2052    4.1179    8.8605 C   0  0  2  0  0  0  0  0  0  0  0  0
    6.3837    4.2065    7.8690 C   0  0  0  0  0  0  0  0  0  0  0  0
    5.9117    3.7035    6.4936 C   0  0  2  0  0  0  0  0  0  0  0  0
    4.7346    4.5735    5.9981 C   0  0  0  0  0  0  0  0  0  0  0  0
    5.4520    2.2367    6.6084 C   0  0  0  0  0  0  0  0  0  0  0  0
    4.2571    2.1541    7.5937 C   0  0  1  0  0  0  0  0  0  0  0  0
    4.7494    2.6494    8.9815 C   0  0  0  0  0  0  0  0  0  0  0  0
   -1.0205   -0.4193    5.1549 C   0  0  0  0  0  0  0  0  0  0  0  0
   -2.2278   -0.7150    5.2082 O   0  0  0  0  0  0  0  0  0  0  0  0
   -0.0305   -1.3441    5.3411 O   0  0  0  0  0  0  0  0  0  0  0  0
    0.8761   -4.2078    3.6819 H   0  0  0  0  0  0  0  0  0  0  0  0
    0.3090   -3.6623    5.2673 H   0  0  0  0  0  0  0  0  0  0  0  0
    1.9313   -4.3326    5.1036 H   0  0  0  0  0  0  0  0  0  0  0  0
    3.3166   -1.3259    3.1061 H   0  0  0  0  0  0  0  0  0  0  0  0
    3.5249   -4.3254    3.3877 H   0  0  0  0  0  0  0  0  0  0  0  0
    5.8236   -3.3770    2.4731 H   0  0  0  0  0  0  0  0  0  0  0  0
    6.5569   -1.7082    0.2183 H   0  0  0  0  0  0  0  0  0  0  0  0
    6.5234   -3.4418   -0.1006 H   0  0  0  0  0  0  0  0  0  0  0  0
    5.9800   -1.6191   -2.1033 H   0  0  0  0  0  0  0  0  0  0  0  0
    5.2552   -3.2275   -2.0425 H   0  0  0  0  0  0  0  0  0  0  0  0
    4.1081   -0.6010   -1.1365 H   0  0  0  0  0  0  0  0  0  0  0  0
    2.8673   -2.8855   -2.4437 H   0  0  0  0  0  0  0  0  0  0  0  0
    3.3668   -1.5243   -3.2407 H   0  0  0  0  0  0  0  0  0  0  0  0
    3.1329   -4.3226   -0.6976 H   0  0  0  0  0  0  0  0  0  0  0  0
    1.6821   -3.3342   -0.6576 H   0  0  0  0  0  0  0  0  0  0  0  0
    2.3133   -3.9992    0.8180 H   0  0  0  0  0  0  0  0  0  0  0  0
    1.9447   -1.0791    0.1937 H   0  0  0  0  0  0  0  0  0  0  0  0
    2.1284    0.4227    5.3469 H   0  0  0  0  0  0  0  0  0  0  0  0
    2.4163    0.3821    3.6489 H   0  0  0  0  0  0  0  0  0  0  0  0
   -1.9205    1.5948    3.3414 H   0  0  0  0  0  0  0  0  0  0  0  0
   -2.5594    1.8715    4.9303 H   0  0  0  0  0  0  0  0  0  0  0  0
   -0.4948    3.5788    3.5015 H   0  0  0  0  0  0  0  0  0  0  0  0
   -2.1297    4.0108    3.9230 H   0  0  0  0  0  0  0  0  0  0  0  0
   -0.4845    5.0421    5.5205 H   0  0  0  0  0  0  0  0  0  0  0  0
   -1.5958    3.9713    6.3285 H   0  0  0  0  0  0  0  0  0  0  0  0
   -0.9281    1.6517    6.9690 H   0  0  0  0  0  0  0  0  0  0  0  0
    0.6821    1.0502    6.8617 H   0  0  0  0  0  0  0  0  0  0  0  0
    2.7346    5.1561    6.6201 H   0  0  0  0  0  0  0  0  0  0  0  0
    4.3145    6.0327    8.3239 H   0  0  0  0  0  0  0  0  0  0  0  0
    3.1989    4.9052    9.0925 H   0  0  0  0  0  0  0  0  0  0  0  0
    5.5376    4.4726    9.8366 H   0  0  0  0  0  0  0  0  0  0  0  0
    6.7439    5.2320    7.7892 H   0  0  0  0  0  0  0  0  0  0  0  0
    7.2304    3.6119    8.2238 H   0  0  0  0  0  0  0  0  0  0  0  0
    6.7465    3.7703    5.7948 H   0  0  0  0  0  0  0  0  0  0  0  0
    4.4371    4.2325    5.0063 H   0  0  0  0  0  0  0  0  0  0  0  0
    5.0679    5.6021    5.8759 H   0  0  0  0  0  0  0  0  0  0  0  0
    5.1757    1.8436    5.6297 H   0  0  0  0  0  0  0  0  0  0  0  0
    6.2766    1.6096    6.9487 H   0  0  0  0  0  0  0  0  0  0  0  0
    3.9491    1.1147    7.6809 H   0  0  0  0  0  0  0  0  0  0  0  0
    5.5718    2.0269    9.3435 H   0  0  0  0  0  0  0  0  0  0  0  0
    3.9555    2.5599    9.7236 H   0  0  0  0  0  0  0  0  0  0  0  0
    2.1384   -1.4498   -2.1090 H   0  0  0  0  0  0  0  0  0  0  0  0
  1  2  1  0
  1 40  1  0
  1 41  1  0
  1 42  1  0
  2  3  1  0
  2 14  2  3
  3  4  2  3
  3 43  1  0
  4  5  1  0
  4 44  1  0
  5  6  2  3
  5 45  1  0
  6 11  1  0
  6  7  1  0
  7  8  1  0
  7 46  1  0
  7 47  1  0
  8  9  1  0
  8 48  1  0
  8 49  1  0
  9 10  1  0
  9 11  1  0
  9 50  1  1
 10 51  1  0
 10 52  1  0
 10 81  1  0
 11 12  1  0
 11 13  1  1
 12 53  1  0
 12 54  1  0
 12 55  1  0
 13 56  1  0
 14 39  1  0
 14 15  1  0
 15 16  1  0
 15 57  1  0
 15 58  1  0
 17 16  1  6
 17 22  1  0
 17 18  1  0
 17 37  1  0
 18 19  1  0
 18 59  1  0
 18 60  1  0
 19 20  1  0
 19 61  1  0
 19 62  1  0
 20 21  1  0
 20 63  1  0
 20 64  1  0
 21 27  1  6
 21 22  1  0
 21 23  1  0
 22 65  1  0
 22 66  1  0
 23 24  1  0
 24 25  1  0
 25 35  1  0
 25 26  1  0
 25 28  1  0
 26 27  1  0
 28 33  1  0
 28 29  1  0
 28 67  1  6
 29 30  1  0
 29 68  1  0
 29 69  1  0
 30 36  1  0
 30 31  1  0
 30 70  1  1
 31 32  1  0
 31 71  1  0
 31 72  1  0
 32 33  1  0
 32 34  1  0
 32 73  1  6
 33 74  1  0
 33 75  1  0
 34 35  1  0
 34 76  1  0
 34 77  1  0
 35 36  1  0
 35 78  1  1
 36 79  1  0
 36 80  1  0
 37 38  2  0
 37 39  1  0
M  CHG  1  10   1
M  END
>  <i_m_ct_stereo_status>  (380) 
1

>  <s_m_source_file>  (380) 
/var/tmp/pbs.5076255.sched01/tmpybatibx8/138x0dlab3k.sdf

>  <i_m_source_file_index>  (380) 
26

>  <i_lp_mmshare_version>  (380) 
48012

>  <i_f3d_flags>  (380) 
0

>  <s_epik_input>  (380) 
W05IMl1bQ0BASF0xW0NIMl1bQ0gyXS9DKFtDQEBdMShbQ0gzXSlbT0hdKT1bQ0hdXFtDSF09W0NIXVxDKFxbQ0gzXSk9QyhPQzI9TykvW0NIMl1PW0NAQF0yM1tDSDJdW0NIMl1bQ0gyXUM0KFtDSDJdMylPT1tDQEBdNShPTzQpW0NASF02W0NIMl1bQ0BASF03W0NIMl1bQ0BIXShbQ0gyXTYpW0NIMl1bQ0BIXTVbQ0gyXTc=

>  <s_epik_cmdline>  (380) 
J2VwaWtfcHl0aG9uJywgJy1waHQnLCAnMi4wJywgJy1waCcsICc3LjAnLCAnLXRuJywgJzgnLCAnLW1hJywgJzIwMCcsICctaW1hZScsICc8aW5maWxlLm1hZT4nLCAnLW9tYWUnLCAnPG91dGZpbGUubWFlPic=

>  <r_epik_Ionization_Penalty>  (380) 
0.0231352

>  <r_epik_Ionization_Penalty_Charging>  (380) 
0.0231339

>  <r_epik_Ionization_Penalty_Neutral>  (380) 
1.32465e-06

>  <r_epik_State_Penalty>  (380) 
0.0187057

>  <r_epik_Charging_Adjusted_Penalty>  (380) 
0.0418396

>  <i_epik_Tot_Q>  (380) 
1

>  <i_epik_Tot_abs_Q>  (380) 
1

>  <s_lp_Force_Field>  (380) 
OPLS3e

>  <r_lp_Energy>  (380) 
16.6948

>  <b_lp_Chiralities_Consistent>  (380) 
1

>  <s_lp_Variant>  (380) 
110:0-5

>  <s_i_glide_gridfile>  (380) 
pfpi4k_grid

>  <i_i_glide_lignum>  (380) 
26

>  <i_i_glide_rotatable_bonds>  (380) 
3

>  <r_i_docking_score>  (380) 
-3.03375

>  <r_i_glide_ligand_efficiency>  (380) 
-0.0777884

>  <r_i_glide_ligand_efficiency_sa>  (380) 
-0.263797

>  <r_i_glide_ligand_efficiency_ln>  (380) 
-0.650522

>  <r_i_glide_gscore>  (380) 
-3.03375

>  <r_i_glide_lipo>  (380) 
-0.122651

>  <r_i_glide_hbond>  (380) 
-0.36

>  <r_i_glide_metal>  (380) 
-0

>  <r_i_glide_rewards>  (380) 
0

>  <r_i_glide_evdw>  (380) 
-24.2697

>  <r_i_glide_ecoul>  (380) 
-9.16448

>  <r_i_glide_erotb>  (380) 
0.139555

>  <r_i_glide_esite>  (380) 
-0.102494

>  <r_i_glide_emodel>  (380) 
-38.2544

>  <r_i_glide_energy>  (380) 
-33.4342

>  <r_i_glide_einternal>  (380) 
5.14085

>  <r_i_glide_intrahb_reward>  (380) 
-0

>  <i_i_glide_confnum>  (380) 
5

>  <i_i_glide_posenum>  (380) 
24

>  <r_i_glide_eff_state_penalty>  (380) 
0

>  <ligand_id>  (380) 
110

>  <original_smiles>  (380) 
CC(C=CC=C1CCC(N)C1(C)O)=C1COC2(CCCC3(C2)OOC2(OO3)C3CC4CC(C3)CC2C4)C(=O)O1

>  <smiles>  (380) 
[H]OC1(C([H])([H])[H])C(=C([H])C([H])=C([H])C(=C2OC(=O)C3(OC2([H])[H])C([H])([H])C([H])([H])C([H])([H])C2(OOC4(OO2)C2([H])C([H])([H])C5([H])C([H])([H])C([H])(C2([H])[H])C([H])([H])C4([H])C5([H])[H])C3([H])[H])C([H])([H])[H])C([H])([H])C([H])([H])C1([H])[N+]([H])([H])[H]

$$$$
110:4:2
     RDKit          3D

 81 87  0  0  1  0  0  0  0  0999 V2000
    6.7847   -3.9562    8.6383 C   0  0  0  0  0  0  0  0  0  0  0  0
    5.9750   -4.0594    7.3313 C   0  0  0  0  0  0  0  0  0  0  0  0
    4.9592   -2.9998    7.1445 C   0  0  0  0  0  0  0  0  0  0  0  0
    4.5325   -2.5268    5.9509 C   0  0  0  0  0  0  0  0  0  0  0  0
    3.4485   -1.6061    5.7581 C   0  0  0  0  0  0  0  0  0  0  0  0
    2.8863   -1.3571    4.5403 C   0  0  0  0  0  0  0  0  0  0  0  0
    1.8571   -0.2833    4.3378 C   0  0  0  0  0  0  0  0  0  0  0  0
    1.6741   -0.1589    2.8273 C   0  0  0  0  0  0  0  0  0  0  0  0
    2.1153   -1.5062    2.2412 C   0  0  1  0  0  0  0  0  0  0  0  0
    2.6664   -1.3691    0.8878 N   0  0  0  0  0  0  0  0  0  0  0  0
    3.2106   -2.0356    3.2122 C   0  0  1  0  0  0  0  0  0  0  0  0
    4.6197   -1.6716    2.7148 C   0  0  0  0  0  0  0  0  0  0  0  0
    3.0933   -3.4399    3.2922 O   0  0  0  0  0  0  0  0  0  0  0  0
    6.2039   -5.0360    6.4633 C   0  0  0  0  0  0  0  0  0  0  0  0
    5.4276   -5.3311    5.1681 C   0  0  0  0  0  0  0  0  0  0  0  0
    6.3344   -5.4621    4.0836 O   0  0  0  0  0  0  0  0  0  0  0  0
    7.2953   -6.4813    4.2333 C   0  0  2  0  0  0  0  0  0  0  0  0
    8.2484   -6.4764    3.0084 C   0  0  0  0  0  0  0  0  0  0  0  0
    7.5393   -6.9088    1.7129 C   0  0  0  0  0  0  0  0  0  0  0  0
    6.7553   -8.2364    1.8688 C   0  0  0  0  0  0  0  0  0  0  0  0
    5.7433   -8.1848    3.0459 C   0  0  2  0  0  0  0  0  0  0  0  0
    6.5487   -7.8266    4.3221 C   0  0  0  0  0  0  0  0  0  0  0  0
    5.1080   -9.4349    3.2152 O   0  0  0  0  0  0  0  0  0  0  0  0
    4.0809   -9.3404    4.3390 O   0  0  0  0  0  0  0  0  0  0  0  0
    3.0794   -8.3979    3.9885 C   0  0  0  0  0  0  0  0  0  0  0  0
    3.7055   -7.1613    3.7768 O   0  0  0  0  0  0  0  0  0  0  0  0
    4.7482   -7.2536    2.6789 O   0  0  0  0  0  0  0  0  0  0  0  0
    2.2753   -8.7390    2.7104 C   0  0  1  0  0  0  0  0  0  0  0  0
    1.5413  -10.0714    2.9302 C   0  0  0  0  0  0  0  0  0  0  0  0
    0.5332   -9.9400    4.0896 C   0  0  2  0  0  0  0  0  0  0  0  0
   -0.4998   -8.8281    3.7867 C   0  0  0  0  0  0  0  0  0  0  0  0
    0.2375   -7.4857    3.5966 C   0  0  2  0  0  0  0  0  0  0  0  0
    1.2354   -7.6153    2.4223 C   0  0  0  0  0  0  0  0  0  0  0  0
    1.0139   -7.1397    4.8863 C   0  0  0  0  0  0  0  0  0  0  0  0
    2.0612   -8.2528    5.1786 C   0  0  1  0  0  0  0  0  0  0  0  0
    1.2985   -9.5887    5.3821 C   0  0  0  0  0  0  0  0  0  0  0  0
    8.0516   -6.1974    5.5526 C   0  0  0  0  0  0  0  0  0  0  0  0
    9.2609   -6.2862    5.6487 O   0  0  0  0  0  0  0  0  0  0  0  0
    7.2650   -5.9124    6.6017 O   0  0  0  0  0  0  0  0  0  0  0  0
    7.3204   -3.0122    8.6878 H   0  0  0  0  0  0  0  0  0  0  0  0
    7.5159   -4.7548    8.7511 H   0  0  0  0  0  0  0  0  0  0  0  0
    6.1282   -4.0094    9.5064 H   0  0  0  0  0  0  0  0  0  0  0  0
    4.4889   -2.5648    8.0034 H   0  0  0  0  0  0  0  0  0  0  0  0
    5.0220   -2.8587    5.0699 H   0  0  0  0  0  0  0  0  0  0  0  0
    3.1199   -1.0397    6.6128 H   0  0  0  0  0  0  0  0  0  0  0  0
    0.9345   -0.5798    4.8323 H   0  0  0  0  0  0  0  0  0  0  0  0
    2.1863    0.6544    4.7892 H   0  0  0  0  0  0  0  0  0  0  0  0
    0.6469    0.0987    2.5596 H   0  0  0  0  0  0  0  0  0  0  0  0
    2.3174    0.6434    2.4573 H   0  0  0  0  0  0  0  0  0  0  0  0
    1.2591   -2.1804    2.2394 H   0  0  0  0  0  0  0  0  0  0  0  0
    3.4466   -0.7848    0.8630 H   0  0  0  0  0  0  0  0  0  0  0  0
    1.8912   -0.9824    0.2612 H   0  0  0  0  0  0  0  0  0  0  0  0
    4.7179   -0.5914    2.6330 H   0  0  0  0  0  0  0  0  0  0  0  0
    4.8590   -2.1440    1.7640 H   0  0  0  0  0  0  0  0  0  0  0  0
    5.4211   -1.9876    3.3715 H   0  0  0  0  0  0  0  0  0  0  0  0
    3.8149   -3.7656    3.8174 H   0  0  0  0  0  0  0  0  0  0  0  0
    4.8373   -6.1882    5.4257 H   0  0  0  0  0  0  0  0  0  0  0  0
    4.5704   -4.7257    4.8739 H   0  0  0  0  0  0  0  0  0  0  0  0
    8.7343   -5.5025    2.8768 H   0  0  0  0  0  0  0  0  0  0  0  0
    9.0544   -7.1794    3.2049 H   0  0  0  0  0  0  0  0  0  0  0  0
    6.8485   -6.1207    1.4166 H   0  0  0  0  0  0  0  0  0  0  0  0
    8.2717   -6.9816    0.9066 H   0  0  0  0  0  0  0  0  0  0  0  0
    6.2506   -8.4676    0.9333 H   0  0  0  0  0  0  0  0  0  0  0  0
    7.4769   -9.0375    2.0263 H   0  0  0  0  0  0  0  0  0  0  0  0
    7.3010   -8.5909    4.4840 H   0  0  0  0  0  0  0  0  0  0  0  0
    5.9141   -7.8712    5.1914 H   0  0  0  0  0  0  0  0  0  0  0  0
    2.9685   -8.8241    1.8812 H   0  0  0  0  0  0  0  0  0  0  0  0
    1.0491  -10.3642    2.0118 H   0  0  0  0  0  0  0  0  0  0  0  0
    2.2707  -10.8488    3.1541 H   0  0  0  0  0  0  0  0  0  0  0  0
    0.0143  -10.8946    4.2133 H   0  0  0  0  0  0  0  0  0  0  0  0
   -1.0928   -9.0816    2.9057 H   0  0  0  0  0  0  0  0  0  0  0  0
   -1.2100   -8.7513    4.6125 H   0  0  0  0  0  0  0  0  0  0  0  0
   -0.4896   -6.6956    3.3846 H   0  0  0  0  0  0  0  0  0  0  0  0
    1.7352   -6.6587    2.2587 H   0  0  0  0  0  0  0  0  0  0  0  0
    0.7074   -7.8358    1.4987 H   0  0  0  0  0  0  0  0  0  0  0  0
    1.5045   -6.1711    4.7767 H   0  0  0  0  0  0  0  0  0  0  0  0
    0.3131   -7.0259    5.7173 H   0  0  0  0  0  0  0  0  0  0  0  0
    2.5756   -7.9990    6.1096 H   0  0  0  0  0  0  0  0  0  0  0  0
    0.6013   -9.5325    6.2193 H   0  0  0  0  0  0  0  0  0  0  0  0
    1.9965  -10.3881    5.6290 H   0  0  0  0  0  0  0  0  0  0  0  0
    2.8519   -2.2867    0.5082 H   0  0  0  0  0  0  0  0  0  0  0  0
  1  2  1  0
  1 40  1  0
  1 41  1  0
  1 42  1  0
  2  3  1  0
  2 14  2  3
  3  4  2  3
  3 43  1  0
  4  5  1  0
  4 44  1  0
  5  6  2  3
  5 45  1  0
  6 11  1  0
  6  7  1  0
  7  8  1  0
  7 46  1  0
  7 47  1  0
  8  9  1  0
  8 48  1  0
  8 49  1  0
  9 10  1  0
  9 11  1  0
  9 50  1  6
 10 51  1  0
 10 52  1  0
 10 81  1  0
 11 12  1  0
 11 13  1  1
 12 53  1  0
 12 54  1  0
 12 55  1  0
 13 56  1  0
 14 39  1  0
 14 15  1  0
 15 16  1  0
 15 57  1  0
 15 58  1  0
 17 16  1  6
 17 22  1  0
 17 18  1  0
 17 37  1  0
 18 19  1  0
 18 59  1  0
 18 60  1  0
 19 20  1  0
 19 61  1  0
 19 62  1  0
 20 21  1  0
 20 63  1  0
 20 64  1  0
 21 27  1  6
 21 22  1  0
 21 23  1  0
 22 65  1  0
 22 66  1  0
 23 24  1  0
 24 25  1  0
 25 35  1  0
 25 26  1  0
 25 28  1  0
 26 27  1  0
 28 33  1  0
 28 29  1  0
 28 67  1  6
 29 30  1  0
 29 68  1  0
 29 69  1  0
 30 36  1  0
 30 31  1  0
 30 70  1  1
 31 32  1  0
 31 71  1  0
 31 72  1  0
 32 33  1  0
 32 34  1  0
 32 73  1  6
 33 74  1  0
 33 75  1  0
 34 35  1  0
 34 76  1  0
 34 77  1  0
 35 36  1  0
 35 78  1  1
 36 79  1  0
 36 80  1  0
 37 38  2  0
 37 39  1  0
M  CHG  1  10   1
M  END
>  <i_m_ct_stereo_status>  (381) 
1

>  <s_m_source_file>  (381) 
/var/tmp/pbs.5076255.sched01/tmpybatibx8/138x0dlab3k.sdf

>  <i_m_source_file_index>  (381) 
26

>  <i_lp_mmshare_version>  (381) 
48012

>  <i_f3d_flags>  (381) 
0

>  <s_epik_input>  (381) 
W05IMl1bQ0BASF0xW0NIMl1bQ0gyXS9DKFtDQEBdMShbQ0gzXSlbT0hdKT1bQ0hdXFtDSF09W0NIXVxDKFxbQ0gzXSk9QyhPQzI9TykvW0NIMl1PW0NAQF0yM1tDSDJdW0NIMl1bQ0gyXUM0KFtDSDJdMylPT1tDQEBdNShPTzQpW0NASF02W0NIMl1bQ0BASF03W0NIMl1bQ0BIXShbQ0gyXTYpW0NIMl1bQ0BIXTVbQ0gyXTc=

>  <s_epik_cmdline>  (381) 
J2VwaWtfcHl0aG9uJywgJy1waHQnLCAnMi4wJywgJy1waCcsICc3LjAnLCAnLXRuJywgJzgnLCAnLW1hJywgJzIwMCcsICctaW1hZScsICc8aW5maWxlLm1hZT4nLCAnLW9tYWUnLCAnPG91dGZpbGUubWFlPic=

>  <r_epik_Ionization_Penalty>  (381) 
0.0231352

>  <r_epik_Ionization_Penalty_Charging>  (381) 
0.0231339

>  <r_epik_Ionization_Penalty_Neutral>  (381) 
1.32465e-06

>  <r_epik_State_Penalty>  (381) 
0.0187057

>  <r_epik_Charging_Adjusted_Penalty>  (381) 
0.0418396

>  <i_epik_Tot_Q>  (381) 
1

>  <i_epik_Tot_abs_Q>  (381) 
1

>  <s_lp_Force_Field>  (381) 
OPLS3e

>  <r_lp_Energy>  (381) 
16.6948

>  <b_lp_Chiralities_Consistent>  (381) 
1

>  <s_lp_Variant>  (381) 
110:0-5

>  <s_i_glide_gridfile>  (381) 
pfpi4k_grid

>  <i_i_glide_lignum>  (381) 
26

>  <i_i_glide_rotatable_bonds>  (381) 
3

>  <r_i_docking_score>  (381) 
-2.87205

>  <r_i_glide_ligand_efficiency>  (381) 
-0.0736422

>  <r_i_glide_ligand_efficiency_sa>  (381) 
-0.249736

>  <r_i_glide_ligand_efficiency_ln>  (381) 
-0.615848

>  <r_i_glide_gscore>  (381) 
-2.87205

>  <r_i_glide_lipo>  (381) 
-0.263752

>  <r_i_glide_hbond>  (381) 
-0.2

>  <r_i_glide_metal>  (381) 
-0

>  <r_i_glide_rewards>  (381) 
-0.0283708

>  <r_i_glide_evdw>  (381) 
-27.4483

>  <r_i_glide_ecoul>  (381) 
-7.24725

>  <r_i_glide_erotb>  (381) 
0.139555

>  <r_i_glide_esite>  (381) 
-0.0599731

>  <r_i_glide_emodel>  (381) 
-38.291

>  <r_i_glide_energy>  (381) 
-34.6956

>  <r_i_glide_einternal>  (381) 
3.23696

>  <r_i_glide_intrahb_reward>  (381) 
-0

>  <i_i_glide_confnum>  (381) 
2

>  <i_i_glide_posenum>  (381) 
17

>  <r_i_glide_eff_state_penalty>  (381) 
0

>  <ligand_id>  (381) 
110

>  <original_smiles>  (381) 
CC(C=CC=C1CCC(N)C1(C)O)=C1COC2(CCCC3(C2)OOC2(OO3)C3CC4CC(C3)CC2C4)C(=O)O1

>  <smiles>  (381) 
[H]OC1(C([H])([H])[H])C(=C([H])C([H])=C([H])C(=C2OC(=O)C3(OC2([H])[H])C([H])([H])C([H])([H])C([H])([H])C2(OOC4(OO2)C2([H])C([H])([H])C5([H])C([H])([H])C([H])(C2([H])[H])C([H])([H])C4([H])C5([H])[H])C3([H])[H])C([H])([H])[H])C([H])([H])C([H])([H])C1([H])[N+]([H])([H])[H]

$$$$
110:5:0
     RDKit          3D

 81 87  0  0  1  0  0  0  0  0999 V2000
   -1.6963    2.3130    2.3789 C   0  0  0  0  0  0  0  0  0  0  0  0
   -2.4773    2.6225    3.6196 C   0  0  0  0  0  0  0  0  0  0  0  0
   -3.7577    3.3372    3.5089 C   0  0  0  0  0  0  0  0  0  0  0  0
   -4.1222    4.1341    2.4871 C   0  0  0  0  0  0  0  0  0  0  0  0
   -5.3983    4.8570    2.4466 C   0  0  0  0  0  0  0  0  0  0  0  0
   -5.6462    5.9541    1.6980 C   0  0  0  0  0  0  0  0  0  0  0  0
   -6.8990    6.7517    1.7606 C   0  0  0  0  0  0  0  0  0  0  0  0
   -6.5684    8.0680    1.0213 C   0  0  0  0  0  0  0  0  0  0  0  0
   -5.5405    7.7518    0.0323 C   0  0  1  0  0  0  0  0  0  0  0  0
   -4.8421    8.9709   -0.3650 N   0  0  0  0  0  0  0  0  0  0  0  0
   -4.6964    6.7503    0.7943 C   0  0  1  0  0  0  0  0  0  0  0  0
   -3.5559    7.4044    1.5730 C   0  0  0  0  0  0  0  0  0  0  0  0
   -4.2189    5.9997   -0.2331 O   0  0  0  0  0  0  0  0  0  0  0  0
   -1.9549    2.2697    4.8030 C   0  0  0  0  0  0  0  0  0  0  0  0
   -0.6463    1.4897    5.0131 C   0  0  0  0  0  0  0  0  0  0  0  0
    0.1716    2.1292    5.9848 O   0  0  0  0  0  0  0  0  0  0  0  0
   -0.4933    2.3690    7.2212 C   0  0  2  0  0  0  0  0  0  0  0  0
    0.5114    3.1188    8.1442 C   0  0  0  0  0  0  0  0  0  0  0  0
    1.7347    2.2555    8.5479 C   0  0  0  0  0  0  0  0  0  0  0  0
    1.3282    0.8933    9.1540 C   0  0  0  0  0  0  0  0  0  0  0  0
    0.3908    0.1011    8.2025 C   0  0  2  0  0  0  0  0  0  0  0  0
   -0.8640    1.0015    7.8917 C   0  0  0  0  0  0  0  0  0  0  0  0
   -0.1182   -1.0691    8.8117 O   0  0  0  0  0  0  0  0  0  0  0  0
    1.0211   -2.0142    9.0789 O   0  0  0  0  0  0  0  0  0  0  0  0
    1.7278   -2.3045    7.8785 C   0  0  0  0  0  0  0  0  0  0  0  0
    2.2182   -1.1124    7.3006 O   0  0  0  0  0  0  0  0  0  0  0  0
    1.0479   -0.2065    6.9875 O   0  0  0  0  0  0  0  0  0  0  0  0
    2.9540   -3.1951    8.2546 C   0  0  2  0  0  0  0  0  0  0  0  0
    3.7795   -3.5208    6.9765 C   0  0  0  0  0  0  0  0  0  0  0  0
    2.9238   -4.3218    5.9780 C   0  0  1  0  0  0  0  0  0  0  0  0
    2.4550   -5.6468    6.6147 C   0  0  0  0  0  0  0  0  0  0  0  0
    1.6085   -5.3203    7.8592 C   0  0  1  0  0  0  0  0  0  0  0  0
    2.4662   -4.5374    8.8738 C   0  0  0  0  0  0  0  0  0  0  0  0
    0.3852   -4.4673    7.4617 C   0  0  0  0  0  0  0  0  0  0  0  0
    0.8643   -3.1166    6.8490 C   0  0  2  0  0  0  0  0  0  0  0  0
    1.7038   -3.4695    5.5796 C   0  0  0  0  0  0  0  0  0  0  0  0
   -1.7921    3.2018    6.9764 C   0  0  0  0  0  0  0  0  0  0  0  0
   -2.1063    4.1370    7.7317 O   0  0  0  0  0  0  0  0  0  0  0  0
   -2.5517    2.7883    5.9417 O   0  0  0  0  0  0  0  0  0  0  0  0
   -1.6172    3.2948    1.9346 H   0  0  0  0  0  0  0  0  0  0  0  0
   -2.2661    1.6407    1.7412 H   0  0  0  0  0  0  0  0  0  0  0  0
   -0.6515    2.0218    2.4069 H   0  0  0  0  0  0  0  0  0  0  0  0
   -4.4613    3.1556    4.3233 H   0  0  0  0  0  0  0  0  0  0  0  0
   -3.4553    4.2382    1.6868 H   0  0  0  0  0  0  0  0  0  0  0  0
   -6.2067    4.5160    3.0918 H   0  0  0  0  0  0  0  0  0  0  0  0
   -7.7394    6.1784    1.3368 H   0  0  0  0  0  0  0  0  0  0  0  0
   -7.1166    7.0240    2.8018 H   0  0  0  0  0  0  0  0  0  0  0  0
   -7.3414    8.4854    0.3892 H   0  0  0  0  0  0  0  0  0  0  0  0
   -6.3345    8.8769    1.7054 H   0  0  0  0  0  0  0  0  0  0  0  0
   -6.0207    7.2827   -0.8333 H   0  0  0  0  0  0  0  0  0  0  0  0
   -4.4399    9.3599    0.4754 H   0  0  0  0  0  0  0  0  0  0  0  0
   -5.4966    9.6315   -0.7663 H   0  0  0  0  0  0  0  0  0  0  0  0
   -3.9364    8.1266    2.3041 H   0  0  0  0  0  0  0  0  0  0  0  0
   -2.8459    7.9146    0.9194 H   0  0  0  0  0  0  0  0  0  0  0  0
   -2.9701    6.6369    2.0686 H   0  0  0  0  0  0  0  0  0  0  0  0
   -3.7508    5.3025    0.2176 H   0  0  0  0  0  0  0  0  0  0  0  0
   -0.9286    0.4681    5.2667 H   0  0  0  0  0  0  0  0  0  0  0  0
   -0.0308    1.3241    4.1374 H   0  0  0  0  0  0  0  0  0  0  0  0
    0.8559    4.0370    7.6670 H   0  0  0  0  0  0  0  0  0  0  0  0
    0.0149    3.4401    9.0613 H   0  0  0  0  0  0  0  0  0  0  0  0
    2.3604    2.0910    7.6688 H   0  0  0  0  0  0  0  0  0  0  0  0
    2.3468    2.8211    9.2668 H   0  0  0  0  0  0  0  0  0  0  0  0
    2.2247    0.3287    9.4376 H   0  0  0  0  0  0  0  0  0  0  0  0
    0.8034    1.0805   10.0943 H   0  0  0  0  0  0  0  0  0  0  0  0
   -1.3426    1.2438    8.8431 H   0  0  0  0  0  0  0  0  0  0  0  0
   -1.6119    0.4131    7.3405 H   0  0  0  0  0  0  0  0  0  0  0  0
    3.5705   -2.6638    8.9821 H   0  0  0  0  0  0  0  0  0  0  0  0
    4.1361   -2.6024    6.5009 H   0  0  0  0  0  0  0  0  0  0  0  0
    4.6670   -4.0940    7.2366 H   0  0  0  0  0  0  0  0  0  0  0  0
    3.5219   -4.5539    5.0983 H   0  0  0  0  0  0  0  0  0  0  0  0
    1.8734   -6.2296    5.9022 H   0  0  0  0  0  0  0  0  0  0  0  0
    3.3066   -6.2730    6.8852 H   0  0  0  0  0  0  0  0  0  0  0  0
    1.2788   -6.2548    8.3117 H   0  0  0  0  0  0  0  0  0  0  0  0
    3.3181   -5.1432    9.1841 H   0  0  0  0  0  0  0  0  0  0  0  0
    1.8834   -4.3468    9.7794 H   0  0  0  0  0  0  0  0  0  0  0  0
   -0.2443   -5.0243    6.7515 H   0  0  0  0  0  0  0  0  0  0  0  0
   -0.2408   -4.2756    8.3370 H   0  0  0  0  0  0  0  0  0  0  0  0
   -0.0207   -2.5564    6.5194 H   0  0  0  0  0  0  0  0  0  0  0  0
    2.0429   -2.5590    5.0828 H   0  0  0  0  0  0  0  0  0  0  0  0
    1.1039   -4.0119    4.8348 H   0  0  0  0  0  0  0  0  0  0  0  0
   -4.1184    8.7048   -1.0100 H   0  0  0  0  0  0  0  0  0  0  0  0
  1  2  1  0
  1 40  1  0
  1 41  1  0
  1 42  1  0
  2  3  1  0
  2 14  2  3
  3  4  2  3
  3 43  1  0
  4  5  1  0
  4 44  1  0
  5  6  2  3
  5 45  1  0
  6 11  1  0
  6  7  1  0
  7  8  1  0
  7 46  1  0
  7 47  1  0
  8  9  1  0
  8 48  1  0
  8 49  1  0
  9 10  1  0
  9 11  1  0
  9 50  1  6
 10 51  1  0
 10 52  1  0
 10 81  1  0
 11 12  1  0
 11 13  1  6
 12 53  1  0
 12 54  1  0
 12 55  1  0
 13 56  1  0
 14 39  1  0
 14 15  1  0
 15 16  1  0
 15 57  1  0
 15 58  1  0
 17 16  1  6
 17 22  1  0
 17 18  1  0
 17 37  1  0
 18 19  1  0
 18 59  1  0
 18 60  1  0
 19 20  1  0
 19 61  1  0
 19 62  1  0
 20 21  1  0
 20 63  1  0
 20 64  1  0
 21 27  1  6
 21 22  1  0
 21 23  1  0
 22 65  1  0
 22 66  1  0
 23 24  1  0
 24 25  1  0
 25 35  1  0
 25 26  1  0
 25 28  1  0
 26 27  1  0
 28 33  1  0
 28 29  1  0
 28 67  1  1
 29 30  1  0
 29 68  1  0
 29 69  1  0
 30 36  1  0
 30 31  1  0
 30 70  1  6
 31 32  1  0
 31 71  1  0
 31 72  1  0
 32 33  1  0
 32 34  1  0
 32 73  1  1
 33 74  1  0
 33 75  1  0
 34 35  1  0
 34 76  1  0
 34 77  1  0
 35 36  1  0
 35 78  1  6
 36 79  1  0
 36 80  1  0
 37 38  2  0
 37 39  1  0
M  CHG  1  10   1
M  END
>  <i_m_ct_stereo_status>  (382) 
1

>  <s_m_source_file>  (382) 
/var/tmp/pbs.5076255.sched01/tmpybatibx8/138x0dlab3k.sdf

>  <i_m_source_file_index>  (382) 
27

>  <i_lp_mmshare_version>  (382) 
48012

>  <i_f3d_flags>  (382) 
0

>  <s_epik_input>  (382) 
W05IMl1bQ0BASF0xW0NIMl1bQ0gyXS9DKFtDQEBdMShbQ0gzXSlbT0hdKT1bQ0hdXFtDSF09W0NIXVxDKFxbQ0gzXSk9QyhPQzI9TykvW0NIMl1PW0NAQF0yM1tDSDJdW0NIMl1bQ0gyXUM0KFtDSDJdMylPT1tDQEBdNShPTzQpW0NASF02W0NIMl1bQ0BASF03W0NIMl1bQ0BIXShbQ0gyXTYpW0NIMl1bQ0BIXTVbQ0gyXTc=

>  <s_epik_cmdline>  (382) 
J2VwaWtfcHl0aG9uJywgJy1waHQnLCAnMi4wJywgJy1waCcsICc3LjAnLCAnLXRuJywgJzgnLCAnLW1hJywgJzIwMCcsICctaW1hZScsICc8aW5maWxlLm1hZT4nLCAnLW9tYWUnLCAnPG91dGZpbGUubWFlPic=

>  <r_epik_Ionization_Penalty>  (382) 
0.0231352

>  <r_epik_Ionization_Penalty_Charging>  (382) 
0.0231339

>  <r_epik_Ionization_Penalty_Neutral>  (382) 
1.32465e-06

>  <r_epik_State_Penalty>  (382) 
0.0187057

>  <r_epik_Charging_Adjusted_Penalty>  (382) 
0.0418396

>  <i_epik_Tot_Q>  (382) 
1

>  <i_epik_Tot_abs_Q>  (382) 
1

>  <s_lp_Force_Field>  (382) 
OPLS3e

>  <r_lp_Energy>  (382) 
16.8598

>  <b_lp_Chiralities_Consistent>  (382) 
1

>  <s_lp_Variant>  (382) 
110:0-6

>  <s_i_glide_gridfile>  (382) 
pfpi4k_grid

>  <i_i_glide_lignum>  (382) 
27

>  <i_i_glide_rotatable_bonds>  (382) 
3

>  <r_i_docking_score>  (382) 
-1.88112

>  <r_i_glide_ligand_efficiency>  (382) 
-0.0482339

>  <r_i_glide_ligand_efficiency_sa>  (382) 
-0.163571

>  <r_i_glide_ligand_efficiency_ln>  (382) 
-0.403366

>  <r_i_glide_gscore>  (382) 
-1.88112

>  <r_i_glide_lipo>  (382) 
-1.22652

>  <r_i_glide_hbond>  (382) 
-0.0944705

>  <r_i_glide_metal>  (382) 
-0

>  <r_i_glide_rewards>  (382) 
-0.0694253

>  <r_i_glide_evdw>  (382) 
-13.3986

>  <r_i_glide_ecoul>  (382) 
0.0495195

>  <r_i_glide_erotb>  (382) 
0.139555

>  <r_i_glide_esite>  (382) 
-0.0321738

>  <r_i_glide_emodel>  (382) 
-11.0795

>  <r_i_glide_energy>  (382) 
-13.3491

>  <r_i_glide_einternal>  (382) 
2.58529

>  <r_i_glide_intrahb_reward>  (382) 
-0

>  <i_i_glide_confnum>  (382) 
1

>  <i_i_glide_posenum>  (382) 
23

>  <r_i_glide_eff_state_penalty>  (382) 
0

>  <ligand_id>  (382) 
110

>  <original_smiles>  (382) 
CC(C=CC=C1CCC(N)C1(C)O)=C1COC2(CCCC3(C2)OOC2(OO3)C3CC4CC(C3)CC2C4)C(=O)O1

>  <smiles>  (382) 
[H]OC1(C([H])([H])[H])C(=C([H])C([H])=C([H])C(=C2OC(=O)C3(OC2([H])[H])C([H])([H])C([H])([H])C([H])([H])C2(OOC4(OO2)C2([H])C([H])([H])C5([H])C([H])([H])C([H])(C2([H])[H])C([H])([H])C4([H])C5([H])[H])C3([H])[H])C([H])([H])[H])C([H])([H])C([H])([H])C1([H])[N+]([H])([H])[H]

$$$$
110:5:1
     RDKit          3D

 81 87  0  0  1  0  0  0  0  0999 V2000
   -1.7713    2.2460    2.4062 C   0  0  0  0  0  0  0  0  0  0  0  0
   -2.5183    2.6065    3.6390 C   0  0  0  0  0  0  0  0  0  0  0  0
   -3.8092    3.2994    3.4931 C   0  0  0  0  0  0  0  0  0  0  0  0
   -4.1669    4.1147    2.5091 C   0  0  0  0  0  0  0  0  0  0  0  0
   -5.4295    4.8728    2.4071 C   0  0  0  0  0  0  0  0  0  0  0  0
   -5.6638    5.9713    1.6712 C   0  0  0  0  0  0  0  0  0  0  0  0
   -6.9558    6.7894    1.7605 C   0  0  0  0  0  0  0  0  0  0  0  0
   -6.6099    8.0966    1.0241 C   0  0  0  0  0  0  0  0  0  0  0  0
   -5.5211    7.7716    0.0437 C   0  0  1  0  0  0  0  0  0  0  0  0
   -4.7948    8.9827   -0.3504 N   0  0  0  0  0  0  0  0  0  0  0  0
   -4.6945    6.7496    0.7761 C   0  0  1  0  0  0  0  0  0  0  0  0
   -3.5419    7.3825    1.5706 C   0  0  0  0  0  0  0  0  0  0  0  0
   -4.3384    5.9859   -0.3266 O   0  0  0  0  0  0  0  0  0  0  0  0
   -1.9956    2.3038    4.8368 C   0  0  0  0  0  0  0  0  0  0  0  0
   -0.7020    1.5099    5.0559 C   0  0  0  0  0  0  0  0  0  0  0  0
    0.1446    2.1704    5.9985 O   0  0  0  0  0  0  0  0  0  0  0  0
   -0.4935    2.4556    7.2454 C   0  0  2  0  0  0  0  0  0  0  0  0
    0.5349    3.2334    8.1156 C   0  0  0  0  0  0  0  0  0  0  0  0
    1.7512    2.3716    8.5353 C   0  0  0  0  0  0  0  0  0  0  0  0
    1.3449    1.0446    9.2033 C   0  0  0  0  0  0  0  0  0  0  0  0
    0.3737    0.2420    8.2929 C   0  0  2  0  0  0  0  0  0  0  0  0
   -0.8678    1.1255    7.9697 C   0  0  0  0  0  0  0  0  0  0  0  0
   -0.1497   -0.9091    8.9443 O   0  0  0  0  0  0  0  0  0  0  0  0
    1.0043   -1.8658    9.2458 O   0  0  0  0  0  0  0  0  0  0  0  0
    1.6750   -2.2157    8.0345 C   0  0  0  0  0  0  0  0  0  0  0  0
    2.1605   -1.0379    7.4136 O   0  0  0  0  0  0  0  0  0  0  0  0
    1.0140   -0.1483    7.0805 O   0  0  0  0  0  0  0  0  0  0  0  0
    2.8966   -3.0985    8.4310 C   0  0  2  0  0  0  0  0  0  0  0  0
    3.7028   -3.4836    7.1592 C   0  0  0  0  0  0  0  0  0  0  0  0
    2.8227   -4.3124    6.2003 C   0  0  1  0  0  0  0  0  0  0  0  0
    2.3468   -5.6055    6.8936 C   0  0  0  0  0  0  0  0  0  0  0  0
    1.5241   -5.2193    8.1371 C   0  0  1  0  0  0  0  0  0  0  0  0
    2.4079   -4.4089    9.1099 C   0  0  0  0  0  0  0  0  0  0  0  0
    0.3043   -4.3636    7.7241 C   0  0  0  0  0  0  0  0  0  0  0  0
    0.7867   -3.0514    7.0503 C   0  0  2  0  0  0  0  0  0  0  0  0
    1.6051   -3.4577    5.7894 C   0  0  0  0  0  0  0  0  0  0  0  0
   -1.7648    3.3094    6.9887 C   0  0  0  0  0  0  0  0  0  0  0  0
   -2.0735    4.2461    7.7269 O   0  0  0  0  0  0  0  0  0  0  0  0
   -2.5589    2.8800    5.9641 O   0  0  0  0  0  0  0  0  0  0  0  0
   -1.6777    3.2151    1.9362 H   0  0  0  0  0  0  0  0  0  0  0  0
   -2.3453    1.5626    1.7804 H   0  0  0  0  0  0  0  0  0  0  0  0
   -0.7302    1.9403    2.4292 H   0  0  0  0  0  0  0  0  0  0  0  0
   -4.5035    3.1601    4.3144 H   0  0  0  0  0  0  0  0  0  0  0  0
   -3.4770    4.2582    1.6828 H   0  0  0  0  0  0  0  0  0  0  0  0
   -6.2114    4.5436    3.0968 H   0  0  0  0  0  0  0  0  0  0  0  0
   -7.7736    6.2147    1.3284 H   0  0  0  0  0  0  0  0  0  0  0  0
   -7.1372    7.0539    2.7957 H   0  0  0  0  0  0  0  0  0  0  0  0
   -7.3667    8.5113    0.4031 H   0  0  0  0  0  0  0  0  0  0  0  0
   -6.3152    8.9034    1.7100 H   0  0  0  0  0  0  0  0  0  0  0  0
   -6.0182    7.3358   -0.8309 H   0  0  0  0  0  0  0  0  0  0  0  0
   -4.3919    9.3632    0.4884 H   0  0  0  0  0  0  0  0  0  0  0  0
   -5.4342    9.6499   -0.7635 H   0  0  0  0  0  0  0  0  0  0  0  0
   -3.9197    8.1127    2.3062 H   0  0  0  0  0  0  0  0  0  0  0  0
   -2.8223    7.8931    0.9357 H   0  0  0  0  0  0  0  0  0  0  0  0
   -2.9745    6.6153    2.0811 H   0  0  0  0  0  0  0  0  0  0  0  0
   -4.8246    5.2079   -0.1722 H   0  0  0  0  0  0  0  0  0  0  0  0
   -0.9808    0.5011    5.3593 H   0  0  0  0  0  0  0  0  0  0  0  0
   -0.0911    1.3000    4.1804 H   0  0  0  0  0  0  0  0  0  0  0  0
    0.8852    4.1343    7.5967 H   0  0  0  0  0  0  0  0  0  0  0  0
    0.0599    3.5963    9.0245 H   0  0  0  0  0  0  0  0  0  0  0  0
    2.3654    2.1685    7.6516 H   0  0  0  0  0  0  0  0  0  0  0  0
    2.3835    2.9574    9.2199 H   0  0  0  0  0  0  0  0  0  0  0  0
    2.2277    0.4779    9.4859 H   0  0  0  0  0  0  0  0  0  0  0  0
    0.8327    1.2711   10.1343 H   0  0  0  0  0  0  0  0  0  0  0  0
   -1.3339    1.4097    8.9078 H   0  0  0  0  0  0  0  0  0  0  0  0
   -1.6328    0.5256    7.4513 H   0  0  0  0  0  0  0  0  0  0  0  0
    3.5382   -2.5489    9.1286 H   0  0  0  0  0  0  0  0  0  0  0  0
    4.0646   -2.5898    6.6386 H   0  0  0  0  0  0  0  0  0  0  0  0
    4.5894   -4.0583    7.4227 H   0  0  0  0  0  0  0  0  0  0  0  0
    3.4057   -4.5856    5.3181 H   0  0  0  0  0  0  0  0  0  0  0  0
    1.7474   -6.2069    6.2122 H   0  0  0  0  0  0  0  0  0  0  0  0
    3.1953   -6.2309    7.1757 H   0  0  0  0  0  0  0  0  0  0  0  0
    1.1873   -6.1351    8.6309 H   0  0  0  0  0  0  0  0  0  0  0  0
    3.2538   -5.0153    9.4305 H   0  0  0  0  0  0  0  0  0  0  0  0
    1.8397   -4.1785   10.0131 H   0  0  0  0  0  0  0  0  0  0  0  0
   -0.3396   -4.9409    7.0477 H   0  0  0  0  0  0  0  0  0  0  0  0
   -0.3041   -4.1359    8.6015 H   0  0  0  0  0  0  0  0  0  0  0  0
   -0.0858   -2.4893    6.7196 H   0  0  0  0  0  0  0  0  0  0  0  0
    1.9503   -2.5729    5.2505 H   0  0  0  0  0  0  0  0  0  0  0  0
    0.9903   -4.0204    5.0750 H   0  0  0  0  0  0  0  0  0  0  0  0
   -4.0717    8.6979   -0.9859 H   0  0  0  0  0  0  0  0  0  0  0  0
  1  2  1  0
  1 40  1  0
  1 41  1  0
  1 42  1  0
  2  3  1  0
  2 14  2  3
  3  4  2  3
  3 43  1  0
  4  5  1  0
  4 44  1  0
  5  6  2  3
  5 45  1  0
  6 11  1  0
  6  7  1  0
  7  8  1  0
  7 46  1  0
  7 47  1  0
  8  9  1  0
  8 48  1  0
  8 49  1  0
  9 10  1  0
  9 11  1  0
  9 50  1  6
 10 51  1  0
 10 52  1  0
 10 81  1  0
 11 12  1  0
 11 13  1  6
 12 53  1  0
 12 54  1  0
 12 55  1  0
 13 56  1  0
 14 39  1  0
 14 15  1  0
 15 16  1  0
 15 57  1  0
 15 58  1  0
 17 16  1  6
 17 22  1  0
 17 18  1  0
 17 37  1  0
 18 19  1  0
 18 59  1  0
 18 60  1  0
 19 20  1  0
 19 61  1  0
 19 62  1  0
 20 21  1  0
 20 63  1  0
 20 64  1  0
 21 27  1  6
 21 22  1  0
 21 23  1  0
 22 65  1  0
 22 66  1  0
 23 24  1  0
 24 25  1  0
 25 35  1  0
 25 26  1  0
 25 28  1  0
 26 27  1  0
 28 33  1  0
 28 29  1  0
 28 67  1  1
 29 30  1  0
 29 68  1  0
 29 69  1  0
 30 36  1  0
 30 31  1  0
 30 70  1  6
 31 32  1  0
 31 71  1  0
 31 72  1  0
 32 33  1  0
 32 34  1  0
 32 73  1  1
 33 74  1  0
 33 75  1  0
 34 35  1  0
 34 76  1  0
 34 77  1  0
 35 36  1  0
 35 78  1  6
 36 79  1  0
 36 80  1  0
 37 38  2  0
 37 39  1  0
M  CHG  1  10   1
M  END
>  <i_m_ct_stereo_status>  (383) 
1

>  <s_m_source_file>  (383) 
/var/tmp/pbs.5076255.sched01/tmpybatibx8/138x0dlab3k.sdf

>  <i_m_source_file_index>  (383) 
27

>  <i_lp_mmshare_version>  (383) 
48012

>  <i_f3d_flags>  (383) 
0

>  <s_epik_input>  (383) 
W05IMl1bQ0BASF0xW0NIMl1bQ0gyXS9DKFtDQEBdMShbQ0gzXSlbT0hdKT1bQ0hdXFtDSF09W0NIXVxDKFxbQ0gzXSk9QyhPQzI9TykvW0NIMl1PW0NAQF0yM1tDSDJdW0NIMl1bQ0gyXUM0KFtDSDJdMylPT1tDQEBdNShPTzQpW0NASF02W0NIMl1bQ0BASF03W0NIMl1bQ0BIXShbQ0gyXTYpW0NIMl1bQ0BIXTVbQ0gyXTc=

>  <s_epik_cmdline>  (383) 
J2VwaWtfcHl0aG9uJywgJy1waHQnLCAnMi4wJywgJy1waCcsICc3LjAnLCAnLXRuJywgJzgnLCAnLW1hJywgJzIwMCcsICctaW1hZScsICc8aW5maWxlLm1hZT4nLCAnLW9tYWUnLCAnPG91dGZpbGUubWFlPic=

>  <r_epik_Ionization_Penalty>  (383) 
0.0231352

>  <r_epik_Ionization_Penalty_Charging>  (383) 
0.0231339

>  <r_epik_Ionization_Penalty_Neutral>  (383) 
1.32465e-06

>  <r_epik_State_Penalty>  (383) 
0.0187057

>  <r_epik_Charging_Adjusted_Penalty>  (383) 
0.0418396

>  <i_epik_Tot_Q>  (383) 
1

>  <i_epik_Tot_abs_Q>  (383) 
1

>  <s_lp_Force_Field>  (383) 
OPLS3e

>  <r_lp_Energy>  (383) 
16.8598

>  <b_lp_Chiralities_Consistent>  (383) 
1

>  <s_lp_Variant>  (383) 
110:0-6

>  <s_i_glide_gridfile>  (383) 
pfpi4k_grid

>  <i_i_glide_lignum>  (383) 
27

>  <i_i_glide_rotatable_bonds>  (383) 
3

>  <r_i_docking_score>  (383) 
-1.50327

>  <r_i_glide_ligand_efficiency>  (383) 
-0.0385453

>  <r_i_glide_ligand_efficiency_sa>  (383) 
-0.130715

>  <r_i_glide_ligand_efficiency_ln>  (383) 
-0.322343

>  <r_i_glide_gscore>  (383) 
-1.50327

>  <r_i_glide_lipo>  (383) 
-1.23449

>  <r_i_glide_hbond>  (383) 
-0.0858138

>  <r_i_glide_metal>  (383) 
-0

>  <r_i_glide_rewards>  (383) 
-0.0686809

>  <r_i_glide_evdw>  (383) 
-13.2419

>  <r_i_glide_ecoul>  (383) 
-0.216417

>  <r_i_glide_erotb>  (383) 
0.139555

>  <r_i_glide_esite>  (383) 
-0.031029

>  <r_i_glide_emodel>  (383) 
-9.35973

>  <r_i_glide_energy>  (383) 
-13.4583

>  <r_i_glide_einternal>  (383) 
3.08404

>  <r_i_glide_intrahb_reward>  (383) 
-0

>  <i_i_glide_confnum>  (383) 
4

>  <i_i_glide_posenum>  (383) 
21

>  <r_i_glide_eff_state_penalty>  (383) 
0

>  <ligand_id>  (383) 
110

>  <original_smiles>  (383) 
CC(C=CC=C1CCC(N)C1(C)O)=C1COC2(CCCC3(C2)OOC2(OO3)C3CC4CC(C3)CC2C4)C(=O)O1

>  <smiles>  (383) 
[H]OC1(C([H])([H])[H])C(=C([H])C([H])=C([H])C(=C2OC(=O)C3(OC2([H])[H])C([H])([H])C([H])([H])C([H])([H])C2(OOC4(OO2)C2([H])C([H])([H])C5([H])C([H])([H])C([H])(C2([H])[H])C([H])([H])C4([H])C5([H])[H])C3([H])[H])C([H])([H])[H])C([H])([H])C([H])([H])C1([H])[N+]([H])([H])[H]

$$$$
110:6:0
     RDKit          3D

 81 87  0  0  1  0  0  0  0  0999 V2000
    8.6798   -5.9569    2.7353 C   0  0  0  0  0  0  0  0  0  0  0  0
    7.5790   -7.0137    2.7284 C   0  0  0  0  0  0  0  0  0  0  0  0
    6.7326   -7.1768    1.5574 C   0  0  0  0  0  0  0  0  0  0  0  0
    5.9683   -6.2034    1.0137 C   0  0  0  0  0  0  0  0  0  0  0  0
    5.8455   -4.8358    1.5100 C   0  0  0  0  0  0  0  0  0  0  0  0
    5.1061   -3.8550    0.9625 C   0  0  0  0  0  0  0  0  0  0  0  0
    5.1164   -2.4320    1.4889 C   0  0  0  0  0  0  0  0  0  0  0  0
    4.3052   -1.5976    0.4958 C   0  0  0  0  0  0  0  0  0  0  0  0
    3.3923   -2.6039   -0.2049 C   0  0  1  0  0  0  0  0  0  0  0  0
    3.0232   -2.1592   -1.5514 N   0  0  0  0  0  0  0  0  0  0  0  0
    4.1542   -3.9432   -0.2215 C   0  0  1  0  0  0  0  0  0  0  0  0
    4.9370   -4.1621   -1.5278 C   0  0  0  0  0  0  0  0  0  0  0  0
    3.2056   -4.9766   -0.0277 O   0  0  0  0  0  0  0  0  0  0  0  0
    7.4275   -7.8274    3.7997 C   0  0  0  0  0  0  0  0  0  0  0  0
    6.4106   -8.9370    3.9316 C   0  0  0  0  0  0  0  0  0  0  0  0
    6.4862   -9.5862    5.2118 O   0  0  0  0  0  0  0  0  0  0  0  0
    6.4728   -8.6776    6.3356 C   0  0  2  0  0  0  0  0  0  0  0  0
    6.7749   -9.4883    7.6284 C   0  0  0  0  0  0  0  0  0  0  0  0
    5.6333  -10.4585    8.0254 C   0  0  0  0  0  0  0  0  0  0  0  0
    4.2653   -9.7636    8.0945 C   0  0  0  0  0  0  0  0  0  0  0  0
    3.9329   -8.9802    6.7990 C   0  0  1  0  0  0  0  0  0  0  0  0
    5.0866   -7.9978    6.4642 C   0  0  0  0  0  0  0  0  0  0  0  0
    3.6694   -9.9104    5.7476 O   0  0  0  0  0  0  0  0  0  0  0  0
    3.3160   -9.1475    4.4991 O   0  0  0  0  0  0  0  0  0  0  0  0
    2.1380   -8.3879    4.7348 C   0  0  0  0  0  0  0  0  0  0  0  0
    2.4008   -7.4616    5.7935 O   0  0  0  0  0  0  0  0  0  0  0  0
    2.7483   -8.2237    7.0366 O   0  0  0  0  0  0  0  0  0  0  0  0
    1.7819   -7.5832    3.4279 C   0  0  1  0  0  0  0  0  0  0  0  0
    1.5069   -8.5403    2.2418 C   0  0  0  0  0  0  0  0  0  0  0  0
    0.3277   -9.4686    2.6036 C   0  0  2  0  0  0  0  0  0  0  0  0
   -0.9484   -8.6320    2.8379 C   0  0  0  0  0  0  0  0  0  0  0  0
   -0.6780   -7.6517    3.9969 C   0  0  2  0  0  0  0  0  0  0  0  0
    0.5066   -6.7277    3.6426 C   0  0  0  0  0  0  0  0  0  0  0  0
   -0.3173   -8.4454    5.2732 C   0  0  0  0  0  0  0  0  0  0  0  0
    0.9412   -9.3162    5.0633 C   0  0  1  0  0  0  0  0  0  0  0  0
    0.6969  -10.2685    3.8700 C   0  0  0  0  0  0  0  0  0  0  0  0
    7.5746   -7.6124    6.1207 C   0  0  0  0  0  0  0  0  0  0  0  0
    7.9152   -6.8598    7.0281 O   0  0  0  0  0  0  0  0  0  0  0  0
    8.1671   -7.5690    4.9098 O   0  0  0  0  0  0  0  0  0  0  0  0
    8.4364   -5.0426    2.1833 H   0  0  0  0  0  0  0  0  0  0  0  0
    9.5766   -6.3233    2.2394 H   0  0  0  0  0  0  0  0  0  0  0  0
    8.9545   -5.6613    3.7474 H   0  0  0  0  0  0  0  0  0  0  0  0
    6.7155   -8.1521    1.0739 H   0  0  0  0  0  0  0  0  0  0  0  0
    5.4114   -6.4833    0.1441 H   0  0  0  0  0  0  0  0  0  0  0  0
    6.4147   -4.5298    2.3796 H   0  0  0  0  0  0  0  0  0  0  0  0
    4.6661   -2.4081    2.4792 H   0  0  0  0  0  0  0  0  0  0  0  0
    6.1314   -2.0491    1.5763 H   0  0  0  0  0  0  0  0  0  0  0  0
    3.7471   -0.7957    0.9840 H   0  0  0  0  0  0  0  0  0  0  0  0
    4.9793   -1.1360   -0.2246 H   0  0  0  0  0  0  0  0  0  0  0  0
    2.4861   -2.7024    0.3981 H   0  0  0  0  0  0  0  0  0  0  0  0
    3.8310   -2.0306   -2.1137 H   0  0  0  0  0  0  0  0  0  0  0  0
    2.4420   -1.3134   -1.4772 H   0  0  0  0  0  0  0  0  0  0  0  0
    5.6995   -3.3924   -1.6669 H   0  0  0  0  0  0  0  0  0  0  0  0
    4.2973   -4.1938   -2.4124 H   0  0  0  0  0  0  0  0  0  0  0  0
    5.4260   -5.1254   -1.5183 H   0  0  0  0  0  0  0  0  0  0  0  0
    3.0707   -5.4305   -0.8534 H   0  0  0  0  0  0  0  0  0  0  0  0
    5.4363   -8.4891    3.7673 H   0  0  0  0  0  0  0  0  0  0  0  0
    6.5349   -9.7016    3.1737 H   0  0  0  0  0  0  0  0  0  0  0  0
    7.7209  -10.0411    7.5762 H   0  0  0  0  0  0  0  0  0  0  0  0
    6.9128   -8.8149    8.4662 H   0  0  0  0  0  0  0  0  0  0  0  0
    5.6095  -11.2824    7.3117 H   0  0  0  0  0  0  0  0  0  0  0  0
    5.8667  -10.9155    9.0010 H   0  0  0  0  0  0  0  0  0  0  0  0
    3.4849  -10.4876    8.3302 H   0  0  0  0  0  0  0  0  0  0  0  0
    4.2832   -9.0663    8.9196 H   0  0  0  0  0  0  0  0  0  0  0  0
    5.1706   -7.3270    7.2990 H   0  0  0  0  0  0  0  0  0  0  0  0
    4.8526   -7.3480    5.6021 H   0  0  0  0  0  0  0  0  0  0  0  0
    2.6096   -6.9239    3.1609 H   0  0  0  0  0  0  0  0  0  0  0  0
    1.2757   -7.9847    1.3313 H   0  0  0  0  0  0  0  0  0  0  0  0
    2.3893   -9.1368    2.0062 H   0  0  0  0  0  0  0  0  0  0  0  0
    0.1404  -10.1748    1.7911 H   0  0  0  0  0  0  0  0  0  0  0  0
   -1.2263   -8.0954    1.9321 H   0  0  0  0  0  0  0  0  0  0  0  0
   -1.7913   -9.2809    3.0766 H   0  0  0  0  0  0  0  0  0  0  0  0
   -1.5794   -7.0548    4.1703 H   0  0  0  0  0  0  0  0  0  0  0  0
    0.6624   -5.9944    4.4360 H   0  0  0  0  0  0  0  0  0  0  0  0
    0.2769   -6.1528    2.7454 H   0  0  0  0  0  0  0  0  0  0  0  0
   -0.1679   -7.7487    6.0978 H   0  0  0  0  0  0  0  0  0  0  0  0
   -1.1769   -9.0567    5.5588 H   0  0  0  0  0  0  0  0  0  0  0  0
    1.1224   -9.9146    5.9683 H   0  0  0  0  0  0  0  0  0  0  0  0
   -0.1050  -10.9805    4.0841 H   0  0  0  0  0  0  0  0  0  0  0  0
    1.5873  -10.8728    3.6594 H   0  0  0  0  0  0  0  0  0  0  0  0
    2.4220   -2.8729   -1.9638 H   0  0  0  0  0  0  0  0  0  0  0  0
  1  2  1  0
  1 40  1  0
  1 41  1  0
  1 42  1  0
  2  3  1  0
  2 14  2  3
  3  4  2  3
  3 43  1  0
  4  5  1  0
  4 44  1  0
  5  6  2  3
  5 45  1  0
  6 11  1  0
  6  7  1  0
  7  8  1  0
  7 46  1  0
  7 47  1  0
  8  9  1  0
  8 48  1  0
  8 49  1  0
  9 10  1  0
  9 11  1  0
  9 50  1  1
 10 51  1  0
 10 52  1  0
 10 81  1  0
 11 12  1  0
 11 13  1  1
 12 53  1  0
 12 54  1  0
 12 55  1  0
 13 56  1  0
 14 39  1  0
 14 15  1  0
 15 16  1  0
 15 57  1  0
 15 58  1  0
 17 16  1  6
 17 22  1  0
 17 18  1  0
 17 37  1  0
 18 19  1  0
 18 59  1  0
 18 60  1  0
 19 20  1  0
 19 61  1  0
 19 62  1  0
 20 21  1  0
 20 63  1  0
 20 64  1  0
 21 27  1  1
 21 22  1  0
 21 23  1  0
 22 65  1  0
 22 66  1  0
 23 24  1  0
 24 25  1  0
 25 35  1  0
 25 26  1  0
 25 28  1  0
 26 27  1  0
 28 33  1  0
 28 29  1  0
 28 67  1  6
 29 30  1  0
 29 68  1  0
 29 69  1  0
 30 36  1  0
 30 31  1  0
 30 70  1  6
 31 32  1  0
 31 71  1  0
 31 72  1  0
 32 33  1  0
 32 34  1  0
 32 73  1  1
 33 74  1  0
 33 75  1  0
 34 35  1  0
 34 76  1  0
 34 77  1  0
 35 36  1  0
 35 78  1  1
 36 79  1  0
 36 80  1  0
 37 38  2  0
 37 39  1  0
M  CHG  1  10   1
M  END
>  <i_m_ct_stereo_status>  (384) 
1

>  <s_m_source_file>  (384) 
/var/tmp/pbs.5076255.sched01/tmpybatibx8/138x0dlab3k.sdf

>  <i_m_source_file_index>  (384) 
28

>  <i_lp_mmshare_version>  (384) 
48012

>  <i_f3d_flags>  (384) 
0

>  <s_epik_input>  (384) 
W05IMl1bQ0BASF0xW0NIMl1bQ0gyXS9DKFtDQEBdMShbQ0gzXSlbT0hdKT1bQ0hdXFtDSF09W0NIXVxDKFxbQ0gzXSk9QyhPQzI9TykvW0NIMl1PW0NAQF0yM1tDSDJdW0NIMl1bQ0gyXUM0KFtDSDJdMylPT1tDQEBdNShPTzQpW0NASF02W0NIMl1bQ0BASF03W0NIMl1bQ0BIXShbQ0gyXTYpW0NIMl1bQ0BIXTVbQ0gyXTc=

>  <s_epik_cmdline>  (384) 
J2VwaWtfcHl0aG9uJywgJy1waHQnLCAnMi4wJywgJy1waCcsICc3LjAnLCAnLXRuJywgJzgnLCAnLW1hJywgJzIwMCcsICctaW1hZScsICc8aW5maWxlLm1hZT4nLCAnLW9tYWUnLCAnPG91dGZpbGUubWFlPic=

>  <r_epik_Ionization_Penalty>  (384) 
0.0231352

>  <r_epik_Ionization_Penalty_Charging>  (384) 
0.0231339

>  <r_epik_Ionization_Penalty_Neutral>  (384) 
1.32465e-06

>  <r_epik_State_Penalty>  (384) 
0.0187057

>  <r_epik_Charging_Adjusted_Penalty>  (384) 
0.0418396

>  <i_epik_Tot_Q>  (384) 
1

>  <i_epik_Tot_abs_Q>  (384) 
1

>  <s_lp_Force_Field>  (384) 
OPLS3e

>  <r_lp_Energy>  (384) 
23.461

>  <b_lp_Chiralities_Consistent>  (384) 
1

>  <s_lp_Variant>  (384) 
110:0-7

>  <s_i_glide_gridfile>  (384) 
pfpi4k_grid

>  <i_i_glide_lignum>  (384) 
28

>  <i_i_glide_rotatable_bonds>  (384) 
3

>  <r_i_docking_score>  (384) 
-3.38923

>  <r_i_glide_ligand_efficiency>  (384) 
-0.0869033

>  <r_i_glide_ligand_efficiency_sa>  (384) 
-0.294708

>  <r_i_glide_ligand_efficiency_ln>  (384) 
-0.726747

>  <r_i_glide_gscore>  (384) 
-3.38923

>  <r_i_glide_lipo>  (384) 
-0.310152

>  <r_i_glide_hbond>  (384) 
-0.454454

>  <r_i_glide_metal>  (384) 
-0

>  <r_i_glide_rewards>  (384) 
0

>  <r_i_glide_evdw>  (384) 
-27.2908

>  <r_i_glide_ecoul>  (384) 
-8.67729

>  <r_i_glide_erotb>  (384) 
0.139555

>  <r_i_glide_esite>  (384) 
-0.0980433

>  <r_i_glide_emodel>  (384) 
-42.4832

>  <r_i_glide_energy>  (384) 
-35.9681

>  <r_i_glide_einternal>  (384) 
6.55133

>  <r_i_glide_intrahb_reward>  (384) 
-0

>  <i_i_glide_confnum>  (384) 
2

>  <i_i_glide_posenum>  (384) 
2

>  <r_i_glide_eff_state_penalty>  (384) 
0

>  <ligand_id>  (384) 
110

>  <original_smiles>  (384) 
CC(C=CC=C1CCC(N)C1(C)O)=C1COC2(CCCC3(C2)OOC2(OO3)C3CC4CC(C3)CC2C4)C(=O)O1

>  <smiles>  (384) 
[H]OC1(C([H])([H])[H])C(=C([H])C([H])=C([H])C(=C2OC(=O)C3(OC2([H])[H])C([H])([H])C([H])([H])C([H])([H])C2(OOC4(OO2)C2([H])C([H])([H])C5([H])C([H])([H])C([H])(C2([H])[H])C([H])([H])C4([H])C5([H])[H])C3([H])[H])C([H])([H])[H])C([H])([H])C([H])([H])C1([H])[N+]([H])([H])[H]

$$$$
110:6:1
     RDKit          3D

 81 87  0  0  1  0  0  0  0  0999 V2000
   -0.0568   -3.0869    7.2650 C   0  0  0  0  0  0  0  0  0  0  0  0
    1.2432   -3.3921    6.5143 C   0  0  0  0  0  0  0  0  0  0  0  0
    2.2782   -2.3960    6.3749 C   0  0  0  0  0  0  0  0  0  0  0  0
    2.1273   -1.2289    5.7242 C   0  0  0  0  0  0  0  0  0  0  0  0
    0.9037   -0.7571    5.0523 C   0  0  0  0  0  0  0  0  0  0  0  0
    0.8158    0.3166    4.2614 C   0  0  0  0  0  0  0  0  0  0  0  0
   -0.5252    0.7815    3.7076 C   0  0  0  0  0  0  0  0  0  0  0  0
   -0.2628    2.0803    2.9586 C   0  0  0  0  0  0  0  0  0  0  0  0
    1.2240    2.0227    2.6018 C   0  0  1  0  0  0  0  0  0  0  0  0
    1.7949    3.3630    2.4486 N   0  0  0  0  0  0  0  0  0  0  0  0
    1.9197    1.2222    3.7269 C   0  0  1  0  0  0  0  0  0  0  0  0
    2.5069    2.1072    4.8548 C   0  0  0  0  0  0  0  0  0  0  0  0
    2.9617    0.4707    3.1204 O   0  0  0  0  0  0  0  0  0  0  0  0
    1.4487   -4.6388    6.0265 C   0  0  0  0  0  0  0  0  0  0  0  0
    2.7003   -5.1426    5.3233 C   0  0  0  0  0  0  0  0  0  0  0  0
    2.5903   -6.4964    4.9200 O   0  0  0  0  0  0  0  0  0  0  0  0
    1.3947   -6.7828    4.1978 C   0  0  2  0  0  0  0  0  0  0  0  0
    1.3213   -8.3298    4.0028 C   0  0  0  0  0  0  0  0  0  0  0  0
    2.3826   -8.9014    3.0401 C   0  0  0  0  0  0  0  0  0  0  0  0
    2.4186   -8.1565    1.6928 C   0  0  0  0  0  0  0  0  0  0  0  0
    2.5455   -6.6239    1.8532 C   0  0  1  0  0  0  0  0  0  0  0  0
    1.4361   -6.0718    2.8103 C   0  0  0  0  0  0  0  0  0  0  0  0
    3.8598   -6.3327    2.2904 O   0  0  0  0  0  0  0  0  0  0  0  0
    3.9781   -4.8475    2.4415 O   0  0  0  0  0  0  0  0  0  0  0  0
    3.7901   -4.2423    1.1810 C   0  0  0  0  0  0  0  0  0  0  0  0
    2.4793   -4.5422    0.7208 O   0  0  0  0  0  0  0  0  0  0  0  0
    2.3274   -6.0419    0.5810 O   0  0  0  0  0  0  0  0  0  0  0  0
    3.9271   -2.6836    1.3317 C   0  0  1  0  0  0  0  0  0  0  0  0
    5.3294   -2.2797    1.8570 C   0  0  0  0  0  0  0  0  0  0  0  0
    6.4032   -2.7765    0.8710 C   0  0  2  0  0  0  0  0  0  0  0  0
    6.2075   -2.1067   -0.5026 C   0  0  0  0  0  0  0  0  0  0  0  0
    4.8093   -2.4687   -1.0242 C   0  0  2  0  0  0  0  0  0  0  0  0
    3.7324   -1.9789   -0.0358 C   0  0  0  0  0  0  0  0  0  0  0  0
    4.6961   -4.0021   -1.1649 C   0  0  0  0  0  0  0  0  0  0  0  0
    4.8912   -4.7294    0.1932 C   0  0  1  0  0  0  0  0  0  0  0  0
    6.2905   -4.3151    0.7452 C   0  0  0  0  0  0  0  0  0  0  0  0
    0.1732   -6.3065    5.0293 C   0  0  0  0  0  0  0  0  0  0  0  0
   -0.9833   -6.6612    4.7441 O   0  0  0  0  0  0  0  0  0  0  0  0
    0.4059   -5.5165    6.0719 O   0  0  0  0  0  0  0  0  0  0  0  0
   -0.4103   -2.0584    7.1733 H   0  0  0  0  0  0  0  0  0  0  0  0
    0.1185   -3.2334    8.3310 H   0  0  0  0  0  0  0  0  0  0  0  0
   -0.8611   -3.7536    6.9411 H   0  0  0  0  0  0  0  0  0  0  0  0
    3.2525   -2.5940    6.8242 H   0  0  0  0  0  0  0  0  0  0  0  0
    2.9850   -0.5977    5.7300 H   0  0  0  0  0  0  0  0  0  0  0  0
   -0.0481   -1.2224    5.2466 H   0  0  0  0  0  0  0  0  0  0  0  0
   -0.9160    0.0236    3.0361 H   0  0  0  0  0  0  0  0  0  0  0  0
   -1.2604    0.9250    4.4958 H   0  0  0  0  0  0  0  0  0  0  0  0
   -0.9124    2.1897    2.0860 H   0  0  0  0  0  0  0  0  0  0  0  0
   -0.4687    2.9198    3.6210 H   0  0  0  0  0  0  0  0  0  0  0  0
    1.2942    1.4947    1.6441 H   0  0  0  0  0  0  0  0  0  0  0  0
    1.7047    3.8615    3.3220 H   0  0  0  0  0  0  0  0  0  0  0  0
    1.2439    3.8441    1.7263 H   0  0  0  0  0  0  0  0  0  0  0  0
    1.7075    2.6763    5.3328 H   0  0  0  0  0  0  0  0  0  0  0  0
    3.2867    2.7835    4.4950 H   0  0  0  0  0  0  0  0  0  0  0  0
    2.9838    1.5366    5.6459 H   0  0  0  0  0  0  0  0  0  0  0  0
    2.5880   -0.0638    2.4397 H   0  0  0  0  0  0  0  0  0  0  0  0
    2.8567   -4.4700    4.4902 H   0  0  0  0  0  0  0  0  0  0  0  0
    3.5773   -5.0863    5.9577 H   0  0  0  0  0  0  0  0  0  0  0  0
    1.3513   -8.8823    4.9451 H   0  0  0  0  0  0  0  0  0  0  0  0
    0.3558   -8.6044    3.5870 H   0  0  0  0  0  0  0  0  0  0  0  0
    3.3548   -8.8615    3.5241 H   0  0  0  0  0  0  0  0  0  0  0  0
    2.1756   -9.9643    2.8584 H   0  0  0  0  0  0  0  0  0  0  0  0
    3.2051   -8.5654    1.0489 H   0  0  0  0  0  0  0  0  0  0  0  0
    1.4842   -8.3695    1.1790 H   0  0  0  0  0  0  0  0  0  0  0  0
    0.4898   -6.3543    2.3579 H   0  0  0  0  0  0  0  0  0  0  0  0
    1.3926   -4.9610    2.8502 H   0  0  0  0  0  0  0  0  0  0  0  0
    3.1755   -2.3205    2.0308 H   0  0  0  0  0  0  0  0  0  0  0  0
    5.4059   -1.1949    1.9731 H   0  0  0  0  0  0  0  0  0  0  0  0
    5.5135   -2.6944    2.8481 H   0  0  0  0  0  0  0  0  0  0  0  0
    7.3898   -2.5081    1.2456 H   0  0  0  0  0  0  0  0  0  0  0  0
    6.3087   -1.0242   -0.4164 H   0  0  0  0  0  0  0  0  0  0  0  0
    6.9698   -2.4402   -1.2088 H   0  0  0  0  0  0  0  0  0  0  0  0
    4.6643   -1.9953   -1.9971 H   0  0  0  0  0  0  0  0  0  0  0  0
    2.7373   -2.1803   -0.4313 H   0  0  0  0  0  0  0  0  0  0  0  0
    3.7907   -0.8940    0.0756 H   0  0  0  0  0  0  0  0  0  0  0  0
    3.7117   -4.2402   -1.5618 H   0  0  0  0  0  0  0  0  0  0  0  0
    5.4235   -4.3446   -1.9058 H   0  0  0  0  0  0  0  0  0  0  0  0
    4.8635   -5.8252    0.0130 H   0  0  0  0  0  0  0  0  0  0  0  0
    7.0906   -4.6636    0.0855 H   0  0  0  0  0  0  0  0  0  0  0  0
    6.4738   -4.7614    1.7278 H   0  0  0  0  0  0  0  0  0  0  0  0
    2.7709    3.2873    2.1976 H   0  0  0  0  0  0  0  0  0  0  0  0
  1  2  1  0
  1 40  1  0
  1 41  1  0
  1 42  1  0
  2  3  1  0
  2 14  2  3
  3  4  2  3
  3 43  1  0
  4  5  1  0
  4 44  1  0
  5  6  2  3
  5 45  1  0
  6 11  1  0
  6  7  1  0
  7  8  1  0
  7 46  1  0
  7 47  1  0
  8  9  1  0
  8 48  1  0
  8 49  1  0
  9 10  1  0
  9 11  1  0
  9 50  1  6
 10 51  1  0
 10 52  1  0
 10 81  1  0
 11 12  1  0
 11 13  1  6
 12 53  1  0
 12 54  1  0
 12 55  1  0
 13 56  1  0
 14 39  1  0
 14 15  1  0
 15 16  1  0
 15 57  1  0
 15 58  1  0
 17 16  1  1
 17 22  1  0
 17 18  1  0
 17 37  1  0
 18 19  1  0
 18 59  1  0
 18 60  1  0
 19 20  1  0
 19 61  1  0
 19 62  1  0
 20 21  1  0
 20 63  1  0
 20 64  1  0
 21 27  1  6
 21 22  1  0
 21 23  1  0
 22 65  1  0
 22 66  1  0
 23 24  1  0
 24 25  1  0
 25 35  1  0
 25 26  1  0
 25 28  1  0
 26 27  1  0
 28 33  1  0
 28 29  1  0
 28 67  1  1
 29 30  1  0
 29 68  1  0
 29 69  1  0
 30 36  1  0
 30 31  1  0
 30 70  1  1
 31 32  1  0
 31 71  1  0
 31 72  1  0
 32 33  1  0
 32 34  1  0
 32 73  1  6
 33 74  1  0
 33 75  1  0
 34 35  1  0
 34 76  1  0
 34 77  1  0
 35 36  1  0
 35 78  1  6
 36 79  1  0
 36 80  1  0
 37 38  2  0
 37 39  1  0
M  CHG  1  10   1
M  END
>  <i_m_ct_stereo_status>  (385) 
1

>  <s_m_source_file>  (385) 
/var/tmp/pbs.5076255.sched01/tmpybatibx8/138x0dlab3k.sdf

>  <i_m_source_file_index>  (385) 
28

>  <i_lp_mmshare_version>  (385) 
48012

>  <i_f3d_flags>  (385) 
0

>  <s_epik_input>  (385) 
W05IMl1bQ0BASF0xW0NIMl1bQ0gyXS9DKFtDQEBdMShbQ0gzXSlbT0hdKT1bQ0hdXFtDSF09W0NIXVxDKFxbQ0gzXSk9QyhPQzI9TykvW0NIMl1PW0NAQF0yM1tDSDJdW0NIMl1bQ0gyXUM0KFtDSDJdMylPT1tDQEBdNShPTzQpW0NASF02W0NIMl1bQ0BASF03W0NIMl1bQ0BIXShbQ0gyXTYpW0NIMl1bQ0BIXTVbQ0gyXTc=

>  <s_epik_cmdline>  (385) 
J2VwaWtfcHl0aG9uJywgJy1waHQnLCAnMi4wJywgJy1waCcsICc3LjAnLCAnLXRuJywgJzgnLCAnLW1hJywgJzIwMCcsICctaW1hZScsICc8aW5maWxlLm1hZT4nLCAnLW9tYWUnLCAnPG91dGZpbGUubWFlPic=

>  <r_epik_Ionization_Penalty>  (385) 
0.0231352

>  <r_epik_Ionization_Penalty_Charging>  (385) 
0.0231339

>  <r_epik_Ionization_Penalty_Neutral>  (385) 
1.32465e-06

>  <r_epik_State_Penalty>  (385) 
0.0187057

>  <r_epik_Charging_Adjusted_Penalty>  (385) 
0.0418396

>  <i_epik_Tot_Q>  (385) 
1

>  <i_epik_Tot_abs_Q>  (385) 
1

>  <s_lp_Force_Field>  (385) 
OPLS3e

>  <r_lp_Energy>  (385) 
23.461

>  <b_lp_Chiralities_Consistent>  (385) 
1

>  <s_lp_Variant>  (385) 
110:0-7

>  <s_i_glide_gridfile>  (385) 
pfpi4k_grid

>  <i_i_glide_lignum>  (385) 
28

>  <i_i_glide_rotatable_bonds>  (385) 
3

>  <r_i_docking_score>  (385) 
-3.37747

>  <r_i_glide_ligand_efficiency>  (385) 
-0.0866018

>  <r_i_glide_ligand_efficiency_sa>  (385) 
-0.293685

>  <r_i_glide_ligand_efficiency_ln>  (385) 
-0.724225

>  <r_i_glide_gscore>  (385) 
-3.37747

>  <r_i_glide_lipo>  (385) 
-0.288186

>  <r_i_glide_hbond>  (385) 
-0.2

>  <r_i_glide_metal>  (385) 
-0

>  <r_i_glide_rewards>  (385) 
-0.0135017

>  <r_i_glide_evdw>  (385) 
-33.333

>  <r_i_glide_ecoul>  (385) 
-8.18025

>  <r_i_glide_erotb>  (385) 
0.139555

>  <r_i_glide_esite>  (385) 
-0.12165

>  <r_i_glide_emodel>  (385) 
-47.1778

>  <r_i_glide_energy>  (385) 
-41.5132

>  <r_i_glide_einternal>  (385) 
6.83486

>  <r_i_glide_intrahb_reward>  (385) 
-0

>  <i_i_glide_confnum>  (385) 
2

>  <i_i_glide_posenum>  (385) 
35

>  <r_i_glide_eff_state_penalty>  (385) 
0

>  <ligand_id>  (385) 
110

>  <original_smiles>  (385) 
CC(C=CC=C1CCC(N)C1(C)O)=C1COC2(CCCC3(C2)OOC2(OO3)C3CC4CC(C3)CC2C4)C(=O)O1

>  <smiles>  (385) 
[H]OC1(C([H])([H])[H])C(=C([H])C([H])=C([H])C(=C2OC(=O)C3(OC2([H])[H])C([H])([H])C([H])([H])C([H])([H])C2(OOC4(OO2)C2([H])C([H])([H])C5([H])C([H])([H])C([H])(C2([H])[H])C([H])([H])C4([H])C5([H])[H])C3([H])[H])C([H])([H])[H])C([H])([H])C([H])([H])C1([H])[N+]([H])([H])[H]

$$$$
110:6:2
     RDKit          3D

 81 87  0  0  1  0  0  0  0  0999 V2000
    3.5206   -1.5280    3.9202 C   0  0  0  0  0  0  0  0  0  0  0  0
    3.9983   -2.9140    4.3638 C   0  0  0  0  0  0  0  0  0  0  0  0
    4.8351   -3.7718    3.4831 C   0  0  0  0  0  0  0  0  0  0  0  0
    5.2451   -3.5367    2.2251 C   0  0  0  0  0  0  0  0  0  0  0  0
    5.0030   -2.3296    1.4478 C   0  0  0  0  0  0  0  0  0  0  0  0
    4.5071   -2.2695    0.1914 C   0  0  0  0  0  0  0  0  0  0  0  0
    4.2353   -0.9624   -0.5191 C   0  0  0  0  0  0  0  0  0  0  0  0
    3.8592   -1.3040   -1.9651 C   0  0  0  0  0  0  0  0  0  0  0  0
    3.3037   -2.7301   -1.8982 C   0  0  1  0  0  0  0  0  0  0  0  0
    3.4609   -3.4655   -3.1754 N   0  0  0  0  0  0  0  0  0  0  0  0
    4.0527   -3.4129   -0.7177 C   0  0  1  0  0  0  0  0  0  0  0  0
    5.2954   -4.2108   -1.1580 C   0  0  0  0  0  0  0  0  0  0  0  0
    3.1304   -4.2562   -0.0606 O   0  0  0  0  0  0  0  0  0  0  0  0
    3.5823   -3.3594    5.5354 C   0  0  0  0  0  0  0  0  0  0  0  0
    3.8718   -4.6901    6.1958 C   0  0  0  0  0  0  0  0  0  0  0  0
    3.2618   -4.8423    7.4931 O   0  0  0  0  0  0  0  0  0  0  0  0
    1.8334   -4.5223    7.4810 C   0  0  2  0  0  0  0  0  0  0  0  0
    1.3659   -4.5088    8.9565 C   0  0  0  0  0  0  0  0  0  0  0  0
    1.3522   -5.9085    9.6191 C   0  0  0  0  0  0  0  0  0  0  0  0
    0.5960   -6.9449    8.7891 C   0  0  0  0  0  0  0  0  0  0  0  0
    1.0861   -6.9945    7.3194 C   0  0  1  0  0  0  0  0  0  0  0  0
    1.0553   -5.5841    6.6707 C   0  0  0  0  0  0  0  0  0  0  0  0
    2.3923   -7.6055    7.3031 O   0  0  0  0  0  0  0  0  0  0  0  0
    2.8756   -7.6574    5.8768 O   0  0  0  0  0  0  0  0  0  0  0  0
    1.9714   -8.4986    5.1347 C   0  0  0  0  0  0  0  0  0  0  0  0
    0.6417   -7.9064    5.1611 O   0  0  0  0  0  0  0  0  0  0  0  0
    0.1894   -7.8403    6.5792 O   0  0  0  0  0  0  0  0  0  0  0  0
    2.4710   -8.5714    3.6409 C   0  0  1  0  0  0  0  0  0  0  0  0
    3.8937   -9.1727    3.5508 C   0  0  0  0  0  0  0  0  0  0  0  0
    3.8835  -10.5937    4.1479 C   0  0  2  0  0  0  0  0  0  0  0  0
    2.9304  -11.4910    3.3373 C   0  0  0  0  0  0  0  0  0  0  0  0
    1.5154  -10.8903    3.3935 C   0  0  2  0  0  0  0  0  0  0  0  0
    1.5282   -9.4651    2.7988 C   0  0  0  0  0  0  0  0  0  0  0  0
    1.0440  -10.8200    4.8605 C   0  0  0  0  0  0  0  0  0  0  0  0
    1.9822   -9.9499    5.7148 C   0  0  1  0  0  0  0  0  0  0  0  0
    3.4162  -10.5178    5.6191 C   0  0  0  0  0  0  0  0  0  0  0  0
    1.6472   -3.1141    6.8648 C   0  0  0  0  0  0  0  0  0  0  0  0
    0.5624   -2.5102    6.9596 O   0  0  0  0  0  0  0  0  0  0  0  0
    2.7206   -2.5596    6.2428 O   0  0  0  0  0  0  0  0  0  0  0  0
    3.1442   -1.5402    2.8916 H   0  0  0  0  0  0  0  0  0  0  0  0
    4.3590   -0.8331    4.0146 H   0  0  0  0  0  0  0  0  0  0  0  0
    2.6822   -1.1378    4.5150 H   0  0  0  0  0  0  0  0  0  0  0  0
    5.1528   -4.7393    3.8699 H   0  0  0  0  0  0  0  0  0  0  0  0
    5.8103   -4.3342    1.7618 H   0  0  0  0  0  0  0  0  0  0  0  0
    5.3439   -1.3906    1.8700 H   0  0  0  0  0  0  0  0  0  0  0  0
    3.4041   -0.4701   -0.0172 H   0  0  0  0  0  0  0  0  0  0  0  0
    5.0823   -0.2915   -0.4661 H   0  0  0  0  0  0  0  0  0  0  0  0
    3.1378   -0.6000   -2.3894 H   0  0  0  0  0  0  0  0  0  0  0  0
    4.7619   -1.2553   -2.5712 H   0  0  0  0  0  0  0  0  0  0  0  0
    2.2336   -2.6503   -1.6803 H   0  0  0  0  0  0  0  0  0  0  0  0
    4.4514   -3.4949   -3.3566 H   0  0  0  0  0  0  0  0  0  0  0  0
    2.9795   -2.9828   -3.9307 H   0  0  0  0  0  0  0  0  0  0  0  0
    6.0295   -3.5301   -1.6000 H   0  0  0  0  0  0  0  0  0  0  0  0
    5.0660   -5.0175   -1.8593 H   0  0  0  0  0  0  0  0  0  0  0  0
    5.7967   -4.6974   -0.3236 H   0  0  0  0  0  0  0  0  0  0  0  0
    3.0061   -5.0419   -0.5713 H   0  0  0  0  0  0  0  0  0  0  0  0
    3.5257   -5.4526    5.5030 H   0  0  0  0  0  0  0  0  0  0  0  0
    4.9281   -4.8485    6.3623 H   0  0  0  0  0  0  0  0  0  0  0  0
    1.9330   -3.8165    9.5920 H   0  0  0  0  0  0  0  0  0  0  0  0
    0.3568   -4.1362    9.0171 H   0  0  0  0  0  0  0  0  0  0  0  0
    2.3790   -6.2241    9.7959 H   0  0  0  0  0  0  0  0  0  0  0  0
    0.8872   -5.8342   10.6139 H   0  0  0  0  0  0  0  0  0  0  0  0
    0.6411   -7.9357    9.2537 H   0  0  0  0  0  0  0  0  0  0  0  0
   -0.4415   -6.6708    8.7569 H   0  0  0  0  0  0  0  0  0  0  0  0
    0.0427   -5.2578    6.7243 H   0  0  0  0  0  0  0  0  0  0  0  0
    1.2937   -5.5948    5.5804 H   0  0  0  0  0  0  0  0  0  0  0  0
    2.4891   -7.5686    3.2131 H   0  0  0  0  0  0  0  0  0  0  0  0
    4.2352   -9.2124    2.5146 H   0  0  0  0  0  0  0  0  0  0  0  0
    4.6209   -8.5577    4.0811 H   0  0  0  0  0  0  0  0  0  0  0  0
    4.8884  -11.0268    4.0907 H   0  0  0  0  0  0  0  0  0  0  0  0
    3.2614  -11.5666    2.3080 H   0  0  0  0  0  0  0  0  0  0  0  0
    2.9346  -12.5066    3.7317 H   0  0  0  0  0  0  0  0  0  0  0  0
    0.8420  -11.5312    2.8134 H   0  0  0  0  0  0  0  0  0  0  0  0
    0.5156   -9.0586    2.7732 H   0  0  0  0  0  0  0  0  0  0  0  0
    1.8567   -9.5008    1.7588 H   0  0  0  0  0  0  0  0  0  0  0  0
    0.0296  -10.4239    4.8773 H   0  0  0  0  0  0  0  0  0  0  0  0
    0.9885  -11.8360    5.2565 H   0  0  0  0  0  0  0  0  0  0  0  0
    1.6372   -9.9796    6.7674 H   0  0  0  0  0  0  0  0  0  0  0  0
    3.4584  -11.5216    6.0471 H   0  0  0  0  0  0  0  0  0  0  0  0
    4.1334   -9.9057    6.1799 H   0  0  0  0  0  0  0  0  0  0  0  0
    3.1219   -4.4052   -3.0682 H   0  0  0  0  0  0  0  0  0  0  0  0
  1  2  1  0
  1 40  1  0
  1 41  1  0
  1 42  1  0
  2  3  1  0
  2 14  2  3
  3  4  2  3
  3 43  1  0
  4  5  1  0
  4 44  1  0
  5  6  2  3
  5 45  1  0
  6 11  1  0
  6  7  1  0
  7  8  1  0
  7 46  1  0
  7 47  1  0
  8  9  1  0
  8 48  1  0
  8 49  1  0
  9 10  1  0
  9 11  1  0
  9 50  1  1
 10 51  1  0
 10 52  1  0
 10 81  1  0
 11 12  1  0
 11 13  1  1
 12 53  1  0
 12 54  1  0
 12 55  1  0
 13 56  1  0
 14 39  1  0
 14 15  1  0
 15 16  1  0
 15 57  1  0
 15 58  1  0
 17 16  1  1
 17 22  1  0
 17 18  1  0
 17 37  1  0
 18 19  1  0
 18 59  1  0
 18 60  1  0
 19 20  1  0
 19 61  1  0
 19 62  1  0
 20 21  1  0
 20 63  1  0
 20 64  1  0
 21 27  1  6
 21 22  1  0
 21 23  1  0
 22 65  1  0
 22 66  1  0
 23 24  1  0
 24 25  1  0
 25 35  1  0
 25 26  1  0
 25 28  1  0
 26 27  1  0
 28 33  1  0
 28 29  1  0
 28 67  1  6
 29 30  1  0
 29 68  1  0
 29 69  1  0
 30 36  1  0
 30 31  1  0
 30 70  1  1
 31 32  1  0
 31 71  1  0
 31 72  1  0
 32 33  1  0
 32 34  1  0
 32 73  1  6
 33 74  1  0
 33 75  1  0
 34 35  1  0
 34 76  1  0
 34 77  1  0
 35 36  1  0
 35 78  1  1
 36 79  1  0
 36 80  1  0
 37 38  2  0
 37 39  1  0
M  CHG  1  10   1
M  END
>  <i_m_ct_stereo_status>  (386) 
1

>  <s_m_source_file>  (386) 
/var/tmp/pbs.5076255.sched01/tmpybatibx8/138x0dlab3k.sdf

>  <i_m_source_file_index>  (386) 
28

>  <i_lp_mmshare_version>  (386) 
48012

>  <i_f3d_flags>  (386) 
0

>  <s_epik_input>  (386) 
W05IMl1bQ0BASF0xW0NIMl1bQ0gyXS9DKFtDQEBdMShbQ0gzXSlbT0hdKT1bQ0hdXFtDSF09W0NIXVxDKFxbQ0gzXSk9QyhPQzI9TykvW0NIMl1PW0NAQF0yM1tDSDJdW0NIMl1bQ0gyXUM0KFtDSDJdMylPT1tDQEBdNShPTzQpW0NASF02W0NIMl1bQ0BASF03W0NIMl1bQ0BIXShbQ0gyXTYpW0NIMl1bQ0BIXTVbQ0gyXTc=

>  <s_epik_cmdline>  (386) 
J2VwaWtfcHl0aG9uJywgJy1waHQnLCAnMi4wJywgJy1waCcsICc3LjAnLCAnLXRuJywgJzgnLCAnLW1hJywgJzIwMCcsICctaW1hZScsICc8aW5maWxlLm1hZT4nLCAnLW9tYWUnLCAnPG91dGZpbGUubWFlPic=

>  <r_epik_Ionization_Penalty>  (386) 
0.0231352

>  <r_epik_Ionization_Penalty_Charging>  (386) 
0.0231339

>  <r_epik_Ionization_Penalty_Neutral>  (386) 
1.32465e-06

>  <r_epik_State_Penalty>  (386) 
0.0187057

>  <r_epik_Charging_Adjusted_Penalty>  (386) 
0.0418396

>  <i_epik_Tot_Q>  (386) 
1

>  <i_epik_Tot_abs_Q>  (386) 
1

>  <s_lp_Force_Field>  (386) 
OPLS3e

>  <r_lp_Energy>  (386) 
23.461

>  <b_lp_Chiralities_Consistent>  (386) 
1

>  <s_lp_Variant>  (386) 
110:0-7

>  <s_i_glide_gridfile>  (386) 
pfpi4k_grid

>  <i_i_glide_lignum>  (386) 
28

>  <i_i_glide_rotatable_bonds>  (386) 
3

>  <r_i_docking_score>  (386) 
-2.97009

>  <r_i_glide_ligand_efficiency>  (386) 
-0.0761561

>  <r_i_glide_ligand_efficiency_sa>  (386) 
-0.258261

>  <r_i_glide_ligand_efficiency_ln>  (386) 
-0.636871

>  <r_i_glide_gscore>  (386) 
-2.97009

>  <r_i_glide_lipo>  (386) 
-0.337246

>  <r_i_glide_hbond>  (386) 
-0.113431

>  <r_i_glide_metal>  (386) 
-0

>  <r_i_glide_rewards>  (386) 
0

>  <r_i_glide_evdw>  (386) 
-28.6928

>  <r_i_glide_ecoul>  (386) 
-8.05024

>  <r_i_glide_erotb>  (386) 
0.139555

>  <r_i_glide_esite>  (386) 
-0.0167871

>  <r_i_glide_emodel>  (386) 
-42.041

>  <r_i_glide_energy>  (386) 
-36.7431

>  <r_i_glide_einternal>  (386) 
5.26525

>  <r_i_glide_intrahb_reward>  (386) 
-0

>  <i_i_glide_confnum>  (386) 
2

>  <i_i_glide_posenum>  (386) 
7

>  <r_i_glide_eff_state_penalty>  (386) 
0

>  <ligand_id>  (386) 
110

>  <original_smiles>  (386) 
CC(C=CC=C1CCC(N)C1(C)O)=C1COC2(CCCC3(C2)OOC2(OO3)C3CC4CC(C3)CC2C4)C(=O)O1

>  <smiles>  (386) 
[H]OC1(C([H])([H])[H])C(=C([H])C([H])=C([H])C(=C2OC(=O)C3(OC2([H])[H])C([H])([H])C([H])([H])C([H])([H])C2(OOC4(OO2)C2([H])C([H])([H])C5([H])C([H])([H])C([H])(C2([H])[H])C([H])([H])C4([H])C5([H])[H])C3([H])[H])C([H])([H])[H])C([H])([H])C([H])([H])C1([H])[N+]([H])([H])[H]

$$$$
110:7:0
     RDKit          3D

 81 87  0  0  1  0  0  0  0  0999 V2000
    0.8196    5.4975    3.3862 C   0  0  0  0  0  0  0  0  0  0  0  0
   -0.1047    4.3488    3.7337 C   0  0  0  0  0  0  0  0  0  0  0  0
   -1.5396    4.5651    3.7368 C   0  0  0  0  0  0  0  0  0  0  0  0
   -2.2859    5.2646    2.8698 C   0  0  0  0  0  0  0  0  0  0  0  0
   -1.9307    6.0790    1.7080 C   0  0  0  0  0  0  0  0  0  0  0  0
   -2.8568    6.6809    0.9160 C   0  0  0  0  0  0  0  0  0  0  0  0
   -2.4934    7.2857   -0.4187 C   0  0  0  0  0  0  0  0  0  0  0  0
   -3.7944    7.6490   -1.1154 C   0  0  0  0  0  0  0  0  0  0  0  0
   -4.7958    7.8004    0.0301 C   0  0  1  0  0  0  0  0  0  0  0  0
   -6.1751    7.5721   -0.4099 N   0  0  0  0  0  0  0  0  0  0  0  0
   -4.3589    6.8073    1.1319 C   0  0  1  0  0  0  0  0  0  0  0  0
   -5.0978    5.4345    1.0819 C   0  0  0  0  0  0  0  0  0  0  0  0
   -4.6243    7.4820    2.3360 O   0  0  0  0  0  0  0  0  0  0  0  0
    0.3222    3.1455    4.0910 C   0  0  0  0  0  0  0  0  0  0  0  0
    1.7497    2.6440    4.1778 C   0  0  0  0  0  0  0  0  0  0  0  0
    1.9066    1.3714    3.5613 O   0  0  0  0  0  0  0  0  0  0  0  0
    0.9694    0.3672    3.9963 C   0  0  2  0  0  0  0  0  0  0  0  0
    1.3791   -0.0943    5.4250 C   0  0  0  0  0  0  0  0  0  0  0  0
    2.7449   -0.8277    5.4339 C   0  0  0  0  0  0  0  0  0  0  0  0
    2.8205   -2.0113    4.4529 C   0  0  0  0  0  0  0  0  0  0  0  0
    2.4351   -1.5758    3.0109 C   0  0  1  0  0  0  0  0  0  0  0  0
    1.0848   -0.8076    2.9984 C   0  0  0  0  0  0  0  0  0  0  0  0
    3.3896   -0.7272    2.3853 O   0  0  0  0  0  0  0  0  0  0  0  0
    4.6989   -1.4417    2.3365 O   0  0  0  0  0  0  0  0  0  0  0  0
    4.5415   -2.5992    1.5164 C   0  0  0  0  0  0  0  0  0  0  0  0
    3.5740   -3.4663    2.1205 O   0  0  0  0  0  0  0  0  0  0  0  0
    2.2706   -2.7451    2.2087 O   0  0  0  0  0  0  0  0  0  0  0  0
    4.1825   -2.2523    0.0215 C   0  0  1  0  0  0  0  0  0  0  0  0
    5.2786   -1.3610   -0.6155 C   0  0  0  0  0  0  0  0  0  0  0  0
    6.6236   -2.0992   -0.5632 C   0  0  2  0  0  0  0  0  0  0  0  0
    6.5667   -3.3740   -1.3931 C   0  0  0  0  0  0  0  0  0  0  0  0
    5.4721   -4.2770   -0.7700 C   0  0  2  0  0  0  0  0  0  0  0  0
    4.1143   -3.5578   -0.8077 C   0  0  0  0  0  0  0  0  0  0  0  0
    5.8457   -4.6226    0.6863 C   0  0  0  0  0  0  0  0  0  0  0  0
    5.9212   -3.3379    1.5354 C   0  0  1  0  0  0  0  0  0  0  0  0
    6.9893   -2.4227    0.8805 C   0  0  0  0  0  0  0  0  0  0  0  0
   -0.4747    0.9494    4.0118 C   0  0  0  0  0  0  0  0  0  0  0  0
   -1.4791    0.2438    3.8223 O   0  0  0  0  0  0  0  0  0  0  0  0
   -0.6347    2.2160    4.3963 O   0  0  0  0  0  0  0  0  0  0  0  0
    0.3119    6.4606    3.4766 H   0  0  0  0  0  0  0  0  0  0  0  0
    1.0930    5.4216    2.3415 H   0  0  0  0  0  0  0  0  0  0  0  0
    1.7503    5.4897    3.9393 H   0  0  0  0  0  0  0  0  0  0  0  0
   -2.0836    4.1216    4.5723 H   0  0  0  0  0  0  0  0  0  0  0  0
   -3.3205    5.1633    3.0937 H   0  0  0  0  0  0  0  0  0  0  0  0
   -0.8971    6.2101    1.4286 H   0  0  0  0  0  0  0  0  0  0  0  0
   -1.8739    8.1541   -0.3078 H   0  0  0  0  0  0  0  0  0  0  0  0
   -1.9217    6.5667   -1.0017 H   0  0  0  0  0  0  0  0  0  0  0  0
   -3.6749    8.5646   -1.7000 H   0  0  0  0  0  0  0  0  0  0  0  0
   -4.0722    6.8410   -1.7928 H   0  0  0  0  0  0  0  0  0  0  0  0
   -4.7050    8.8306    0.3958 H   0  0  0  0  0  0  0  0  0  0  0  0
   -6.2327    6.6108   -0.7102 H   0  0  0  0  0  0  0  0  0  0  0  0
   -6.3971    8.1756   -1.1916 H   0  0  0  0  0  0  0  0  0  0  0  0
   -4.9241    4.9822    0.1144 H   0  0  0  0  0  0  0  0  0  0  0  0
   -6.1821    5.5003    1.2283 H   0  0  0  0  0  0  0  0  0  0  0  0
   -4.7550    4.6785    1.7876 H   0  0  0  0  0  0  0  0  0  0  0  0
   -5.5556    7.4510    2.4979 H   0  0  0  0  0  0  0  0  0  0  0  0
    2.4053    3.2729    3.5870 H   0  0  0  0  0  0  0  0  0  0  0  0
    2.0967    2.6357    5.2114 H   0  0  0  0  0  0  0  0  0  0  0  0
    1.4020    0.7194    6.1614 H   0  0  0  0  0  0  0  0  0  0  0  0
    0.6241   -0.7728    5.7970 H   0  0  0  0  0  0  0  0  0  0  0  0
    3.5331   -0.1086    5.1887 H   0  0  0  0  0  0  0  0  0  0  0  0
    2.9512   -1.1845    6.4533 H   0  0  0  0  0  0  0  0  0  0  0  0
    3.8045   -2.5042    4.5136 H   0  0  0  0  0  0  0  0  0  0  0  0
    2.1135   -2.7665    4.7758 H   0  0  0  0  0  0  0  0  0  0  0  0
    0.3956   -1.5259    3.3579 H   0  0  0  0  0  0  0  0  0  0  0  0
    0.7772   -0.6014    1.9566 H   0  0  0  0  0  0  0  0  0  0  0  0
    3.2280   -1.7317   -0.0674 H   0  0  0  0  0  0  0  0  0  0  0  0
    5.0455   -1.1188   -1.6606 H   0  0  0  0  0  0  0  0  0  0  0  0
    5.3782   -0.4148   -0.0825 H   0  0  0  0  0  0  0  0  0  0  0  0
    7.4359   -1.5024   -0.9547 H   0  0  0  0  0  0  0  0  0  0  0  0
    6.3560   -3.1764   -2.4408 H   0  0  0  0  0  0  0  0  0  0  0  0
    7.5773   -3.7867   -1.3652 H   0  0  0  0  0  0  0  0  0  0  0  0
    5.3495   -5.1974   -1.3420 H   0  0  0  0  0  0  0  0  0  0  0  0
    3.3429   -4.2337   -0.4321 H   0  0  0  0  0  0  0  0  0  0  0  0
    3.8544   -3.3595   -1.8538 H   0  0  0  0  0  0  0  0  0  0  0  0
    5.1132   -5.3211    1.0937 H   0  0  0  0  0  0  0  0  0  0  0  0
    6.7989   -5.1481    0.6935 H   0  0  0  0  0  0  0  0  0  0  0  0
    6.1773   -3.6070    2.5762 H   0  0  0  0  0  0  0  0  0  0  0  0
    7.9623   -2.9053    0.8754 H   0  0  0  0  0  0  0  0  0  0  0  0
    7.1007   -1.4773    1.4254 H   0  0  0  0  0  0  0  0  0  0  0  0
   -6.8242    7.7192    0.3485 H   0  0  0  0  0  0  0  0  0  0  0  0
  1  2  1  0
  1 40  1  0
  1 41  1  0
  1 42  1  0
  2  3  1  0
  2 14  2  3
  3  4  2  3
  3 43  1  0
  4  5  1  0
  4 44  1  0
  5  6  2  3
  5 45  1  0
  6 11  1  0
  6  7  1  0
  7  8  1  0
  7 46  1  0
  7 47  1  0
  8  9  1  0
  8 48  1  0
  8 49  1  0
  9 10  1  0
  9 11  1  0
  9 50  1  1
 10 51  1  0
 10 52  1  0
 10 81  1  0
 11 12  1  0
 11 13  1  1
 12 53  1  0
 12 54  1  0
 12 55  1  0
 13 56  1  0
 14 39  1  0
 14 15  1  0
 15 16  1  0
 15 57  1  0
 15 58  1  0
 17 16  1  6
 17 22  1  0
 17 18  1  0
 17 37  1  0
 18 19  1  0
 18 59  1  0
 18 60  1  0
 19 20  1  0
 19 61  1  0
 19 62  1  0
 20 21  1  0
 20 63  1  0
 20 64  1  0
 21 27  1  6
 21 22  1  0
 21 23  1  0
 22 65  1  0
 22 66  1  0
 23 24  1  0
 24 25  1  0
 25 35  1  0
 25 26  1  0
 25 28  1  0
 26 27  1  0
 28 33  1  0
 28 29  1  0
 28 67  1  1
 29 30  1  0
 29 68  1  0
 29 69  1  0
 30 36  1  0
 30 31  1  0
 30 70  1  6
 31 32  1  0
 31 71  1  0
 31 72  1  0
 32 33  1  0
 32 34  1  0
 32 73  1  6
 33 74  1  0
 33 75  1  0
 34 35  1  0
 34 76  1  0
 34 77  1  0
 35 36  1  0
 35 78  1  1
 36 79  1  0
 36 80  1  0
 37 38  2  0
 37 39  1  0
M  CHG  1  10   1
M  END
>  <i_m_ct_stereo_status>  (387) 
1

>  <s_m_source_file>  (387) 
/var/tmp/pbs.5076255.sched01/tmpybatibx8/138x0dlab3k.sdf

>  <i_m_source_file_index>  (387) 
29

>  <i_lp_mmshare_version>  (387) 
48012

>  <i_f3d_flags>  (387) 
0

>  <s_epik_input>  (387) 
W05IMl1bQ0BASF0xW0NIMl1bQ0gyXS9DKFtDQEBdMShbQ0gzXSlbT0hdKT1bQ0hdXFtDSF09W0NIXVxDKFxbQ0gzXSk9QyhPQzI9TykvW0NIMl1PW0NAQF0yM1tDSDJdW0NIMl1bQ0gyXUM0KFtDSDJdMylPT1tDQEBdNShPTzQpW0NASF02W0NIMl1bQ0BASF03W0NIMl1bQ0BIXShbQ0gyXTYpW0NIMl1bQ0BIXTVbQ0gyXTc=

>  <s_epik_cmdline>  (387) 
J2VwaWtfcHl0aG9uJywgJy1waHQnLCAnMi4wJywgJy1waCcsICc3LjAnLCAnLXRuJywgJzgnLCAnLW1hJywgJzIwMCcsICctaW1hZScsICc8aW5maWxlLm1hZT4nLCAnLW9tYWUnLCAnPG91dGZpbGUubWFlPic=

>  <r_epik_Ionization_Penalty>  (387) 
0.0231352

>  <r_epik_Ionization_Penalty_Charging>  (387) 
0.0231339

>  <r_epik_Ionization_Penalty_Neutral>  (387) 
1.32465e-06

>  <r_epik_State_Penalty>  (387) 
0.0187057

>  <r_epik_Charging_Adjusted_Penalty>  (387) 
0.0418396

>  <i_epik_Tot_Q>  (387) 
1

>  <i_epik_Tot_abs_Q>  (387) 
1

>  <s_lp_Force_Field>  (387) 
OPLS3e

>  <r_lp_Energy>  (387) 
20.2325

>  <b_lp_Chiralities_Consistent>  (387) 
1

>  <s_lp_Variant>  (387) 
110:0-8

>  <s_i_glide_gridfile>  (387) 
pfpi4k_grid

>  <i_i_glide_lignum>  (387) 
29

>  <i_i_glide_rotatable_bonds>  (387) 
3

>  <r_i_docking_score>  (387) 
-2.91593

>  <r_i_glide_ligand_efficiency>  (387) 
-0.0747674

>  <r_i_glide_ligand_efficiency_sa>  (387) 
-0.253552

>  <r_i_glide_ligand_efficiency_ln>  (387) 
-0.625257

>  <r_i_glide_gscore>  (387) 
-2.91593

>  <r_i_glide_lipo>  (387) 
-1.21897

>  <r_i_glide_hbond>  (387) 
-0.109657

>  <r_i_glide_metal>  (387) 
-0

>  <r_i_glide_rewards>  (387) 
-0.0262192

>  <r_i_glide_evdw>  (387) 
-27.2771

>  <r_i_glide_ecoul>  (387) 
-2.06717

>  <r_i_glide_erotb>  (387) 
0.139555

>  <r_i_glide_esite>  (387) 
-0.0267049

>  <r_i_glide_emodel>  (387) 
-28.0959

>  <r_i_glide_energy>  (387) 
-29.3443

>  <r_i_glide_einternal>  (387) 
3.16199

>  <r_i_glide_intrahb_reward>  (387) 
-0

>  <i_i_glide_confnum>  (387) 
3

>  <i_i_glide_posenum>  (387) 
2

>  <r_i_glide_eff_state_penalty>  (387) 
0

>  <ligand_id>  (387) 
110

>  <original_smiles>  (387) 
CC(C=CC=C1CCC(N)C1(C)O)=C1COC2(CCCC3(C2)OOC2(OO3)C3CC4CC(C3)CC2C4)C(=O)O1

>  <smiles>  (387) 
[H]OC1(C([H])([H])[H])C(=C([H])C([H])=C([H])C(=C2OC(=O)C3(OC2([H])[H])C([H])([H])C([H])([H])C([H])([H])C2(OOC4(OO2)C2([H])C([H])([H])C5([H])C([H])([H])C([H])(C2([H])[H])C([H])([H])C4([H])C5([H])[H])C3([H])[H])C([H])([H])[H])C([H])([H])C([H])([H])C1([H])[N+]([H])([H])[H]

$$$$
110:7:1
     RDKit          3D

 81 87  0  0  1  0  0  0  0  0999 V2000
    0.0512    3.7055    3.3045 C   0  0  0  0  0  0  0  0  0  0  0  0
   -1.1220    2.9419    3.8716 C   0  0  0  0  0  0  0  0  0  0  0  0
   -2.5357    3.2867    3.5887 C   0  0  0  0  0  0  0  0  0  0  0  0
   -3.0591    4.3100    2.8854 C   0  0  0  0  0  0  0  0  0  0  0  0
   -2.4294    5.4099    2.1625 C   0  0  0  0  0  0  0  0  0  0  0  0
   -3.0527    6.3380    1.4529 C   0  0  0  0  0  0  0  0  0  0  0  0
   -2.3247    7.3559    0.6282 C   0  0  0  0  0  0  0  0  0  0  0  0
   -3.3415    8.0399   -0.2500 C   0  0  0  0  0  0  0  0  0  0  0  0
   -4.6718    7.8293    0.4700 C   0  0  1  0  0  0  0  0  0  0  0  0
   -5.7845    7.8024   -0.4775 N   0  0  0  0  0  0  0  0  0  0  0  0
   -4.5276    6.5109    1.2270 C   0  0  1  0  0  0  0  0  0  0  0  0
   -5.0365    5.3531    0.4338 C   0  0  0  0  0  0  0  0  0  0  0  0
   -5.2397    6.5847    2.4190 O   0  0  0  0  0  0  0  0  0  0  0  0
   -0.8458    1.8241    4.5827 C   0  0  0  0  0  0  0  0  0  0  0  0
    0.5521    1.2703    4.8658 C   0  0  0  0  0  0  0  0  0  0  0  0
    0.6274   -0.1341    4.6460 O   0  0  0  0  0  0  0  0  0  0  0  0
   -0.3844   -0.9182    5.2860 C   0  0  2  0  0  0  0  0  0  0  0  0
   -0.1772   -0.9525    6.8096 C   0  0  0  0  0  0  0  0  0  0  0  0
    1.0670   -1.7569    7.1924 C   0  0  0  0  0  0  0  0  0  0  0  0
    1.0635   -3.1831    6.6072 C   0  0  0  0  0  0  0  0  0  0  0  0
    0.8939   -3.1907    5.0664 C   0  0  1  0  0  0  0  0  0  0  0  0
   -0.3861   -2.3681    4.7578 C   0  0  0  0  0  0  0  0  0  0  0  0
    1.9679   -2.5931    4.3660 O   0  0  0  0  0  0  0  0  0  0  0  0
    3.2285   -3.4098    4.6053 O   0  0  0  0  0  0  0  0  0  0  0  0
    3.0334   -4.7543    4.1533 C   0  0  0  0  0  0  0  0  0  0  0  0
    1.9327   -5.3355    4.8479 O   0  0  0  0  0  0  0  0  0  0  0  0
    0.6793   -4.5115    4.5800 O   0  0  0  0  0  0  0  0  0  0  0  0
    2.8571   -4.8612    2.5993 C   0  0  1  0  0  0  0  0  0  0  0  0
    4.0891   -4.2674    1.8702 C   0  0  0  0  0  0  0  0  0  0  0  0
    5.3623   -5.0468    2.2690 C   0  0  2  0  0  0  0  0  0  0  0  0
    5.2146   -6.5299    1.8579 C   0  0  0  0  0  0  0  0  0  0  0  0
    3.9851   -7.1343    2.5740 C   0  0  2  0  0  0  0  0  0  0  0  0
    2.7154   -6.3489    2.1776 C   0  0  0  0  0  0  0  0  0  0  0  0
    4.1772   -7.0415    4.1011 C   0  0  0  0  0  0  0  0  0  0  0  0
    4.3287   -5.5561    4.5180 C   0  0  1  0  0  0  0  0  0  0  0  0
    5.5464   -4.9352    3.7959 C   0  0  0  0  0  0  0  0  0  0  0  0
   -1.7643   -0.2865    4.9900 C   0  0  0  0  0  0  0  0  0  0  0  0
   -2.7323   -1.0273    4.8073 O   0  0  0  0  0  0  0  0  0  0  0  0
   -1.8632    1.0461    5.0708 O   0  0  0  0  0  0  0  0  0  0  0  0
   -0.1351    4.7424    3.1751 H   0  0  0  0  0  0  0  0  0  0  0  0
    0.3364    3.1830    2.4386 H   0  0  0  0  0  0  0  0  0  0  0  0
    0.9562    3.7474    3.9220 H   0  0  0  0  0  0  0  0  0  0  0  0
   -3.2833    2.6271    4.0178 H   0  0  0  0  0  0  0  0  0  0  0  0
   -4.1393    4.2968    2.9108 H   0  0  0  0  0  0  0  0  0  0  0  0
   -1.3765    5.5361    2.0687 H   0  0  0  0  0  0  0  0  0  0  0  0
   -1.9428    7.9920    1.3907 H   0  0  0  0  0  0  0  0  0  0  0  0
   -1.4714    6.9296    0.0750 H   0  0  0  0  0  0  0  0  0  0  0  0
   -3.0981    9.0989   -0.3692 H   0  0  0  0  0  0  0  0  0  0  0  0
   -3.3165    7.5618   -1.2304 H   0  0  0  0  0  0  0  0  0  0  0  0
   -4.8196    8.6276    1.1963 H   0  0  0  0  0  0  0  0  0  0  0  0
   -5.6579    7.0079   -1.0917 H   0  0  0  0  0  0  0  0  0  0  0  0
   -5.8109    8.6526   -1.0122 H   0  0  0  0  0  0  0  0  0  0  0  0
   -4.4997    5.4352   -0.5072 H   0  0  0  0  0  0  0  0  0  0  0  0
   -6.1033    5.3557    0.2311 H   0  0  0  0  0  0  0  0  0  0  0  0
   -4.8178    4.3728    0.8628 H   0  0  0  0  0  0  0  0  0  0  0  0
   -6.0504    6.1054    2.3190 H   0  0  0  0  0  0  0  0  0  0  0  0
    1.3133    1.7397    4.2476 H   0  0  0  0  0  0  0  0  0  0  0  0
    0.8085    1.5429    5.8904 H   0  0  0  0  0  0  0  0  0  0  0  0
   -0.1774    0.0453    7.2458 H   0  0  0  0  0  0  0  0  0  0  0  0
   -0.9949   -1.4842    7.2640 H   0  0  0  0  0  0  0  0  0  0  0  0
    1.9308   -1.2128    6.8326 H   0  0  0  0  0  0  0  0  0  0  0  0
    1.1334   -1.8040    8.2792 H   0  0  0  0  0  0  0  0  0  0  0  0
    1.9940   -3.6913    6.8788 H   0  0  0  0  0  0  0  0  0  0  0  0
    0.2574   -3.7661    7.0601 H   0  0  0  0  0  0  0  0  0  0  0  0
   -1.2062   -2.9203    5.2207 H   0  0  0  0  0  0  0  0  0  0  0  0
   -0.5774   -2.3813    3.6877 H   0  0  0  0  0  0  0  0  0  0  0  0
    1.9599   -4.3144    2.2967 H   0  0  0  0  0  0  0  0  0  0  0  0
    3.9469   -4.3073    0.7888 H   0  0  0  0  0  0  0  0  0  0  0  0
    4.2008   -3.2127    2.1256 H   0  0  0  0  0  0  0  0  0  0  0  0
    6.2274   -4.6166    1.7615 H   0  0  0  0  0  0  0  0  0  0  0  0
    5.1006   -6.6131    0.7759 H   0  0  0  0  0  0  0  0  0  0  0  0
    6.1173   -7.0884    2.1122 H   0  0  0  0  0  0  0  0  0  0  0  0
    3.8676   -8.1790    2.2771 H   0  0  0  0  0  0  0  0  0  0  0  0
    1.8406   -6.7974    2.6504 H   0  0  0  0  0  0  0  0  0  0  0  0
    2.5535   -6.4261    1.1011 H   0  0  0  0  0  0  0  0  0  0  0  0
    3.3247   -7.4931    4.6091 H   0  0  0  0  0  0  0  0  0  0  0  0
    5.0437   -7.6263    4.4126 H   0  0  0  0  0  0  0  0  0  0  0  0
    4.4969   -5.4968    5.5903 H   0  0  0  0  0  0  0  0  0  0  0  0
    6.4772   -5.4046    4.1188 H   0  0  0  0  0  0  0  0  0  0  0  0
    5.6410   -3.8842    4.0727 H   0  0  0  0  0  0  0  0  0  0  0  0
   -6.6476    7.6643    0.0403 H   0  0  0  0  0  0  0  0  0  0  0  0
  1  2  1  0
  1 40  1  0
  1 41  1  0
  1 42  1  0
  2  3  1  0
  2 14  2  3
  3  4  2  3
  3 43  1  0
  4  5  1  0
  4 44  1  0
  5  6  2  3
  5 45  1  0
  6 11  1  0
  6  7  1  0
  7  8  1  0
  7 46  1  0
  7 47  1  0
  8  9  1  0
  8 48  1  0
  8 49  1  0
  9 10  1  0
  9 11  1  0
  9 50  1  1
 10 51  1  0
 10 52  1  0
 10 81  1  0
 11 12  1  0
 11 13  1  1
 12 53  1  0
 12 54  1  0
 12 55  1  0
 13 56  1  0
 14 39  1  0
 14 15  1  0
 15 16  1  0
 15 57  1  0
 15 58  1  0
 17 16  1  6
 17 22  1  0
 17 18  1  0
 17 37  1  0
 18 19  1  0
 18 59  1  0
 18 60  1  0
 19 20  1  0
 19 61  1  0
 19 62  1  0
 20 21  1  0
 20 63  1  0
 20 64  1  0
 21 27  1  6
 21 22  1  0
 21 23  1  0
 22 65  1  0
 22 66  1  0
 23 24  1  0
 24 25  1  0
 25 35  1  0
 25 26  1  0
 25 28  1  0
 26 27  1  0
 28 33  1  0
 28 29  1  0
 28 67  1  6
 29 30  1  0
 29 68  1  0
 29 69  1  0
 30 36  1  0
 30 31  1  0
 30 70  1  6
 31 32  1  0
 31 71  1  0
 31 72  1  0
 32 33  1  0
 32 34  1  0
 32 73  1  6
 33 74  1  0
 33 75  1  0
 34 35  1  0
 34 76  1  0
 34 77  1  0
 35 36  1  0
 35 78  1  1
 36 79  1  0
 36 80  1  0
 37 38  2  0
 37 39  1  0
M  CHG  1  10   1
M  END
>  <i_m_ct_stereo_status>  (388) 
1

>  <s_m_source_file>  (388) 
/var/tmp/pbs.5076255.sched01/tmpybatibx8/138x0dlab3k.sdf

>  <i_m_source_file_index>  (388) 
29

>  <i_lp_mmshare_version>  (388) 
48012

>  <i_f3d_flags>  (388) 
0

>  <s_epik_input>  (388) 
W05IMl1bQ0BASF0xW0NIMl1bQ0gyXS9DKFtDQEBdMShbQ0gzXSlbT0hdKT1bQ0hdXFtDSF09W0NIXVxDKFxbQ0gzXSk9QyhPQzI9TykvW0NIMl1PW0NAQF0yM1tDSDJdW0NIMl1bQ0gyXUM0KFtDSDJdMylPT1tDQEBdNShPTzQpW0NASF02W0NIMl1bQ0BASF03W0NIMl1bQ0BIXShbQ0gyXTYpW0NIMl1bQ0BIXTVbQ0gyXTc=

>  <s_epik_cmdline>  (388) 
J2VwaWtfcHl0aG9uJywgJy1waHQnLCAnMi4wJywgJy1waCcsICc3LjAnLCAnLXRuJywgJzgnLCAnLW1hJywgJzIwMCcsICctaW1hZScsICc8aW5maWxlLm1hZT4nLCAnLW9tYWUnLCAnPG91dGZpbGUubWFlPic=

>  <r_epik_Ionization_Penalty>  (388) 
0.0231352

>  <r_epik_Ionization_Penalty_Charging>  (388) 
0.0231339

>  <r_epik_Ionization_Penalty_Neutral>  (388) 
1.32465e-06

>  <r_epik_State_Penalty>  (388) 
0.0187057

>  <r_epik_Charging_Adjusted_Penalty>  (388) 
0.0418396

>  <i_epik_Tot_Q>  (388) 
1

>  <i_epik_Tot_abs_Q>  (388) 
1

>  <s_lp_Force_Field>  (388) 
OPLS3e

>  <r_lp_Energy>  (388) 
20.2325

>  <b_lp_Chiralities_Consistent>  (388) 
1

>  <s_lp_Variant>  (388) 
110:0-8

>  <s_i_glide_gridfile>  (388) 
pfpi4k_grid

>  <i_i_glide_lignum>  (388) 
29

>  <i_i_glide_rotatable_bonds>  (388) 
3

>  <r_i_docking_score>  (388) 
-1.06115

>  <r_i_glide_ligand_efficiency>  (388) 
-0.027209

>  <r_i_glide_ligand_efficiency_sa>  (388) 
-0.0922716

>  <r_i_glide_ligand_efficiency_ln>  (388) 
-0.227541

>  <r_i_glide_gscore>  (388) 
-1.06115

>  <r_i_glide_lipo>  (388) 
-0.598499

>  <r_i_glide_hbond>  (388) 
0

>  <r_i_glide_metal>  (388) 
-0

>  <r_i_glide_rewards>  (388) 
-0.00507038

>  <r_i_glide_evdw>  (388) 
-1.55956

>  <r_i_glide_ecoul>  (388) 
-3.09779

>  <r_i_glide_erotb>  (388) 
0.139555

>  <r_i_glide_esite>  (388) 
-0.0544911

>  <r_i_glide_emodel>  (388) 
-1.22193

>  <r_i_glide_energy>  (388) 
-4.65735

>  <r_i_glide_einternal>  (388) 
0.966081

>  <r_i_glide_intrahb_reward>  (388) 
-0

>  <i_i_glide_confnum>  (388) 
3

>  <i_i_glide_posenum>  (388) 
34

>  <r_i_glide_eff_state_penalty>  (388) 
0

>  <ligand_id>  (388) 
110

>  <original_smiles>  (388) 
CC(C=CC=C1CCC(N)C1(C)O)=C1COC2(CCCC3(C2)OOC2(OO3)C3CC4CC(C3)CC2C4)C(=O)O1

>  <smiles>  (388) 
[H]OC1(C([H])([H])[H])C(=C([H])C([H])=C([H])C(=C2OC(=O)C3(OC2([H])[H])C([H])([H])C([H])([H])C([H])([H])C2(OOC4(OO2)C2([H])C([H])([H])C5([H])C([H])([H])C([H])(C2([H])[H])C([H])([H])C4([H])C5([H])[H])C3([H])[H])C([H])([H])[H])C([H])([H])C([H])([H])C1([H])[N+]([H])([H])[H]

$$$$
110:8:0
     RDKit          3D

 80 86  0  0  1  0  0  0  0  0999 V2000
    5.4555   -9.7698    1.5657 C   0  0  0  0  0  0  0  0  0  0  0  0
    4.4876   -8.6209    1.4003 C   0  0  0  0  0  0  0  0  0  0  0  0
    4.7470   -7.6407    0.3790 C   0  0  0  0  0  0  0  0  0  0  0  0
    4.6958   -6.3089    0.5007 C   0  0  0  0  0  0  0  0  0  0  0  0
    4.8896   -5.4092   -0.6190 C   0  0  0  0  0  0  0  0  0  0  0  0
    4.5766   -4.1056   -0.6134 C   0  0  0  0  0  0  0  0  0  0  0  0
    3.8845   -3.3797    0.5105 C   0  0  0  0  0  0  0  0  0  0  0  0
    3.9052   -1.9000    0.1423 C   0  0  0  0  0  0  0  0  0  0  0  0
    4.0531   -1.8745   -1.3856 C   0  0  1  0  0  0  0  0  0  0  0  0
    4.7224   -0.6497   -1.8429 N   0  0  0  0  0  0  0  0  0  0  0  0
    4.8487   -3.1469   -1.7466 C   0  0  1  0  0  0  0  0  0  0  0  0
    6.3713   -2.9283   -1.8610 C   0  0  0  0  0  0  0  0  0  0  0  0
    4.3662   -3.6778   -2.9648 O   0  0  0  0  0  0  0  0  0  0  0  0
    3.3444   -8.5589    2.1190 C   0  0  0  0  0  0  0  0  0  0  0  0
    2.3128   -7.4408    2.0555 C   0  0  0  0  0  0  0  0  0  0  0  0
    0.9892   -7.9358    2.0999 O   0  0  0  0  0  0  0  0  0  0  0  0
    0.7490   -8.8286    3.1801 C   0  0  2  0  0  0  0  0  0  0  0  0
   -0.6943   -9.3459    2.9333 C   0  0  0  0  0  0  0  0  0  0  0  0
   -1.7577   -8.2475    3.0726 C   0  0  0  0  0  0  0  0  0  0  0  0
   -1.6291   -7.4756    4.4012 C   0  0  0  0  0  0  0  0  0  0  0  0
   -0.2323   -6.8768    4.6054 C   0  0  2  0  0  0  0  0  0  0  0  0
    0.8253   -8.0223    4.5264 C   0  0  0  0  0  0  0  0  0  0  0  0
   -0.1633   -6.2411    5.8792 O   0  0  0  0  0  0  0  0  0  0  0  0
    1.2071   -5.6084    6.0025 O   0  0  0  0  0  0  0  0  0  0  0  0
    1.3879   -4.6275    4.9675 C   0  0  0  0  0  0  0  0  0  0  0  0
    1.2452   -5.2368    3.6877 O   0  0  0  0  0  0  0  0  0  0  0  0
   -0.1053   -5.8829    3.5927 O   0  0  0  0  0  0  0  0  0  0  0  0
    0.3797   -3.4543    5.0708 C   0  0  1  0  0  0  0  0  0  0  0  0
    0.5426   -2.7146    6.4185 C   0  0  0  0  0  0  0  0  0  0  0  0
    1.9643   -2.1122    6.5066 C   0  0  2  0  0  0  0  0  0  0  0  0
    2.1982   -1.1090    5.3569 C   0  0  0  0  0  0  0  0  0  0  0  0
    2.0372   -1.8460    4.0219 C   0  0  2  0  0  0  0  0  0  0  0  0
    0.6196   -2.4368    3.9226 C   0  0  0  0  0  0  0  0  0  0  0  0
    3.0571   -2.9925    3.9423 C   0  0  0  0  0  0  0  0  0  0  0  0
    2.8155   -4.0068    5.0823 C   0  0  1  0  0  0  0  0  0  0  0  0
    3.0009   -3.2528    6.4223 C   0  0  0  0  0  0  0  0  0  0  0  0
    1.7775   -9.9890    3.1583 C   0  0  0  0  0  0  0  0  0  0  0  0
    1.4518  -11.1714    3.3534 O   0  0  0  0  0  0  0  0  0  0  0  0
    3.0709   -9.5971    2.9820 O   0  0  0  0  0  0  0  0  0  0  0  0
    5.4959  -10.3215    0.6280 H   0  0  0  0  0  0  0  0  0  0  0  0
    5.1545  -10.4713    2.3461 H   0  0  0  0  0  0  0  0  0  0  0  0
    6.4584   -9.4054    1.7897 H   0  0  0  0  0  0  0  0  0  0  0  0
    4.9571   -8.0952   -0.5703 H   0  0  0  0  0  0  0  0  0  0  0  0
    4.4957   -5.8807    1.4745 H   0  0  0  0  0  0  0  0  0  0  0  0
    5.3312   -5.7897   -1.5127 H   0  0  0  0  0  0  0  0  0  0  0  0
    2.8551   -3.7348    0.5956 H   0  0  0  0  0  0  0  0  0  0  0  0
    4.4353   -3.5605    1.4288 H   0  0  0  0  0  0  0  0  0  0  0  0
    3.0217   -1.3624    0.4951 H   0  0  0  0  0  0  0  0  0  0  0  0
    4.7740   -1.4468    0.6175 H   0  0  0  0  0  0  0  0  0  0  0  0
    3.0441   -1.9354   -1.8005 H   0  0  0  0  0  0  0  0  0  0  0  0
    4.7458   -0.6362   -2.8697 H   0  0  0  0  0  0  0  0  0  0  0  0
    4.2483    0.1804   -1.5276 H   0  0  0  0  0  0  0  0  0  0  0  0
    6.7615   -2.4353   -0.9689 H   0  0  0  0  0  0  0  0  0  0  0  0
    6.6084   -2.3099   -2.7177 H   0  0  0  0  0  0  0  0  0  0  0  0
    6.9195   -3.8581   -1.9943 H   0  0  0  0  0  0  0  0  0  0  0  0
    3.8036   -4.4162   -2.7545 H   0  0  0  0  0  0  0  0  0  0  0  0
    2.6361   -6.8267    2.8998 H   0  0  0  0  0  0  0  0  0  0  0  0
    2.3009   -6.7892    1.1755 H   0  0  0  0  0  0  0  0  0  0  0  0
   -0.7987   -9.8292    1.9575 H   0  0  0  0  0  0  0  0  0  0  0  0
   -0.9143  -10.1261    3.6568 H   0  0  0  0  0  0  0  0  0  0  0  0
   -1.7162   -7.5594    2.2259 H   0  0  0  0  0  0  0  0  0  0  0  0
   -2.7305   -8.7263    3.0362 H   0  0  0  0  0  0  0  0  0  0  0  0
   -2.4046   -6.7122    4.4891 H   0  0  0  0  0  0  0  0  0  0  0  0
   -1.7924   -8.1973    5.1993 H   0  0  0  0  0  0  0  0  0  0  0  0
    0.5762   -8.7547    5.2988 H   0  0  0  0  0  0  0  0  0  0  0  0
    1.8403   -7.6835    4.8019 H   0  0  0  0  0  0  0  0  0  0  0  0
   -0.6313   -3.8331    4.9915 H   0  0  0  0  0  0  0  0  0  0  0  0
   -0.2058   -1.9225    6.5137 H   0  0  0  0  0  0  0  0  0  0  0  0
    0.3951   -3.4181    7.2403 H   0  0  0  0  0  0  0  0  0  0  0  0
    2.0820   -1.5923    7.4546 H   0  0  0  0  0  0  0  0  0  0  0  0
    1.4921   -0.2800    5.4100 H   0  0  0  0  0  0  0  0  0  0  0  0
    3.1982   -0.6728    5.4247 H   0  0  0  0  0  0  0  0  0  0  0  0
    2.2033   -1.1514    3.1978 H   0  0  0  0  0  0  0  0  0  0  0  0
    0.5209   -2.9205    2.9522 H   0  0  0  0  0  0  0  0  0  0  0  0
   -0.1196   -1.6352    3.9391 H   0  0  0  0  0  0  0  0  0  0  0  0
    2.9337   -3.5086    2.9988 H   0  0  0  0  0  0  0  0  0  0  0  0
    4.0755   -2.6004    3.9656 H   0  0  0  0  0  0  0  0  0  0  0  0
    3.5579   -4.7963    5.0038 H   0  0  0  0  0  0  0  0  0  0  0  0
    4.0138   -2.8473    6.4908 H   0  0  0  0  0  0  0  0  0  0  0  0
    2.8869   -3.9402    7.2607 H   0  0  0  0  0  0  0  0  0  0  0  0
  1  2  1  0
  1 40  1  0
  1 41  1  0
  1 42  1  0
  2  3  1  0
  2 14  2  3
  3  4  2  3
  3 43  1  0
  4  5  1  0
  4 44  1  0
  5  6  2  3
  5 45  1  0
  6 11  1  0
  6  7  1  0
  7  8  1  0
  7 46  1  0
  7 47  1  0
  8  9  1  0
  8 48  1  0
  8 49  1  0
  9 10  1  0
  9 11  1  0
  9 50  1  6
 10 51  1  0
 10 52  1  0
 11 12  1  0
 11 13  1  6
 12 53  1  0
 12 54  1  0
 12 55  1  0
 13 56  1  0
 14 39  1  0
 14 15  1  0
 15 16  1  0
 15 57  1  0
 15 58  1  0
 17 16  1  6
 17 22  1  0
 17 18  1  0
 17 37  1  0
 18 19  1  0
 18 59  1  0
 18 60  1  0
 19 20  1  0
 19 61  1  0
 19 62  1  0
 20 21  1  0
 20 63  1  0
 20 64  1  0
 21 27  1  6
 21 22  1  0
 21 23  1  0
 22 65  1  0
 22 66  1  0
 23 24  1  0
 24 25  1  0
 25 35  1  0
 25 26  1  0
 25 28  1  0
 26 27  1  0
 28 33  1  0
 28 29  1  0
 28 67  1  6
 29 30  1  0
 29 68  1  0
 29 69  1  0
 30 36  1  0
 30 31  1  0
 30 70  1  1
 31 32  1  0
 31 71  1  0
 31 72  1  0
 32 33  1  0
 32 34  1  0
 32 73  1  6
 33 74  1  0
 33 75  1  0
 34 35  1  0
 34 76  1  0
 34 77  1  0
 35 36  1  0
 35 78  1  6
 36 79  1  0
 36 80  1  0
 37 38  2  0
 37 39  1  0
M  END
>  <i_m_ct_stereo_status>  (389) 
1

>  <s_m_source_file>  (389) 
/var/tmp/pbs.5076255.sched01/tmpybatibx8/138x0dlab3k.sdf

>  <i_m_source_file_index>  (389) 
30

>  <i_lp_mmshare_version>  (389) 
48012

>  <i_f3d_flags>  (389) 
0

>  <s_epik_input>  (389) 
W05IMl1bQ0BASF0xW0NIMl1bQ0gyXS9DKFtDQEBdMShbQ0gzXSlbT0hdKT1bQ0hdXFtDSF09W0NIXVxDKFxbQ0gzXSk9QyhPQzI9TykvW0NIMl1PW0NAQF0yM1tDSDJdW0NIMl1bQ0gyXUM0KFtDSDJdMylPT1tDQEBdNShPTzQpW0NASF02W0NIMl1bQ0BASF03W0NIMl1bQ0BIXShbQ0gyXTYpW0NIMl1bQ0BIXTVbQ0gyXTc=

>  <s_epik_cmdline>  (389) 
J2VwaWtfcHl0aG9uJywgJy1waHQnLCAnMi4wJywgJy1waCcsICc3LjAnLCAnLXRuJywgJzgnLCAnLW1hJywgJzIwMCcsICctaW1hZScsICc8aW5maWxlLm1hZT4nLCAnLW9tYWUnLCAnPG91dGZpbGUubWFlPic=

>  <r_epik_Ionization_Penalty>  (389) 
1.93298

>  <r_epik_Ionization_Penalty_Charging>  (389) 
0

>  <r_epik_Ionization_Penalty_Neutral>  (389) 
1.93298

>  <r_epik_State_Penalty>  (389) 
2.05666

>  <r_epik_Charging_Adjusted_Penalty>  (389) 
2.05666

>  <i_epik_Tot_Q>  (389) 
0

>  <i_epik_Tot_abs_Q>  (389) 
0

>  <s_lp_Force_Field>  (389) 
OPLS3e

>  <r_lp_Energy>  (389) 
17.7577

>  <b_lp_Chiralities_Consistent>  (389) 
1

>  <s_lp_Variant>  (389) 
110:0-9

>  <s_i_glide_gridfile>  (389) 
pfpi4k_grid

>  <i_i_glide_lignum>  (389) 
30

>  <i_i_glide_rotatable_bonds>  (389) 
3

>  <r_i_docking_score>  (389) 
-3.026

>  <r_i_glide_ligand_efficiency>  (389) 
-0.0775896

>  <r_i_glide_ligand_efficiency_sa>  (389) 
-0.263123

>  <r_i_glide_ligand_efficiency_ln>  (389) 
-0.648859

>  <r_i_glide_gscore>  (389) 
-3.026

>  <r_i_glide_lipo>  (389) 
-0.29577

>  <r_i_glide_hbond>  (389) 
-0.447595

>  <r_i_glide_metal>  (389) 
-0

>  <r_i_glide_rewards>  (389) 
-0.0698363

>  <r_i_glide_evdw>  (389) 
-32.1563

>  <r_i_glide_ecoul>  (389) 
-4.76367

>  <r_i_glide_erotb>  (389) 
0.140033

>  <r_i_glide_esite>  (389) 
-0.0304602

>  <r_i_glide_emodel>  (389) 
-40.2079

>  <r_i_glide_energy>  (389) 
-36.92

>  <r_i_glide_einternal>  (389) 
4.67818

>  <r_i_glide_intrahb_reward>  (389) 
-0

>  <i_i_glide_confnum>  (389) 
2

>  <i_i_glide_posenum>  (389) 
17

>  <r_i_glide_eff_state_penalty>  (389) 
0

>  <ligand_id>  (389) 
110

>  <original_smiles>  (389) 
CC(C=CC=C1CCC(N)C1(C)O)=C1COC2(CCCC3(C2)OOC2(OO3)C3CC4CC(C3)CC2C4)C(=O)O1

>  <smiles>  (389) 
[H]OC1(C([H])([H])[H])C(=C([H])C([H])=C([H])C(=C2OC(=O)C3(OC2([H])[H])C([H])([H])C([H])([H])C([H])([H])C2(OOC4(OO2)C2([H])C([H])([H])C5([H])C([H])([H])C([H])(C2([H])[H])C([H])([H])C4([H])C5([H])[H])C3([H])[H])C([H])([H])[H])C([H])([H])C([H])([H])C1([H])N([H])[H]

$$$$
110:8:1
     RDKit          3D

 80 86  0  0  1  0  0  0  0  0999 V2000
    0.8009   -2.4394    8.9384 C   0  0  0  0  0  0  0  0  0  0  0  0
    0.5989   -2.7889    7.4699 C   0  0  0  0  0  0  0  0  0  0  0  0
    0.2167   -4.1518    7.1499 C   0  0  0  0  0  0  0  0  0  0  0  0
    0.5692   -4.8537    6.0603 C   0  0  0  0  0  0  0  0  0  0  0  0
    0.0345   -6.1516    5.7386 C   0  0  0  0  0  0  0  0  0  0  0  0
    0.2650   -6.7883    4.5757 C   0  0  0  0  0  0  0  0  0  0  0  0
    1.0775   -6.2447    3.4235 C   0  0  0  0  0  0  0  0  0  0  0  0
    1.2960   -7.4012    2.4549 C   0  0  0  0  0  0  0  0  0  0  0  0
    0.1642   -8.3940    2.7500 C   0  0  1  0  0  0  0  0  0  0  0  0
    0.5396   -9.7763    2.4043 N   0  0  0  0  0  0  0  0  0  0  0  0
   -0.1838   -8.1892    4.2496 C   0  0  1  0  0  0  0  0  0  0  0  0
    0.5418   -9.1638    5.1946 C   0  0  0  0  0  0  0  0  0  0  0  0
   -1.5755   -8.2749    4.4176 O   0  0  0  0  0  0  0  0  0  0  0  0
    0.6563   -1.8253    6.5316 C   0  0  0  0  0  0  0  0  0  0  0  0
    0.4683   -2.0480    5.0207 C   0  0  0  0  0  0  0  0  0  0  0  0
   -0.2715   -0.9618    4.4454 O   0  0  0  0  0  0  0  0  0  0  0  0
    0.2353    0.3636    4.7256 C   0  0  2  0  0  0  0  0  0  0  0  0
   -0.8195    1.2957    4.1094 C   0  0  0  0  0  0  0  0  0  0  0  0
   -0.8480    1.2236    2.5541 C   0  0  0  0  0  0  0  0  0  0  0  0
    0.5400    1.3880    1.9330 C   0  0  0  0  0  0  0  0  0  0  0  0
    1.5525    0.3589    2.4923 C   0  0  2  0  0  0  0  0  0  0  0  0
    1.6287    0.5247    4.0443 C   0  0  0  0  0  0  0  0  0  0  0  0
    2.8485    0.6104    1.9250 O   0  0  0  0  0  0  0  0  0  0  0  0
    3.8078   -0.4318    2.4552 O   0  0  0  0  0  0  0  0  0  0  0  0
    3.3576   -1.7374    2.0327 C   0  0  0  0  0  0  0  0  0  0  0  0
    2.0486   -1.9894    2.5577 O   0  0  0  0  0  0  0  0  0  0  0  0
    1.1110   -0.9399    2.0602 O   0  0  0  0  0  0  0  0  0  0  0  0
    3.3513   -1.9012    0.4863 C   0  0  1  0  0  0  0  0  0  0  0  0
    4.7704   -1.7161   -0.0741 C   0  0  0  0  0  0  0  0  0  0  0  0
    5.7209   -2.7970    0.4995 C   0  0  2  0  0  0  0  0  0  0  0  0
    5.2265   -4.2157    0.1300 C   0  0  0  0  0  0  0  0  0  0  0  0
    3.8138   -4.3987    0.7058 C   0  0  2  0  0  0  0  0  0  0  0  0
    2.8699   -3.3267    0.1240 C   0  0  0  0  0  0  0  0  0  0  0  0
    3.8571   -4.2343    2.2339 C   0  0  0  0  0  0  0  0  0  0  0  0
    4.3456   -2.8196    2.6043 C   0  0  1  0  0  0  0  0  0  0  0  0
    5.7641   -2.6481    2.0354 C   0  0  0  0  0  0  0  0  0  0  0  0
    0.3154    0.5320    6.2791 C   0  0  0  0  0  0  0  0  0  0  0  0
   -0.1104    1.5312    6.8615 O   0  0  0  0  0  0  0  0  0  0  0  0
    0.9162   -0.5314    6.9376 O   0  0  0  0  0  0  0  0  0  0  0  0
   -0.1246   -2.6122    9.4930 H   0  0  0  0  0  0  0  0  0  0  0  0
    1.0938   -1.4034    9.0996 H   0  0  0  0  0  0  0  0  0  0  0  0
    1.5780   -3.0716    9.3693 H   0  0  0  0  0  0  0  0  0  0  0  0
   -0.4781   -4.6006    7.8505 H   0  0  0  0  0  0  0  0  0  0  0  0
    1.2832   -4.3890    5.3802 H   0  0  0  0  0  0  0  0  0  0  0  0
   -0.5844   -6.6691    6.4789 H   0  0  0  0  0  0  0  0  0  0  0  0
    0.5712   -5.4150    2.9249 H   0  0  0  0  0  0  0  0  0  0  0  0
    2.0308   -5.9097    3.8224 H   0  0  0  0  0  0  0  0  0  0  0  0
    1.3362   -7.0955    1.4062 H   0  0  0  0  0  0  0  0  0  0  0  0
    2.2561   -7.8615    2.6864 H   0  0  0  0  0  0  0  0  0  0  0  0
   -0.6960   -8.0793    2.1458 H   0  0  0  0  0  0  0  0  0  0  0  0
   -0.2342  -10.4028    2.6263 H   0  0  0  0  0  0  0  0  0  0  0  0
    0.7447   -9.8781    1.4298 H   0  0  0  0  0  0  0  0  0  0  0  0
    1.6181   -9.1617    4.9989 H   0  0  0  0  0  0  0  0  0  0  0  0
    0.1873  -10.1857    5.0641 H   0  0  0  0  0  0  0  0  0  0  0  0
    0.4063   -8.9134    6.2510 H   0  0  0  0  0  0  0  0  0  0  0  0
   -1.7815   -9.1874    4.5862 H   0  0  0  0  0  0  0  0  0  0  0  0
    1.5021   -2.1316    4.6851 H   0  0  0  0  0  0  0  0  0  0  0  0
   -0.0436   -2.9352    4.7064 H   0  0  0  0  0  0  0  0  0  0  0  0
   -1.8306    1.0773    4.4809 H   0  0  0  0  0  0  0  0  0  0  0  0
   -0.6130    2.3232    4.3814 H   0  0  0  0  0  0  0  0  0  0  0  0
   -1.2919    0.2815    2.2377 H   0  0  0  0  0  0  0  0  0  0  0  0
   -1.5240    2.0043    2.1707 H   0  0  0  0  0  0  0  0  0  0  0  0
    0.4748    1.3081    0.8484 H   0  0  0  0  0  0  0  0  0  0  0  0
    0.9067    2.3824    2.1359 H   0  0  0  0  0  0  0  0  0  0  0  0
    1.9149    1.5387    4.2507 H   0  0  0  0  0  0  0  0  0  0  0  0
    2.4417   -0.1016    4.4879 H   0  0  0  0  0  0  0  0  0  0  0  0
    2.6707   -1.1658    0.0229 H   0  0  0  0  0  0  0  0  0  0  0  0
    4.7623   -1.7803   -1.1708 H   0  0  0  0  0  0  0  0  0  0  0  0
    5.1516   -0.7244    0.1955 H   0  0  0  0  0  0  0  0  0  0  0  0
    6.7279   -2.6647    0.1010 H   0  0  0  0  0  0  0  0  0  0  0  0
    5.2037   -4.3533   -0.9505 H   0  0  0  0  0  0  0  0  0  0  0  0
    5.8947   -4.9762    0.5325 H   0  0  0  0  0  0  0  0  0  0  0  0
    3.4485   -5.3989    0.4554 H   0  0  0  0  0  0  0  0  0  0  0  0
    1.8678   -3.5051    0.5109 H   0  0  0  0  0  0  0  0  0  0  0  0
    2.7922   -3.4605   -0.9621 H   0  0  0  0  0  0  0  0  0  0  0  0
    2.8558   -4.3616    2.6302 H   0  0  0  0  0  0  0  0  0  0  0  0
    4.4848   -5.0070    2.6863 H   0  0  0  0  0  0  0  0  0  0  0  0
    4.3734   -2.7415    3.6910 H   0  0  0  0  0  0  0  0  0  0  0  0
    6.4208   -3.4111    2.4565 H   0  0  0  0  0  0  0  0  0  0  0  0
    6.1794   -1.6778    2.3205 H   0  0  0  0  0  0  0  0  0  0  0  0
  1  2  1  0
  1 40  1  0
  1 41  1  0
  1 42  1  0
  2  3  1  0
  2 14  2  3
  3  4  2  3
  3 43  1  0
  4  5  1  0
  4 44  1  0
  5  6  2  3
  5 45  1  0
  6 11  1  0
  6  7  1  0
  7  8  1  0
  7 46  1  0
  7 47  1  0
  8  9  1  0
  8 48  1  0
  8 49  1  0
  9 10  1  0
  9 11  1  0
  9 50  1  6
 10 51  1  0
 10 52  1  0
 11 12  1  0
 11 13  1  6
 12 53  1  0
 12 54  1  0
 12 55  1  0
 13 56  1  0
 14 39  1  0
 14 15  1  0
 15 16  1  0
 15 57  1  0
 15 58  1  0
 17 16  1  1
 17 22  1  0
 17 18  1  0
 17 37  1  0
 18 19  1  0
 18 59  1  0
 18 60  1  0
 19 20  1  0
 19 61  1  0
 19 62  1  0
 20 21  1  0
 20 63  1  0
 20 64  1  0
 21 27  1  1
 21 22  1  0
 21 23  1  0
 22 65  1  0
 22 66  1  0
 23 24  1  0
 24 25  1  0
 25 35  1  0
 25 26  1  0
 25 28  1  0
 26 27  1  0
 28 33  1  0
 28 29  1  0
 28 67  1  6
 29 30  1  0
 29 68  1  0
 29 69  1  0
 30 36  1  0
 30 31  1  0
 30 70  1  6
 31 32  1  0
 31 71  1  0
 31 72  1  0
 32 33  1  0
 32 34  1  0
 32 73  1  1
 33 74  1  0
 33 75  1  0
 34 35  1  0
 34 76  1  0
 34 77  1  0
 35 36  1  0
 35 78  1  1
 36 79  1  0
 36 80  1  0
 37 38  2  0
 37 39  1  0
M  END
>  <i_m_ct_stereo_status>  (390) 
1

>  <s_m_source_file>  (390) 
/var/tmp/pbs.5076255.sched01/tmpybatibx8/138x0dlab3k.sdf

>  <i_m_source_file_index>  (390) 
30

>  <i_lp_mmshare_version>  (390) 
48012

>  <i_f3d_flags>  (390) 
0

>  <s_epik_input>  (390) 
W05IMl1bQ0BASF0xW0NIMl1bQ0gyXS9DKFtDQEBdMShbQ0gzXSlbT0hdKT1bQ0hdXFtDSF09W0NIXVxDKFxbQ0gzXSk9QyhPQzI9TykvW0NIMl1PW0NAQF0yM1tDSDJdW0NIMl1bQ0gyXUM0KFtDSDJdMylPT1tDQEBdNShPTzQpW0NASF02W0NIMl1bQ0BASF03W0NIMl1bQ0BIXShbQ0gyXTYpW0NIMl1bQ0BIXTVbQ0gyXTc=

>  <s_epik_cmdline>  (390) 
J2VwaWtfcHl0aG9uJywgJy1waHQnLCAnMi4wJywgJy1waCcsICc3LjAnLCAnLXRuJywgJzgnLCAnLW1hJywgJzIwMCcsICctaW1hZScsICc8aW5maWxlLm1hZT4nLCAnLW9tYWUnLCAnPG91dGZpbGUubWFlPic=

>  <r_epik_Ionization_Penalty>  (390) 
1.93298

>  <r_epik_Ionization_Penalty_Charging>  (390) 
0

>  <r_epik_Ionization_Penalty_Neutral>  (390) 
1.93298

>  <r_epik_State_Penalty>  (390) 
2.05666

>  <r_epik_Charging_Adjusted_Penalty>  (390) 
2.05666

>  <i_epik_Tot_Q>  (390) 
0

>  <i_epik_Tot_abs_Q>  (390) 
0

>  <s_lp_Force_Field>  (390) 
OPLS3e

>  <r_lp_Energy>  (390) 
17.7577

>  <b_lp_Chiralities_Consistent>  (390) 
1

>  <s_lp_Variant>  (390) 
110:0-9

>  <s_i_glide_gridfile>  (390) 
pfpi4k_grid

>  <i_i_glide_lignum>  (390) 
30

>  <i_i_glide_rotatable_bonds>  (390) 
3

>  <r_i_docking_score>  (390) 
-2.85174

>  <r_i_glide_ligand_efficiency>  (390) 
-0.0731214

>  <r_i_glide_ligand_efficiency_sa>  (390) 
-0.24797

>  <r_i_glide_ligand_efficiency_ln>  (390) 
-0.611493

>  <r_i_glide_gscore>  (390) 
-2.85174

>  <r_i_glide_lipo>  (390) 
-0.180693

>  <r_i_glide_hbond>  (390) 
-0.424066

>  <r_i_glide_metal>  (390) 
-0

>  <r_i_glide_rewards>  (390) 
0

>  <r_i_glide_evdw>  (390) 
-33.9134

>  <r_i_glide_ecoul>  (390) 
-4.30133

>  <r_i_glide_erotb>  (390) 
0.140033

>  <r_i_glide_esite>  (390) 
-0.0461425

>  <r_i_glide_emodel>  (390) 
-41.4802

>  <r_i_glide_energy>  (390) 
-38.2147

>  <r_i_glide_einternal>  (390) 
3.48166

>  <r_i_glide_intrahb_reward>  (390) 
-0

>  <i_i_glide_confnum>  (390) 
2

>  <i_i_glide_posenum>  (390) 
18

>  <r_i_glide_eff_state_penalty>  (390) 
0

>  <ligand_id>  (390) 
110

>  <original_smiles>  (390) 
CC(C=CC=C1CCC(N)C1(C)O)=C1COC2(CCCC3(C2)OOC2(OO3)C3CC4CC(C3)CC2C4)C(=O)O1

>  <smiles>  (390) 
[H]OC1(C([H])([H])[H])C(=C([H])C([H])=C([H])C(=C2OC(=O)C3(OC2([H])[H])C([H])([H])C([H])([H])C([H])([H])C2(OOC4(OO2)C2([H])C([H])([H])C5([H])C([H])([H])C([H])(C2([H])[H])C([H])([H])C4([H])C5([H])[H])C3([H])[H])C([H])([H])[H])C([H])([H])C([H])([H])C1([H])N([H])[H]

$$$$
110:8:2
     RDKit          3D

 80 86  0  0  1  0  0  0  0  0999 V2000
    2.2470   -3.0700    8.8486 C   0  0  0  0  0  0  0  0  0  0  0  0
    1.8877   -3.3156    7.4078 C   0  0  0  0  0  0  0  0  0  0  0  0
    1.5691   -4.6478    7.0026 C   0  0  0  0  0  0  0  0  0  0  0  0
    1.5288   -5.7923    7.7346 C   0  0  0  0  0  0  0  0  0  0  0  0
    1.1221   -7.0827    7.1515 C   0  0  0  0  0  0  0  0  0  0  0  0
    0.5106   -7.3565    5.9624 C   0  0  0  0  0  0  0  0  0  0  0  0
    0.0629   -6.3604    4.9100 C   0  0  0  0  0  0  0  0  0  0  0  0
   -0.4214   -7.1169    3.7029 C   0  0  0  0  0  0  0  0  0  0  0  0
   -0.7764   -8.4851    4.2241 C   0  0  1  0  0  0  0  0  0  0  0  0
   -0.6305   -9.4726    3.1477 N   0  0  0  0  0  0  0  0  0  0  0  0
    0.1507   -8.7523    5.4525 C   0  0  1  0  0  0  0  0  0  0  0  0
    1.4237   -9.5283    5.1106 C   0  0  0  0  0  0  0  0  0  0  0  0
   -0.5606   -9.4746    6.4440 O   0  0  0  0  0  0  0  0  0  0  0  0
    1.7624   -2.3050    6.4940 C   0  0  0  0  0  0  0  0  0  0  0  0
    1.4156   -2.4513    5.0017 C   0  0  0  0  0  0  0  0  0  0  0  0
    0.4722   -1.4595    4.6111 O   0  0  0  0  0  0  0  0  0  0  0  0
    0.8306   -0.1103    4.9266 C   0  0  2  0  0  0  0  0  0  0  0  0
   -0.3798    0.8000    4.5358 C   0  0  0  0  0  0  0  0  0  0  0  0
   -0.6052    0.9030    3.0248 C   0  0  0  0  0  0  0  0  0  0  0  0
    0.6799    1.2439    2.2354 C   0  0  0  0  0  0  0  0  0  0  0  0
    1.8295    0.2815    2.5630 C   0  0  2  0  0  0  0  0  0  0  0  0
    2.0883    0.2765    4.0848 C   0  0  0  0  0  0  0  0  0  0  0  0
    3.0241    0.6806    1.8694 O   0  0  0  0  0  0  0  0  0  0  0  0
    4.1244   -0.3034    2.1988 O   0  0  0  0  0  0  0  0  0  0  0  0
    3.7700   -1.5930    1.6657 C   0  0  0  0  0  0  0  0  0  0  0  0
    2.5467   -1.9969    2.3007 O   0  0  0  0  0  0  0  0  0  0  0  0
    1.4648   -0.9929    2.0241 O   0  0  0  0  0  0  0  0  0  0  0  0
    3.5493   -1.6251    0.1333 C   0  0  1  0  0  0  0  0  0  0  0  0
    4.8631   -1.2494   -0.5751 C   0  0  0  0  0  0  0  0  0  0  0  0
    5.9665   -2.2806   -0.2354 C   0  0  2  0  0  0  0  0  0  0  0  0
    5.5367   -3.6993   -0.6715 C   0  0  0  0  0  0  0  0  0  0  0  0
    4.2354   -4.0859    0.0566 C   0  0  2  0  0  0  0  0  0  0  0  0
    3.1327   -3.0601   -0.2955 C   0  0  0  0  0  0  0  0  0  0  0  0
    4.4721   -4.0651    1.5819 C   0  0  0  0  0  0  0  0  0  0  0  0
    4.8823   -2.6296    2.0209 C   0  0  1  0  0  0  0  0  0  0  0  0
    6.2034   -2.2684    1.2883 C   0  0  0  0  0  0  0  0  0  0  0  0
    1.1099   -0.0475    6.4287 C   0  0  0  0  0  0  0  0  0  0  0  0
    0.6954    0.8342    7.1723 O   0  0  0  0  0  0  0  0  0  0  0  0
    1.9503   -1.0185    6.8949 O   0  0  0  0  0  0  0  0  0  0  0  0
    1.3973   -3.4163    9.4556 H   0  0  0  0  0  0  0  0  0  0  0  0
    2.4673   -2.0187    9.0489 H   0  0  0  0  0  0  0  0  0  0  0  0
    3.1242   -3.6967    9.0638 H   0  0  0  0  0  0  0  0  0  0  0  0
    1.3136   -4.7078    6.0009 H   0  0  0  0  0  0  0  0  0  0  0  0
    1.7979   -5.7864    8.7857 H   0  0  0  0  0  0  0  0  0  0  0  0
    1.3701   -7.9571    7.7436 H   0  0  0  0  0  0  0  0  0  0  0  0
   -0.6947   -5.6990    5.3207 H   0  0  0  0  0  0  0  0  0  0  0  0
    0.8749   -5.8245    4.4507 H   0  0  0  0  0  0  0  0  0  0  0  0
   -1.2201   -6.5831    3.1925 H   0  0  0  0  0  0  0  0  0  0  0  0
    0.4406   -7.1703    3.0305 H   0  0  0  0  0  0  0  0  0  0  0  0
   -1.8163   -8.4206    4.5574 H   0  0  0  0  0  0  0  0  0  0  0  0
   -0.9358  -10.3734    3.5163 H   0  0  0  0  0  0  0  0  0  0  0  0
   -1.1893   -9.2340    2.3265 H   0  0  0  0  0  0  0  0  0  0  0  0
    1.9461   -9.0399    4.2886 H   0  0  0  0  0  0  0  0  0  0  0  0
    1.1816  -10.5519    4.8073 H   0  0  0  0  0  0  0  0  0  0  0  0
    2.1077   -9.5920    5.9620 H   0  0  0  0  0  0  0  0  0  0  0  0
   -1.1322  -10.1004    5.9826 H   0  0  0  0  0  0  0  0  0  0  0  0
    2.3957   -2.3680    4.5418 H   0  0  0  0  0  0  0  0  0  0  0  0
    1.0239   -3.3806    4.5594 H   0  0  0  0  0  0  0  0  0  0  0  0
   -1.2990    0.4790    5.0353 H   0  0  0  0  0  0  0  0  0  0  0  0
   -0.1888    1.8042    4.9068 H   0  0  0  0  0  0  0  0  0  0  0  0
   -0.9759   -0.0449    2.6824 H   0  0  0  0  0  0  0  0  0  0  0  0
   -1.3891    1.6206    2.8081 H   0  0  0  0  0  0  0  0  0  0  0  0
    0.4667    1.2639    1.1553 H   0  0  0  0  0  0  0  0  0  0  0  0
    0.9693    2.2656    2.4923 H   0  0  0  0  0  0  0  0  0  0  0  0
    2.3064    1.3075    4.3876 H   0  0  0  0  0  0  0  0  0  0  0  0
    2.9977   -0.2869    4.3722 H   0  0  0  0  0  0  0  0  0  0  0  0
    2.7506   -0.9055   -0.1358 H   0  0  0  0  0  0  0  0  0  0  0  0
    4.6925   -1.2053   -1.6489 H   0  0  0  0  0  0  0  0  0  0  0  0
    5.1698   -0.2595   -0.2490 H   0  0  0  0  0  0  0  0  0  0  0  0
    6.8850   -2.0100   -0.7508 H   0  0  0  0  0  0  0  0  0  0  0  0
    5.3950   -3.7449   -1.7543 H   0  0  0  0  0  0  0  0  0  0  0  0
    6.3249   -4.4175   -0.4340 H   0  0  0  0  0  0  0  0  0  0  0  0
    3.9310   -5.0887   -0.2583 H   0  0  0  0  0  0  0  0  0  0  0  0
    2.2102   -3.3604    0.1883 H   0  0  0  0  0  0  0  0  0  0  0  0
    2.9267   -3.0922   -1.3613 H   0  0  0  0  0  0  0  0  0  0  0  0
    3.5753   -4.3922    2.1064 H   0  0  0  0  0  0  0  0  0  0  0  0
    5.2428   -4.7957    1.8457 H   0  0  0  0  0  0  0  0  0  0  0  0
    5.0704   -2.6470    3.0958 H   0  0  0  0  0  0  0  0  0  0  0  0
    6.9985   -2.9759    1.5451 H   0  0  0  0  0  0  0  0  0  0  0  0
    6.5552   -1.2879    1.6085 H   0  0  0  0  0  0  0  0  0  0  0  0
  1  2  1  0
  1 40  1  0
  1 41  1  0
  1 42  1  0
  2  3  1  0
  2 14  2  3
  3  4  2  3
  3 43  1  0
  4  5  1  0
  4 44  1  0
  5  6  2  3
  5 45  1  0
  6 11  1  0
  6  7  1  0
  7  8  1  0
  7 46  1  0
  7 47  1  0
  8  9  1  0
  8 48  1  0
  8 49  1  0
  9 10  1  0
  9 11  1  0
  9 50  1  1
 10 51  1  0
 10 52  1  0
 11 12  1  0
 11 13  1  1
 12 53  1  0
 12 54  1  0
 12 55  1  0
 13 56  1  0
 14 39  1  0
 14 15  1  0
 15 16  1  0
 15 57  1  0
 15 58  1  0
 17 16  1  6
 17 22  1  0
 17 18  1  0
 17 37  1  0
 18 19  1  0
 18 59  1  0
 18 60  1  0
 19 20  1  0
 19 61  1  0
 19 62  1  0
 20 21  1  0
 20 63  1  0
 20 64  1  0
 21 27  1  6
 21 22  1  0
 21 23  1  0
 22 65  1  0
 22 66  1  0
 23 24  1  0
 24 25  1  0
 25 35  1  0
 25 26  1  0
 25 28  1  0
 26 27  1  0
 28 33  1  0
 28 29  1  0
 28 67  1  1
 29 30  1  0
 29 68  1  0
 29 69  1  0
 30 36  1  0
 30 31  1  0
 30 70  1  6
 31 32  1  0
 31 71  1  0
 31 72  1  0
 32 33  1  0
 32 34  1  0
 32 73  1  6
 33 74  1  0
 33 75  1  0
 34 35  1  0
 34 76  1  0
 34 77  1  0
 35 36  1  0
 35 78  1  1
 36 79  1  0
 36 80  1  0
 37 38  2  0
 37 39  1  0
M  END
>  <i_m_ct_stereo_status>  (391) 
1

>  <s_m_source_file>  (391) 
/var/tmp/pbs.5076255.sched01/tmpybatibx8/138x0dlab3k.sdf

>  <i_m_source_file_index>  (391) 
30

>  <i_lp_mmshare_version>  (391) 
48012

>  <i_f3d_flags>  (391) 
0

>  <s_epik_input>  (391) 
W05IMl1bQ0BASF0xW0NIMl1bQ0gyXS9DKFtDQEBdMShbQ0gzXSlbT0hdKT1bQ0hdXFtDSF09W0NIXVxDKFxbQ0gzXSk9QyhPQzI9TykvW0NIMl1PW0NAQF0yM1tDSDJdW0NIMl1bQ0gyXUM0KFtDSDJdMylPT1tDQEBdNShPTzQpW0NASF02W0NIMl1bQ0BASF03W0NIMl1bQ0BIXShbQ0gyXTYpW0NIMl1bQ0BIXTVbQ0gyXTc=

>  <s_epik_cmdline>  (391) 
J2VwaWtfcHl0aG9uJywgJy1waHQnLCAnMi4wJywgJy1waCcsICc3LjAnLCAnLXRuJywgJzgnLCAnLW1hJywgJzIwMCcsICctaW1hZScsICc8aW5maWxlLm1hZT4nLCAnLW9tYWUnLCAnPG91dGZpbGUubWFlPic=

>  <r_epik_Ionization_Penalty>  (391) 
1.93298

>  <r_epik_Ionization_Penalty_Charging>  (391) 
0

>  <r_epik_Ionization_Penalty_Neutral>  (391) 
1.93298

>  <r_epik_State_Penalty>  (391) 
2.05666

>  <r_epik_Charging_Adjusted_Penalty>  (391) 
2.05666

>  <i_epik_Tot_Q>  (391) 
0

>  <i_epik_Tot_abs_Q>  (391) 
0

>  <s_lp_Force_Field>  (391) 
OPLS3e

>  <r_lp_Energy>  (391) 
17.7577

>  <b_lp_Chiralities_Consistent>  (391) 
1

>  <s_lp_Variant>  (391) 
110:0-9

>  <s_i_glide_gridfile>  (391) 
pfpi4k_grid

>  <i_i_glide_lignum>  (391) 
30

>  <i_i_glide_rotatable_bonds>  (391) 
3

>  <r_i_docking_score>  (391) 
-2.35575

>  <r_i_glide_ligand_efficiency>  (391) 
-0.0604038

>  <r_i_glide_ligand_efficiency_sa>  (391) 
-0.204842

>  <r_i_glide_ligand_efficiency_ln>  (391) 
-0.50514

>  <r_i_glide_gscore>  (391) 
-2.35575

>  <r_i_glide_lipo>  (391) 
-0.240307

>  <r_i_glide_hbond>  (391) 
-0.240588

>  <r_i_glide_metal>  (391) 
-0

>  <r_i_glide_rewards>  (391) 
0

>  <r_i_glide_evdw>  (391) 
-33.6766

>  <r_i_glide_ecoul>  (391) 
-3.79225

>  <r_i_glide_erotb>  (391) 
0.140033

>  <r_i_glide_esite>  (391) 
-0.0321518

>  <r_i_glide_emodel>  (391) 
-37.7884

>  <r_i_glide_energy>  (391) 
-37.4689

>  <r_i_glide_einternal>  (391) 
3.92213

>  <r_i_glide_intrahb_reward>  (391) 
-0

>  <i_i_glide_confnum>  (391) 
5

>  <i_i_glide_posenum>  (391) 
40

>  <r_i_glide_eff_state_penalty>  (391) 
0

>  <ligand_id>  (391) 
110

>  <original_smiles>  (391) 
CC(C=CC=C1CCC(N)C1(C)O)=C1COC2(CCCC3(C2)OOC2(OO3)C3CC4CC(C3)CC2C4)C(=O)O1

>  <smiles>  (391) 
[H]OC1(C([H])([H])[H])C(=C([H])C([H])=C([H])C(=C2OC(=O)C3(OC2([H])[H])C([H])([H])C([H])([H])C([H])([H])C2(OOC4(OO2)C2([H])C([H])([H])C5([H])C([H])([H])C([H])(C2([H])[H])C([H])([H])C4([H])C5([H])[H])C3([H])[H])C([H])([H])[H])C([H])([H])C([H])([H])C1([H])N([H])[H]

$$$$
110:9:0
     RDKit          3D

 80 86  0  0  1  0  0  0  0  0999 V2000
    4.7307   -1.2068    5.2916 C   0  0  0  0  0  0  0  0  0  0  0  0
    3.2253   -1.3647    5.4716 C   0  0  0  0  0  0  0  0  0  0  0  0
    2.3805   -0.1913    5.2909 C   0  0  0  0  0  0  0  0  0  0  0  0
    2.7786    1.0320    4.8929 C   0  0  0  0  0  0  0  0  0  0  0  0
    1.8599    2.1357    4.6633 C   0  0  0  0  0  0  0  0  0  0  0  0
    0.6458    2.0494    4.0744 C   0  0  0  0  0  0  0  0  0  0  0  0
    0.0253    0.8052    3.4521 C   0  0  0  0  0  0  0  0  0  0  0  0
   -1.3719    1.1869    3.1169 C   0  0  0  0  0  0  0  0  0  0  0  0
   -1.4311    2.6946    2.9691 C   0  0  1  0  0  0  0  0  0  0  0  0
   -2.7774    3.2391    3.2350 N   0  0  0  0  0  0  0  0  0  0  0  0
   -0.3171    3.2284    3.9033 C   0  0  1  0  0  0  0  0  0  0  0  0
   -0.8518    3.6764    5.2803 C   0  0  0  0  0  0  0  0  0  0  0  0
    0.3293    4.3264    3.2887 O   0  0  0  0  0  0  0  0  0  0  0  0
    2.6275   -2.5306    5.8285 C   0  0  0  0  0  0  0  0  0  0  0  0
    3.2693   -3.8897    6.0963 C   0  0  0  0  0  0  0  0  0  0  0  0
    2.7900   -4.4481    7.3231 O   0  0  0  0  0  0  0  0  0  0  0  0
    1.3730   -4.5656    7.4042 C   0  0  2  0  0  0  0  0  0  0  0  0
    0.9871   -5.0654    8.8380 C   0  0  0  0  0  0  0  0  0  0  0  0
    1.4265   -6.5108    9.1324 C   0  0  0  0  0  0  0  0  0  0  0  0
    0.9514   -7.5152    8.0588 C   0  0  0  0  0  0  0  0  0  0  0  0
    1.3865   -7.0524    6.6360 C   0  0  2  0  0  0  0  0  0  0  0  0
    0.8681   -5.6171    6.3677 C   0  0  0  0  0  0  0  0  0  0  0  0
    0.8431   -7.8822    5.6144 O   0  0  0  0  0  0  0  0  0  0  0  0
    1.3843   -9.2871    5.7675 O   0  0  0  0  0  0  0  0  0  0  0  0
    2.8146   -9.2715    5.6885 C   0  0  0  0  0  0  0  0  0  0  0  0
    3.3190   -8.4327    6.7245 O   0  0  0  0  0  0  0  0  0  0  0  0
    2.7998   -7.0363    6.5132 O   0  0  0  0  0  0  0  0  0  0  0  0
    3.3270  -10.7129    5.9567 C   0  0  2  0  0  0  0  0  0  0  0  0
    4.8762  -10.7474    5.9379 C   0  0  0  0  0  0  0  0  0  0  0  0
    5.3962  -10.3325    4.5476 C   0  0  1  0  0  0  0  0  0  0  0  0
    4.8576  -11.2933    3.4645 C   0  0  0  0  0  0  0  0  0  0  0  0
    3.3170  -11.2394    3.4715 C   0  0  1  0  0  0  0  0  0  0  0  0
    2.7954  -11.6723    4.8571 C   0  0  0  0  0  0  0  0  0  0  0  0
    2.8367   -9.8012    3.1777 C   0  0  0  0  0  0  0  0  0  0  0  0
    3.3578   -8.8348    4.2786 C   0  0  2  0  0  0  0  0  0  0  0  0
    4.9157   -8.8957    4.2569 C   0  0  0  0  0  0  0  0  0  0  0  0
    0.7448   -3.1708    7.1158 C   0  0  0  0  0  0  0  0  0  0  0  0
   -0.2037   -2.7274    7.7443 O   0  0  0  0  0  0  0  0  0  0  0  0
    1.2744   -2.5111    6.0571 O   0  0  0  0  0  0  0  0  0  0  0  0
    5.0201   -0.2968    5.8116 H   0  0  0  0  0  0  0  0  0  0  0  0
    4.9836   -1.0947    4.2395 H   0  0  0  0  0  0  0  0  0  0  0  0
    5.3279   -2.0030    5.7179 H   0  0  0  0  0  0  0  0  0  0  0  0
    1.3228   -0.3447    5.4945 H   0  0  0  0  0  0  0  0  0  0  0  0
    3.8324    1.2550    4.7134 H   0  0  0  0  0  0  0  0  0  0  0  0
    2.1629    3.1100    5.0090 H   0  0  0  0  0  0  0  0  0  0  0  0
    0.5923    0.5202    2.5569 H   0  0  0  0  0  0  0  0  0  0  0  0
   -0.1005   -0.0533    4.1067 H   0  0  0  0  0  0  0  0  0  0  0  0
   -1.7632    0.6397    2.2527 H   0  0  0  0  0  0  0  0  0  0  0  0
   -2.0019    0.9031    3.9713 H   0  0  0  0  0  0  0  0  0  0  0  0
   -1.1361    2.8854    1.9436 H   0  0  0  0  0  0  0  0  0  0  0  0
   -2.7750    4.2311    3.0280 H   0  0  0  0  0  0  0  0  0  0  0  0
   -3.4771    2.7910    2.6352 H   0  0  0  0  0  0  0  0  0  0  0  0
   -1.4501    2.8818    5.7324 H   0  0  0  0  0  0  0  0  0  0  0  0
   -1.4859    4.5581    5.1837 H   0  0  0  0  0  0  0  0  0  0  0  0
   -0.0453    3.9281    5.9697 H   0  0  0  0  0  0  0  0  0  0  0  0
    0.2403    4.2605    2.3113 H   0  0  0  0  0  0  0  0  0  0  0  0
    3.0910   -4.5489    5.2426 H   0  0  0  0  0  0  0  0  0  0  0  0
    4.3415   -3.8168    6.1793 H   0  0  0  0  0  0  0  0  0  0  0  0
    1.3678   -4.3966    9.6116 H   0  0  0  0  0  0  0  0  0  0  0  0
   -0.0916   -5.0354    8.9578 H   0  0  0  0  0  0  0  0  0  0  0  0
    2.5119   -6.5354    9.1912 H   0  0  0  0  0  0  0  0  0  0  0  0
    1.0550   -6.8193   10.1141 H   0  0  0  0  0  0  0  0  0  0  0  0
    1.3042   -8.5246    8.2979 H   0  0  0  0  0  0  0  0  0  0  0  0
   -0.1392   -7.5738    8.0868 H   0  0  0  0  0  0  0  0  0  0  0  0
   -0.2148   -5.6406    6.4621 H   0  0  0  0  0  0  0  0  0  0  0  0
    1.0501   -5.3295    5.3218 H   0  0  0  0  0  0  0  0  0  0  0  0
    2.9836  -11.0479    6.9380 H   0  0  0  0  0  0  0  0  0  0  0  0
    5.2841  -10.0776    6.6967 H   0  0  0  0  0  0  0  0  0  0  0  0
    5.2407  -11.7409    6.1862 H   0  0  0  0  0  0  0  0  0  0  0  0
    6.4875  -10.3706    4.5396 H   0  0  0  0  0  0  0  0  0  0  0  0
    5.2386  -11.0176    2.4792 H   0  0  0  0  0  0  0  0  0  0  0  0
    5.2019  -12.3142    3.6412 H   0  0  0  0  0  0  0  0  0  0  0  0
    2.9375  -11.9172    2.7033 H   0  0  0  0  0  0  0  0  0  0  0  0
    3.0907  -12.6989    5.0616 H   0  0  0  0  0  0  0  0  0  0  0  0
    1.7060  -11.6798    4.8523 H   0  0  0  0  0  0  0  0  0  0  0  0
    3.1888   -9.4849    2.1919 H   0  0  0  0  0  0  0  0  0  0  0  0
    1.7464   -9.7694    3.1425 H   0  0  0  0  0  0  0  0  0  0  0  0
    3.0436   -7.8143    4.0364 H   0  0  0  0  0  0  0  0  0  0  0  0
    5.3351   -8.2139    4.9981 H   0  0  0  0  0  0  0  0  0  0  0  0
    5.3030   -8.5670    3.2898 H   0  0  0  0  0  0  0  0  0  0  0  0
  1  2  1  0
  1 40  1  0
  1 41  1  0
  1 42  1  0
  2  3  1  0
  2 14  2  3
  3  4  2  3
  3 43  1  0
  4  5  1  0
  4 44  1  0
  5  6  2  3
  5 45  1  0
  6 11  1  0
  6  7  1  0
  7  8  1  0
  7 46  1  0
  7 47  1  0
  8  9  1  0
  8 48  1  0
  8 49  1  0
  9 10  1  0
  9 11  1  0
  9 50  1  6
 10 51  1  0
 10 52  1  0
 11 12  1  0
 11 13  1  6
 12 53  1  0
 12 54  1  0
 12 55  1  0
 13 56  1  0
 14 39  1  0
 14 15  1  0
 15 16  1  0
 15 57  1  0
 15 58  1  0
 17 16  1  1
 17 22  1  0
 17 18  1  0
 17 37  1  0
 18 19  1  0
 18 59  1  0
 18 60  1  0
 19 20  1  0
 19 61  1  0
 19 62  1  0
 20 21  1  0
 20 63  1  0
 20 64  1  0
 21 27  1  1
 21 22  1  0
 21 23  1  0
 22 65  1  0
 22 66  1  0
 23 24  1  0
 24 25  1  0
 25 35  1  0
 25 26  1  0
 25 28  1  0
 26 27  1  0
 28 33  1  0
 28 29  1  0
 28 67  1  1
 29 30  1  0
 29 68  1  0
 29 69  1  0
 30 36  1  0
 30 31  1  0
 30 70  1  1
 31 32  1  0
 31 71  1  0
 31 72  1  0
 32 33  1  0
 32 34  1  0
 32 73  1  6
 33 74  1  0
 33 75  1  0
 34 35  1  0
 34 76  1  0
 34 77  1  0
 35 36  1  0
 35 78  1  6
 36 79  1  0
 36 80  1  0
 37 38  2  0
 37 39  1  0
M  END
>  <i_m_ct_stereo_status>  (392) 
1

>  <s_m_source_file>  (392) 
/var/tmp/pbs.5076255.sched01/tmpybatibx8/138x0dlab3k.sdf

>  <i_m_source_file_index>  (392) 
31

>  <i_lp_mmshare_version>  (392) 
48012

>  <i_f3d_flags>  (392) 
0

>  <s_epik_input>  (392) 
W05IMl1bQ0BASF0xW0NIMl1bQ0gyXS9DKFtDQEBdMShbQ0gzXSlbT0hdKT1bQ0hdXFtDSF09W0NIXVxDKFxbQ0gzXSk9QyhPQzI9TykvW0NIMl1PW0NAQF0yM1tDSDJdW0NIMl1bQ0gyXUM0KFtDSDJdMylPT1tDQEBdNShPTzQpW0NASF02W0NIMl1bQ0BASF03W0NIMl1bQ0BIXShbQ0gyXTYpW0NIMl1bQ0BIXTVbQ0gyXTc=

>  <s_epik_cmdline>  (392) 
J2VwaWtfcHl0aG9uJywgJy1waHQnLCAnMi4wJywgJy1waCcsICc3LjAnLCAnLXRuJywgJzgnLCAnLW1hJywgJzIwMCcsICctaW1hZScsICc8aW5maWxlLm1hZT4nLCAnLW9tYWUnLCAnPG91dGZpbGUubWFlPic=

>  <r_epik_Ionization_Penalty>  (392) 
1.93298

>  <r_epik_Ionization_Penalty_Charging>  (392) 
0

>  <r_epik_Ionization_Penalty_Neutral>  (392) 
1.93298

>  <r_epik_State_Penalty>  (392) 
2.05666

>  <r_epik_Charging_Adjusted_Penalty>  (392) 
2.05666

>  <i_epik_Tot_Q>  (392) 
0

>  <i_epik_Tot_abs_Q>  (392) 
0

>  <s_lp_Force_Field>  (392) 
OPLS3e

>  <r_lp_Energy>  (392) 
15.3844

>  <b_lp_Chiralities_Consistent>  (392) 
1

>  <s_lp_Variant>  (392) 
110:0-10

>  <s_i_glide_gridfile>  (392) 
pfpi4k_grid

>  <i_i_glide_lignum>  (392) 
31

>  <i_i_glide_rotatable_bonds>  (392) 
3

>  <r_i_docking_score>  (392) 
-2.48035

>  <r_i_glide_ligand_efficiency>  (392) 
-0.0635987

>  <r_i_glide_ligand_efficiency_sa>  (392) 
-0.215677

>  <r_i_glide_ligand_efficiency_ln>  (392) 
-0.531857

>  <r_i_glide_gscore>  (392) 
-2.48035

>  <r_i_glide_lipo>  (392) 
-0.021267

>  <r_i_glide_hbond>  (392) 
-0.219346

>  <r_i_glide_metal>  (392) 
-0

>  <r_i_glide_rewards>  (392) 
0

>  <r_i_glide_evdw>  (392) 
-23.3111

>  <r_i_glide_ecoul>  (392) 
-7.86544

>  <r_i_glide_erotb>  (392) 
0.140033

>  <r_i_glide_esite>  (392) 
-0.0343985

>  <r_i_glide_emodel>  (392) 
-33.1688

>  <r_i_glide_energy>  (392) 
-31.1765

>  <r_i_glide_einternal>  (392) 
3.94648

>  <r_i_glide_intrahb_reward>  (392) 
-0

>  <i_i_glide_confnum>  (392) 
4

>  <i_i_glide_posenum>  (392) 
7

>  <r_i_glide_eff_state_penalty>  (392) 
0

>  <ligand_id>  (392) 
110

>  <original_smiles>  (392) 
CC(C=CC=C1CCC(N)C1(C)O)=C1COC2(CCCC3(C2)OOC2(OO3)C3CC4CC(C3)CC2C4)C(=O)O1

>  <smiles>  (392) 
[H]OC1(C([H])([H])[H])C(=C([H])C([H])=C([H])C(=C2OC(=O)C3(OC2([H])[H])C([H])([H])C([H])([H])C([H])([H])C2(OOC4(OO2)C2([H])C([H])([H])C5([H])C([H])([H])C([H])(C2([H])[H])C([H])([H])C4([H])C5([H])[H])C3([H])[H])C([H])([H])[H])C([H])([H])C([H])([H])C1([H])N([H])[H]

$$$$
110:9:1
     RDKit          3D

 80 86  0  0  1  0  0  0  0  0999 V2000
    3.7185   -0.8900    8.2148 C   0  0  0  0  0  0  0  0  0  0  0  0
    2.3006   -1.1862    7.7269 C   0  0  0  0  0  0  0  0  0  0  0  0
    1.3654   -0.0602    7.9469 C   0  0  0  0  0  0  0  0  0  0  0  0
    0.3001    0.2145    7.1390 C   0  0  0  0  0  0  0  0  0  0  0  0
   -0.6267    1.3019    7.4341 C   0  0  0  0  0  0  0  0  0  0  0  0
   -0.9087    1.8522    8.6544 C   0  0  0  0  0  0  0  0  0  0  0  0
   -0.3308    1.4284    9.9972 C   0  0  0  0  0  0  0  0  0  0  0  0
   -0.8177    2.4471   11.0089 C   0  0  0  0  0  0  0  0  0  0  0  0
   -2.0567    3.0950   10.4126 C   0  0  1  0  0  0  0  0  0  0  0  0
   -2.2190    4.4683   10.9299 N   0  0  0  0  0  0  0  0  0  0  0  0
   -1.8592    3.0179    8.8685 C   0  0  1  0  0  0  0  0  0  0  0  0
   -1.2762    4.3031    8.2501 C   0  0  0  0  0  0  0  0  0  0  0  0
   -3.1097    2.7456    8.2683 O   0  0  0  0  0  0  0  0  0  0  0  0
    1.8861   -2.3756    7.3022 C   0  0  0  0  0  0  0  0  0  0  0  0
    2.7038   -3.6329    7.0290 C   0  0  0  0  0  0  0  0  0  0  0  0
    2.1058   -4.8209    7.5794 O   0  0  0  0  0  0  0  0  0  0  0  0
    0.7373   -4.9979    7.1662 C   0  0  2  0  0  0  0  0  0  0  0  0
    0.1669   -6.1996    7.9230 C   0  0  0  0  0  0  0  0  0  0  0  0
    0.7889   -7.5458    7.4973 C   0  0  0  0  0  0  0  0  0  0  0  0
    0.7515   -7.7595    5.9716 C   0  0  0  0  0  0  0  0  0  0  0  0
    1.3819   -6.5532    5.2189 C   0  0  2  0  0  0  0  0  0  0  0  0
    0.6819   -5.2452    5.6288 C   0  0  0  0  0  0  0  0  0  0  0  0
    1.2408   -6.6608    3.7909 O   0  0  0  0  0  0  0  0  0  0  0  0
    1.9883   -7.8872    3.3078 O   0  0  0  0  0  0  0  0  0  0  0  0
    3.3818   -7.7840    3.6670 C   0  0  0  0  0  0  0  0  0  0  0  0
    3.4832   -7.6703    5.0979 O   0  0  0  0  0  0  0  0  0  0  0  0
    2.7671   -6.4170    5.5224 O   0  0  0  0  0  0  0  0  0  0  0  0
    4.0812   -9.1095    3.2428 C   0  0  2  0  0  0  0  0  0  0  0  0
    5.5712   -9.0616    3.6568 C   0  0  0  0  0  0  0  0  0  0  0  0
    6.2976   -7.9093    2.9301 C   0  0  1  0  0  0  0  0  0  0  0  0
    6.1951   -8.0941    1.4009 C   0  0  0  0  0  0  0  0  0  0  0  0
    4.7064   -8.1054    0.9939 C   0  0  1  0  0  0  0  0  0  0  0  0
    3.9884   -9.2671    1.7126 C   0  0  0  0  0  0  0  0  0  0  0  0
    4.0402   -6.7735    1.4008 C   0  0  0  0  0  0  0  0  0  0  0  0
    4.1228   -6.5978    2.9432 C   0  0  2  0  0  0  0  0  0  0  0  0
    5.6313   -6.5797    3.3387 C   0  0  0  0  0  0  0  0  0  0  0  0
   -0.0586   -3.7120    7.5022 C   0  0  0  0  0  0  0  0  0  0  0  0
   -1.1932   -3.7432    8.0059 O   0  0  0  0  0  0  0  0  0  0  0  0
    0.5191   -2.5560    7.1419 O   0  0  0  0  0  0  0  0  0  0  0  0
    3.6675   -0.4179    9.1914 H   0  0  0  0  0  0  0  0  0  0  0  0
    4.1931   -0.1789    7.5593 H   0  0  0  0  0  0  0  0  0  0  0  0
    4.3678   -1.7417    8.3359 H   0  0  0  0  0  0  0  0  0  0  0  0
    1.6424    0.4659    8.8015 H   0  0  0  0  0  0  0  0  0  0  0  0
    0.1075   -0.3463    6.2266 H   0  0  0  0  0  0  0  0  0  0  0  0
   -1.1381    1.7323    6.5906 H   0  0  0  0  0  0  0  0  0  0  0  0
   -0.6800    0.4218   10.2536 H   0  0  0  0  0  0  0  0  0  0  0  0
    0.7236    1.5074   10.0855 H   0  0  0  0  0  0  0  0  0  0  0  0
   -0.9538    2.0094   11.9993 H   0  0  0  0  0  0  0  0  0  0  0  0
   -0.0224    3.1883   11.0822 H   0  0  0  0  0  0  0  0  0  0  0  0
   -2.8936    2.4604   10.7192 H   0  0  0  0  0  0  0  0  0  0  0  0
   -3.0901    4.8753   10.5847 H   0  0  0  0  0  0  0  0  0  0  0  0
   -2.2568    4.4394   11.9520 H   0  0  0  0  0  0  0  0  0  0  0  0
   -0.3548    4.5731    8.7696 H   0  0  0  0  0  0  0  0  0  0  0  0
   -1.9711    5.1440    8.3372 H   0  0  0  0  0  0  0  0  0  0  0  0
   -1.0355    4.1833    7.1899 H   0  0  0  0  0  0  0  0  0  0  0  0
   -3.7428    3.3360    8.6438 H   0  0  0  0  0  0  0  0  0  0  0  0
    2.8527   -3.6769    5.9455 H   0  0  0  0  0  0  0  0  0  0  0  0
    3.6979   -3.5494    7.4533 H   0  0  0  0  0  0  0  0  0  0  0  0
    0.2345   -6.0805    9.0025 H   0  0  0  0  0  0  0  0  0  0  0  0
   -0.9001   -6.2458    7.7285 H   0  0  0  0  0  0  0  0  0  0  0  0
    1.8157   -7.5572    7.8349 H   0  0  0  0  0  0  0  0  0  0  0  0
    0.2773   -8.3652    7.9943 H   0  0  0  0  0  0  0  0  0  0  0  0
    1.2338   -8.7253    5.7089 H   0  0  0  0  0  0  0  0  0  0  0  0
   -0.2854   -7.8656    5.6465 H   0  0  0  0  0  0  0  0  0  0  0  0
   -0.3752   -5.3552    5.3897 H   0  0  0  0  0  0  0  0  0  0  0  0
    1.0197   -4.3974    4.9999 H   0  0  0  0  0  0  0  0  0  0  0  0
    3.5819   -9.9626    3.7323 H   0  0  0  0  0  0  0  0  0  0  0  0
    5.6833   -8.9321    4.7318 H   0  0  0  0  0  0  0  0  0  0  0  0
    6.0678  -10.0005    3.4147 H   0  0  0  0  0  0  0  0  0  0  0  0
    7.3529   -7.8970    3.2090 H   0  0  0  0  0  0  0  0  0  0  0  0
    6.7247   -7.2886    0.8875 H   0  0  0  0  0  0  0  0  0  0  0  0
    6.6854   -9.0193    1.0867 H   0  0  0  0  0  0  0  0  0  0  0  0
    4.6232   -8.2321   -0.0850 H   0  0  0  0  0  0  0  0  0  0  0  0
    4.4399  -10.2103    1.4005 H   0  0  0  0  0  0  0  0  0  0  0  0
    2.9538   -9.3119    1.3820 H   0  0  0  0  0  0  0  0  0  0  0  0
    4.5296   -5.9355    0.8966 H   0  0  0  0  0  0  0  0  0  0  0  0
    2.9966   -6.7628    1.0830 H   0  0  0  0  0  0  0  0  0  0  0  0
    3.6765   -5.6221    3.2179 H   0  0  0  0  0  0  0  0  0  0  0  0
    5.7430   -6.4314    4.4126 H   0  0  0  0  0  0  0  0  0  0  0  0
    6.1466   -5.7431    2.8619 H   0  0  0  0  0  0  0  0  0  0  0  0
  1  2  1  0
  1 40  1  0
  1 41  1  0
  1 42  1  0
  2  3  1  0
  2 14  2  3
  3  4  2  3
  3 43  1  0
  4  5  1  0
  4 44  1  0
  5  6  2  3
  5 45  1  0
  6 11  1  0
  6  7  1  0
  7  8  1  0
  7 46  1  0
  7 47  1  0
  8  9  1  0
  8 48  1  0
  8 49  1  0
  9 10  1  0
  9 11  1  0
  9 50  1  6
 10 51  1  0
 10 52  1  0
 11 12  1  0
 11 13  1  6
 12 53  1  0
 12 54  1  0
 12 55  1  0
 13 56  1  0
 14 39  1  0
 14 15  1  0
 15 16  1  0
 15 57  1  0
 15 58  1  0
 17 16  1  1
 17 22  1  0
 17 18  1  0
 17 37  1  0
 18 19  1  0
 18 59  1  0
 18 60  1  0
 19 20  1  0
 19 61  1  0
 19 62  1  0
 20 21  1  0
 20 63  1  0
 20 64  1  0
 21 27  1  6
 21 22  1  0
 21 23  1  0
 22 65  1  0
 22 66  1  0
 23 24  1  0
 24 25  1  0
 25 35  1  0
 25 26  1  0
 25 28  1  0
 26 27  1  0
 28 33  1  0
 28 29  1  0
 28 67  1  1
 29 30  1  0
 29 68  1  0
 29 69  1  0
 30 36  1  0
 30 31  1  0
 30 70  1  1
 31 32  1  0
 31 71  1  0
 31 72  1  0
 32 33  1  0
 32 34  1  0
 32 73  1  6
 33 74  1  0
 33 75  1  0
 34 35  1  0
 34 76  1  0
 34 77  1  0
 35 36  1  0
 35 78  1  6
 36 79  1  0
 36 80  1  0
 37 38  2  0
 37 39  1  0
M  END
>  <i_m_ct_stereo_status>  (393) 
1

>  <s_m_source_file>  (393) 
/var/tmp/pbs.5076255.sched01/tmpybatibx8/138x0dlab3k.sdf

>  <i_m_source_file_index>  (393) 
31

>  <i_lp_mmshare_version>  (393) 
48012

>  <i_f3d_flags>  (393) 
0

>  <s_epik_input>  (393) 
W05IMl1bQ0BASF0xW0NIMl1bQ0gyXS9DKFtDQEBdMShbQ0gzXSlbT0hdKT1bQ0hdXFtDSF09W0NIXVxDKFxbQ0gzXSk9QyhPQzI9TykvW0NIMl1PW0NAQF0yM1tDSDJdW0NIMl1bQ0gyXUM0KFtDSDJdMylPT1tDQEBdNShPTzQpW0NASF02W0NIMl1bQ0BASF03W0NIMl1bQ0BIXShbQ0gyXTYpW0NIMl1bQ0BIXTVbQ0gyXTc=

>  <s_epik_cmdline>  (393) 
J2VwaWtfcHl0aG9uJywgJy1waHQnLCAnMi4wJywgJy1waCcsICc3LjAnLCAnLXRuJywgJzgnLCAnLW1hJywgJzIwMCcsICctaW1hZScsICc8aW5maWxlLm1hZT4nLCAnLW9tYWUnLCAnPG91dGZpbGUubWFlPic=

>  <r_epik_Ionization_Penalty>  (393) 
1.93298

>  <r_epik_Ionization_Penalty_Charging>  (393) 
0

>  <r_epik_Ionization_Penalty_Neutral>  (393) 
1.93298

>  <r_epik_State_Penalty>  (393) 
2.05666

>  <r_epik_Charging_Adjusted_Penalty>  (393) 
2.05666

>  <i_epik_Tot_Q>  (393) 
0

>  <i_epik_Tot_abs_Q>  (393) 
0

>  <s_lp_Force_Field>  (393) 
OPLS3e

>  <r_lp_Energy>  (393) 
15.3844

>  <b_lp_Chiralities_Consistent>  (393) 
1

>  <s_lp_Variant>  (393) 
110:0-10

>  <s_i_glide_gridfile>  (393) 
pfpi4k_grid

>  <i_i_glide_lignum>  (393) 
31

>  <i_i_glide_rotatable_bonds>  (393) 
3

>  <r_i_docking_score>  (393) 
-1.9896

>  <r_i_glide_ligand_efficiency>  (393) 
-0.0510154

>  <r_i_glide_ligand_efficiency_sa>  (393) 
-0.173004

>  <r_i_glide_ligand_efficiency_ln>  (393) 
-0.426627

>  <r_i_glide_gscore>  (393) 
-1.9896

>  <r_i_glide_lipo>  (393) 
-0.232522

>  <r_i_glide_hbond>  (393) 
-0.0431674

>  <r_i_glide_metal>  (393) 
-0

>  <r_i_glide_rewards>  (393) 
0

>  <r_i_glide_evdw>  (393) 
-25.9251

>  <r_i_glide_ecoul>  (393) 
-3.54681

>  <r_i_glide_erotb>  (393) 
0.140033

>  <r_i_glide_esite>  (393) 
-0.0256649

>  <r_i_glide_emodel>  (393) 
-28.0356

>  <r_i_glide_energy>  (393) 
-29.472

>  <r_i_glide_einternal>  (393) 
6.93578

>  <r_i_glide_intrahb_reward>  (393) 
-0

>  <i_i_glide_confnum>  (393) 
4

>  <i_i_glide_posenum>  (393) 
18

>  <r_i_glide_eff_state_penalty>  (393) 
0

>  <ligand_id>  (393) 
110

>  <original_smiles>  (393) 
CC(C=CC=C1CCC(N)C1(C)O)=C1COC2(CCCC3(C2)OOC2(OO3)C3CC4CC(C3)CC2C4)C(=O)O1

>  <smiles>  (393) 
[H]OC1(C([H])([H])[H])C(=C([H])C([H])=C([H])C(=C2OC(=O)C3(OC2([H])[H])C([H])([H])C([H])([H])C([H])([H])C2(OOC4(OO2)C2([H])C([H])([H])C5([H])C([H])([H])C([H])(C2([H])[H])C([H])([H])C4([H])C5([H])[H])C3([H])[H])C([H])([H])[H])C([H])([H])C([H])([H])C1([H])N([H])[H]

$$$$
110:9:2
     RDKit          3D

 80 86  0  0  1  0  0  0  0  0999 V2000
    4.4037   -0.1183    5.7260 C   0  0  0  0  0  0  0  0  0  0  0  0
    2.9565   -0.5910    5.6613 C   0  0  0  0  0  0  0  0  0  0  0  0
    1.8923    0.4107    5.5177 C   0  0  0  0  0  0  0  0  0  0  0  0
    2.0614    1.7558    5.5117 C   0  0  0  0  0  0  0  0  0  0  0  0
    0.9728    2.6897    5.3079 C   0  0  0  0  0  0  0  0  0  0  0  0
    0.0117    2.5917    4.3654 C   0  0  0  0  0  0  0  0  0  0  0  0
   -0.0722    1.5295    3.2828 C   0  0  0  0  0  0  0  0  0  0  0  0
   -1.4175    1.7267    2.6301 C   0  0  0  0  0  0  0  0  0  0  0  0
   -1.8331    3.1736    2.8834 C   0  0  1  0  0  0  0  0  0  0  0  0
   -3.3006    3.3452    2.8525 N   0  0  0  0  0  0  0  0  0  0  0  0
   -1.1641    3.5531    4.2269 C   0  0  1  0  0  0  0  0  0  0  0  0
   -2.1039    3.4045    5.4398 C   0  0  0  0  0  0  0  0  0  0  0  0
   -0.7222    4.8995    4.1431 O   0  0  0  0  0  0  0  0  0  0  0  0
    2.5887   -1.8833    5.7263 C   0  0  0  0  0  0  0  0  0  0  0  0
    3.4769   -3.1275    5.8687 C   0  0  0  0  0  0  0  0  0  0  0  0
    2.9919   -3.9818    6.9027 O   0  0  0  0  0  0  0  0  0  0  0  0
    1.6186   -4.3797    6.7495 C   0  0  2  0  0  0  0  0  0  0  0  0
    1.1975   -5.1997    8.0094 C   0  0  0  0  0  0  0  0  0  0  0  0
    1.8990   -6.5666    8.1357 C   0  0  0  0  0  0  0  0  0  0  0  0
    1.7712   -7.4234    6.8557 C   0  0  0  0  0  0  0  0  0  0  0  0
    2.2591   -6.6343    5.6082 C   0  0  2  0  0  0  0  0  0  0  0  0
    1.4788   -5.2998    5.4958 C   0  0  0  0  0  0  0  0  0  0  0  0
    2.0193   -7.3515    4.4004 O   0  0  0  0  0  0  0  0  0  0  0  0
    2.8258   -8.6289    4.4063 O   0  0  0  0  0  0  0  0  0  0  0  0
    4.2191   -8.3303    4.5552 C   0  0  0  0  0  0  0  0  0  0  0  0
    4.4216   -7.6159    5.7715 O   0  0  0  0  0  0  0  0  0  0  0  0
    3.6481   -6.3345    5.7084 O   0  0  0  0  0  0  0  0  0  0  0  0
    4.9832   -9.6832    4.6642 C   0  0  2  0  0  0  0  0  0  0  0  0
    6.5003   -9.4162    4.8726 C   0  0  0  0  0  0  0  0  0  0  0  0
    7.0742   -8.6557    3.6595 C   0  0  1  0  0  0  0  0  0  0  0  0
    6.8757   -9.4806    2.3755 C   0  0  0  0  0  0  0  0  0  0  0  0
    5.3733   -9.7140    2.1580 C   0  0  1  0  0  0  0  0  0  0  0  0
    4.7984  -10.5003    3.3558 C   0  0  0  0  0  0  0  0  0  0  0  0
    4.6369   -8.3638    2.0261 C   0  0  0  0  0  0  0  0  0  0  0  0
    4.8137   -7.5460    3.3317 C   0  0  2  0  0  0  0  0  0  0  0  0
    6.3386   -7.3049    3.5291 C   0  0  0  0  0  0  0  0  0  0  0  0
    0.7649   -3.1064    6.5866 C   0  0  0  0  0  0  0  0  0  0  0  0
   -0.3430   -2.9687    7.1622 O   0  0  0  0  0  0  0  0  0  0  0  0
    1.2394   -2.1740    5.7366 O   0  0  0  0  0  0  0  0  0  0  0  0
    4.4567    0.7150    6.4227 H   0  0  0  0  0  0  0  0  0  0  0  0
    4.7458    0.2304    4.7511 H   0  0  0  0  0  0  0  0  0  0  0  0
    5.1057   -0.8608    6.0965 H   0  0  0  0  0  0  0  0  0  0  0  0
    0.8841    0.0407    5.3941 H   0  0  0  0  0  0  0  0  0  0  0  0
    3.0436    2.1858    5.6528 H   0  0  0  0  0  0  0  0  0  0  0  0
    0.9207    3.5230    5.9921 H   0  0  0  0  0  0  0  0  0  0  0  0
    0.7381    1.6756    2.5671 H   0  0  0  0  0  0  0  0  0  0  0  0
   -0.0658    0.5007    3.6400 H   0  0  0  0  0  0  0  0  0  0  0  0
   -1.4199    1.4227    1.5822 H   0  0  0  0  0  0  0  0  0  0  0  0
   -2.1139    1.0903    3.1644 H   0  0  0  0  0  0  0  0  0  0  0  0
   -1.3908    3.7662    2.0945 H   0  0  0  0  0  0  0  0  0  0  0  0
   -3.5356    4.3283    2.9459 H   0  0  0  0  0  0  0  0  0  0  0  0
   -3.6895    3.0201    1.9672 H   0  0  0  0  0  0  0  0  0  0  0  0
   -2.5580    2.4137    5.4508 H   0  0  0  0  0  0  0  0  0  0  0  0
   -2.9173    4.1209    5.4020 H   0  0  0  0  0  0  0  0  0  0  0  0
   -1.5885    3.5539    6.3889 H   0  0  0  0  0  0  0  0  0  0  0  0
   -0.1440    4.9693    3.3932 H   0  0  0  0  0  0  0  0  0  0  0  0
    3.5381   -3.6433    4.9036 H   0  0  0  0  0  0  0  0  0  0  0  0
    4.4967   -2.8666    6.1260 H   0  0  0  0  0  0  0  0  0  0  0  0
    1.3428   -4.6233    8.9289 H   0  0  0  0  0  0  0  0  0  0  0  0
    0.1282   -5.3961    7.9714 H   0  0  0  0  0  0  0  0  0  0  0  0
    2.9550   -6.3984    8.3589 H   0  0  0  0  0  0  0  0  0  0  0  0
    1.4873   -7.1145    8.9920 H   0  0  0  0  0  0  0  0  0  0  0  0
    2.2943   -8.3719    6.9904 H   0  0  0  0  0  0  0  0  0  0  0  0
    0.7231   -7.6928    6.7204 H   0  0  0  0  0  0  0  0  0  0  0  0
    0.4241   -5.5436    5.4207 H   0  0  0  0  0  0  0  0  0  0  0  0
    1.7163   -4.7986    4.5522 H   0  0  0  0  0  0  0  0  0  0  0  0
    4.5893  -10.2602    5.5078 H   0  0  0  0  0  0  0  0  0  0  0  0
    6.6708   -8.8324    5.7804 H   0  0  0  0  0  0  0  0  0  0  0  0
    7.0400  -10.3510    5.0070 H   0  0  0  0  0  0  0  0  0  0  0  0
    8.1433   -8.4882    3.8048 H   0  0  0  0  0  0  0  0  0  0  0  0
    7.3062   -8.9633    1.5177 H   0  0  0  0  0  0  0  0  0  0  0  0
    7.3967  -10.4379    2.4466 H   0  0  0  0  0  0  0  0  0  0  0  0
    5.2386  -10.2834    1.2386 H   0  0  0  0  0  0  0  0  0  0  0  0
    5.2885  -11.4698    3.4324 H   0  0  0  0  0  0  0  0  0  0  0  0
    3.7430  -10.7117    3.1801 H   0  0  0  0  0  0  0  0  0  0  0  0
    5.0265   -7.8153    1.1621 H   0  0  0  0  0  0  0  0  0  0  0  0
    3.5783   -8.5393    1.8267 H   0  0  0  0  0  0  0  0  0  0  0  0
    4.3250   -6.5804    3.2036 H   0  0  0  0  0  0  0  0  0  0  0  0
    6.5215   -6.7056    4.4219 H   0  0  0  0  0  0  0  0  0  0  0  0
    6.7619   -6.7394    2.6934 H   0  0  0  0  0  0  0  0  0  0  0  0
  1  2  1  0
  1 40  1  0
  1 41  1  0
  1 42  1  0
  2  3  1  0
  2 14  2  3
  3  4  2  3
  3 43  1  0
  4  5  1  0
  4 44  1  0
  5  6  2  3
  5 45  1  0
  6 11  1  0
  6  7  1  0
  7  8  1  0
  7 46  1  0
  7 47  1  0
  8  9  1  0
  8 48  1  0
  8 49  1  0
  9 10  1  0
  9 11  1  0
  9 50  1  6
 10 51  1  0
 10 52  1  0
 11 12  1  0
 11 13  1  6
 12 53  1  0
 12 54  1  0
 12 55  1  0
 13 56  1  0
 14 39  1  0
 14 15  1  0
 15 16  1  0
 15 57  1  0
 15 58  1  0
 17 16  1  1
 17 22  1  0
 17 18  1  0
 17 37  1  0
 18 19  1  0
 18 59  1  0
 18 60  1  0
 19 20  1  0
 19 61  1  0
 19 62  1  0
 20 21  1  0
 20 63  1  0
 20 64  1  0
 21 27  1  1
 21 22  1  0
 21 23  1  0
 22 65  1  0
 22 66  1  0
 23 24  1  0
 24 25  1  0
 25 35  1  0
 25 26  1  0
 25 28  1  0
 26 27  1  0
 28 33  1  0
 28 29  1  0
 28 67  1  1
 29 30  1  0
 29 68  1  0
 29 69  1  0
 30 36  1  0
 30 31  1  0
 30 70  1  1
 31 32  1  0
 31 71  1  0
 31 72  1  0
 32 33  1  0
 32 34  1  0
 32 73  1  6
 33 74  1  0
 33 75  1  0
 34 35  1  0
 34 76  1  0
 34 77  1  0
 35 36  1  0
 35 78  1  6
 36 79  1  0
 36 80  1  0
 37 38  2  0
 37 39  1  0
M  END
>  <i_m_ct_stereo_status>  (394) 
1

>  <s_m_source_file>  (394) 
/var/tmp/pbs.5076255.sched01/tmpybatibx8/138x0dlab3k.sdf

>  <i_m_source_file_index>  (394) 
31

>  <i_lp_mmshare_version>  (394) 
48012

>  <i_f3d_flags>  (394) 
0

>  <s_epik_input>  (394) 
W05IMl1bQ0BASF0xW0NIMl1bQ0gyXS9DKFtDQEBdMShbQ0gzXSlbT0hdKT1bQ0hdXFtDSF09W0NIXVxDKFxbQ0gzXSk9QyhPQzI9TykvW0NIMl1PW0NAQF0yM1tDSDJdW0NIMl1bQ0gyXUM0KFtDSDJdMylPT1tDQEBdNShPTzQpW0NASF02W0NIMl1bQ0BASF03W0NIMl1bQ0BIXShbQ0gyXTYpW0NIMl1bQ0BIXTVbQ0gyXTc=

>  <s_epik_cmdline>  (394) 
J2VwaWtfcHl0aG9uJywgJy1waHQnLCAnMi4wJywgJy1waCcsICc3LjAnLCAnLXRuJywgJzgnLCAnLW1hJywgJzIwMCcsICctaW1hZScsICc8aW5maWxlLm1hZT4nLCAnLW9tYWUnLCAnPG91dGZpbGUubWFlPic=

>  <r_epik_Ionization_Penalty>  (394) 
1.93298

>  <r_epik_Ionization_Penalty_Charging>  (394) 
0

>  <r_epik_Ionization_Penalty_Neutral>  (394) 
1.93298

>  <r_epik_State_Penalty>  (394) 
2.05666

>  <r_epik_Charging_Adjusted_Penalty>  (394) 
2.05666

>  <i_epik_Tot_Q>  (394) 
0

>  <i_epik_Tot_abs_Q>  (394) 
0

>  <s_lp_Force_Field>  (394) 
OPLS3e

>  <r_lp_Energy>  (394) 
15.3844

>  <b_lp_Chiralities_Consistent>  (394) 
1

>  <s_lp_Variant>  (394) 
110:0-10

>  <s_i_glide_gridfile>  (394) 
pfpi4k_grid

>  <i_i_glide_lignum>  (394) 
31

>  <i_i_glide_rotatable_bonds>  (394) 
3

>  <r_i_docking_score>  (394) 
-1.76914

>  <r_i_glide_ligand_efficiency>  (394) 
-0.0453626

>  <r_i_glide_ligand_efficiency_sa>  (394) 
-0.153834

>  <r_i_glide_ligand_efficiency_ln>  (394) 
-0.379354

>  <r_i_glide_gscore>  (394) 
-1.76914

>  <r_i_glide_lipo>  (394) 
-0.0843265

>  <r_i_glide_hbond>  (394) 
-0.0485156

>  <r_i_glide_metal>  (394) 
-0

>  <r_i_glide_rewards>  (394) 
0

>  <r_i_glide_evdw>  (394) 
-23.4873

>  <r_i_glide_ecoul>  (394) 
-3.96983

>  <r_i_glide_erotb>  (394) 
0.140033

>  <r_i_glide_esite>  (394) 
-0.00649295

>  <r_i_glide_emodel>  (394) 
-28.06

>  <r_i_glide_energy>  (394) 
-27.4571

>  <r_i_glide_einternal>  (394) 
3.94016

>  <r_i_glide_intrahb_reward>  (394) 
-0

>  <i_i_glide_confnum>  (394) 
4

>  <i_i_glide_posenum>  (394) 
10

>  <r_i_glide_eff_state_penalty>  (394) 
0

>  <ligand_id>  (394) 
110

>  <original_smiles>  (394) 
CC(C=CC=C1CCC(N)C1(C)O)=C1COC2(CCCC3(C2)OOC2(OO3)C3CC4CC(C3)CC2C4)C(=O)O1

>  <smiles>  (394) 
[H]OC1(C([H])([H])[H])C(=C([H])C([H])=C([H])C(=C2OC(=O)C3(OC2([H])[H])C([H])([H])C([H])([H])C([H])([H])C2(OOC4(OO2)C2([H])C([H])([H])C5([H])C([H])([H])C([H])(C2([H])[H])C([H])([H])C4([H])C5([H])[H])C3([H])[H])C([H])([H])[H])C([H])([H])C([H])([H])C1([H])N([H])[H]

$$$$
110:10:0
     RDKit          3D

 80 86  0  0  1  0  0  0  0  0999 V2000
    0.6157    1.2253    8.3122 C   0  0  0  0  0  0  0  0  0  0  0  0
    1.7936    0.4260    7.7110 C   0  0  0  0  0  0  0  0  0  0  0  0
    2.5465    0.8928    6.5255 C   0  0  0  0  0  0  0  0  0  0  0  0
    2.6798    2.1087    5.9886 C   0  0  0  0  0  0  0  0  0  0  0  0
    2.1663    3.3825    6.4602 C   0  0  0  0  0  0  0  0  0  0  0  0
    1.8618    4.4138    5.6562 C   0  0  0  0  0  0  0  0  0  0  0  0
    2.0782    4.4630    4.1618 C   0  0  0  0  0  0  0  0  0  0  0  0
    1.4048    5.7553    3.7046 C   0  0  0  0  0  0  0  0  0  0  0  0
    1.3429    6.6724    4.9425 C   0  0  1  0  0  0  0  0  0  0  0  0
    0.2266    7.6421    4.8709 N   0  0  0  0  0  0  0  0  0  0  0  0
    1.2428    5.7072    6.1435 C   0  0  1  0  0  0  0  0  0  0  0  0
   -0.2047    5.4507    6.6151 C   0  0  0  0  0  0  0  0  0  0  0  0
    1.9936    6.2181    7.2246 O   0  0  0  0  0  0  0  0  0  0  0  0
    2.0261   -0.8031    8.2024 C   0  0  0  0  0  0  0  0  0  0  0  0
    3.0893   -1.8572    7.8052 C   0  0  0  0  0  0  0  0  0  0  0  0
    2.5536   -3.1663    7.7038 O   0  0  0  0  0  0  0  0  0  0  0  0
    1.8118   -3.6081    8.8291 C   0  0  2  0  0  0  0  0  0  0  0  0
    2.7936   -3.8938   10.0043 C   0  0  0  0  0  0  0  0  0  0  0  0
    3.7414   -5.0653    9.6846 C   0  0  0  0  0  0  0  0  0  0  0  0
    2.9988   -6.3508    9.2590 C   0  0  0  0  0  0  0  0  0  0  0  0
    2.0139   -6.1204    8.0766 C   0  0  1  0  0  0  0  0  0  0  0  0
    1.0707   -4.9217    8.4164 C   0  0  0  0  0  0  0  0  0  0  0  0
    2.7483   -5.9060    6.8911 O   0  0  0  0  0  0  0  0  0  0  0  0
    1.7585   -5.7034    5.7615 O   0  0  0  0  0  0  0  0  0  0  0  0
    1.0044   -6.8996    5.5963 C   0  0  0  0  0  0  0  0  0  0  0  0
    0.2654   -7.1352    6.7903 O   0  0  0  0  0  0  0  0  0  0  0  0
    1.2420   -7.3031    7.9515 O   0  0  0  0  0  0  0  0  0  0  0  0
   -0.0028   -6.6936    4.4073 C   0  0  2  0  0  0  0  0  0  0  0  0
   -0.8712   -7.9607    4.1763 C   0  0  0  0  0  0  0  0  0  0  0  0
    0.0395   -9.1504    3.8239 C   0  0  1  0  0  0  0  0  0  0  0  0
    0.7975   -8.8482    2.5166 C   0  0  0  0  0  0  0  0  0  0  0  0
    1.6623   -7.5922    2.7284 C   0  0  1  0  0  0  0  0  0  0  0  0
    0.7544   -6.3973    3.0829 C   0  0  0  0  0  0  0  0  0  0  0  0
    2.6638   -7.8323    3.8796 C   0  0  0  0  0  0  0  0  0  0  0  0
    1.9229   -8.1221    5.2200 C   0  0  2  0  0  0  0  0  0  0  0  0
    1.0310   -9.3798    4.9870 C   0  0  0  0  0  0  0  0  0  0  0  0
    0.7669   -2.5143    9.2382 C   0  0  0  0  0  0  0  0  0  0  0  0
   -0.3665   -2.7957    9.6433 O   0  0  0  0  0  0  0  0  0  0  0  0
    1.1848   -1.2473    9.1978 O   0  0  0  0  0  0  0  0  0  0  0  0
    0.7772    2.2906    8.3866 H   0  0  0  0  0  0  0  0  0  0  0  0
    0.4126    0.9216    9.3454 H   0  0  0  0  0  0  0  0  0  0  0  0
   -0.2847    1.0694    7.7173 H   0  0  0  0  0  0  0  0  0  0  0  0
    3.0507    0.1443    5.9293 H   0  0  0  0  0  0  0  0  0  0  0  0
    3.2550    2.1501    5.0714 H   0  0  0  0  0  0  0  0  0  0  0  0
    2.0775    3.5734    7.5143 H   0  0  0  0  0  0  0  0  0  0  0  0
    3.1535    4.4901    3.9606 H   0  0  0  0  0  0  0  0  0  0  0  0
    1.6592    3.5848    3.6694 H   0  0  0  0  0  0  0  0  0  0  0  0
    1.9356    6.2109    2.8710 H   0  0  0  0  0  0  0  0  0  0  0  0
    0.3997    5.5093    3.3609 H   0  0  0  0  0  0  0  0  0  0  0  0
    2.3002    7.1949    4.9982 H   0  0  0  0  0  0  0  0  0  0  0  0
    0.2840    8.3069    5.6544 H   0  0  0  0  0  0  0  0  0  0  0  0
    0.2560    8.1435    3.9738 H   0  0  0  0  0  0  0  0  0  0  0  0
   -0.8234    5.1495    5.7683 H   0  0  0  0  0  0  0  0  0  0  0  0
   -0.6428    6.3510    7.0434 H   0  0  0  0  0  0  0  0  0  0  0  0
   -0.2858    4.6679    7.3699 H   0  0  0  0  0  0  0  0  0  0  0  0
    1.8701    5.6424    7.9639 H   0  0  0  0  0  0  0  0  0  0  0  0
    3.5340   -1.6589    6.8372 H   0  0  0  0  0  0  0  0  0  0  0  0
    3.9105   -1.7997    8.5305 H   0  0  0  0  0  0  0  0  0  0  0  0
    3.3861   -3.0141   10.2881 H   0  0  0  0  0  0  0  0  0  0  0  0
    2.2224   -4.1364   10.9011 H   0  0  0  0  0  0  0  0  0  0  0  0
    4.4214   -4.7743    8.8849 H   0  0  0  0  0  0  0  0  0  0  0  0
    4.3562   -5.2747   10.5583 H   0  0  0  0  0  0  0  0  0  0  0  0
    3.7035   -7.1546    9.0292 H   0  0  0  0  0  0  0  0  0  0  0  0
    2.4288   -6.7068   10.1181 H   0  0  0  0  0  0  0  0  0  0  0  0
    0.5233   -5.2363    9.2981 H   0  0  0  0  0  0  0  0  0  0  0  0
    0.3053   -4.7648    7.6489 H   0  0  0  0  0  0  0  0  0  0  0  0
   -0.6576   -5.8550    4.6374 H   0  0  0  0  0  0  0  0  0  0  0  0
   -1.4545   -8.2054    5.0625 H   0  0  0  0  0  0  0  0  0  0  0  0
   -1.5984   -7.8005    3.3788 H   0  0  0  0  0  0  0  0  0  0  0  0
   -0.5730  -10.0438    3.6763 H   0  0  0  0  0  0  0  0  0  0  0  0
    1.4180   -9.6978    2.2259 H   0  0  0  0  0  0  0  0  0  0  0  0
    0.0929   -8.6910    1.6946 H   0  0  0  0  0  0  0  0  0  0  0  0
    2.2030   -7.3820    1.8032 H   0  0  0  0  0  0  0  0  0  0  0  0
    0.0516   -6.2203    2.2677 H   0  0  0  0  0  0  0  0  0  0  0  0
    1.3488   -5.4878    3.1749 H   0  0  0  0  0  0  0  0  0  0  0  0
    3.3192   -8.6633    3.6222 H   0  0  0  0  0  0  0  0  0  0  0  0
    3.3018   -6.9572    3.9915 H   0  0  0  0  0  0  0  0  0  0  0  0
    2.6678   -8.3314    5.9995 H   0  0  0  0  0  0  0  0  0  0  0  0
    0.4666   -9.6170    5.8901 H   0  0  0  0  0  0  0  0  0  0  0  0
    1.6429  -10.2539    4.7727 H   0  0  0  0  0  0  0  0  0  0  0  0
  1  2  1  0
  1 40  1  0
  1 41  1  0
  1 42  1  0
  2  3  1  0
  2 14  2  3
  3  4  2  3
  3 43  1  0
  4  5  1  0
  4 44  1  0
  5  6  2  3
  5 45  1  0
  6 11  1  0
  6  7  1  0
  7  8  1  0
  7 46  1  0
  7 47  1  0
  8  9  1  0
  8 48  1  0
  8 49  1  0
  9 10  1  0
  9 11  1  0
  9 50  1  1
 10 51  1  0
 10 52  1  0
 11 12  1  0
 11 13  1  1
 12 53  1  0
 12 54  1  0
 12 55  1  0
 13 56  1  0
 14 39  1  0
 14 15  1  0
 15 16  1  0
 15 57  1  0
 15 58  1  0
 17 16  1  6
 17 22  1  0
 17 18  1  0
 17 37  1  0
 18 19  1  0
 18 59  1  0
 18 60  1  0
 19 20  1  0
 19 61  1  0
 19 62  1  0
 20 21  1  0
 20 63  1  0
 20 64  1  0
 21 27  1  6
 21 22  1  0
 21 23  1  0
 22 65  1  0
 22 66  1  0
 23 24  1  0
 24 25  1  0
 25 35  1  0
 25 26  1  0
 25 28  1  0
 26 27  1  0
 28 33  1  0
 28 29  1  0
 28 67  1  1
 29 30  1  0
 29 68  1  0
 29 69  1  0
 30 36  1  0
 30 31  1  0
 30 70  1  6
 31 32  1  0
 31 71  1  0
 31 72  1  0
 32 33  1  0
 32 34  1  0
 32 73  1  6
 33 74  1  0
 33 75  1  0
 34 35  1  0
 34 76  1  0
 34 77  1  0
 35 36  1  0
 35 78  1  1
 36 79  1  0
 36 80  1  0
 37 38  2  0
 37 39  1  0
M  END
>  <i_m_ct_stereo_status>  (395) 
1

>  <s_m_source_file>  (395) 
/var/tmp/pbs.5076255.sched01/tmpybatibx8/138x0dlab3k.sdf

>  <i_m_source_file_index>  (395) 
32

>  <i_lp_mmshare_version>  (395) 
48012

>  <i_f3d_flags>  (395) 
0

>  <s_epik_input>  (395) 
W05IMl1bQ0BASF0xW0NIMl1bQ0gyXS9DKFtDQEBdMShbQ0gzXSlbT0hdKT1bQ0hdXFtDSF09W0NIXVxDKFxbQ0gzXSk9QyhPQzI9TykvW0NIMl1PW0NAQF0yM1tDSDJdW0NIMl1bQ0gyXUM0KFtDSDJdMylPT1tDQEBdNShPTzQpW0NASF02W0NIMl1bQ0BASF03W0NIMl1bQ0BIXShbQ0gyXTYpW0NIMl1bQ0BIXTVbQ0gyXTc=

>  <s_epik_cmdline>  (395) 
J2VwaWtfcHl0aG9uJywgJy1waHQnLCAnMi4wJywgJy1waCcsICc3LjAnLCAnLXRuJywgJzgnLCAnLW1hJywgJzIwMCcsICctaW1hZScsICc8aW5maWxlLm1hZT4nLCAnLW9tYWUnLCAnPG91dGZpbGUubWFlPic=

>  <r_epik_Ionization_Penalty>  (395) 
1.93298

>  <r_epik_Ionization_Penalty_Charging>  (395) 
0

>  <r_epik_Ionization_Penalty_Neutral>  (395) 
1.93298

>  <r_epik_State_Penalty>  (395) 
2.05666

>  <r_epik_Charging_Adjusted_Penalty>  (395) 
2.05666

>  <i_epik_Tot_Q>  (395) 
0

>  <i_epik_Tot_abs_Q>  (395) 
0

>  <s_lp_Force_Field>  (395) 
OPLS3e

>  <r_lp_Energy>  (395) 
16.8872

>  <b_lp_Chiralities_Consistent>  (395) 
1

>  <s_lp_Variant>  (395) 
110:0-11

>  <s_i_glide_gridfile>  (395) 
pfpi4k_grid

>  <i_i_glide_lignum>  (395) 
32

>  <i_i_glide_rotatable_bonds>  (395) 
3

>  <r_i_docking_score>  (395) 
-2.46438

>  <r_i_glide_ligand_efficiency>  (395) 
-0.0631891

>  <r_i_glide_ligand_efficiency_sa>  (395) 
-0.214288

>  <r_i_glide_ligand_efficiency_ln>  (395) 
-0.528432

>  <r_i_glide_gscore>  (395) 
-2.46438

>  <r_i_glide_lipo>  (395) 
0

>  <r_i_glide_hbond>  (395) 
-0.421682

>  <r_i_glide_metal>  (395) 
-0

>  <r_i_glide_rewards>  (395) 
0

>  <r_i_glide_evdw>  (395) 
-22.5754

>  <r_i_glide_ecoul>  (395) 
-6.82536

>  <r_i_glide_erotb>  (395) 
0.140033

>  <r_i_glide_esite>  (395) 
-0.0301523

>  <r_i_glide_emodel>  (395) 
-31.423

>  <r_i_glide_energy>  (395) 
-29.4007

>  <r_i_glide_einternal>  (395) 
4.22092

>  <r_i_glide_intrahb_reward>  (395) 
-0

>  <i_i_glide_confnum>  (395) 
3

>  <i_i_glide_posenum>  (395) 
25

>  <r_i_glide_eff_state_penalty>  (395) 
0

>  <ligand_id>  (395) 
110

>  <original_smiles>  (395) 
CC(C=CC=C1CCC(N)C1(C)O)=C1COC2(CCCC3(C2)OOC2(OO3)C3CC4CC(C3)CC2C4)C(=O)O1

>  <smiles>  (395) 
[H]OC1(C([H])([H])[H])C(=C([H])C([H])=C([H])C(=C2OC(=O)C3(OC2([H])[H])C([H])([H])C([H])([H])C([H])([H])C2(OOC4(OO2)C2([H])C([H])([H])C5([H])C([H])([H])C([H])(C2([H])[H])C([H])([H])C4([H])C5([H])[H])C3([H])[H])C([H])([H])[H])C([H])([H])C([H])([H])C1([H])N([H])[H]

$$$$
110:10:1
     RDKit          3D

 80 86  0  0  1  0  0  0  0  0999 V2000
   -2.7384    2.8017    4.2641 C   0  0  0  0  0  0  0  0  0  0  0  0
   -1.2514    3.0157    4.0690 C   0  0  0  0  0  0  0  0  0  0  0  0
   -0.7515    4.1834    3.3335 C   0  0  0  0  0  0  0  0  0  0  0  0
   -1.4255    5.1100    2.6239 C   0  0  0  0  0  0  0  0  0  0  0  0
   -2.8508    5.2177    2.3330 C   0  0  0  0  0  0  0  0  0  0  0  0
   -3.4002    6.2457    1.6541 C   0  0  0  0  0  0  0  0  0  0  0  0
   -2.6451    7.4291    1.1275 C   0  0  0  0  0  0  0  0  0  0  0  0
   -3.6458    8.2363    0.3072 C   0  0  0  0  0  0  0  0  0  0  0  0
   -5.0260    7.8411    0.8287 C   0  0  1  0  0  0  0  0  0  0  0  0
   -6.0575    7.9990   -0.1954 N   0  0  0  0  0  0  0  0  0  0  0  0
   -4.8615    6.3717    1.2828 C   0  0  1  0  0  0  0  0  0  0  0  0
   -5.2635    5.3667    0.2415 C   0  0  0  0  0  0  0  0  0  0  0  0
   -5.6760    6.1000    2.3858 O   0  0  0  0  0  0  0  0  0  0  0  0
   -0.4071    2.1068    4.6064 C   0  0  0  0  0  0  0  0  0  0  0  0
    1.1198    2.0874    4.6256 C   0  0  0  0  0  0  0  0  0  0  0  0
    1.6403    0.8044    4.2919 O   0  0  0  0  0  0  0  0  0  0  0  0
    1.1015   -0.2852    5.0294 C   0  0  2  0  0  0  0  0  0  0  0  0
    1.6706   -0.2355    6.4758 C   0  0  0  0  0  0  0  0  0  0  0  0
    3.1947   -0.4458    6.5087 C   0  0  0  0  0  0  0  0  0  0  0  0
    3.6451   -1.7368    5.7835 C   0  0  0  0  0  0  0  0  0  0  0  0
    3.1150   -1.8261    4.3334 C   0  0  1  0  0  0  0  0  0  0  0  0
    1.5796   -1.6016    4.3185 C   0  0  0  0  0  0  0  0  0  0  0  0
    3.8056   -0.8849    3.5193 O   0  0  0  0  0  0  0  0  0  0  0  0
    3.2952   -1.0196    2.1063 O   0  0  0  0  0  0  0  0  0  0  0  0
    3.6137   -2.3241    1.6196 C   0  0  0  0  0  0  0  0  0  0  0  0
    2.9315   -3.2799    2.4340 O   0  0  0  0  0  0  0  0  0  0  0  0
    3.4092   -3.1409    3.8653 O   0  0  0  0  0  0  0  0  0  0  0  0
    3.1024   -2.4599    0.1556 C   0  0  2  0  0  0  0  0  0  0  0  0
    3.3787   -3.8583   -0.4396 C   0  0  0  0  0  0  0  0  0  0  0  0
    4.8966   -4.1015   -0.4624 C   0  0  1  0  0  0  0  0  0  0  0  0
    5.5751   -3.0528   -1.3698 C   0  0  0  0  0  0  0  0  0  0  0  0
    5.2928   -1.6502   -0.8001 C   0  0  1  0  0  0  0  0  0  0  0  0
    3.7759   -1.4139   -0.7714 C   0  0  0  0  0  0  0  0  0  0  0  0
    5.8394   -1.5378    0.6429 C   0  0  0  0  0  0  0  0  0  0  0  0
    5.1557   -2.5762    1.5818 C   0  0  2  0  0  0  0  0  0  0  0  0
    5.4286   -3.9905    0.9864 C   0  0  0  0  0  0  0  0  0  0  0  0
   -0.4478   -0.2154    5.0409 C   0  0  0  0  0  0  0  0  0  0  0  0
   -1.1664   -1.2198    5.0265 O   0  0  0  0  0  0  0  0  0  0  0  0
   -0.9807    1.0100    5.2115 O   0  0  0  0  0  0  0  0  0  0  0  0
   -3.2560    3.7237    4.4513 H   0  0  0  0  0  0  0  0  0  0  0  0
   -2.9220    2.2077    5.1618 H   0  0  0  0  0  0  0  0  0  0  0  0
   -3.1753    2.2879    3.3995 H   0  0  0  0  0  0  0  0  0  0  0  0
    0.3121    4.3616    3.3074 H   0  0  0  0  0  0  0  0  0  0  0  0
   -0.7798    5.8409    2.1689 H   0  0  0  0  0  0  0  0  0  0  0  0
   -3.5190    4.3936    2.4854 H   0  0  0  0  0  0  0  0  0  0  0  0
   -2.2836    8.0187    1.9686 H   0  0  0  0  0  0  0  0  0  0  0  0
   -1.7871    7.1402    0.5229 H   0  0  0  0  0  0  0  0  0  0  0  0
   -3.4602    9.3106    0.3800 H   0  0  0  0  0  0  0  0  0  0  0  0
   -3.5298    7.9499   -0.7406 H   0  0  0  0  0  0  0  0  0  0  0  0
   -5.2470    8.4543    1.6995 H   0  0  0  0  0  0  0  0  0  0  0  0
   -6.9631    7.7018    0.1618 H   0  0  0  0  0  0  0  0  0  0  0  0
   -6.1279    8.9595   -0.5404 H   0  0  0  0  0  0  0  0  0  0  0  0
   -4.7315    5.5995   -0.6845 H   0  0  0  0  0  0  0  0  0  0  0  0
   -6.3355    5.3544    0.0422 H   0  0  0  0  0  0  0  0  0  0  0  0
   -4.9803    4.3533    0.5717 H   0  0  0  0  0  0  0  0  0  0  0  0
   -6.4236    5.5988    2.0937 H   0  0  0  0  0  0  0  0  0  0  0  0
    1.5508    2.7551    3.8911 H   0  0  0  0  0  0  0  0  0  0  0  0
    1.4631    2.4297    5.6093 H   0  0  0  0  0  0  0  0  0  0  0  0
    1.4238    0.7040    6.9911 H   0  0  0  0  0  0  0  0  0  0  0  0
    1.1935   -1.0090    7.0774 H   0  0  0  0  0  0  0  0  0  0  0  0
    3.6907    0.4059    6.0406 H   0  0  0  0  0  0  0  0  0  0  0  0
    3.5326   -0.4719    7.5433 H   0  0  0  0  0  0  0  0  0  0  0  0
    4.7300   -1.8424    5.8186 H   0  0  0  0  0  0  0  0  0  0  0  0
    3.2551   -2.5857    6.3495 H   0  0  0  0  0  0  0  0  0  0  0  0
    1.1663   -2.4150    4.9083 H   0  0  0  0  0  0  0  0  0  0  0  0
    1.1422   -1.7215    3.3223 H   0  0  0  0  0  0  0  0  0  0  0  0
    2.0331   -2.3116    0.1632 H   0  0  0  0  0  0  0  0  0  0  0  0
    2.8760   -4.6306    0.1422 H   0  0  0  0  0  0  0  0  0  0  0  0
    2.9683   -3.9312   -1.4481 H   0  0  0  0  0  0  0  0  0  0  0  0
    5.0917   -5.0981   -0.8654 H   0  0  0  0  0  0  0  0  0  0  0  0
    6.6491   -3.2300   -1.4289 H   0  0  0  0  0  0  0  0  0  0  0  0
    5.1929   -3.1322   -2.3918 H   0  0  0  0  0  0  0  0  0  0  0  0
    5.7595   -0.8968   -1.4383 H   0  0  0  0  0  0  0  0  0  0  0  0
    3.3555   -1.4550   -1.7792 H   0  0  0  0  0  0  0  0  0  0  0  0
    3.5700   -0.4154   -0.3947 H   0  0  0  0  0  0  0  0  0  0  0  0
    6.9181   -1.6873    0.6371 H   0  0  0  0  0  0  0  0  0  0  0  0
    5.6660   -0.5297    1.0192 H   0  0  0  0  0  0  0  0  0  0  0  0
    5.5980   -2.5015    2.5830 H   0  0  0  0  0  0  0  0  0  0  0  0
    4.9433   -4.7536    1.5962 H   0  0  0  0  0  0  0  0  0  0  0  0
    6.4933   -4.2134    0.9968 H   0  0  0  0  0  0  0  0  0  0  0  0
  1  2  1  0
  1 40  1  0
  1 41  1  0
  1 42  1  0
  2  3  1  0
  2 14  2  3
  3  4  2  3
  3 43  1  0
  4  5  1  0
  4 44  1  0
  5  6  2  3
  5 45  1  0
  6 11  1  0
  6  7  1  0
  7  8  1  0
  7 46  1  0
  7 47  1  0
  8  9  1  0
  8 48  1  0
  8 49  1  0
  9 10  1  0
  9 11  1  0
  9 50  1  1
 10 51  1  0
 10 52  1  0
 11 12  1  0
 11 13  1  1
 12 53  1  0
 12 54  1  0
 12 55  1  0
 13 56  1  0
 14 39  1  0
 14 15  1  0
 15 16  1  0
 15 57  1  0
 15 58  1  0
 17 16  1  6
 17 22  1  0
 17 18  1  0
 17 37  1  0
 18 19  1  0
 18 59  1  0
 18 60  1  0
 19 20  1  0
 19 61  1  0
 19 62  1  0
 20 21  1  0
 20 63  1  0
 20 64  1  0
 21 27  1  6
 21 22  1  0
 21 23  1  0
 22 65  1  0
 22 66  1  0
 23 24  1  0
 24 25  1  0
 25 35  1  0
 25 26  1  0
 25 28  1  0
 26 27  1  0
 28 33  1  0
 28 29  1  0
 28 67  1  1
 29 30  1  0
 29 68  1  0
 29 69  1  0
 30 36  1  0
 30 31  1  0
 30 70  1  6
 31 32  1  0
 31 71  1  0
 31 72  1  0
 32 33  1  0
 32 34  1  0
 32 73  1  6
 33 74  1  0
 33 75  1  0
 34 35  1  0
 34 76  1  0
 34 77  1  0
 35 36  1  0
 35 78  1  1
 36 79  1  0
 36 80  1  0
 37 38  2  0
 37 39  1  0
M  END
>  <i_m_ct_stereo_status>  (396) 
1

>  <s_m_source_file>  (396) 
/var/tmp/pbs.5076255.sched01/tmpybatibx8/138x0dlab3k.sdf

>  <i_m_source_file_index>  (396) 
32

>  <i_lp_mmshare_version>  (396) 
48012

>  <i_f3d_flags>  (396) 
0

>  <s_epik_input>  (396) 
W05IMl1bQ0BASF0xW0NIMl1bQ0gyXS9DKFtDQEBdMShbQ0gzXSlbT0hdKT1bQ0hdXFtDSF09W0NIXVxDKFxbQ0gzXSk9QyhPQzI9TykvW0NIMl1PW0NAQF0yM1tDSDJdW0NIMl1bQ0gyXUM0KFtDSDJdMylPT1tDQEBdNShPTzQpW0NASF02W0NIMl1bQ0BASF03W0NIMl1bQ0BIXShbQ0gyXTYpW0NIMl1bQ0BIXTVbQ0gyXTc=

>  <s_epik_cmdline>  (396) 
J2VwaWtfcHl0aG9uJywgJy1waHQnLCAnMi4wJywgJy1waCcsICc3LjAnLCAnLXRuJywgJzgnLCAnLW1hJywgJzIwMCcsICctaW1hZScsICc8aW5maWxlLm1hZT4nLCAnLW9tYWUnLCAnPG91dGZpbGUubWFlPic=

>  <r_epik_Ionization_Penalty>  (396) 
1.93298

>  <r_epik_Ionization_Penalty_Charging>  (396) 
0

>  <r_epik_Ionization_Penalty_Neutral>  (396) 
1.93298

>  <r_epik_State_Penalty>  (396) 
2.05666

>  <r_epik_Charging_Adjusted_Penalty>  (396) 
2.05666

>  <i_epik_Tot_Q>  (396) 
0

>  <i_epik_Tot_abs_Q>  (396) 
0

>  <s_lp_Force_Field>  (396) 
OPLS3e

>  <r_lp_Energy>  (396) 
16.8872

>  <b_lp_Chiralities_Consistent>  (396) 
1

>  <s_lp_Variant>  (396) 
110:0-11

>  <s_i_glide_gridfile>  (396) 
pfpi4k_grid

>  <i_i_glide_lignum>  (396) 
32

>  <i_i_glide_rotatable_bonds>  (396) 
3

>  <r_i_docking_score>  (396) 
-2.45094

>  <r_i_glide_ligand_efficiency>  (396) 
-0.0628445

>  <r_i_glide_ligand_efficiency_sa>  (396) 
-0.213119

>  <r_i_glide_ligand_efficiency_ln>  (396) 
-0.52555

>  <r_i_glide_gscore>  (396) 
-2.45094

>  <r_i_glide_lipo>  (396) 
-0.922668

>  <r_i_glide_hbond>  (396) 
0

>  <r_i_glide_metal>  (396) 
-0

>  <r_i_glide_rewards>  (396) 
-1.39054e-08

>  <r_i_glide_evdw>  (396) 
-21.814

>  <r_i_glide_ecoul>  (396) 
-3.66793

>  <r_i_glide_erotb>  (396) 
0.140033

>  <r_i_glide_esite>  (396) 
-0.0274131

>  <r_i_glide_emodel>  (396) 
-28.7936

>  <r_i_glide_energy>  (396) 
-25.4819

>  <r_i_glide_einternal>  (396) 
0.821716

>  <r_i_glide_intrahb_reward>  (396) 
-0

>  <i_i_glide_confnum>  (396) 
3

>  <i_i_glide_posenum>  (396) 
39

>  <r_i_glide_eff_state_penalty>  (396) 
0

>  <ligand_id>  (396) 
110

>  <original_smiles>  (396) 
CC(C=CC=C1CCC(N)C1(C)O)=C1COC2(CCCC3(C2)OOC2(OO3)C3CC4CC(C3)CC2C4)C(=O)O1

>  <smiles>  (396) 
[H]OC1(C([H])([H])[H])C(=C([H])C([H])=C([H])C(=C2OC(=O)C3(OC2([H])[H])C([H])([H])C([H])([H])C([H])([H])C2(OOC4(OO2)C2([H])C([H])([H])C5([H])C([H])([H])C([H])(C2([H])[H])C([H])([H])C4([H])C5([H])[H])C3([H])[H])C([H])([H])[H])C([H])([H])C([H])([H])C1([H])N([H])[H]

$$$$
110:10:2
     RDKit          3D

 80 86  0  0  1  0  0  0  0  0999 V2000
    0.2962    0.6824    8.2950 C   0  0  0  0  0  0  0  0  0  0  0  0
    1.5273   -0.0651    7.7492 C   0  0  0  0  0  0  0  0  0  0  0  0
    2.3367    0.4048    6.6236 C   0  0  0  0  0  0  0  0  0  0  0  0
    2.4838    1.6335    6.0913 C   0  0  0  0  0  0  0  0  0  0  0  0
    1.9161    2.9058    6.5312 C   0  0  0  0  0  0  0  0  0  0  0  0
    1.7597    3.9666    5.7388 C   0  0  0  0  0  0  0  0  0  0  0  0
    2.2271    4.0910    4.3040 C   0  0  0  0  0  0  0  0  0  0  0  0
    1.6582    5.4217    3.8085 C   0  0  0  0  0  0  0  0  0  0  0  0
    1.3996    6.2737    5.0681 C   0  0  1  0  0  0  0  0  0  0  0  0
    0.3361    7.2818    4.8760 N   0  0  0  0  0  0  0  0  0  0  0  0
    1.0808    5.2533    6.1830 C   0  0  1  0  0  0  0  0  0  0  0  0
   -0.4252    4.9922    6.3932 C   0  0  0  0  0  0  0  0  0  0  0  0
    1.6243    5.6833    7.4145 O   0  0  0  0  0  0  0  0  0  0  0  0
    1.7746   -1.3111    8.2721 C   0  0  0  0  0  0  0  0  0  0  0  0
    2.8886   -2.3214    7.9347 C   0  0  0  0  0  0  0  0  0  0  0  0
    2.3932   -3.6589    7.8009 O   0  0  0  0  0  0  0  0  0  0  0  0
    1.5909   -4.1088    8.8896 C   0  0  2  0  0  0  0  0  0  0  0  0
    2.5121   -4.3654   10.1221 C   0  0  0  0  0  0  0  0  0  0  0  0
    3.5097   -5.5100    9.8617 C   0  0  0  0  0  0  0  0  0  0  0  0
    2.8259   -6.8152    9.3987 C   0  0  0  0  0  0  0  0  0  0  0  0
    1.9089   -6.6104    8.1663 C   0  0  1  0  0  0  0  0  0  0  0  0
    0.9167   -5.4442    8.4380 C   0  0  0  0  0  0  0  0  0  0  0  0
    2.7102   -6.3785    7.0141 O   0  0  0  0  0  0  0  0  0  0  0  0
    1.7842   -6.2051    5.8319 O   0  0  0  0  0  0  0  0  0  0  0  0
    1.0640   -7.4273    5.6249 C   0  0  0  0  0  0  0  0  0  0  0  0
    0.2581   -7.6878    6.7829 O   0  0  0  0  0  0  0  0  0  0  0  0
    1.1692   -7.8202    7.9925 O   0  0  0  0  0  0  0  0  0  0  0  0
    0.1264   -7.2469    4.3806 C   0  0  2  0  0  0  0  0  0  0  0  0
   -0.6906   -8.5367    4.1055 C   0  0  0  0  0  0  0  0  0  0  0  0
    0.2723   -9.7039    3.8142 C   0  0  1  0  0  0  0  0  0  0  0  0
    1.0987   -9.3860    2.5541 C   0  0  0  0  0  0  0  0  0  0  0  0
    1.9114   -8.1054    2.8084 C   0  0  1  0  0  0  0  0  0  0  0  0
    0.9508   -6.9332    3.1017 C   0  0  0  0  0  0  0  0  0  0  0  0
    2.8498   -8.3159    4.0181 C   0  0  0  0  0  0  0  0  0  0  0  0
    2.0367   -8.6223    5.3087 C   0  0  2  0  0  0  0  0  0  0  0  0
    1.1982   -9.9041    5.0352 C   0  0  0  0  0  0  0  0  0  0  0  0
    0.4965   -3.0478    9.2354 C   0  0  0  0  0  0  0  0  0  0  0  0
   -0.6488   -3.3551    9.5780 O   0  0  0  0  0  0  0  0  0  0  0  0
    0.8908   -1.7511    9.2113 O   0  0  0  0  0  0  0  0  0  0  0  0
    0.4267    1.7536    8.3911 H   0  0  0  0  0  0  0  0  0  0  0  0
    0.0324    0.3540    9.3076 H   0  0  0  0  0  0  0  0  0  0  0  0
   -0.5583    0.5023    7.6411 H   0  0  0  0  0  0  0  0  0  0  0  0
    2.8942   -0.3319    6.0589 H   0  0  0  0  0  0  0  0  0  0  0  0
    3.1041    1.6684    5.2123 H   0  0  0  0  0  0  0  0  0  0  0  0
    1.6422    3.0637    7.5565 H   0  0  0  0  0  0  0  0  0  0  0  0
    3.3225    4.1026    4.2931 H   0  0  0  0  0  0  0  0  0  0  0  0
    1.8843    3.2461    3.7023 H   0  0  0  0  0  0  0  0  0  0  0  0
    2.3276    5.9097    3.0975 H   0  0  0  0  0  0  0  0  0  0  0  0
    0.7171    5.2111    3.2975 H   0  0  0  0  0  0  0  0  0  0  0  0
    2.3376    6.7704    5.3163 H   0  0  0  0  0  0  0  0  0  0  0  0
    0.2383    7.8681    5.7112 H   0  0  0  0  0  0  0  0  0  0  0  0
    0.5157    7.8611    4.0452 H   0  0  0  0  0  0  0  0  0  0  0  0
   -0.9052    4.7488    5.4459 H   0  0  0  0  0  0  0  0  0  0  0  0
   -0.9153    5.8734    6.8021 H   0  0  0  0  0  0  0  0  0  0  0  0
   -0.6356    4.1755    7.0854 H   0  0  0  0  0  0  0  0  0  0  0  0
    2.5482    5.8466    7.3021 H   0  0  0  0  0  0  0  0  0  0  0  0
    3.3774   -2.1178    6.9917 H   0  0  0  0  0  0  0  0  0  0  0  0
    3.6597   -2.2460    8.7138 H   0  0  0  0  0  0  0  0  0  0  0  0
    3.0643   -3.4710   10.4384 H   0  0  0  0  0  0  0  0  0  0  0  0
    1.8961   -4.6214   10.9850 H   0  0  0  0  0  0  0  0  0  0  0  0
    4.2277   -5.2033    9.1028 H   0  0  0  0  0  0  0  0  0  0  0  0
    4.0756   -5.7037   10.7717 H   0  0  0  0  0  0  0  0  0  0  0  0
    3.5642   -7.6021    9.2119 H   0  0  0  0  0  0  0  0  0  0  0  0
    2.2157   -7.1865   10.2237 H   0  0  0  0  0  0  0  0  0  0  0  0
    0.3223   -5.7655    9.2872 H   0  0  0  0  0  0  0  0  0  0  0  0
    0.1900   -5.3042    7.6263 H   0  0  0  0  0  0  0  0  0  0  0  0
   -0.5655   -6.4275    4.5692 H   0  0  0  0  0  0  0  0  0  0  0  0
   -1.3234   -8.7827    4.9576 H   0  0  0  0  0  0  0  0  0  0  0  0
   -1.3723   -8.3991    3.2643 H   0  0  0  0  0  0  0  0  0  0  0  0
   -0.3011  -10.6147    3.6338 H   0  0  0  0  0  0  0  0  0  0  0  0
    1.7566  -10.2198    2.3013 H   0  0  0  0  0  0  0  0  0  0  0  0
    0.4414   -9.2453    1.6933 H   0  0  0  0  0  0  0  0  0  0  0  0
    2.4977   -7.8850    1.9152 H   0  0  0  0  0  0  0  0  0  0  0  0
    0.2881   -6.7712    2.2484 H   0  0  0  0  0  0  0  0  0  0  0  0
    1.5151   -6.0089    3.2249 H   0  0  0  0  0  0  0  0  0  0  0  0
    3.5394   -9.1320    3.8002 H   0  0  0  0  0  0  0  0  0  0  0  0
    3.4567   -7.4243    4.1617 H   0  0  0  0  0  0  0  0  0  0  0  0
    2.7423   -8.8128    6.1346 H   0  0  0  0  0  0  0  0  0  0  0  0
    0.5850  -10.1566    5.9007 H   0  0  0  0  0  0  0  0  0  0  0  0
    1.8423  -10.7639    4.8570 H   0  0  0  0  0  0  0  0  0  0  0  0
  1  2  1  0
  1 40  1  0
  1 41  1  0
  1 42  1  0
  2  3  1  0
  2 14  2  3
  3  4  2  3
  3 43  1  0
  4  5  1  0
  4 44  1  0
  5  6  2  3
  5 45  1  0
  6 11  1  0
  6  7  1  0
  7  8  1  0
  7 46  1  0
  7 47  1  0
  8  9  1  0
  8 48  1  0
  8 49  1  0
  9 10  1  0
  9 11  1  0
  9 50  1  1
 10 51  1  0
 10 52  1  0
 11 12  1  0
 11 13  1  1
 12 53  1  0
 12 54  1  0
 12 55  1  0
 13 56  1  0
 14 39  1  0
 14 15  1  0
 15 16  1  0
 15 57  1  0
 15 58  1  0
 17 16  1  6
 17 22  1  0
 17 18  1  0
 17 37  1  0
 18 19  1  0
 18 59  1  0
 18 60  1  0
 19 20  1  0
 19 61  1  0
 19 62  1  0
 20 21  1  0
 20 63  1  0
 20 64  1  0
 21 27  1  6
 21 22  1  0
 21 23  1  0
 22 65  1  0
 22 66  1  0
 23 24  1  0
 24 25  1  0
 25 35  1  0
 25 26  1  0
 25 28  1  0
 26 27  1  0
 28 33  1  0
 28 29  1  0
 28 67  1  1
 29 30  1  0
 29 68  1  0
 29 69  1  0
 30 36  1  0
 30 31  1  0
 30 70  1  6
 31 32  1  0
 31 71  1  0
 31 72  1  0
 32 33  1  0
 32 34  1  0
 32 73  1  6
 33 74  1  0
 33 75  1  0
 34 35  1  0
 34 76  1  0
 34 77  1  0
 35 36  1  0
 35 78  1  1
 36 79  1  0
 36 80  1  0
 37 38  2  0
 37 39  1  0
M  END
>  <i_m_ct_stereo_status>  (397) 
1

>  <s_m_source_file>  (397) 
/var/tmp/pbs.5076255.sched01/tmpybatibx8/138x0dlab3k.sdf

>  <i_m_source_file_index>  (397) 
32

>  <i_lp_mmshare_version>  (397) 
48012

>  <i_f3d_flags>  (397) 
0

>  <s_epik_input>  (397) 
W05IMl1bQ0BASF0xW0NIMl1bQ0gyXS9DKFtDQEBdMShbQ0gzXSlbT0hdKT1bQ0hdXFtDSF09W0NIXVxDKFxbQ0gzXSk9QyhPQzI9TykvW0NIMl1PW0NAQF0yM1tDSDJdW0NIMl1bQ0gyXUM0KFtDSDJdMylPT1tDQEBdNShPTzQpW0NASF02W0NIMl1bQ0BASF03W0NIMl1bQ0BIXShbQ0gyXTYpW0NIMl1bQ0BIXTVbQ0gyXTc=

>  <s_epik_cmdline>  (397) 
J2VwaWtfcHl0aG9uJywgJy1waHQnLCAnMi4wJywgJy1waCcsICc3LjAnLCAnLXRuJywgJzgnLCAnLW1hJywgJzIwMCcsICctaW1hZScsICc8aW5maWxlLm1hZT4nLCAnLW9tYWUnLCAnPG91dGZpbGUubWFlPic=

>  <r_epik_Ionization_Penalty>  (397) 
1.93298

>  <r_epik_Ionization_Penalty_Charging>  (397) 
0

>  <r_epik_Ionization_Penalty_Neutral>  (397) 
1.93298

>  <r_epik_State_Penalty>  (397) 
2.05666

>  <r_epik_Charging_Adjusted_Penalty>  (397) 
2.05666

>  <i_epik_Tot_Q>  (397) 
0

>  <i_epik_Tot_abs_Q>  (397) 
0

>  <s_lp_Force_Field>  (397) 
OPLS3e

>  <r_lp_Energy>  (397) 
16.8872

>  <b_lp_Chiralities_Consistent>  (397) 
1

>  <s_lp_Variant>  (397) 
110:0-11

>  <s_i_glide_gridfile>  (397) 
pfpi4k_grid

>  <i_i_glide_lignum>  (397) 
32

>  <i_i_glide_rotatable_bonds>  (397) 
3

>  <r_i_docking_score>  (397) 
-2.20214

>  <r_i_glide_ligand_efficiency>  (397) 
-0.0564652

>  <r_i_glide_ligand_efficiency_sa>  (397) 
-0.191486

>  <r_i_glide_ligand_efficiency_ln>  (397) 
-0.472202

>  <r_i_glide_gscore>  (397) 
-2.20214

>  <r_i_glide_lipo>  (397) 
-0.067667

>  <r_i_glide_hbond>  (397) 
-0.339552

>  <r_i_glide_metal>  (397) 
-0

>  <r_i_glide_rewards>  (397) 
0

>  <r_i_glide_evdw>  (397) 
-23.1449

>  <r_i_glide_ecoul>  (397) 
-4.95536

>  <r_i_glide_erotb>  (397) 
0.140033

>  <r_i_glide_esite>  (397) 
-0.0344113

>  <r_i_glide_emodel>  (397) 
-30.054

>  <r_i_glide_energy>  (397) 
-28.1002

>  <r_i_glide_einternal>  (397) 
3.26618

>  <r_i_glide_intrahb_reward>  (397) 
-0

>  <i_i_glide_confnum>  (397) 
3

>  <i_i_glide_posenum>  (397) 
1

>  <r_i_glide_eff_state_penalty>  (397) 
0

>  <ligand_id>  (397) 
110

>  <original_smiles>  (397) 
CC(C=CC=C1CCC(N)C1(C)O)=C1COC2(CCCC3(C2)OOC2(OO3)C3CC4CC(C3)CC2C4)C(=O)O1

>  <smiles>  (397) 
[H]OC1(C([H])([H])[H])C(=C([H])C([H])=C([H])C(=C2OC(=O)C3(OC2([H])[H])C([H])([H])C([H])([H])C([H])([H])C2(OOC4(OO2)C2([H])C([H])([H])C5([H])C([H])([H])C([H])(C2([H])[H])C([H])([H])C4([H])C5([H])[H])C3([H])[H])C([H])([H])[H])C([H])([H])C([H])([H])C1([H])N([H])[H]

$$$$
110:12:0
     RDKit          3D

 80 86  0  0  1  0  0  0  0  0999 V2000
    2.9274   -1.9197    6.9277 C   0  0  0  0  0  0  0  0  0  0  0  0
    2.9812   -0.7917    5.8976 C   0  0  0  0  0  0  0  0  0  0  0  0
    4.1243   -0.7997    4.9858 C   0  0  0  0  0  0  0  0  0  0  0  0
    3.9698   -0.9051    3.6566 C   0  0  0  0  0  0  0  0  0  0  0  0
    5.0820   -0.8701    2.7258 C   0  0  0  0  0  0  0  0  0  0  0  0
    4.9784   -1.1003    1.3919 C   0  0  0  0  0  0  0  0  0  0  0  0
    6.1647   -1.0732    0.4541 C   0  0  0  0  0  0  0  0  0  0  0  0
    5.6573   -1.6198   -0.8852 C   0  0  0  0  0  0  0  0  0  0  0  0
    4.1477   -1.3624   -0.8867 C   0  0  1  0  0  0  0  0  0  0  0  0
    3.4233   -2.2983   -1.7768 N   0  0  0  0  0  0  0  0  0  0  0  0
    3.7172   -1.4448    0.6116 C   0  0  1  0  0  0  0  0  0  0  0  0
    3.2098   -2.8445    1.0150 C   0  0  0  0  0  0  0  0  0  0  0  0
    2.6988   -0.4988    0.8801 O   0  0  0  0  0  0  0  0  0  0  0  0
    2.0083    0.0678    5.7719 C   0  0  0  0  0  0  0  0  0  0  0  0
    1.9850    1.2787    4.8314 C   0  0  0  0  0  0  0  0  0  0  0  0
    0.6953    1.4291    4.2459 O   0  0  0  0  0  0  0  0  0  0  0  0
   -0.3918    1.5227    5.1994 C   0  0  2  0  0  0  0  0  0  0  0  0
   -1.6980    1.5443    4.3746 C   0  0  0  0  0  0  0  0  0  0  0  0
   -1.8720    2.8271    3.5369 C   0  0  0  0  0  0  0  0  0  0  0  0
   -1.6947    4.0857    4.3830 C   0  0  0  0  0  0  0  0  0  0  0  0
   -0.3476    4.1001    5.1233 C   0  0  2  0  0  0  0  0  0  0  0  0
   -0.2343    2.8367    6.0214 C   0  0  0  0  0  0  0  0  0  0  0  0
   -0.2582    5.2757    5.9479 O   0  0  0  0  0  0  0  0  0  0  0  0
    1.0852    5.2730    6.6389 O   0  0  0  0  0  0  0  0  0  0  0  0
    2.1236    5.3454    5.6357 C   0  0  0  0  0  0  0  0  0  0  0  0
    2.0056    4.1959    4.7778 O   0  0  0  0  0  0  0  0  0  0  0  0
    0.6747    4.2324    4.1215 O   0  0  0  0  0  0  0  0  0  0  0  0
    2.0595    6.6392    4.7738 C   0  0  1  0  0  0  0  0  0  0  0  0
    2.2577    7.8643    5.6818 C   0  0  0  0  0  0  0  0  0  0  0  0
    3.6467    7.8177    6.3766 C   0  0  2  0  0  0  0  0  0  0  0  0
    4.7748    7.7954    5.3244 C   0  0  0  0  0  0  0  0  0  0  0  0
    4.5944    6.5500    4.4388 C   0  0  2  0  0  0  0  0  0  0  0  0
    3.2140    6.6006    3.7485 C   0  0  0  0  0  0  0  0  0  0  0  0
    4.6694    5.2780    5.3049 C   0  0  0  0  0  0  0  0  0  0  0  0
    3.5240    5.3014    6.3472 C   0  0  1  0  0  0  0  0  0  0  0  0
    3.7313    6.5431    7.2458 C   0  0  0  0  0  0  0  0  0  0  0  0
   -0.3445    0.2742    6.1002 C   0  0  0  0  0  0  0  0  0  0  0  0
   -1.3527   -0.3335    6.4620 O   0  0  0  0  0  0  0  0  0  0  0  0
    0.8966   -0.0370    6.5893 O   0  0  0  0  0  0  0  0  0  0  0  0
    2.8602   -2.8782    6.4159 H   0  0  0  0  0  0  0  0  0  0  0  0
    2.0708   -1.8225    7.5896 H   0  0  0  0  0  0  0  0  0  0  0  0
    3.8275   -1.8986    7.5383 H   0  0  0  0  0  0  0  0  0  0  0  0
    5.1110   -0.6998    5.3955 H   0  0  0  0  0  0  0  0  0  0  0  0
    2.9623   -1.0110    3.2882 H   0  0  0  0  0  0  0  0  0  0  0  0
    6.0616   -0.6434    3.1215 H   0  0  0  0  0  0  0  0  0  0  0  0
    6.5240   -0.0521    0.3411 H   0  0  0  0  0  0  0  0  0  0  0  0
    6.9811   -1.6761    0.8425 H   0  0  0  0  0  0  0  0  0  0  0  0
    6.1520   -1.1665   -1.7450 H   0  0  0  0  0  0  0  0  0  0  0  0
    5.8599   -2.6884   -0.9294 H   0  0  0  0  0  0  0  0  0  0  0  0
    4.0176   -0.3389   -1.2463 H   0  0  0  0  0  0  0  0  0  0  0  0
    2.4209   -2.0993   -1.7437 H   0  0  0  0  0  0  0  0  0  0  0  0
    3.7328   -2.2646   -2.7470 H   0  0  0  0  0  0  0  0  0  0  0  0
    3.9700   -3.5984    0.8005 H   0  0  0  0  0  0  0  0  0  0  0  0
    2.2990   -3.1146    0.4792 H   0  0  0  0  0  0  0  0  0  0  0  0
    2.9738   -2.9203    2.0779 H   0  0  0  0  0  0  0  0  0  0  0  0
    1.9724   -0.6558    0.2716 H   0  0  0  0  0  0  0  0  0  0  0  0
    2.3016    2.0892    5.4770 H   0  0  0  0  0  0  0  0  0  0  0  0
    2.7354    1.2865    4.0266 H   0  0  0  0  0  0  0  0  0  0  0  0
   -1.7687    0.6750    3.7090 H   0  0  0  0  0  0  0  0  0  0  0  0
   -2.5764    1.4824    5.0285 H   0  0  0  0  0  0  0  0  0  0  0  0
   -1.1673    2.8297    2.7077 H   0  0  0  0  0  0  0  0  0  0  0  0
   -2.8692    2.8289    3.0801 H   0  0  0  0  0  0  0  0  0  0  0  0
   -1.7883    4.9452    3.7293 H   0  0  0  0  0  0  0  0  0  0  0  0
   -2.4983    4.1356    5.1081 H   0  0  0  0  0  0  0  0  0  0  0  0
   -1.0817    2.8399    6.6850 H   0  0  0  0  0  0  0  0  0  0  0  0
    0.6414    2.8618    6.7075 H   0  0  0  0  0  0  0  0  0  0  0  0
    1.0976    6.7178    4.2317 H   0  0  0  0  0  0  0  0  0  0  0  0
    2.1723    8.7865    5.0997 H   0  0  0  0  0  0  0  0  0  0  0  0
    1.4835    7.8937    6.4514 H   0  0  0  0  0  0  0  0  0  0  0  0
    3.7732    8.7023    7.0077 H   0  0  0  0  0  0  0  0  0  0  0  0
    4.7484    8.6974    4.7131 H   0  0  0  0  0  0  0  0  0  0  0  0
    5.7513    7.7775    5.8075 H   0  0  0  0  0  0  0  0  0  0  0  0
    5.3872    6.5491    3.6833 H   0  0  0  0  0  0  0  0  0  0  0  0
    3.1220    5.7537    3.0659 H   0  0  0  0  0  0  0  0  0  0  0  0
    3.1950    7.4984    3.1357 H   0  0  0  0  0  0  0  0  0  0  0  0
    4.6003    4.3865    4.6834 H   0  0  0  0  0  0  0  0  0  0  0  0
    5.6456    5.2185    5.7898 H   0  0  0  0  0  0  0  0  0  0  0  0
    3.6047    4.4011    6.9586 H   0  0  0  0  0  0  0  0  0  0  0  0
    4.6987    6.5006    7.7517 H   0  0  0  0  0  0  0  0  0  0  0  0
    2.9790    6.5762    8.0336 H   0  0  0  0  0  0  0  0  0  0  0  0
  1  2  1  0
  1 40  1  0
  1 41  1  0
  1 42  1  0
  2  3  1  0
  2 14  2  3
  3  4  2  3
  3 43  1  0
  4  5  1  0
  4 44  1  0
  5  6  2  3
  5 45  1  0
  6 11  1  0
  6  7  1  0
  7  8  1  0
  7 46  1  0
  7 47  1  0
  8  9  1  0
  8 48  1  0
  8 49  1  0
  9 10  1  0
  9 11  1  0
  9 50  1  6
 10 51  1  0
 10 52  1  0
 11 12  1  0
 11 13  1  6
 12 53  1  0
 12 54  1  0
 12 55  1  0
 13 56  1  0
 14 39  1  0
 14 15  1  0
 15 16  1  0
 15 57  1  0
 15 58  1  0
 17 16  1  6
 17 22  1  0
 17 18  1  0
 17 37  1  0
 18 19  1  0
 18 59  1  0
 18 60  1  0
 19 20  1  0
 19 61  1  0
 19 62  1  0
 20 21  1  0
 20 63  1  0
 20 64  1  0
 21 27  1  6
 21 22  1  0
 21 23  1  0
 22 65  1  0
 22 66  1  0
 23 24  1  0
 24 25  1  0
 25 35  1  0
 25 26  1  0
 25 28  1  0
 26 27  1  0
 28 33  1  0
 28 29  1  0
 28 67  1  6
 29 30  1  0
 29 68  1  0
 29 69  1  0
 30 36  1  0
 30 31  1  0
 30 70  1  1
 31 32  1  0
 31 71  1  0
 31 72  1  0
 32 33  1  0
 32 34  1  0
 32 73  1  6
 33 74  1  0
 33 75  1  0
 34 35  1  0
 34 76  1  0
 34 77  1  0
 35 36  1  0
 35 78  1  1
 36 79  1  0
 36 80  1  0
 37 38  2  0
 37 39  1  0
M  END
>  <i_m_ct_stereo_status>  (398) 
1

>  <s_m_source_file>  (398) 
/var/tmp/pbs.5076255.sched01/tmpybatibx8/138x0dlab3k.sdf

>  <i_m_source_file_index>  (398) 
34

>  <i_lp_mmshare_version>  (398) 
48012

>  <i_f3d_flags>  (398) 
0

>  <s_epik_input>  (398) 
W05IMl1bQ0BASF0xW0NIMl1bQ0gyXS9DKFtDQEBdMShbQ0gzXSlbT0hdKT1bQ0hdXFtDSF09W0NIXVxDKFxbQ0gzXSk9QyhPQzI9TykvW0NIMl1PW0NAQF0yM1tDSDJdW0NIMl1bQ0gyXUM0KFtDSDJdMylPT1tDQEBdNShPTzQpW0NASF02W0NIMl1bQ0BASF03W0NIMl1bQ0BIXShbQ0gyXTYpW0NIMl1bQ0BIXTVbQ0gyXTc=

>  <s_epik_cmdline>  (398) 
J2VwaWtfcHl0aG9uJywgJy1waHQnLCAnMi4wJywgJy1waCcsICc3LjAnLCAnLXRuJywgJzgnLCAnLW1hJywgJzIwMCcsICctaW1hZScsICc8aW5maWxlLm1hZT4nLCAnLW9tYWUnLCAnPG91dGZpbGUubWFlPic=

>  <r_epik_Ionization_Penalty>  (398) 
1.93298

>  <r_epik_Ionization_Penalty_Charging>  (398) 
0

>  <r_epik_Ionization_Penalty_Neutral>  (398) 
1.93298

>  <r_epik_State_Penalty>  (398) 
2.05666

>  <r_epik_Charging_Adjusted_Penalty>  (398) 
2.05666

>  <i_epik_Tot_Q>  (398) 
0

>  <i_epik_Tot_abs_Q>  (398) 
0

>  <s_lp_Force_Field>  (398) 
OPLS3e

>  <r_lp_Energy>  (398) 
17.1652

>  <b_lp_Chiralities_Consistent>  (398) 
1

>  <s_lp_Variant>  (398) 
110:0-13

>  <s_i_glide_gridfile>  (398) 
pfpi4k_grid

>  <i_i_glide_lignum>  (398) 
34

>  <i_i_glide_rotatable_bonds>  (398) 
3

>  <r_i_docking_score>  (398) 
-3.15086

>  <r_i_glide_ligand_efficiency>  (398) 
-0.0807912

>  <r_i_glide_ligand_efficiency_sa>  (398) 
-0.27398

>  <r_i_glide_ligand_efficiency_ln>  (398) 
-0.675633

>  <r_i_glide_gscore>  (398) 
-3.15086

>  <r_i_glide_lipo>  (398) 
-0.429151

>  <r_i_glide_hbond>  (398) 
-0.358386

>  <r_i_glide_metal>  (398) 
-0

>  <r_i_glide_rewards>  (398) 
0

>  <r_i_glide_evdw>  (398) 
-29.1392

>  <r_i_glide_ecoul>  (398) 
-6.61688

>  <r_i_glide_erotb>  (398) 
0.140033

>  <r_i_glide_esite>  (398) 
-0.053861

>  <r_i_glide_emodel>  (398) 
-39.6672

>  <r_i_glide_energy>  (398) 
-35.756

>  <r_i_glide_einternal>  (398) 
4.38379

>  <r_i_glide_intrahb_reward>  (398) 
-0

>  <i_i_glide_confnum>  (398) 
5

>  <i_i_glide_posenum>  (398) 
26

>  <r_i_glide_eff_state_penalty>  (398) 
0

>  <ligand_id>  (398) 
110

>  <original_smiles>  (398) 
CC(C=CC=C1CCC(N)C1(C)O)=C1COC2(CCCC3(C2)OOC2(OO3)C3CC4CC(C3)CC2C4)C(=O)O1

>  <smiles>  (398) 
[H]OC1(C([H])([H])[H])C(=C([H])C([H])=C([H])C(=C2OC(=O)C3(OC2([H])[H])C([H])([H])C([H])([H])C([H])([H])C2(OOC4(OO2)C2([H])C([H])([H])C5([H])C([H])([H])C([H])(C2([H])[H])C([H])([H])C4([H])C5([H])[H])C3([H])[H])C([H])([H])[H])C([H])([H])C([H])([H])C1([H])N([H])[H]

$$$$
110:12:1
     RDKit          3D

 80 86  0  0  1  0  0  0  0  0999 V2000
    0.5878   -4.9176    7.7780 C   0  0  0  0  0  0  0  0  0  0  0  0
    0.8460   -5.1775    6.3065 C   0  0  0  0  0  0  0  0  0  0  0  0
    0.3313   -6.3727    5.7179 C   0  0  0  0  0  0  0  0  0  0  0  0
    0.3958   -7.6206    6.2541 C   0  0  0  0  0  0  0  0  0  0  0  0
   -0.0770   -8.7982    5.5624 C   0  0  0  0  0  0  0  0  0  0  0  0
    0.6029   -9.4463    4.5744 C   0  0  0  0  0  0  0  0  0  0  0  0
    0.0889  -10.6289    3.8388 C   0  0  0  0  0  0  0  0  0  0  0  0
    0.9953  -10.9411    2.7156 C   0  0  0  0  0  0  0  0  0  0  0  0
    2.3394  -10.3391    3.0951 C   0  0  1  0  0  0  0  0  0  0  0  0
    3.1245   -9.9737    1.9058 N   0  0  0  0  0  0  0  0  0  0  0  0
    1.9517   -9.1253    3.9730 C   0  0  1  0  0  0  0  0  0  0  0  0
    1.8022   -7.8497    3.1336 C   0  0  0  0  0  0  0  0  0  0  0  0
    2.9234   -8.9980    4.9962 O   0  0  0  0  0  0  0  0  0  0  0  0
    1.4399   -4.2248    5.5532 C   0  0  0  0  0  0  0  0  0  0  0  0
    1.8136   -4.3817    4.0588 C   0  0  0  0  0  0  0  0  0  0  0  0
    1.5188   -3.1897    3.3253 O   0  0  0  0  0  0  0  0  0  0  0  0
    2.0850   -2.0045    3.8765 C   0  0  2  0  0  0  0  0  0  0  0  0
    1.5398   -0.8115    3.0655 C   0  0  0  0  0  0  0  0  0  0  0  0
    2.0856   -0.8085    1.6290 C   0  0  0  0  0  0  0  0  0  0  0  0
    3.5936   -0.8838    1.5029 C   0  0  0  0  0  0  0  0  0  0  0  0
    4.0941   -2.1606    2.2263 C   0  0  2  0  0  0  0  0  0  0  0  0
    3.6385   -2.0575    3.7533 C   0  0  0  0  0  0  0  0  0  0  0  0
    5.4919   -2.1348    2.1342 O   0  0  0  0  0  0  0  0  0  0  0  0
    5.9503   -3.3451    2.9053 O   0  0  0  0  0  0  0  0  0  0  0  0
    5.5057   -4.5323    2.2762 C   0  0  0  0  0  0  0  0  0  0  0  0
    4.0771   -4.5659    2.2144 O   0  0  0  0  0  0  0  0  0  0  0  0
    3.5798   -3.3014    1.5290 O   0  0  0  0  0  0  0  0  0  0  0  0
    6.0865   -4.6248    0.8364 C   0  0  1  0  0  0  0  0  0  0  0  0
    7.6444   -4.7284    0.8551 C   0  0  0  0  0  0  0  0  0  0  0  0
    8.1326   -5.9682    1.6468 C   0  0  2  0  0  0  0  0  0  0  0  0
    7.5954   -7.2519    1.0138 C   0  0  0  0  0  0  0  0  0  0  0  0
    6.0421   -7.1603    0.9972 C   0  0  2  0  0  0  0  0  0  0  0  0
    5.5194   -5.9112    0.2385 C   0  0  0  0  0  0  0  0  0  0  0  0
    5.5545   -7.0996    2.4356 C   0  0  0  0  0  0  0  0  0  0  0  0
    6.0807   -5.7937    3.0720 C   0  0  1  0  0  0  0  0  0  0  0  0
    7.6280   -5.9111    3.0842 C   0  0  0  0  0  0  0  0  0  0  0  0
    1.6449   -1.8798    5.4023 C   0  0  0  0  0  0  0  0  0  0  0  0
    1.2098   -0.8073    5.8533 O   0  0  0  0  0  0  0  0  0  0  0  0
    1.7813   -3.0309    6.1322 O   0  0  0  0  0  0  0  0  0  0  0  0
   -0.4919   -4.9156    7.9195 H   0  0  0  0  0  0  0  0  0  0  0  0
    0.9931   -3.9678    8.1224 H   0  0  0  0  0  0  0  0  0  0  0  0
    1.0248   -5.7145    8.3825 H   0  0  0  0  0  0  0  0  0  0  0  0
   -0.1658   -6.2619    4.7627 H   0  0  0  0  0  0  0  0  0  0  0  0
    0.8414   -7.7387    7.2302 H   0  0  0  0  0  0  0  0  0  0  0  0
   -1.0550   -9.1749    5.8417 H   0  0  0  0  0  0  0  0  0  0  0  0
    0.0363  -11.4842    4.5215 H   0  0  0  0  0  0  0  0  0  0  0  0
   -0.8971  -10.3874    3.4208 H   0  0  0  0  0  0  0  0  0  0  0  0
    1.0404  -12.0191    2.5261 H   0  0  0  0  0  0  0  0  0  0  0  0
    0.5960  -10.4674    1.8129 H   0  0  0  0  0  0  0  0  0  0  0  0
    2.8652  -11.0930    3.6903 H   0  0  0  0  0  0  0  0  0  0  0  0
    4.0069   -9.5579    2.1916 H   0  0  0  0  0  0  0  0  0  0  0  0
    3.3564  -10.7943    1.3204 H   0  0  0  0  0  0  0  0  0  0  0  0
    1.0214   -7.9581    2.3522 H   0  0  0  0  0  0  0  0  0  0  0  0
    2.7164   -7.5963    2.6615 H   0  0  0  0  0  0  0  0  0  0  0  0
    1.5766   -7.0691    3.8127 H   0  0  0  0  0  0  0  0  0  0  0  0
    2.8860   -9.7820    5.5160 H   0  0  0  0  0  0  0  0  0  0  0  0
    2.8722   -4.6542    4.0911 H   0  0  0  0  0  0  0  0  0  0  0  0
    1.2802   -5.1387    3.5110 H   0  0  0  0  0  0  0  0  0  0  0  0
    0.4473   -0.8356    3.0071 H   0  0  0  0  0  0  0  0  0  0  0  0
    1.8021    0.1440    3.5086 H   0  0  0  0  0  0  0  0  0  0  0  0
    1.6713   -1.6741    1.0986 H   0  0  0  0  0  0  0  0  0  0  0  0
    1.7394    0.0905    1.1014 H   0  0  0  0  0  0  0  0  0  0  0  0
    3.9123   -0.9281    0.4673 H   0  0  0  0  0  0  0  0  0  0  0  0
    4.0515   -0.0036    1.9410 H   0  0  0  0  0  0  0  0  0  0  0  0
    4.0096   -1.1281    4.1564 H   0  0  0  0  0  0  0  0  0  0  0  0
    4.1097   -2.8299    4.3813 H   0  0  0  0  0  0  0  0  0  0  0  0
    5.7918   -3.7807    0.2136 H   0  0  0  0  0  0  0  0  0  0  0  0
    8.0511   -4.7582   -0.1613 H   0  0  0  0  0  0  0  0  0  0  0  0
    8.0729   -3.8407    1.3321 H   0  0  0  0  0  0  0  0  0  0  0  0
    9.2259   -6.0395    1.6310 H   0  0  0  0  0  0  0  0  0  0  0  0
    8.0755   -7.3145    0.0489 H   0  0  0  0  0  0  0  0  0  0  0  0
    7.9130   -8.1504    1.5497 H   0  0  0  0  0  0  0  0  0  0  0  0
    5.6179   -8.0579    0.5428 H   0  0  0  0  0  0  0  0  0  0  0  0
    4.4163   -5.9081    0.2206 H   0  0  0  0  0  0  0  0  0  0  0  0
    5.8852   -5.9189   -0.7689 H   0  0  0  0  0  0  0  0  0  0  0  0
    4.4999   -7.0447    2.4067 H   0  0  0  0  0  0  0  0  0  0  0  0
    5.8540   -7.9941    2.9961 H   0  0  0  0  0  0  0  0  0  0  0  0
    5.7204   -5.7538    4.0936 H   0  0  0  0  0  0  0  0  0  0  0  0
    7.9402   -6.8096    3.6175 H   0  0  0  0  0  0  0  0  0  0  0  0
    8.1167   -5.0786    3.5849 H   0  0  0  0  0  0  0  0  0  0  0  0
  1  2  1  0
  1 40  1  0
  1 41  1  0
  1 42  1  0
  2  3  1  0
  2 14  2  3
  3  4  2  3
  3 43  1  0
  4  5  1  0
  4 44  1  0
  5  6  2  3
  5 45  1  0
  6 11  1  0
  6  7  1  0
  7  8  1  0
  7 46  1  0
  7 47  1  0
  8  9  1  0
  8 48  1  0
  8 49  1  0
  9 10  1  0
  9 11  1  0
  9 50  1  1
 10 51  1  0
 10 52  1  0
 11 12  1  0
 11 13  1  1
 12 53  1  0
 12 54  1  0
 12 55  1  0
 13 56  1  0
 14 39  1  0
 14 15  1  0
 15 16  1  0
 15 57  1  0
 15 58  1  0
 17 16  1  6
 17 22  1  0
 17 18  1  0
 17 37  1  0
 18 19  1  0
 18 59  1  0
 18 60  1  0
 19 20  1  0
 19 61  1  0
 19 62  1  0
 20 21  1  0
 20 63  1  0
 20 64  1  0
 21 27  1  6
 21 22  1  0
 21 23  1  0
 22 65  1  0
 22 66  1  0
 23 24  1  0
 24 25  1  0
 25 35  1  0
 25 26  1  0
 25 28  1  0
 26 27  1  0
 28 33  1  0
 28 29  1  0
 28 67  1  6
 29 30  1  0
 29 68  1  0
 29 69  1  0
 30 36  1  0
 30 31  1  0
 30 70  1  1
 31 32  1  0
 31 71  1  0
 31 72  1  0
 32 33  1  0
 32 34  1  0
 32 73  1  6
 33 74  1  0
 33 75  1  0
 34 35  1  0
 34 76  1  0
 34 77  1  0
 35 36  1  0
 35 78  1  1
 36 79  1  0
 36 80  1  0
 37 38  2  0
 37 39  1  0
M  END
>  <i_m_ct_stereo_status>  (399) 
1

>  <s_m_source_file>  (399) 
/var/tmp/pbs.5076255.sched01/tmpybatibx8/138x0dlab3k.sdf

>  <i_m_source_file_index>  (399) 
34

>  <i_lp_mmshare_version>  (399) 
48012

>  <i_f3d_flags>  (399) 
0

>  <s_epik_input>  (399) 
W05IMl1bQ0BASF0xW0NIMl1bQ0gyXS9DKFtDQEBdMShbQ0gzXSlbT0hdKT1bQ0hdXFtDSF09W0NIXVxDKFxbQ0gzXSk9QyhPQzI9TykvW0NIMl1PW0NAQF0yM1tDSDJdW0NIMl1bQ0gyXUM0KFtDSDJdMylPT1tDQEBdNShPTzQpW0NASF02W0NIMl1bQ0BASF03W0NIMl1bQ0BIXShbQ0gyXTYpW0NIMl1bQ0BIXTVbQ0gyXTc=

>  <s_epik_cmdline>  (399) 
J2VwaWtfcHl0aG9uJywgJy1waHQnLCAnMi4wJywgJy1waCcsICc3LjAnLCAnLXRuJywgJzgnLCAnLW1hJywgJzIwMCcsICctaW1hZScsICc8aW5maWxlLm1hZT4nLCAnLW9tYWUnLCAnPG91dGZpbGUubWFlPic=

>  <r_epik_Ionization_Penalty>  (399) 
1.93298

>  <r_epik_Ionization_Penalty_Charging>  (399) 
0

>  <r_epik_Ionization_Penalty_Neutral>  (399) 
1.93298

>  <r_epik_State_Penalty>  (399) 
2.05666

>  <r_epik_Charging_Adjusted_Penalty>  (399) 
2.05666

>  <i_epik_Tot_Q>  (399) 
0

>  <i_epik_Tot_abs_Q>  (399) 
0

>  <s_lp_Force_Field>  (399) 
OPLS3e

>  <r_lp_Energy>  (399) 
17.1652

>  <b_lp_Chiralities_Consistent>  (399) 
1

>  <s_lp_Variant>  (399) 
110:0-13

>  <s_i_glide_gridfile>  (399) 
pfpi4k_grid

>  <i_i_glide_lignum>  (399) 
34

>  <i_i_glide_rotatable_bonds>  (399) 
3

>  <r_i_docking_score>  (399) 
-0.790472

>  <r_i_glide_ligand_efficiency>  (399) 
-0.0202685

>  <r_i_glide_ligand_efficiency_sa>  (399) 
-0.0687348

>  <r_i_glide_ligand_efficiency_ln>  (399) 
-0.1695

>  <r_i_glide_gscore>  (399) 
-0.790472

>  <r_i_glide_lipo>  (399) 
-0.553457

>  <r_i_glide_hbond>  (399) 
-0.16

>  <r_i_glide_metal>  (399) 
-0

>  <r_i_glide_rewards>  (399) 
-0.035432

>  <r_i_glide_evdw>  (399) 
-2.55924

>  <r_i_glide_ecoul>  (399) 
-2.89683

>  <r_i_glide_erotb>  (399) 
0.140033

>  <r_i_glide_esite>  (399) 
-0.000152873

>  <r_i_glide_emodel>  (399) 
2.16582

>  <r_i_glide_energy>  (399) 
-5.45607

>  <r_i_glide_einternal>  (399) 
9.85961

>  <r_i_glide_intrahb_reward>  (399) 
-0

>  <i_i_glide_confnum>  (399) 
5

>  <i_i_glide_posenum>  (399) 
40

>  <r_i_glide_eff_state_penalty>  (399) 
0

>  <ligand_id>  (399) 
110

>  <original_smiles>  (399) 
CC(C=CC=C1CCC(N)C1(C)O)=C1COC2(CCCC3(C2)OOC2(OO3)C3CC4CC(C3)CC2C4)C(=O)O1

>  <smiles>  (399) 
[H]OC1(C([H])([H])[H])C(=C([H])C([H])=C([H])C(=C2OC(=O)C3(OC2([H])[H])C([H])([H])C([H])([H])C([H])([H])C2(OOC4(OO2)C2([H])C([H])([H])C5([H])C([H])([H])C([H])(C2([H])[H])C([H])([H])C4([H])C5([H])[H])C3([H])[H])C([H])([H])[H])C([H])([H])C([H])([H])C1([H])N([H])[H]

$$$$
110:13:0
     RDKit          3D

 80 86  0  0  1  0  0  0  0  0999 V2000
   -1.7853    0.6992    5.6559 C   0  0  0  0  0  0  0  0  0  0  0  0
   -0.3032    0.9145    5.8717 C   0  0  0  0  0  0  0  0  0  0  0  0
    0.0832    2.0577    6.6902 C   0  0  0  0  0  0  0  0  0  0  0  0
    0.4522    3.2472    6.1947 C   0  0  0  0  0  0  0  0  0  0  0  0
    0.8203    4.3826    7.0344 C   0  0  0  0  0  0  0  0  0  0  0  0
    1.1572    5.6091    6.5802 C   0  0  0  0  0  0  0  0  0  0  0  0
    1.5475    6.7652    7.4789 C   0  0  0  0  0  0  0  0  0  0  0  0
    2.0483    7.8794    6.5535 C   0  0  0  0  0  0  0  0  0  0  0  0
    1.4141    7.6042    5.1908 C   0  0  1  0  0  0  0  0  0  0  0  0
    2.2192    8.1550    4.0742 N   0  0  0  0  0  0  0  0  0  0  0  0
    1.2313    6.0647    5.1238 C   0  0  1  0  0  0  0  0  0  0  0  0
    2.3947    5.3392    4.4042 C   0  0  0  0  0  0  0  0  0  0  0  0
   -0.0006    5.8305    4.4716 O   0  0  0  0  0  0  0  0  0  0  0  0
    0.6427    0.1279    5.2977 C   0  0  0  0  0  0  0  0  0  0  0  0
    0.4021   -1.1468    4.4941 C   0  0  0  0  0  0  0  0  0  0  0  0
    1.1912   -1.1304    3.3124 O   0  0  0  0  0  0  0  0  0  0  0  0
    2.5957   -0.9278    3.5387 C   0  0  2  0  0  0  0  0  0  0  0  0
    3.2678   -0.8573    2.1260 C   0  0  0  0  0  0  0  0  0  0  0  0
    3.2183   -2.1899    1.3458 C   0  0  0  0  0  0  0  0  0  0  0  0
    3.7515   -3.3927    2.1656 C   0  0  0  0  0  0  0  0  0  0  0  0
    3.0210   -3.4943    3.5277 C   0  0  2  0  0  0  0  0  0  0  0  0
    3.1687   -2.1759    4.3011 C   0  0  0  0  0  0  0  0  0  0  0  0
    3.5846   -4.5156    4.3531 O   0  0  0  0  0  0  0  0  0  0  0  0
    3.4349   -5.8504    3.6960 O   0  0  0  0  0  0  0  0  0  0  0  0
    2.0545   -6.1394    3.4689 C   0  0  0  0  0  0  0  0  0  0  0  0
    1.5154   -5.1160    2.6349 O   0  0  0  0  0  0  0  0  0  0  0  0
    1.6386   -3.8013    3.3303 O   0  0  0  0  0  0  0  0  0  0  0  0
    1.9729   -7.4778    2.6903 C   0  0  2  0  0  0  0  0  0  0  0  0
    0.4888   -7.8092    2.3613 C   0  0  0  0  0  0  0  0  0  0  0  0
   -0.3210   -7.9776    3.6673 C   0  0  1  0  0  0  0  0  0  0  0  0
    0.2691   -9.1187    4.5190 C   0  0  0  0  0  0  0  0  0  0  0  0
    1.7291   -8.7761    4.8657 C   0  0  1  0  0  0  0  0  0  0  0  0
    2.5477   -8.6294    3.5618 C   0  0  0  0  0  0  0  0  0  0  0  0
    1.7910   -7.4471    5.6542 C   0  0  0  0  0  0  0  0  0  0  0  0
    1.2227   -6.2930    4.7841 C   0  0  2  0  0  0  0  0  0  0  0  0
   -0.2563   -6.6536    4.4573 C   0  0  0  0  0  0  0  0  0  0  0  0
    2.7889    0.3831    4.3218 C   0  0  0  0  0  0  0  0  0  0  0  0
    3.6761    1.1936    4.0807 O   0  0  0  0  0  0  0  0  0  0  0  0
    1.9565    0.5289    5.3898 O   0  0  0  0  0  0  0  0  0  0  0  0
   -2.2254    1.6544    5.3656 H   0  0  0  0  0  0  0  0  0  0  0  0
   -2.2607    0.3388    6.5608 H   0  0  0  0  0  0  0  0  0  0  0  0
   -2.0348    0.0132    4.8560 H   0  0  0  0  0  0  0  0  0  0  0  0
    0.0630    1.9389    7.7626 H   0  0  0  0  0  0  0  0  0  0  0  0
    0.4552    3.3461    5.1209 H   0  0  0  0  0  0  0  0  0  0  0  0
    0.8410    4.2296    8.1076 H   0  0  0  0  0  0  0  0  0  0  0  0
    0.6773    7.1043    8.0382 H   0  0  0  0  0  0  0  0  0  0  0  0
    2.3151    6.4764    8.1952 H   0  0  0  0  0  0  0  0  0  0  0  0
    1.8157    8.8779    6.9294 H   0  0  0  0  0  0  0  0  0  0  0  0
    3.1313    7.8084    6.4722 H   0  0  0  0  0  0  0  0  0  0  0  0
    0.4266    8.0721    5.1964 H   0  0  0  0  0  0  0  0  0  0  0  0
    1.6783    8.0087    3.2117 H   0  0  0  0  0  0  0  0  0  0  0  0
    2.3206    9.1599    4.1551 H   0  0  0  0  0  0  0  0  0  0  0  0
    3.3397    5.5983    4.8823 H   0  0  0  0  0  0  0  0  0  0  0  0
    2.4606    5.6174    3.3520 H   0  0  0  0  0  0  0  0  0  0  0  0
    2.3236    4.2527    4.4301 H   0  0  0  0  0  0  0  0  0  0  0  0
    0.1674    5.8652    3.5350 H   0  0  0  0  0  0  0  0  0  0  0  0
    0.6219   -2.0039    5.1321 H   0  0  0  0  0  0  0  0  0  0  0  0
   -0.6368   -1.3435    4.2161 H   0  0  0  0  0  0  0  0  0  0  0  0
    2.8226   -0.0616    1.5183 H   0  0  0  0  0  0  0  0  0  0  0  0
    4.3156   -0.5759    2.2375 H   0  0  0  0  0  0  0  0  0  0  0  0
    2.1871   -2.3863    1.0440 H   0  0  0  0  0  0  0  0  0  0  0  0
    3.7907   -2.0869    0.4158 H   0  0  0  0  0  0  0  0  0  0  0  0
    3.7034   -4.3043    1.5693 H   0  0  0  0  0  0  0  0  0  0  0  0
    4.8135   -3.2256    2.3540 H   0  0  0  0  0  0  0  0  0  0  0  0
    4.2349   -1.9677    4.4291 H   0  0  0  0  0  0  0  0  0  0  0  0
    2.8043   -2.2826    5.3393 H   0  0  0  0  0  0  0  0  0  0  0  0
    2.5554   -7.4101    1.7576 H   0  0  0  0  0  0  0  0  0  0  0  0
    0.0387   -7.0256    1.7504 H   0  0  0  0  0  0  0  0  0  0  0  0
    0.4208   -8.7228    1.7747 H   0  0  0  0  0  0  0  0  0  0  0  0
   -1.3562   -8.2264    3.4254 H   0  0  0  0  0  0  0  0  0  0  0  0
   -0.3153   -9.2597    5.4294 H   0  0  0  0  0  0  0  0  0  0  0  0
    0.2137  -10.0721    3.9887 H   0  0  0  0  0  0  0  0  0  0  0  0
    2.1461   -9.5848    5.4701 H   0  0  0  0  0  0  0  0  0  0  0  0
    2.5392   -9.5745    3.0166 H   0  0  0  0  0  0  0  0  0  0  0  0
    3.5905   -8.4348    3.8098 H   0  0  0  0  0  0  0  0  0  0  0  0
    1.2276   -7.5454    6.5885 H   0  0  0  0  0  0  0  0  0  0  0  0
    2.8204   -7.2267    5.9391 H   0  0  0  0  0  0  0  0  0  0  0  0
    1.2290   -5.3757    5.3760 H   0  0  0  0  0  0  0  0  0  0  0  0
   -0.7111   -5.8564    3.8748 H   0  0  0  0  0  0  0  0  0  0  0  0
   -0.8585   -6.7411    5.3664 H   0  0  0  0  0  0  0  0  0  0  0  0
  1  2  1  0
  1 40  1  0
  1 41  1  0
  1 42  1  0
  2  3  1  0
  2 14  2  3
  3  4  2  3
  3 43  1  0
  4  5  1  0
  4 44  1  0
  5  6  2  3
  5 45  1  0
  6 11  1  0
  6  7  1  0
  7  8  1  0
  7 46  1  0
  7 47  1  0
  8  9  1  0
  8 48  1  0
  8 49  1  0
  9 10  1  0
  9 11  1  0
  9 50  1  1
 10 51  1  0
 10 52  1  0
 11 12  1  0
 11 13  1  6
 12 53  1  0
 12 54  1  0
 12 55  1  0
 13 56  1  0
 14 39  1  0
 14 15  1  0
 15 16  1  0
 15 57  1  0
 15 58  1  0
 17 16  1  6
 17 22  1  0
 17 18  1  0
 17 37  1  0
 18 19  1  0
 18 59  1  0
 18 60  1  0
 19 20  1  0
 19 61  1  0
 19 62  1  0
 20 21  1  0
 20 63  1  0
 20 64  1  0
 21 27  1  6
 21 22  1  0
 21 23  1  0
 22 65  1  0
 22 66  1  0
 23 24  1  0
 24 25  1  0
 25 35  1  0
 25 26  1  0
 25 28  1  0
 26 27  1  0
 28 33  1  0
 28 29  1  0
 28 67  1  6
 29 30  1  0
 29 68  1  0
 29 69  1  0
 30 36  1  0
 30 31  1  0
 30 70  1  6
 31 32  1  0
 31 71  1  0
 31 72  1  0
 32 33  1  0
 32 34  1  0
 32 73  1  1
 33 74  1  0
 33 75  1  0
 34 35  1  0
 34 76  1  0
 34 77  1  0
 35 36  1  0
 35 78  1  1
 36 79  1  0
 36 80  1  0
 37 38  2  0
 37 39  1  0
M  END
>  <i_m_ct_stereo_status>  (400) 
1

>  <s_m_source_file>  (400) 
/var/tmp/pbs.5076255.sched01/tmpybatibx8/138x0dlab3k.sdf

>  <i_m_source_file_index>  (400) 
35

>  <i_lp_mmshare_version>  (400) 
48012

>  <i_f3d_flags>  (400) 
0

>  <s_epik_input>  (400) 
W05IMl1bQ0BASF0xW0NIMl1bQ0gyXS9DKFtDQEBdMShbQ0gzXSlbT0hdKT1bQ0hdXFtDSF09W0NIXVxDKFxbQ0gzXSk9QyhPQzI9TykvW0NIMl1PW0NAQF0yM1tDSDJdW0NIMl1bQ0gyXUM0KFtDSDJdMylPT1tDQEBdNShPTzQpW0NASF02W0NIMl1bQ0BASF03W0NIMl1bQ0BIXShbQ0gyXTYpW0NIMl1bQ0BIXTVbQ0gyXTc=

>  <s_epik_cmdline>  (400) 
J2VwaWtfcHl0aG9uJywgJy1waHQnLCAnMi4wJywgJy1waCcsICc3LjAnLCAnLXRuJywgJzgnLCAnLW1hJywgJzIwMCcsICctaW1hZScsICc8aW5maWxlLm1hZT4nLCAnLW9tYWUnLCAnPG91dGZpbGUubWFlPic=

>  <r_epik_Ionization_Penalty>  (400) 
1.93298

>  <r_epik_Ionization_Penalty_Charging>  (400) 
0

>  <r_epik_Ionization_Penalty_Neutral>  (400) 
1.93298

>  <r_epik_State_Penalty>  (400) 
2.05666

>  <r_epik_Charging_Adjusted_Penalty>  (400) 
2.05666

>  <i_epik_Tot_Q>  (400) 
0

>  <i_epik_Tot_abs_Q>  (400) 
0

>  <s_lp_Force_Field>  (400) 
OPLS3e

>  <r_lp_Energy>  (400) 
17.2466

>  <b_lp_Chiralities_Consistent>  (400) 
1

>  <s_lp_Variant>  (400) 
110:0-14

>  <s_i_glide_gridfile>  (400) 
pfpi4k_grid

>  <i_i_glide_lignum>  (400) 
35

>  <i_i_glide_rotatable_bonds>  (400) 
3

>  <r_i_docking_score>  (400) 
-1.79374

>  <r_i_glide_ligand_efficiency>  (400) 
-0.0459932

>  <r_i_glide_ligand_efficiency_sa>  (400) 
-0.155973

>  <r_i_glide_ligand_efficiency_ln>  (400) 
-0.384628

>  <r_i_glide_gscore>  (400) 
-1.79374

>  <r_i_glide_lipo>  (400) 
-0.0183846

>  <r_i_glide_hbond>  (400) 
-0.14298

>  <r_i_glide_metal>  (400) 
-0

>  <r_i_glide_rewards>  (400) 
-0.000392603

>  <r_i_glide_evdw>  (400) 
-29.1271

>  <r_i_glide_ecoul>  (400) 
-2.08861

>  <r_i_glide_erotb>  (400) 
0.140033

>  <r_i_glide_esite>  (400) 
-0.00236285

>  <r_i_glide_emodel>  (400) 
-30.7379

>  <r_i_glide_energy>  (400) 
-31.2157

>  <r_i_glide_einternal>  (400) 
5.83943

>  <r_i_glide_intrahb_reward>  (400) 
-0

>  <i_i_glide_confnum>  (400) 
1

>  <i_i_glide_posenum>  (400) 
11

>  <r_i_glide_eff_state_penalty>  (400) 
0

>  <ligand_id>  (400) 
110

>  <original_smiles>  (400) 
CC(C=CC=C1CCC(N)C1(C)O)=C1COC2(CCCC3(C2)OOC2(OO3)C3CC4CC(C3)CC2C4)C(=O)O1

>  <smiles>  (400) 
[H]OC1(C([H])([H])[H])C(=C([H])C([H])=C([H])C(=C2OC(=O)C3(OC2([H])[H])C([H])([H])C([H])([H])C([H])([H])C2(OOC4(OO2)C2([H])C([H])([H])C5([H])C([H])([H])C([H])(C2([H])[H])C([H])([H])C4([H])C5([H])[H])C3([H])[H])C([H])([H])[H])C([H])([H])C([H])([H])C1([H])N([H])[H]

$$$$
110:14:0
     RDKit          3D

 80 86  0  0  1  0  0  0  0  0999 V2000
    2.7609    2.8027    4.1935 C   0  0  0  0  0  0  0  0  0  0  0  0
    1.7512    1.7501    3.7412 C   0  0  0  0  0  0  0  0  0  0  0  0
    0.3327    1.8738    4.0381 C   0  0  0  0  0  0  0  0  0  0  0  0
   -0.2703    2.3348    5.1589 C   0  0  0  0  0  0  0  0  0  0  0  0
    0.3099    2.8737    6.3882 C   0  0  0  0  0  0  0  0  0  0  0  0
   -0.2876    2.8973    7.5910 C   0  0  0  0  0  0  0  0  0  0  0  0
    0.3623    3.5123    8.8168 C   0  0  0  0  0  0  0  0  0  0  0  0
   -0.6755    3.4501    9.9318 C   0  0  0  0  0  0  0  0  0  0  0  0
   -1.6390    2.3229    9.5411 C   0  0  1  0  0  0  0  0  0  0  0  0
   -2.9782    2.5410   10.1318 N   0  0  0  0  0  0  0  0  0  0  0  0
   -1.6333    2.2948    7.9854 C   0  0  1  0  0  0  0  0  0  0  0  0
   -2.7853    3.1149    7.3511 C   0  0  0  0  0  0  0  0  0  0  0  0
   -1.7027    0.9584    7.5208 O   0  0  0  0  0  0  0  0  0  0  0  0
    2.1892    0.7136    2.9594 C   0  0  0  0  0  0  0  0  0  0  0  0
    1.3578   -0.4122    2.3624 C   0  0  0  0  0  0  0  0  0  0  0  0
    1.9526   -1.6852    2.6151 O   0  0  0  0  0  0  0  0  0  0  0  0
    3.3350   -1.8127    2.2701 C   0  0  2  0  0  0  0  0  0  0  0  0
    3.5028   -1.8422    0.7282 C   0  0  0  0  0  0  0  0  0  0  0  0
    2.8860   -3.1118    0.1051 C   0  0  0  0  0  0  0  0  0  0  0  0
    3.4119   -4.4262    0.7170 C   0  0  0  0  0  0  0  0  0  0  0  0
    3.2484   -4.4512    2.2609 C   0  0  1  0  0  0  0  0  0  0  0  0
    3.8793   -3.1525    2.8612 C   0  0  0  0  0  0  0  0  0  0  0  0
    1.8968   -4.5259    2.6894 O   0  0  0  0  0  0  0  0  0  0  0  0
    1.2790   -5.8003    2.1753 O   0  0  0  0  0  0  0  0  0  0  0  0
    1.9855   -6.9141    2.7091 C   0  0  0  0  0  0  0  0  0  0  0  0
    3.3431   -6.8378    2.2857 O   0  0  0  0  0  0  0  0  0  0  0  0
    3.9592   -5.5587    2.7974 O   0  0  0  0  0  0  0  0  0  0  0  0
    1.8590   -7.0359    4.2676 C   0  0  2  0  0  0  0  0  0  0  0  0
    2.5866   -8.3165    4.7660 C   0  0  0  0  0  0  0  0  0  0  0  0
    1.9498   -9.5709    4.1319 C   0  0  1  0  0  0  0  0  0  0  0  0
    0.4691   -9.6567    4.5494 C   0  0  0  0  0  0  0  0  0  0  0  0
   -0.2674   -8.3979    4.0498 C   0  0  1  0  0  0  0  0  0  0  0  0
    0.3681   -7.1388    4.6820 C   0  0  0  0  0  0  0  0  0  0  0  0
   -0.1545   -8.3097    2.5118 C   0  0  0  0  0  0  0  0  0  0  0  0
    1.3366   -8.1975    2.0883 C   0  0  2  0  0  0  0  0  0  0  0  0
    2.0690   -9.4662    2.5961 C   0  0  0  0  0  0  0  0  0  0  0  0
    4.1144   -0.6013    2.8599 C   0  0  0  0  0  0  0  0  0  0  0  0
    5.2534   -0.7058    3.3012 O   0  0  0  0  0  0  0  0  0  0  0  0
    3.5223    0.5993    2.7407 O   0  0  0  0  0  0  0  0  0  0  0  0
    2.7874    2.9061    5.2745 H   0  0  0  0  0  0  0  0  0  0  0  0
    2.5491    3.7774    3.7382 H   0  0  0  0  0  0  0  0  0  0  0  0
    3.7879    2.5460    3.9531 H   0  0  0  0  0  0  0  0  0  0  0  0
   -0.3626    1.5674    3.2651 H   0  0  0  0  0  0  0  0  0  0  0  0
   -1.3378    2.2884    5.1055 H   0  0  0  0  0  0  0  0  0  0  0  0
    1.2179    3.4535    6.3467 H   0  0  0  0  0  0  0  0  0  0  0  0
    1.2388    2.9250    9.0924 H   0  0  0  0  0  0  0  0  0  0  0  0
    0.6980    4.5333    8.6326 H   0  0  0  0  0  0  0  0  0  0  0  0
   -0.2327    3.2998   10.9174 H   0  0  0  0  0  0  0  0  0  0  0  0
   -1.2045    4.4023    9.9616 H   0  0  0  0  0  0  0  0  0  0  0  0
   -1.2161    1.3894    9.9224 H   0  0  0  0  0  0  0  0  0  0  0  0
   -2.9512    2.6176   11.1547 H   0  0  0  0  0  0  0  0  0  0  0  0
   -3.3773    3.4067    9.7662 H   0  0  0  0  0  0  0  0  0  0  0  0
   -2.5983    4.1784    7.4999 H   0  0  0  0  0  0  0  0  0  0  0  0
   -3.7682    2.8816    7.7604 H   0  0  0  0  0  0  0  0  0  0  0  0
   -2.8937    2.9512    6.2832 H   0  0  0  0  0  0  0  0  0  0  0  0
   -1.4295    0.9702    6.6150 H   0  0  0  0  0  0  0  0  0  0  0  0
    0.3630   -0.4595    2.7895 H   0  0  0  0  0  0  0  0  0  0  0  0
    1.2273   -0.2461    1.2916 H   0  0  0  0  0  0  0  0  0  0  0  0
    3.0700   -0.9550    0.2515 H   0  0  0  0  0  0  0  0  0  0  0  0
    4.5587   -1.8068    0.4761 H   0  0  0  0  0  0  0  0  0  0  0  0
    1.8148   -3.0643    0.2388 H   0  0  0  0  0  0  0  0  0  0  0  0
    3.0609   -3.1063   -0.9756 H   0  0  0  0  0  0  0  0  0  0  0  0
    2.9332   -5.2848    0.2409 H   0  0  0  0  0  0  0  0  0  0  0  0
    4.4699   -4.5138    0.4742 H   0  0  0  0  0  0  0  0  0  0  0  0
    4.9260   -3.2020    2.6107 H   0  0  0  0  0  0  0  0  0  0  0  0
    3.8427   -3.1828    3.9530 H   0  0  0  0  0  0  0  0  0  0  0  0
    2.3006   -6.1700    4.7580 H   0  0  0  0  0  0  0  0  0  0  0  0
    3.6470   -8.2813    4.5130 H   0  0  0  0  0  0  0  0  0  0  0  0
    2.5381   -8.3959    5.8555 H   0  0  0  0  0  0  0  0  0  0  0  0
    2.4645  -10.4715    4.4796 H   0  0  0  0  0  0  0  0  0  0  0  0
    0.0041  -10.5568    4.1442 H   0  0  0  0  0  0  0  0  0  0  0  0
    0.3835   -9.7408    5.6327 H   0  0  0  0  0  0  0  0  0  0  0  0
   -1.3212   -8.4707    4.3383 H   0  0  0  0  0  0  0  0  0  0  0  0
    0.2719   -7.1856    5.7708 H   0  0  0  0  0  0  0  0  0  0  0  0
   -0.1771   -6.2480    4.3658 H   0  0  0  0  0  0  0  0  0  0  0  0
   -0.6161   -9.1891    2.0652 H   0  0  0  0  0  0  0  0  0  0  0  0
   -0.7240   -7.4551    2.1459 H   0  0  0  0  0  0  0  0  0  0  0  0
    1.4005   -8.1540    0.9966 H   0  0  0  0  0  0  0  0  0  0  0  0
    3.1233   -9.4388    2.3131 H   0  0  0  0  0  0  0  0  0  0  0  0
    1.6556  -10.3578    2.1284 H   0  0  0  0  0  0  0  0  0  0  0  0
  1  2  1  0
  1 40  1  0
  1 41  1  0
  1 42  1  0
  2  3  1  0
  2 14  2  3
  3  4  2  3
  3 43  1  0
  4  5  1  0
  4 44  1  0
  5  6  2  3
  5 45  1  0
  6 11  1  0
  6  7  1  0
  7  8  1  0
  7 46  1  0
  7 47  1  0
  8  9  1  0
  8 48  1  0
  8 49  1  0
  9 10  1  0
  9 11  1  0
  9 50  1  1
 10 51  1  0
 10 52  1  0
 11 12  1  0
 11 13  1  1
 12 53  1  0
 12 54  1  0
 12 55  1  0
 13 56  1  0
 14 39  1  0
 14 15  1  0
 15 16  1  0
 15 57  1  0
 15 58  1  0
 17 16  1  6
 17 22  1  0
 17 18  1  0
 17 37  1  0
 18 19  1  0
 18 59  1  0
 18 60  1  0
 19 20  1  0
 19 61  1  0
 19 62  1  0
 20 21  1  0
 20 63  1  0
 20 64  1  0
 21 27  1  1
 21 22  1  0
 21 23  1  0
 22 65  1  0
 22 66  1  0
 23 24  1  0
 24 25  1  0
 25 35  1  0
 25 26  1  0
 25 28  1  0
 26 27  1  0
 28 33  1  0
 28 29  1  0
 28 67  1  1
 29 30  1  0
 29 68  1  0
 29 69  1  0
 30 36  1  0
 30 31  1  0
 30 70  1  1
 31 32  1  0
 31 71  1  0
 31 72  1  0
 32 33  1  0
 32 34  1  0
 32 73  1  6
 33 74  1  0
 33 75  1  0
 34 35  1  0
 34 76  1  0
 34 77  1  0
 35 36  1  0
 35 78  1  6
 36 79  1  0
 36 80  1  0
 37 38  2  0
 37 39  1  0
M  END
>  <i_m_ct_stereo_status>  (401) 
1

>  <s_m_source_file>  (401) 
/var/tmp/pbs.5076255.sched01/tmpybatibx8/138x0dlab3k.sdf

>  <i_m_source_file_index>  (401) 
36

>  <i_lp_mmshare_version>  (401) 
48012

>  <i_f3d_flags>  (401) 
0

>  <s_epik_input>  (401) 
W05IMl1bQ0BASF0xW0NIMl1bQ0gyXS9DKFtDQEBdMShbQ0gzXSlbT0hdKT1bQ0hdXFtDSF09W0NIXVxDKFxbQ0gzXSk9QyhPQzI9TykvW0NIMl1PW0NAQF0yM1tDSDJdW0NIMl1bQ0gyXUM0KFtDSDJdMylPT1tDQEBdNShPTzQpW0NASF02W0NIMl1bQ0BASF03W0NIMl1bQ0BIXShbQ0gyXTYpW0NIMl1bQ0BIXTVbQ0gyXTc=

>  <s_epik_cmdline>  (401) 
J2VwaWtfcHl0aG9uJywgJy1waHQnLCAnMi4wJywgJy1waCcsICc3LjAnLCAnLXRuJywgJzgnLCAnLW1hJywgJzIwMCcsICctaW1hZScsICc8aW5maWxlLm1hZT4nLCAnLW9tYWUnLCAnPG91dGZpbGUubWFlPic=

>  <r_epik_Ionization_Penalty>  (401) 
1.93298

>  <r_epik_Ionization_Penalty_Charging>  (401) 
0

>  <r_epik_Ionization_Penalty_Neutral>  (401) 
1.93298

>  <r_epik_State_Penalty>  (401) 
2.05666

>  <r_epik_Charging_Adjusted_Penalty>  (401) 
2.05666

>  <i_epik_Tot_Q>  (401) 
0

>  <i_epik_Tot_abs_Q>  (401) 
0

>  <s_lp_Force_Field>  (401) 
OPLS3e

>  <r_lp_Energy>  (401) 
24.288

>  <b_lp_Chiralities_Consistent>  (401) 
1

>  <s_lp_Variant>  (401) 
110:0-15

>  <s_i_glide_gridfile>  (401) 
pfpi4k_grid

>  <i_i_glide_lignum>  (401) 
36

>  <i_i_glide_rotatable_bonds>  (401) 
3

>  <r_i_docking_score>  (401) 
-3.08385

>  <r_i_glide_ligand_efficiency>  (401) 
-0.0790732

>  <r_i_glide_ligand_efficiency_sa>  (401) 
-0.268154

>  <r_i_glide_ligand_efficiency_ln>  (401) 
-0.661266

>  <r_i_glide_gscore>  (401) 
-3.08385

>  <r_i_glide_lipo>  (401) 
-0.213383

>  <r_i_glide_hbond>  (401) 
-0.306844

>  <r_i_glide_metal>  (401) 
-0

>  <r_i_glide_rewards>  (401) 
-0.0472806

>  <r_i_glide_evdw>  (401) 
-33.0798

>  <r_i_glide_ecoul>  (401) 
-6.60606

>  <r_i_glide_erotb>  (401) 
0.140033

>  <r_i_glide_esite>  (401) 
-0.011482

>  <r_i_glide_emodel>  (401) 
-44.1177

>  <r_i_glide_energy>  (401) 
-39.6858

>  <r_i_glide_einternal>  (401) 
4.96406

>  <r_i_glide_intrahb_reward>  (401) 
-0

>  <i_i_glide_confnum>  (401) 
5

>  <i_i_glide_posenum>  (401) 
1

>  <r_i_glide_eff_state_penalty>  (401) 
0

>  <ligand_id>  (401) 
110

>  <original_smiles>  (401) 
CC(C=CC=C1CCC(N)C1(C)O)=C1COC2(CCCC3(C2)OOC2(OO3)C3CC4CC(C3)CC2C4)C(=O)O1

>  <smiles>  (401) 
[H]OC1(C([H])([H])[H])C(=C([H])C([H])=C([H])C(=C2OC(=O)C3(OC2([H])[H])C([H])([H])C([H])([H])C([H])([H])C2(OOC4(OO2)C2([H])C([H])([H])C5([H])C([H])([H])C([H])(C2([H])[H])C([H])([H])C4([H])C5([H])[H])C3([H])[H])C([H])([H])[H])C([H])([H])C([H])([H])C1([H])N([H])[H]

$$$$
110:14:1
     RDKit          3D

 80 86  0  0  1  0  0  0  0  0999 V2000
    5.9632   -8.1407    2.0415 C   0  0  0  0  0  0  0  0  0  0  0  0
    4.7662   -7.2892    1.6438 C   0  0  0  0  0  0  0  0  0  0  0  0
    4.6822   -6.8425    0.2697 C   0  0  0  0  0  0  0  0  0  0  0  0
    4.7299   -5.5864   -0.2022 C   0  0  0  0  0  0  0  0  0  0  0  0
    4.9023   -4.3369    0.5390 C   0  0  0  0  0  0  0  0  0  0  0  0
    4.7762   -3.1101   -0.0065 C   0  0  0  0  0  0  0  0  0  0  0  0
    4.9827   -1.8237    0.7740 C   0  0  0  0  0  0  0  0  0  0  0  0
    4.8844   -0.6793   -0.2314 C   0  0  0  0  0  0  0  0  0  0  0  0
    4.0703   -1.2173   -1.4137 C   0  0  1  0  0  0  0  0  0  0  0  0
    4.3893   -0.5050   -2.6697 N   0  0  0  0  0  0  0  0  0  0  0  0
    4.3752   -2.7440   -1.4457 C   0  0  1  0  0  0  0  0  0  0  0  0
    5.4972   -3.1161   -2.4425 C   0  0  0  0  0  0  0  0  0  0  0  0
    3.1773   -3.4140   -1.8002 O   0  0  0  0  0  0  0  0  0  0  0  0
    3.8100   -6.9734    2.5683 C   0  0  0  0  0  0  0  0  0  0  0  0
    2.5363   -6.1801    2.3394 C   0  0  0  0  0  0  0  0  0  0  0  0
    2.3540   -5.2067    3.3651 O   0  0  0  0  0  0  0  0  0  0  0  0
    2.4498   -5.6880    4.7109 C   0  0  2  0  0  0  0  0  0  0  0  0
    1.2012   -6.5398    5.0553 C   0  0  0  0  0  0  0  0  0  0  0  0
   -0.0813   -5.6833    5.0843 C   0  0  0  0  0  0  0  0  0  0  0  0
    0.0073   -4.4647    6.0259 C   0  0  0  0  0  0  0  0  0  0  0  0
    1.2322   -3.5706    5.7051 C   0  0  1  0  0  0  0  0  0  0  0  0
    2.5138   -4.4646    5.6779 C   0  0  0  0  0  0  0  0  0  0  0  0
    1.1364   -2.9016    4.4595 O   0  0  0  0  0  0  0  0  0  0  0  0
   -0.0559   -1.9845    4.4790 O   0  0  0  0  0  0  0  0  0  0  0  0
    0.1111   -1.0112    5.5002 C   0  0  0  0  0  0  0  0  0  0  0  0
    0.2065   -1.6832    6.7507 O   0  0  0  0  0  0  0  0  0  0  0  0
    1.4009   -2.6066    6.7359 O   0  0  0  0  0  0  0  0  0  0  0  0
    1.3200   -0.0464    5.2542 C   0  0  2  0  0  0  0  0  0  0  0  0
    1.3879    1.0311    6.3740 C   0  0  0  0  0  0  0  0  0  0  0  0
    0.0966    1.8774    6.3792 C   0  0  1  0  0  0  0  0  0  0  0  0
   -0.0531    2.5967    5.0220 C   0  0  0  0  0  0  0  0  0  0  0  0
   -0.1324    1.5362    3.9065 C   0  0  1  0  0  0  0  0  0  0  0  0
    1.1588    0.6866    3.8974 C   0  0  0  0  0  0  0  0  0  0  0  0
   -1.3440    0.6146    4.1592 C   0  0  0  0  0  0  0  0  0  0  0  0
   -1.1875   -0.1316    5.5102 C   0  0  2  0  0  0  0  0  0  0  0  0
   -1.1046    0.9415    6.6292 C   0  0  0  0  0  0  0  0  0  0  0  0
    3.7360   -6.5563    4.8551 C   0  0  0  0  0  0  0  0  0  0  0  0
    4.4129   -6.5561    5.8737 O   0  0  0  0  0  0  0  0  0  0  0  0
    3.9965   -7.3953    3.8444 O   0  0  0  0  0  0  0  0  0  0  0  0
    6.8971   -7.6454    1.7590 H   0  0  0  0  0  0  0  0  0  0  0  0
    5.9356   -9.1143    1.5433 H   0  0  0  0  0  0  0  0  0  0  0  0
    6.0074   -8.3416    3.1095 H   0  0  0  0  0  0  0  0  0  0  0  0
    4.5749   -7.6240   -0.4779 H   0  0  0  0  0  0  0  0  0  0  0  0
    4.6313   -5.5145   -1.2642 H   0  0  0  0  0  0  0  0  0  0  0  0
    5.2189   -4.4077    1.5767 H   0  0  0  0  0  0  0  0  0  0  0  0
    4.1977   -1.7205    1.5228 H   0  0  0  0  0  0  0  0  0  0  0  0
    5.9434   -1.8167    1.2875 H   0  0  0  0  0  0  0  0  0  0  0  0
    4.4508    0.2244    0.2013 H   0  0  0  0  0  0  0  0  0  0  0  0
    5.8871   -0.4190   -0.5626 H   0  0  0  0  0  0  0  0  0  0  0  0
    3.0160   -1.0634   -1.1682 H   0  0  0  0  0  0  0  0  0  0  0  0
    4.2851    0.5073   -2.5716 H   0  0  0  0  0  0  0  0  0  0  0  0
    5.3563   -0.6956   -2.9189 H   0  0  0  0  0  0  0  0  0  0  0  0
    6.4602   -2.7774   -2.0589 H   0  0  0  0  0  0  0  0  0  0  0  0
    5.3596   -2.6990   -3.4412 H   0  0  0  0  0  0  0  0  0  0  0  0
    5.5655   -4.1877   -2.6026 H   0  0  0  0  0  0  0  0  0  0  0  0
    3.3467   -4.3297   -1.9359 H   0  0  0  0  0  0  0  0  0  0  0  0
    2.5573   -5.6580    1.3926 H   0  0  0  0  0  0  0  0  0  0  0  0
    1.6817   -6.8541    2.2845 H   0  0  0  0  0  0  0  0  0  0  0  0
    1.0707   -7.3773    4.3624 H   0  0  0  0  0  0  0  0  0  0  0  0
    1.3326   -7.0035    6.0288 H   0  0  0  0  0  0  0  0  0  0  0  0
   -0.2712   -5.3302    4.0716 H   0  0  0  0  0  0  0  0  0  0  0  0
   -0.9310   -6.3142    5.3645 H   0  0  0  0  0  0  0  0  0  0  0  0
   -0.9237   -3.8930    5.9986 H   0  0  0  0  0  0  0  0  0  0  0  0
    0.0928   -4.8293    7.0478 H   0  0  0  0  0  0  0  0  0  0  0  0
    2.6098   -4.8609    6.6771 H   0  0  0  0  0  0  0  0  0  0  0  0
    3.4057   -3.8498    5.5242 H   0  0  0  0  0  0  0  0  0  0  0  0
    2.2593   -0.5992    5.2435 H   0  0  0  0  0  0  0  0  0  0  0  0
    1.5232    0.5638    7.3504 H   0  0  0  0  0  0  0  0  0  0  0  0
    2.2518    1.6872    6.2333 H   0  0  0  0  0  0  0  0  0  0  0  0
    0.1452    2.6270    7.1734 H   0  0  0  0  0  0  0  0  0  0  0  0
   -0.9401    3.2317    5.0123 H   0  0  0  0  0  0  0  0  0  0  0  0
    0.7958    3.2573    4.8493 H   0  0  0  0  0  0  0  0  0  0  0  0
   -0.2495    2.0401    2.9418 H   0  0  0  0  0  0  0  0  0  0  0  0
    2.0215    1.3297    3.6964 H   0  0  0  0  0  0  0  0  0  0  0  0
    1.1220   -0.0342    3.0781 H   0  0  0  0  0  0  0  0  0  0  0  0
   -2.2594    1.2050    4.1451 H   0  0  0  0  0  0  0  0  0  0  0  0
   -1.4358   -0.0961    3.3383 H   0  0  0  0  0  0  0  0  0  0  0  0
   -2.0627   -0.7701    5.6688 H   0  0  0  0  0  0  0  0  0  0  0  0
   -0.9865    0.4699    7.6064 H   0  0  0  0  0  0  0  0  0  0  0  0
   -2.0265    1.5213    6.6772 H   0  0  0  0  0  0  0  0  0  0  0  0
  1  2  1  0
  1 40  1  0
  1 41  1  0
  1 42  1  0
  2  3  1  0
  2 14  2  3
  3  4  2  3
  3 43  1  0
  4  5  1  0
  4 44  1  0
  5  6  2  3
  5 45  1  0
  6 11  1  0
  6  7  1  0
  7  8  1  0
  7 46  1  0
  7 47  1  0
  8  9  1  0
  8 48  1  0
  8 49  1  0
  9 10  1  0
  9 11  1  0
  9 50  1  1
 10 51  1  0
 10 52  1  0
 11 12  1  0
 11 13  1  6
 12 53  1  0
 12 54  1  0
 12 55  1  0
 13 56  1  0
 14 39  1  0
 14 15  1  0
 15 16  1  0
 15 57  1  0
 15 58  1  0
 17 16  1  6
 17 22  1  0
 17 18  1  0
 17 37  1  0
 18 19  1  0
 18 59  1  0
 18 60  1  0
 19 20  1  0
 19 61  1  0
 19 62  1  0
 20 21  1  0
 20 63  1  0
 20 64  1  0
 21 27  1  1
 21 22  1  0
 21 23  1  0
 22 65  1  0
 22 66  1  0
 23 24  1  0
 24 25  1  0
 25 35  1  0
 25 26  1  0
 25 28  1  0
 26 27  1  0
 28 33  1  0
 28 29  1  0
 28 67  1  6
 29 30  1  0
 29 68  1  0
 29 69  1  0
 30 36  1  0
 30 31  1  0
 30 70  1  1
 31 32  1  0
 31 71  1  0
 31 72  1  0
 32 33  1  0
 32 34  1  0
 32 73  1  6
 33 74  1  0
 33 75  1  0
 34 35  1  0
 34 76  1  0
 34 77  1  0
 35 36  1  0
 35 78  1  1
 36 79  1  0
 36 80  1  0
 37 38  2  0
 37 39  1  0
M  END
>  <i_m_ct_stereo_status>  (402) 
1

>  <s_m_source_file>  (402) 
/var/tmp/pbs.5076255.sched01/tmpybatibx8/138x0dlab3k.sdf

>  <i_m_source_file_index>  (402) 
36

>  <i_lp_mmshare_version>  (402) 
48012

>  <i_f3d_flags>  (402) 
0

>  <s_epik_input>  (402) 
W05IMl1bQ0BASF0xW0NIMl1bQ0gyXS9DKFtDQEBdMShbQ0gzXSlbT0hdKT1bQ0hdXFtDSF09W0NIXVxDKFxbQ0gzXSk9QyhPQzI9TykvW0NIMl1PW0NAQF0yM1tDSDJdW0NIMl1bQ0gyXUM0KFtDSDJdMylPT1tDQEBdNShPTzQpW0NASF02W0NIMl1bQ0BASF03W0NIMl1bQ0BIXShbQ0gyXTYpW0NIMl1bQ0BIXTVbQ0gyXTc=

>  <s_epik_cmdline>  (402) 
J2VwaWtfcHl0aG9uJywgJy1waHQnLCAnMi4wJywgJy1waCcsICc3LjAnLCAnLXRuJywgJzgnLCAnLW1hJywgJzIwMCcsICctaW1hZScsICc8aW5maWxlLm1hZT4nLCAnLW9tYWUnLCAnPG91dGZpbGUubWFlPic=

>  <r_epik_Ionization_Penalty>  (402) 
1.93298

>  <r_epik_Ionization_Penalty_Charging>  (402) 
0

>  <r_epik_Ionization_Penalty_Neutral>  (402) 
1.93298

>  <r_epik_State_Penalty>  (402) 
2.05666

>  <r_epik_Charging_Adjusted_Penalty>  (402) 
2.05666

>  <i_epik_Tot_Q>  (402) 
0

>  <i_epik_Tot_abs_Q>  (402) 
0

>  <s_lp_Force_Field>  (402) 
OPLS3e

>  <r_lp_Energy>  (402) 
24.288

>  <b_lp_Chiralities_Consistent>  (402) 
1

>  <s_lp_Variant>  (402) 
110:0-15

>  <s_i_glide_gridfile>  (402) 
pfpi4k_grid

>  <i_i_glide_lignum>  (402) 
36

>  <i_i_glide_rotatable_bonds>  (402) 
3

>  <r_i_docking_score>  (402) 
-2.58414

>  <r_i_glide_ligand_efficiency>  (402) 
-0.0662601

>  <r_i_glide_ligand_efficiency_sa>  (402) 
-0.224702

>  <r_i_glide_ligand_efficiency_ln>  (402) 
-0.554114

>  <r_i_glide_gscore>  (402) 
-2.58414

>  <r_i_glide_lipo>  (402) 
-0.534204

>  <r_i_glide_hbond>  (402) 
-0.338631

>  <r_i_glide_metal>  (402) 
-0

>  <r_i_glide_rewards>  (402) 
0

>  <r_i_glide_evdw>  (402) 
-32.964

>  <r_i_glide_ecoul>  (402) 
-1.25673

>  <r_i_glide_erotb>  (402) 
0.140033

>  <r_i_glide_esite>  (402) 
-0.0146346

>  <r_i_glide_emodel>  (402) 
-37.6619

>  <r_i_glide_energy>  (402) 
-34.2207

>  <r_i_glide_einternal>  (402) 
5.1202

>  <r_i_glide_intrahb_reward>  (402) 
-0

>  <i_i_glide_confnum>  (402) 
5

>  <i_i_glide_posenum>  (402) 
2

>  <r_i_glide_eff_state_penalty>  (402) 
0

>  <ligand_id>  (402) 
110

>  <original_smiles>  (402) 
CC(C=CC=C1CCC(N)C1(C)O)=C1COC2(CCCC3(C2)OOC2(OO3)C3CC4CC(C3)CC2C4)C(=O)O1

>  <smiles>  (402) 
[H]OC1(C([H])([H])[H])C(=C([H])C([H])=C([H])C(=C2OC(=O)C3(OC2([H])[H])C([H])([H])C([H])([H])C([H])([H])C2(OOC4(OO2)C2([H])C([H])([H])C5([H])C([H])([H])C([H])(C2([H])[H])C([H])([H])C4([H])C5([H])[H])C3([H])[H])C([H])([H])[H])C([H])([H])C([H])([H])C1([H])N([H])[H]

$$$$
110:14:2
     RDKit          3D

 80 86  0  0  1  0  0  0  0  0999 V2000
    0.6442    2.4386    3.2875 C   0  0  0  0  0  0  0  0  0  0  0  0
    1.6842    1.3174    3.3303 C   0  0  0  0  0  0  0  0  0  0  0  0
    2.7527    1.3357    2.3548 C   0  0  0  0  0  0  0  0  0  0  0  0
    3.3057    0.3333    1.6258 C   0  0  0  0  0  0  0  0  0  0  0  0
    2.9386   -1.0770    1.6143 C   0  0  0  0  0  0  0  0  0  0  0  0
    3.6229   -2.0656    0.9773 C   0  0  0  0  0  0  0  0  0  0  0  0
    3.2474   -3.5232    1.0942 C   0  0  0  0  0  0  0  0  0  0  0  0
    4.0610   -4.2369    0.0177 C   0  0  0  0  0  0  0  0  0  0  0  0
    5.2820   -3.3415   -0.2504 C   0  0  1  0  0  0  0  0  0  0  0  0
    5.7937   -3.5128   -1.6175 N   0  0  0  0  0  0  0  0  0  0  0  0
    4.8013   -1.8983    0.0396 C   0  0  1  0  0  0  0  0  0  0  0  0
    4.3337   -1.1508   -1.2252 C   0  0  0  0  0  0  0  0  0  0  0  0
    5.8602   -1.1784    0.6523 O   0  0  0  0  0  0  0  0  0  0  0  0
    1.5981    0.3615    4.3024 C   0  0  0  0  0  0  0  0  0  0  0  0
    2.5467   -0.8165    4.5825 C   0  0  0  0  0  0  0  0  0  0  0  0
    1.8068   -2.0469    4.6308 O   0  0  0  0  0  0  0  0  0  0  0  0
    0.7091   -2.0529    5.5784 C   0  0  2  0  0  0  0  0  0  0  0  0
    1.2781   -2.0313    7.0176 C   0  0  0  0  0  0  0  0  0  0  0  0
    2.0432   -3.3311    7.3370 C   0  0  0  0  0  0  0  0  0  0  0  0
    1.1881   -4.5970    7.1271 C   0  0  0  0  0  0  0  0  0  0  0  0
    0.6089   -4.6859    5.6846 C   0  0  1  0  0  0  0  0  0  0  0  0
   -0.1394   -3.3434    5.4175 C   0  0  0  0  0  0  0  0  0  0  0  0
    1.6051   -4.8454    4.6758 O   0  0  0  0  0  0  0  0  0  0  0  0
    2.3008   -6.1826    4.8909 O   0  0  0  0  0  0  0  0  0  0  0  0
    1.3422   -7.2618    4.8497 C   0  0  0  0  0  0  0  0  0  0  0  0
    0.3262   -7.0806    5.8483 O   0  0  0  0  0  0  0  0  0  0  0  0
   -0.3614   -5.7385    5.6054 O   0  0  0  0  0  0  0  0  0  0  0  0
    0.7084   -7.4264    3.4199 C   0  0  2  0  0  0  0  0  0  0  0  0
   -0.2569   -8.6480    3.3949 C   0  0  0  0  0  0  0  0  0  0  0  0
    0.5231   -9.9365    3.7278 C   0  0  1  0  0  0  0  0  0  0  0  0
    1.6207  -10.1582    2.6663 C   0  0  0  0  0  0  0  0  0  0  0  0
    2.5890   -8.9603    2.6925 C   0  0  1  0  0  0  0  0  0  0  0  0
    1.8179   -7.6652    2.3577 C   0  0  0  0  0  0  0  0  0  0  0  0
    3.2240   -8.8311    4.0923 C   0  0  0  0  0  0  0  0  0  0  0  0
    2.1142   -8.5915    5.1482 C   0  0  2  0  0  0  0  0  0  0  0  0
    1.1418   -9.7936    5.1331 C   0  0  0  0  0  0  0  0  0  0  0  0
   -0.2011   -0.7819    5.3709 C   0  0  0  0  0  0  0  0  0  0  0  0
   -1.4381   -0.8625    5.4805 O   0  0  0  0  0  0  0  0  0  0  0  0
    0.4965    0.3903    5.1272 O   0  0  0  0  0  0  0  0  0  0  0  0
    0.2425    2.5320    2.2804 H   0  0  0  0  0  0  0  0  0  0  0  0
    1.0947    3.3970    3.5559 H   0  0  0  0  0  0  0  0  0  0  0  0
   -0.2001    2.2879    3.9612 H   0  0  0  0  0  0  0  0  0  0  0  0
    3.1784    2.3046    2.1630 H   0  0  0  0  0  0  0  0  0  0  0  0
    4.0932    0.6519    0.9737 H   0  0  0  0  0  0  0  0  0  0  0  0
    2.0848   -1.3929    2.1907 H   0  0  0  0  0  0  0  0  0  0  0  0
    3.5131   -3.8982    2.0833 H   0  0  0  0  0  0  0  0  0  0  0  0
    2.1797   -3.6780    0.9620 H   0  0  0  0  0  0  0  0  0  0  0  0
    4.3387   -5.2539    0.2988 H   0  0  0  0  0  0  0  0  0  0  0  0
    3.4479   -4.3079   -0.8813 H   0  0  0  0  0  0  0  0  0  0  0  0
    6.0589   -3.6166    0.4653 H   0  0  0  0  0  0  0  0  0  0  0  0
    5.9779   -4.4912   -1.8241 H   0  0  0  0  0  0  0  0  0  0  0  0
    5.0683   -3.2223   -2.2744 H   0  0  0  0  0  0  0  0  0  0  0  0
    3.3698   -1.5476   -1.5587 H   0  0  0  0  0  0  0  0  0  0  0  0
    5.0342   -1.2030   -2.0531 H   0  0  0  0  0  0  0  0  0  0  0  0
    4.2152   -0.0927   -1.0230 H   0  0  0  0  0  0  0  0  0  0  0  0
    6.0506   -1.5686    1.4886 H   0  0  0  0  0  0  0  0  0  0  0  0
    3.3281   -0.8775    3.8335 H   0  0  0  0  0  0  0  0  0  0  0  0
    3.0899   -0.6299    5.5192 H   0  0  0  0  0  0  0  0  0  0  0  0
    1.9324   -1.1761    7.1705 H   0  0  0  0  0  0  0  0  0  0  0  0
    0.4690   -1.8956    7.7373 H   0  0  0  0  0  0  0  0  0  0  0  0
    2.9267   -3.3944    6.7015 H   0  0  0  0  0  0  0  0  0  0  0  0
    2.3967   -3.2922    8.3680 H   0  0  0  0  0  0  0  0  0  0  0  0
    1.7785   -5.4890    7.3535 H   0  0  0  0  0  0  0  0  0  0  0  0
    0.3662   -4.5980    7.8507 H   0  0  0  0  0  0  0  0  0  0  0  0
   -0.9815   -3.3055    6.1152 H   0  0  0  0  0  0  0  0  0  0  0  0
   -0.5727   -3.3731    4.4209 H   0  0  0  0  0  0  0  0  0  0  0  0
    0.1478   -6.5260    3.1479 H   0  0  0  0  0  0  0  0  0  0  0  0
   -1.0649   -8.5101    4.1154 H   0  0  0  0  0  0  0  0  0  0  0  0
   -0.7346   -8.7475    2.4165 H   0  0  0  0  0  0  0  0  0  0  0  0
   -0.1587  -10.7872    3.7210 H   0  0  0  0  0  0  0  0  0  0  0  0
    2.1542  -11.0906    2.8542 H   0  0  0  0  0  0  0  0  0  0  0  0
    1.1759  -10.2496    1.6730 H   0  0  0  0  0  0  0  0  0  0  0  0
    3.3705   -9.1167    1.9502 H   0  0  0  0  0  0  0  0  0  0  0  0
    1.3833   -7.7371    1.3557 H   0  0  0  0  0  0  0  0  0  0  0  0
    2.5030   -6.8147    2.3351 H   0  0  0  0  0  0  0  0  0  0  0  0
    3.7859   -9.7329    4.3334 H   0  0  0  0  0  0  0  0  0  0  0  0
    3.9476   -8.0130    4.1040 H   0  0  0  0  0  0  0  0  0  0  0  0
    2.5607   -8.5120    6.1310 H   0  0  0  0  0  0  0  0  0  0  0  0
    0.3515   -9.6560    5.8751 H   0  0  0  0  0  0  0  0  0  0  0  0
    1.6589  -10.7082    5.4203 H   0  0  0  0  0  0  0  0  0  0  0  0
  1  2  1  0
  1 40  1  0
  1 41  1  0
  1 42  1  0
  2  3  1  0
  2 14  2  3
  3  4  2  3
  3 43  1  0
  4  5  1  0
  4 44  1  0
  5  6  2  3
  5 45  1  0
  6 11  1  0
  6  7  1  0
  7  8  1  0
  7 46  1  0
  7 47  1  0
  8  9  1  0
  8 48  1  0
  8 49  1  0
  9 10  1  0
  9 11  1  0
  9 50  1  1
 10 51  1  0
 10 52  1  0
 11 12  1  0
 11 13  1  1
 12 53  1  0
 12 54  1  0
 12 55  1  0
 13 56  1  0
 14 39  1  0
 14 15  1  0
 15 16  1  0
 15 57  1  0
 15 58  1  0
 17 16  1  6
 17 22  1  0
 17 18  1  0
 17 37  1  0
 18 19  1  0
 18 59  1  0
 18 60  1  0
 19 20  1  0
 19 61  1  0
 19 62  1  0
 20 21  1  0
 20 63  1  0
 20 64  1  0
 21 27  1  1
 21 22  1  0
 21 23  1  0
 22 65  1  0
 22 66  1  0
 23 24  1  0
 24 25  1  0
 25 35  1  0
 25 26  1  0
 25 28  1  0
 26 27  1  0
 28 33  1  0
 28 29  1  0
 28 67  1  6
 29 30  1  0
 29 68  1  0
 29 69  1  0
 30 36  1  0
 30 31  1  0
 30 70  1  1
 31 32  1  0
 31 71  1  0
 31 72  1  0
 32 33  1  0
 32 34  1  0
 32 73  1  6
 33 74  1  0
 33 75  1  0
 34 35  1  0
 34 76  1  0
 34 77  1  0
 35 36  1  0
 35 78  1  1
 36 79  1  0
 36 80  1  0
 37 38  2  0
 37 39  1  0
M  END
>  <i_m_ct_stereo_status>  (403) 
1

>  <s_m_source_file>  (403) 
/var/tmp/pbs.5076255.sched01/tmpybatibx8/138x0dlab3k.sdf

>  <i_m_source_file_index>  (403) 
36

>  <i_lp_mmshare_version>  (403) 
48012

>  <i_f3d_flags>  (403) 
0

>  <s_epik_input>  (403) 
W05IMl1bQ0BASF0xW0NIMl1bQ0gyXS9DKFtDQEBdMShbQ0gzXSlbT0hdKT1bQ0hdXFtDSF09W0NIXVxDKFxbQ0gzXSk9QyhPQzI9TykvW0NIMl1PW0NAQF0yM1tDSDJdW0NIMl1bQ0gyXUM0KFtDSDJdMylPT1tDQEBdNShPTzQpW0NASF02W0NIMl1bQ0BASF03W0NIMl1bQ0BIXShbQ0gyXTYpW0NIMl1bQ0BIXTVbQ0gyXTc=

>  <s_epik_cmdline>  (403) 
J2VwaWtfcHl0aG9uJywgJy1waHQnLCAnMi4wJywgJy1waCcsICc3LjAnLCAnLXRuJywgJzgnLCAnLW1hJywgJzIwMCcsICctaW1hZScsICc8aW5maWxlLm1hZT4nLCAnLW9tYWUnLCAnPG91dGZpbGUubWFlPic=

>  <r_epik_Ionization_Penalty>  (403) 
1.93298

>  <r_epik_Ionization_Penalty_Charging>  (403) 
0

>  <r_epik_Ionization_Penalty_Neutral>  (403) 
1.93298

>  <r_epik_State_Penalty>  (403) 
2.05666

>  <r_epik_Charging_Adjusted_Penalty>  (403) 
2.05666

>  <i_epik_Tot_Q>  (403) 
0

>  <i_epik_Tot_abs_Q>  (403) 
0

>  <s_lp_Force_Field>  (403) 
OPLS3e

>  <r_lp_Energy>  (403) 
24.288

>  <b_lp_Chiralities_Consistent>  (403) 
1

>  <s_lp_Variant>  (403) 
110:0-15

>  <s_i_glide_gridfile>  (403) 
pfpi4k_grid

>  <i_i_glide_lignum>  (403) 
36

>  <i_i_glide_rotatable_bonds>  (403) 
3

>  <r_i_docking_score>  (403) 
-2.31754

>  <r_i_glide_ligand_efficiency>  (403) 
-0.0594241

>  <r_i_glide_ligand_efficiency_sa>  (403) 
-0.20152

>  <r_i_glide_ligand_efficiency_ln>  (403) 
-0.496946

>  <r_i_glide_gscore>  (403) 
-2.31754

>  <r_i_glide_lipo>  (403) 
-0.243785

>  <r_i_glide_hbond>  (403) 
0

>  <r_i_glide_metal>  (403) 
-0

>  <r_i_glide_rewards>  (403) 
0

>  <r_i_glide_evdw>  (403) 
-35.4057

>  <r_i_glide_ecoul>  (403) 
-2.76863

>  <r_i_glide_erotb>  (403) 
0.140033

>  <r_i_glide_esite>  (403) 
-0.0282097

>  <r_i_glide_emodel>  (403) 
-40.201

>  <r_i_glide_energy>  (403) 
-38.1743

>  <r_i_glide_einternal>  (403) 
3.26568

>  <r_i_glide_intrahb_reward>  (403) 
-0

>  <i_i_glide_confnum>  (403) 
5

>  <i_i_glide_posenum>  (403) 
27

>  <r_i_glide_eff_state_penalty>  (403) 
0

>  <ligand_id>  (403) 
110

>  <original_smiles>  (403) 
CC(C=CC=C1CCC(N)C1(C)O)=C1COC2(CCCC3(C2)OOC2(OO3)C3CC4CC(C3)CC2C4)C(=O)O1

>  <smiles>  (403) 
[H]OC1(C([H])([H])[H])C(=C([H])C([H])=C([H])C(=C2OC(=O)C3(OC2([H])[H])C([H])([H])C([H])([H])C([H])([H])C2(OOC4(OO2)C2([H])C([H])([H])C5([H])C([H])([H])C([H])(C2([H])[H])C([H])([H])C4([H])C5([H])[H])C3([H])[H])C([H])([H])[H])C([H])([H])C([H])([H])C1([H])N([H])[H]

$$$$
110:15:0
     RDKit          3D

 80 86  0  0  1  0  0  0  0  0999 V2000
    0.8999    5.6290    3.3392 C   0  0  0  0  0  0  0  0  0  0  0  0
    0.0148    4.5349    3.9143 C   0  0  0  0  0  0  0  0  0  0  0  0
   -1.4479    4.6424    3.8445 C   0  0  0  0  0  0  0  0  0  0  0  0
   -2.2143    5.2748    2.9466 C   0  0  0  0  0  0  0  0  0  0  0  0
   -1.8861    6.0909    1.7728 C   0  0  0  0  0  0  0  0  0  0  0  0
   -2.8070    6.6413    0.9634 C   0  0  0  0  0  0  0  0  0  0  0  0
   -2.4554    7.2549   -0.3663 C   0  0  0  0  0  0  0  0  0  0  0  0
   -3.7504    7.5700   -1.0777 C   0  0  0  0  0  0  0  0  0  0  0  0
   -4.7872    7.6932    0.0397 C   0  0  1  0  0  0  0  0  0  0  0  0
   -6.1453    7.3984   -0.4391 N   0  0  0  0  0  0  0  0  0  0  0  0
   -4.3180    6.7359    1.1544 C   0  0  1  0  0  0  0  0  0  0  0  0
   -5.0157    5.3462    1.1193 C   0  0  0  0  0  0  0  0  0  0  0  0
   -4.6042    7.4287    2.3431 O   0  0  0  0  0  0  0  0  0  0  0  0
    0.5301    3.4887    4.5666 C   0  0  0  0  0  0  0  0  0  0  0  0
    2.0129    3.1523    4.7674 C   0  0  0  0  0  0  0  0  0  0  0  0
    2.2873    1.7956    4.4787 O   0  0  0  0  0  0  0  0  0  0  0  0
    1.4620    0.8598    5.1453 C   0  0  2  0  0  0  0  0  0  0  0  0
    1.8584    0.8118    6.6467 C   0  0  0  0  0  0  0  0  0  0  0  0
    3.2939    0.2969    6.8478 C   0  0  0  0  0  0  0  0  0  0  0  0
    3.5497   -1.0692    6.1733 C   0  0  0  0  0  0  0  0  0  0  0  0
    3.1779   -1.0665    4.6664 C   0  0  1  0  0  0  0  0  0  0  0  0
    1.7234   -0.5273    4.4671 C   0  0  0  0  0  0  0  0  0  0  0  0
    4.1458   -0.3069    3.9565 O   0  0  0  0  0  0  0  0  0  0  0  0
    3.7837   -0.3670    2.4905 O   0  0  0  0  0  0  0  0  0  0  0  0
    3.8617   -1.7242    2.0543 C   0  0  0  0  0  0  0  0  0  0  0  0
    2.9070   -2.5060    2.7667 O   0  0  0  0  0  0  0  0  0  0  0  0
    3.2181   -2.4269    4.2465 O   0  0  0  0  0  0  0  0  0  0  0  0
    3.5126   -1.7731    0.5291 C   0  0  2  0  0  0  0  0  0  0  0  0
    3.5683   -3.2204   -0.0314 C   0  0  0  0  0  0  0  0  0  0  0  0
    4.9958   -3.7731    0.1361 C   0  0  1  0  0  0  0  0  0  0  0  0
    5.9770   -2.9089   -0.6799 C   0  0  0  0  0  0  0  0  0  0  0  0
    5.8996   -1.4692   -0.1467 C   0  0  1  0  0  0  0  0  0  0  0  0
    4.4841   -0.9103   -0.3128 C   0  0  0  0  0  0  0  0  0  0  0  0
    6.2863   -1.4329    1.3407 C   0  0  0  0  0  0  0  0  0  0  0  0
    5.3173   -2.2882    2.2059 C   0  0  2  0  0  0  0  0  0  0  0  0
    5.3686   -3.7380    1.6384 C   0  0  0  0  0  0  0  0  0  0  0  0
   -0.0491    1.2391    5.0069 C   0  0  0  0  0  0  0  0  0  0  0  0
   -0.9373    0.3765    4.9294 O   0  0  0  0  0  0  0  0  0  0  0  0
   -0.3410    2.5544    5.0793 O   0  0  0  0  0  0  0  0  0  0  0  0
    0.3454    6.5631    3.3369 H   0  0  0  0  0  0  0  0  0  0  0  0
    1.1534    5.3681    2.3151 H   0  0  0  0  0  0  0  0  0  0  0  0
    1.8667    5.7577    3.8163 H   0  0  0  0  0  0  0  0  0  0  0  0
   -2.0049    4.1460    4.6546 H   0  0  0  0  0  0  0  0  0  0  0  0
   -3.2598    5.1590    3.1591 H   0  0  0  0  0  0  0  0  0  0  0  0
   -0.8588    6.2324    1.4740 H   0  0  0  0  0  0  0  0  0  0  0  0
   -1.8696    8.1337   -0.2501 H   0  0  0  0  0  0  0  0  0  0  0  0
   -1.8426    6.5601   -0.9326 H   0  0  0  0  0  0  0  0  0  0  0  0
   -3.6641    8.4728   -1.6848 H   0  0  0  0  0  0  0  0  0  0  0  0
   -3.9897    6.7357   -1.7380 H   0  0  0  0  0  0  0  0  0  0  0  0
   -4.7210    8.7224    0.4040 H   0  0  0  0  0  0  0  0  0  0  0  0
   -6.8366    7.5074    0.2989 H   0  0  0  0  0  0  0  0  0  0  0  0
   -6.4066    7.9997   -1.2227 H   0  0  0  0  0  0  0  0  0  0  0  0
   -4.8877    4.9568    0.1346 H   0  0  0  0  0  0  0  0  0  0  0  0
   -6.0921    5.3786    1.3087 H   0  0  0  0  0  0  0  0  0  0  0  0
   -4.6155    4.5651    1.7636 H   0  0  0  0  0  0  0  0  0  0  0  0
   -5.5468    7.4155    2.4454 H   0  0  0  0  0  0  0  0  0  0  0  0
    2.6415    3.6836    4.0557 H   0  0  0  0  0  0  0  0  0  0  0  0
    2.3143    3.4440    5.7829 H   0  0  0  0  0  0  0  0  0  0  0  0
    1.7575    1.7892    7.1510 H   0  0  0  0  0  0  0  0  0  0  0  0
    1.1705    0.1634    7.1851 H   0  0  0  0  0  0  0  0  0  0  0  0
    4.0120    1.0261    6.4494 H   0  0  0  0  0  0  0  0  0  0  0  0
    3.4977    0.2091    7.9135 H   0  0  0  0  0  0  0  0  0  0  0  0
    4.5720   -1.3994    6.3228 H   0  0  0  0  0  0  0  0  0  0  0  0
    2.9297   -1.8071    6.6751 H   0  0  0  0  0  0  0  0  0  0  0  0
    1.0890   -1.2172    4.9956 H   0  0  0  0  0  0  0  0  0  0  0  0
    1.3845   -0.5801    3.4316 H   0  0  0  0  0  0  0  0  0  0  0  0
    2.5188   -1.3679    0.4172 H   0  0  0  0  0  0  0  0  0  0  0  0
    2.8540   -3.8620    0.4835 H   0  0  0  0  0  0  0  0  0  0  0  0
    3.2821   -3.2377   -1.0822 H   0  0  0  0  0  0  0  0  0  0  0  0
    5.0365   -4.7991   -0.2430 H   0  0  0  0  0  0  0  0  0  0  0  0
    6.9930   -3.2936   -0.5967 H   0  0  0  0  0  0  0  0  0  0  0  0
    5.7264   -2.9377   -1.7440 H   0  0  0  0  0  0  0  0  0  0  0  0
    6.5956   -0.8525   -0.7101 H   0  0  0  0  0  0  0  0  0  0  0  0
    4.1992   -0.9104   -1.3644 H   0  0  0  0  0  0  0  0  0  0  0  0
    4.4524    0.1318    0.0074 H   0  0  0  0  0  0  0  0  0  0  0  0
    7.3091   -1.7891    1.4142 H   0  0  0  0  0  0  0  0  0  0  0  0
    6.2730   -0.4018    1.6959 H   0  0  0  0  0  0  0  0  0  0  0  0
    5.6620   -2.2694    3.2410 H   0  0  0  0  0  0  0  0  0  0  0  0
    4.6698   -4.3763    2.1838 H   0  0  0  0  0  0  0  0  0  0  0  0
    6.3614   -4.1651    1.7674 H   0  0  0  0  0  0  0  0  0  0  0  0
  1  2  1  0
  1 40  1  0
  1 41  1  0
  1 42  1  0
  2  3  1  0
  2 14  2  3
  3  4  2  3
  3 43  1  0
  4  5  1  0
  4 44  1  0
  5  6  2  3
  5 45  1  0
  6 11  1  0
  6  7  1  0
  7  8  1  0
  7 46  1  0
  7 47  1  0
  8  9  1  0
  8 48  1  0
  8 49  1  0
  9 10  1  0
  9 11  1  0
  9 50  1  1
 10 51  1  0
 10 52  1  0
 11 12  1  0
 11 13  1  1
 12 53  1  0
 12 54  1  0
 12 55  1  0
 13 56  1  0
 14 39  1  0
 14 15  1  0
 15 16  1  0
 15 57  1  0
 15 58  1  0
 17 16  1  6
 17 22  1  0
 17 18  1  0
 17 37  1  0
 18 19  1  0
 18 59  1  0
 18 60  1  0
 19 20  1  0
 19 61  1  0
 19 62  1  0
 20 21  1  0
 20 63  1  0
 20 64  1  0
 21 27  1  6
 21 22  1  0
 21 23  1  0
 22 65  1  0
 22 66  1  0
 23 24  1  0
 24 25  1  0
 25 35  1  0
 25 26  1  0
 25 28  1  0
 26 27  1  0
 28 33  1  0
 28 29  1  0
 28 67  1  1
 29 30  1  0
 29 68  1  0
 29 69  1  0
 30 36  1  0
 30 31  1  0
 30 70  1  6
 31 32  1  0
 31 71  1  0
 31 72  1  0
 32 33  1  0
 32 34  1  0
 32 73  1  6
 33 74  1  0
 33 75  1  0
 34 35  1  0
 34 76  1  0
 34 77  1  0
 35 36  1  0
 35 78  1  1
 36 79  1  0
 36 80  1  0
 37 38  2  0
 37 39  1  0
M  END
>  <i_m_ct_stereo_status>  (404) 
1

>  <s_m_source_file>  (404) 
/var/tmp/pbs.5076255.sched01/tmpybatibx8/138x0dlab3k.sdf

>  <i_m_source_file_index>  (404) 
37

>  <i_lp_mmshare_version>  (404) 
48012

>  <i_f3d_flags>  (404) 
0

>  <s_epik_input>  (404) 
W05IMl1bQ0BASF0xW0NIMl1bQ0gyXS9DKFtDQEBdMShbQ0gzXSlbT0hdKT1bQ0hdXFtDSF09W0NIXVxDKFxbQ0gzXSk9QyhPQzI9TykvW0NIMl1PW0NAQF0yM1tDSDJdW0NIMl1bQ0gyXUM0KFtDSDJdMylPT1tDQEBdNShPTzQpW0NASF02W0NIMl1bQ0BASF03W0NIMl1bQ0BIXShbQ0gyXTYpW0NIMl1bQ0BIXTVbQ0gyXTc=

>  <s_epik_cmdline>  (404) 
J2VwaWtfcHl0aG9uJywgJy1waHQnLCAnMi4wJywgJy1waCcsICc3LjAnLCAnLXRuJywgJzgnLCAnLW1hJywgJzIwMCcsICctaW1hZScsICc8aW5maWxlLm1hZT4nLCAnLW9tYWUnLCAnPG91dGZpbGUubWFlPic=

>  <r_epik_Ionization_Penalty>  (404) 
1.93298

>  <r_epik_Ionization_Penalty_Charging>  (404) 
0

>  <r_epik_Ionization_Penalty_Neutral>  (404) 
1.93298

>  <r_epik_State_Penalty>  (404) 
2.05666

>  <r_epik_Charging_Adjusted_Penalty>  (404) 
2.05666

>  <i_epik_Tot_Q>  (404) 
0

>  <i_epik_Tot_abs_Q>  (404) 
0

>  <s_lp_Force_Field>  (404) 
OPLS3e

>  <r_lp_Energy>  (404) 
20.5961

>  <b_lp_Chiralities_Consistent>  (404) 
1

>  <s_lp_Variant>  (404) 
110:0-16

>  <s_i_glide_gridfile>  (404) 
pfpi4k_grid

>  <i_i_glide_lignum>  (404) 
37

>  <i_i_glide_rotatable_bonds>  (404) 
3

>  <r_i_docking_score>  (404) 
-2.87272

>  <r_i_glide_ligand_efficiency>  (404) 
-0.0736595

>  <r_i_glide_ligand_efficiency_sa>  (404) 
-0.249795

>  <r_i_glide_ligand_efficiency_ln>  (404) 
-0.615993

>  <r_i_glide_gscore>  (404) 
-2.87272

>  <r_i_glide_lipo>  (404) 
-1.1227

>  <r_i_glide_hbond>  (404) 
-0.104525

>  <r_i_glide_metal>  (404) 
-0

>  <r_i_glide_rewards>  (404) 
0

>  <r_i_glide_evdw>  (404) 
-23.564

>  <r_i_glide_ecoul>  (404) 
-3.96502

>  <r_i_glide_erotb>  (404) 
0.140033

>  <r_i_glide_esite>  (404) 
-0.0125782

>  <r_i_glide_emodel>  (404) 
-27.8304

>  <r_i_glide_energy>  (404) 
-27.529

>  <r_i_glide_einternal>  (404) 
1.21449

>  <r_i_glide_intrahb_reward>  (404) 
-0

>  <i_i_glide_confnum>  (404) 
1

>  <i_i_glide_posenum>  (404) 
9

>  <r_i_glide_eff_state_penalty>  (404) 
0

>  <ligand_id>  (404) 
110

>  <original_smiles>  (404) 
CC(C=CC=C1CCC(N)C1(C)O)=C1COC2(CCCC3(C2)OOC2(OO3)C3CC4CC(C3)CC2C4)C(=O)O1

>  <smiles>  (404) 
[H]OC1(C([H])([H])[H])C(=C([H])C([H])=C([H])C(=C2OC(=O)C3(OC2([H])[H])C([H])([H])C([H])([H])C([H])([H])C2(OOC4(OO2)C2([H])C([H])([H])C5([H])C([H])([H])C([H])(C2([H])[H])C([H])([H])C4([H])C5([H])[H])C3([H])[H])C([H])([H])[H])C([H])([H])C([H])([H])C1([H])N([H])[H]

$$$$
110:15:1
     RDKit          3D

 80 86  0  0  1  0  0  0  0  0999 V2000
    0.1602    5.3742    3.6357 C   0  0  0  0  0  0  0  0  0  0  0  0
   -0.7607    4.2207    3.9850 C   0  0  0  0  0  0  0  0  0  0  0  0
   -2.1943    4.3117    3.7646 C   0  0  0  0  0  0  0  0  0  0  0  0
   -2.8422    5.0509    2.8308 C   0  0  0  0  0  0  0  0  0  0  0  0
   -2.3108    5.9020    1.7865 C   0  0  0  0  0  0  0  0  0  0  0  0
   -3.0625    6.6327    0.9275 C   0  0  0  0  0  0  0  0  0  0  0  0
   -2.5194    7.3083   -0.3098 C   0  0  0  0  0  0  0  0  0  0  0  0
   -3.6893    7.9364   -1.0500 C   0  0  0  0  0  0  0  0  0  0  0  0
   -4.7709    8.0857    0.0194 C   0  0  1  0  0  0  0  0  0  0  0  0
   -6.0943    8.0474   -0.5731 N   0  0  0  0  0  0  0  0  0  0  0  0
   -4.5502    6.9120    1.0059 C   0  0  1  0  0  0  0  0  0  0  0  0
   -5.4014    5.6541    0.6712 C   0  0  0  0  0  0  0  0  0  0  0  0
   -4.8599    7.4082    2.2799 O   0  0  0  0  0  0  0  0  0  0  0  0
   -0.3174    3.0872    4.6096 C   0  0  0  0  0  0  0  0  0  0  0  0
    1.1147    2.7477    5.0017 C   0  0  0  0  0  0  0  0  0  0  0  0
    1.4617    1.4349    4.6114 O   0  0  0  0  0  0  0  0  0  0  0  0
    0.5705    0.4086    5.0188 C   0  0  2  0  0  0  0  0  0  0  0  0
    0.7049    0.1898    6.5497 C   0  0  0  0  0  0  0  0  0  0  0  0
    2.1014   -0.3550    6.9200 C   0  0  0  0  0  0  0  0  0  0  0  0
    2.4864   -1.6285    6.1434 C   0  0  0  0  0  0  0  0  0  0  0  0
    2.3745   -1.4514    4.6047 C   0  0  1  0  0  0  0  0  0  0  0  0
    0.9628   -0.8876    4.2457 C   0  0  0  0  0  0  0  0  0  0  0  0
    3.4158   -0.6162    4.1546 O   0  0  0  0  0  0  0  0  0  0  0  0
    3.3088   -0.4966    2.6569 O   0  0  0  0  0  0  0  0  0  0  0  0
    3.5074   -1.7781    2.0812 C   0  0  0  0  0  0  0  0  0  0  0  0
    2.4626   -2.6309    2.5285 O   0  0  0  0  0  0  0  0  0  0  0  0
    2.5239   -2.7447    4.0419 O   0  0  0  0  0  0  0  0  0  0  0  0
    3.4392   -1.6505    0.5248 C   0  0  2  0  0  0  0  0  0  0  0  0
    3.5936   -3.0205   -0.1856 C   0  0  0  0  0  0  0  0  0  0  0  0
    4.9841   -3.5870    0.1481 C   0  0  1  0  0  0  0  0  0  0  0  0
    6.0662   -2.6231   -0.3861 C   0  0  0  0  0  0  0  0  0  0  0  0
    5.8850   -1.2498    0.2934 C   0  0  1  0  0  0  0  0  0  0  0  0
    4.4998   -0.6839   -0.0361 C   0  0  0  0  0  0  0  0  0  0  0  0
    6.0046   -1.3955    1.8188 C   0  0  0  0  0  0  0  0  0  0  0  0
    4.9250   -2.3516    2.3989 C   0  0  2  0  0  0  0  0  0  0  0  0
    5.0934   -3.7266    1.6853 C   0  0  0  0  0  0  0  0  0  0  0  0
   -0.8983    0.8090    4.6795 C   0  0  0  0  0  0  0  0  0  0  0  0
   -1.7286   -0.0519    4.3989 O   0  0  0  0  0  0  0  0  0  0  0  0
   -1.2292    2.0973    4.8561 O   0  0  0  0  0  0  0  0  0  0  0  0
   -0.3544    6.3357    3.6937 H   0  0  0  0  0  0  0  0  0  0  0  0
    0.4985    5.2831    2.6113 H   0  0  0  0  0  0  0  0  0  0  0  0
    1.0689    5.4301    4.2180 H   0  0  0  0  0  0  0  0  0  0  0  0
   -2.8516    3.7350    4.4142 H   0  0  0  0  0  0  0  0  0  0  0  0
   -3.9056    4.9729    2.8859 H   0  0  0  0  0  0  0  0  0  0  0  0
   -1.2802    5.8109    1.5212 H   0  0  0  0  0  0  0  0  0  0  0  0
   -1.8579    8.1056   -0.0131 H   0  0  0  0  0  0  0  0  0  0  0  0
   -1.9350    6.6397   -0.9340 H   0  0  0  0  0  0  0  0  0  0  0  0
   -3.4320    8.8833   -1.5224 H   0  0  0  0  0  0  0  0  0  0  0  0
   -3.9968    7.2433   -1.8349 H   0  0  0  0  0  0  0  0  0  0  0  0
   -4.6094    9.0453    0.5248 H   0  0  0  0  0  0  0  0  0  0  0  0
   -6.8358    8.1412    0.1196 H   0  0  0  0  0  0  0  0  0  0  0  0
   -6.2197    8.7445   -1.3081 H   0  0  0  0  0  0  0  0  0  0  0  0
   -5.2371    5.3727   -0.3690 H   0  0  0  0  0  0  0  0  0  0  0  0
   -6.4690    5.8335    0.8223 H   0  0  0  0  0  0  0  0  0  0  0  0
   -5.1769    4.7522    1.2408 H   0  0  0  0  0  0  0  0  0  0  0  0
   -5.7968    7.4898    2.3249 H   0  0  0  0  0  0  0  0  0  0  0  0
    1.8407    3.3599    4.4870 H   0  0  0  0  0  0  0  0  0  0  0  0
    1.2449    2.9094    6.0747 H   0  0  0  0  0  0  0  0  0  0  0  0
    0.5022    1.0973    7.1295 H   0  0  0  0  0  0  0  0  0  0  0  0
   -0.0484   -0.5244    6.8769 H   0  0  0  0  0  0  0  0  0  0  0  0
    2.8490    0.4129    6.7358 H   0  0  0  0  0  0  0  0  0  0  0  0
    2.1230   -0.5602    7.9930 H   0  0  0  0  0  0  0  0  0  0  0  0
    3.4840   -1.9734    6.4294 H   0  0  0  0  0  0  0  0  0  0  0  0
    1.8128   -2.4243    6.4499 H   0  0  0  0  0  0  0  0  0  0  0  0
    0.2659   -1.6499    4.5729 H   0  0  0  0  0  0  0  0  0  0  0  0
    0.8014   -0.8220    3.1528 H   0  0  0  0  0  0  0  0  0  0  0  0
    2.4815   -1.2297    0.2984 H   0  0  0  0  0  0  0  0  0  0  0  0
    2.8135   -3.7146    0.1249 H   0  0  0  0  0  0  0  0  0  0  0  0
    3.4780   -2.9160   -1.2673 H   0  0  0  0  0  0  0  0  0  0  0  0
    5.1053   -4.5612   -0.3337 H   0  0  0  0  0  0  0  0  0  0  0  0
    7.0616   -3.0177   -0.1810 H   0  0  0  0  0  0  0  0  0  0  0  0
    5.9884   -2.5277   -1.4708 H   0  0  0  0  0  0  0  0  0  0  0  0
    6.6474   -0.5588   -0.0580 H   0  0  0  0  0  0  0  0  0  0  0  0
    4.3864   -0.5591   -1.1168 H   0  0  0  0  0  0  0  0  0  0  0  0
    4.3794    0.3118    0.3935 H   0  0  0  0  0  0  0  0  0  0  0  0
    7.0063   -1.7661    2.0254 H   0  0  0  0  0  0  0  0  0  0  0  0
    5.9322   -0.4156    2.2922 H   0  0  0  0  0  0  0  0  0  0  0  0
    5.0833   -2.4643    3.4850 H   0  0  0  0  0  0  0  0  0  0  0  0
    4.3273   -4.4235    2.0279 H   0  0  0  0  0  0  0  0  0  0  0  0
    6.0572   -4.1718    1.9362 H   0  0  0  0  0  0  0  0  0  0  0  0
  1  2  1  0
  1 40  1  0
  1 41  1  0
  1 42  1  0
  2  3  1  0
  2 14  2  3
  3  4  2  3
  3 43  1  0
  4  5  1  0
  4 44  1  0
  5  6  2  3
  5 45  1  0
  6 11  1  0
  6  7  1  0
  7  8  1  0
  7 46  1  0
  7 47  1  0
  8  9  1  0
  8 48  1  0
  8 49  1  0
  9 10  1  0
  9 11  1  0
  9 50  1  1
 10 51  1  0
 10 52  1  0
 11 12  1  0
 11 13  1  1
 12 53  1  0
 12 54  1  0
 12 55  1  0
 13 56  1  0
 14 39  1  0
 14 15  1  0
 15 16  1  0
 15 57  1  0
 15 58  1  0
 17 16  1  6
 17 22  1  0
 17 18  1  0
 17 37  1  0
 18 19  1  0
 18 59  1  0
 18 60  1  0
 19 20  1  0
 19 61  1  0
 19 62  1  0
 20 21  1  0
 20 63  1  0
 20 64  1  0
 21 27  1  6
 21 22  1  0
 21 23  1  0
 22 65  1  0
 22 66  1  0
 23 24  1  0
 24 25  1  0
 25 35  1  0
 25 26  1  0
 25 28  1  0
 26 27  1  0
 28 33  1  0
 28 29  1  0
 28 67  1  1
 29 30  1  0
 29 68  1  0
 29 69  1  0
 30 36  1  0
 30 31  1  0
 30 70  1  6
 31 32  1  0
 31 71  1  0
 31 72  1  0
 32 33  1  0
 32 34  1  0
 32 73  1  6
 33 74  1  0
 33 75  1  0
 34 35  1  0
 34 76  1  0
 34 77  1  0
 35 36  1  0
 35 78  1  1
 36 79  1  0
 36 80  1  0
 37 38  2  0
 37 39  1  0
M  END
>  <i_m_ct_stereo_status>  (405) 
1

>  <s_m_source_file>  (405) 
/var/tmp/pbs.5076255.sched01/tmpybatibx8/138x0dlab3k.sdf

>  <i_m_source_file_index>  (405) 
37

>  <i_lp_mmshare_version>  (405) 
48012

>  <i_f3d_flags>  (405) 
0

>  <s_epik_input>  (405) 
W05IMl1bQ0BASF0xW0NIMl1bQ0gyXS9DKFtDQEBdMShbQ0gzXSlbT0hdKT1bQ0hdXFtDSF09W0NIXVxDKFxbQ0gzXSk9QyhPQzI9TykvW0NIMl1PW0NAQF0yM1tDSDJdW0NIMl1bQ0gyXUM0KFtDSDJdMylPT1tDQEBdNShPTzQpW0NASF02W0NIMl1bQ0BASF03W0NIMl1bQ0BIXShbQ0gyXTYpW0NIMl1bQ0BIXTVbQ0gyXTc=

>  <s_epik_cmdline>  (405) 
J2VwaWtfcHl0aG9uJywgJy1waHQnLCAnMi4wJywgJy1waCcsICc3LjAnLCAnLXRuJywgJzgnLCAnLW1hJywgJzIwMCcsICctaW1hZScsICc8aW5maWxlLm1hZT4nLCAnLW9tYWUnLCAnPG91dGZpbGUubWFlPic=

>  <r_epik_Ionization_Penalty>  (405) 
1.93298

>  <r_epik_Ionization_Penalty_Charging>  (405) 
0

>  <r_epik_Ionization_Penalty_Neutral>  (405) 
1.93298

>  <r_epik_State_Penalty>  (405) 
2.05666

>  <r_epik_Charging_Adjusted_Penalty>  (405) 
2.05666

>  <i_epik_Tot_Q>  (405) 
0

>  <i_epik_Tot_abs_Q>  (405) 
0

>  <s_lp_Force_Field>  (405) 
OPLS3e

>  <r_lp_Energy>  (405) 
20.5961

>  <b_lp_Chiralities_Consistent>  (405) 
1

>  <s_lp_Variant>  (405) 
110:0-16

>  <s_i_glide_gridfile>  (405) 
pfpi4k_grid

>  <i_i_glide_lignum>  (405) 
37

>  <i_i_glide_rotatable_bonds>  (405) 
3

>  <r_i_docking_score>  (405) 
-2.61407

>  <r_i_glide_ligand_efficiency>  (405) 
-0.0670273

>  <r_i_glide_ligand_efficiency_sa>  (405) 
-0.227304

>  <r_i_glide_ligand_efficiency_ln>  (405) 
-0.56053

>  <r_i_glide_gscore>  (405) 
-2.61407

>  <r_i_glide_lipo>  (405) 
-1.16697

>  <r_i_glide_hbond>  (405) 
-0.0732354

>  <r_i_glide_metal>  (405) 
-0

>  <r_i_glide_rewards>  (405) 
0

>  <r_i_glide_evdw>  (405) 
-20.9945

>  <r_i_glide_ecoul>  (405) 
-2.91685

>  <r_i_glide_erotb>  (405) 
0.140033

>  <r_i_glide_esite>  (405) 
-0.0266432

>  <r_i_glide_emodel>  (405) 
-25.0488

>  <r_i_glide_energy>  (405) 
-23.9114

>  <r_i_glide_einternal>  (405) 
1.68135

>  <r_i_glide_intrahb_reward>  (405) 
-0

>  <i_i_glide_confnum>  (405) 
1

>  <i_i_glide_posenum>  (405) 
7

>  <r_i_glide_eff_state_penalty>  (405) 
0

>  <ligand_id>  (405) 
110

>  <original_smiles>  (405) 
CC(C=CC=C1CCC(N)C1(C)O)=C1COC2(CCCC3(C2)OOC2(OO3)C3CC4CC(C3)CC2C4)C(=O)O1

>  <smiles>  (405) 
[H]OC1(C([H])([H])[H])C(=C([H])C([H])=C([H])C(=C2OC(=O)C3(OC2([H])[H])C([H])([H])C([H])([H])C([H])([H])C2(OOC4(OO2)C2([H])C([H])([H])C5([H])C([H])([H])C([H])(C2([H])[H])C([H])([H])C4([H])C5([H])[H])C3([H])[H])C([H])([H])[H])C([H])([H])C([H])([H])C1([H])N([H])[H]

$$$$
110:15:2
     RDKit          3D

 80 86  0  0  1  0  0  0  0  0999 V2000
   -0.0247    4.0948    3.6927 C   0  0  0  0  0  0  0  0  0  0  0  0
   -1.1354    3.1167    4.0484 C   0  0  0  0  0  0  0  0  0  0  0  0
   -2.5393    3.3419    3.6396 C   0  0  0  0  0  0  0  0  0  0  0  0
   -3.0914    4.2968    2.8762 C   0  0  0  0  0  0  0  0  0  0  0  0
   -2.4744    5.4064    2.1450 C   0  0  0  0  0  0  0  0  0  0  0  0
   -3.1574    6.3134    1.4064 C   0  0  0  0  0  0  0  0  0  0  0  0
   -2.4636    7.3224    0.5954 C   0  0  0  0  0  0  0  0  0  0  0  0
   -3.4628    8.0672   -0.2575 C   0  0  0  0  0  0  0  0  0  0  0  0
   -4.7782    7.8660    0.4764 C   0  0  1  0  0  0  0  0  0  0  0  0
   -5.8903    7.8804   -0.4623 N   0  0  0  0  0  0  0  0  0  0  0  0
   -4.6246    6.5180    1.1986 C   0  0  1  0  0  0  0  0  0  0  0  0
   -5.1730    5.3378    0.4174 C   0  0  0  0  0  0  0  0  0  0  0  0
   -5.3184    6.6423    2.3859 O   0  0  0  0  0  0  0  0  0  0  0  0
   -0.8292    2.0183    4.7162 C   0  0  0  0  0  0  0  0  0  0  0  0
    0.5544    1.5797    5.2240 C   0  0  0  0  0  0  0  0  0  0  0  0
    0.8313    0.2250    4.9451 O   0  0  0  0  0  0  0  0  0  0  0  0
   -0.1568   -0.6839    5.3918 C   0  0  2  0  0  0  0  0  0  0  0  0
   -0.1384   -0.7662    6.9359 C   0  0  0  0  0  0  0  0  0  0  0  0
    1.1447   -1.3871    7.4771 C   0  0  0  0  0  0  0  0  0  0  0  0
    1.4405   -2.7663    6.8468 C   0  0  0  0  0  0  0  0  0  0  0  0
    1.4570   -2.7257    5.2886 C   0  0  1  0  0  0  0  0  0  0  0  0
    0.1313   -2.0875    4.7749 C   0  0  0  0  0  0  0  0  0  0  0  0
    2.5934   -2.0067    4.8560 O   0  0  0  0  0  0  0  0  0  0  0  0
    2.5974   -2.0107    3.3389 O   0  0  0  0  0  0  0  0  0  0  0  0
    2.7089   -3.3571    2.8840 C   0  0  0  0  0  0  0  0  0  0  0  0
    1.5731   -4.0951    3.3230 O   0  0  0  0  0  0  0  0  0  0  0  0
    1.5270   -4.0723    4.8443 O   0  0  0  0  0  0  0  0  0  0  0  0
    2.7442   -3.3564    1.3121 C   0  0  2  0  0  0  0  0  0  0  0  0
    2.8564   -4.8033    0.7551 C   0  0  0  0  0  0  0  0  0  0  0  0
    4.1649   -5.4463    1.2514 C   0  0  1  0  0  0  0  0  0  0  0  0
    5.3668   -4.6341    0.7264 C   0  0  0  0  0  0  0  0  0  0  0  0
    5.2593   -3.1945    1.2675 C   0  0  1  0  0  0  0  0  0  0  0  0
    3.9521   -2.5461    0.7735 C   0  0  0  0  0  0  0  0  0  0  0  0
    5.2606   -3.2163    2.8096 C   0  0  0  0  0  0  0  0  0  0  0  0
    4.0510   -4.0170    3.3675 C   0  0  2  0  0  0  0  0  0  0  0  0
    4.1548   -5.4619    2.7960 C   0  0  0  0  0  0  0  0  0  0  0  0
   -1.5715   -0.2165    4.9392 C   0  0  0  0  0  0  0  0  0  0  0  0
   -2.4475   -1.0529    4.6879 O   0  0  0  0  0  0  0  0  0  0  0  0
   -1.8243    1.0982    4.9851 O   0  0  0  0  0  0  0  0  0  0  0  0
   -0.3494    5.1285    3.7070 H   0  0  0  0  0  0  0  0  0  0  0  0
    0.3084    3.7645    2.7126 H   0  0  0  0  0  0  0  0  0  0  0  0
    0.8770    4.0567    4.2893 H   0  0  0  0  0  0  0  0  0  0  0  0
   -3.2779    2.6184    3.9989 H   0  0  0  0  0  0  0  0  0  0  0  0
   -4.1584    4.1988    2.8077 H   0  0  0  0  0  0  0  0  0  0  0  0
   -1.4112    5.4890    2.0157 H   0  0  0  0  0  0  0  0  0  0  0  0
   -2.1969    8.0076    1.3960 H   0  0  0  0  0  0  0  0  0  0  0  0
   -1.5953    6.9367    0.0621 H   0  0  0  0  0  0  0  0  0  0  0  0
   -3.2020    9.1230   -0.3504 H   0  0  0  0  0  0  0  0  0  0  0  0
   -3.4647    7.6114   -1.2488 H   0  0  0  0  0  0  0  0  0  0  0  0
   -4.8860    8.6574    1.2267 H   0  0  0  0  0  0  0  0  0  0  0  0
   -6.7623    7.6902    0.0284 H   0  0  0  0  0  0  0  0  0  0  0  0
   -5.9692    8.7598   -0.9714 H   0  0  0  0  0  0  0  0  0  0  0  0
   -4.6945    5.3756   -0.5644 H   0  0  0  0  0  0  0  0  0  0  0  0
   -6.2554    5.3686    0.2961 H   0  0  0  0  0  0  0  0  0  0  0  0
   -4.8993    4.3824    0.8456 H   0  0  0  0  0  0  0  0  0  0  0  0
   -6.1449    6.2054    2.2529 H   0  0  0  0  0  0  0  0  0  0  0  0
    1.3642    2.1024    4.7220 H   0  0  0  0  0  0  0  0  0  0  0  0
    0.6094    1.8322    6.2898 H   0  0  0  0  0  0  0  0  0  0  0  0
   -0.3468    0.2010    7.4277 H   0  0  0  0  0  0  0  0  0  0  0  0
   -0.9207   -1.4387    7.2506 H   0  0  0  0  0  0  0  0  0  0  0  0
    1.9812   -0.7064    7.2923 H   0  0  0  0  0  0  0  0  0  0  0  0
    1.0429   -1.5003    8.5554 H   0  0  0  0  0  0  0  0  0  0  0  0
    2.3735   -3.1654    7.2318 H   0  0  0  0  0  0  0  0  0  0  0  0
    0.6698   -3.4684    7.1652 H   0  0  0  0  0  0  0  0  0  0  0  0
   -0.6554   -2.7471    5.1136 H   0  0  0  0  0  0  0  0  0  0  0  0
    0.0530   -2.0991    3.6870 H   0  0  0  0  0  0  0  0  0  0  0  0
    1.8333   -2.8949    0.9375 H   0  0  0  0  0  0  0  0  0  0  0  0
    2.0060   -5.4104    1.0668 H   0  0  0  0  0  0  0  0  0  0  0  0
    2.8375   -4.8002   -0.3341 H   0  0  0  0  0  0  0  0  0  0  0  0
    4.2384   -6.4676    0.8671 H   0  0  0  0  0  0  0  0  0  0  0  0
    6.3066   -5.0906    1.0387 H   0  0  0  0  0  0  0  0  0  0  0  0
    5.3787   -4.6322   -0.3669 H   0  0  0  0  0  0  0  0  0  0  0  0
    6.1153   -2.6174    0.9075 H   0  0  0  0  0  0  0  0  0  0  0  0
    3.9364   -2.5131   -0.3159 H   0  0  0  0  0  0  0  0  0  0  0  0
    3.8960   -1.5087    1.1047 H   0  0  0  0  0  0  0  0  0  0  0  0
    6.1850   -3.6739    3.1485 H   0  0  0  0  0  0  0  0  0  0  0  0
    5.2450   -2.1946    3.1936 H   0  0  0  0  0  0  0  0  0  0  0  0
    4.1197   -4.0461    4.4548 H   0  0  0  0  0  0  0  0  0  0  0  0
    3.3084   -6.0610    3.1393 H   0  0  0  0  0  0  0  0  0  0  0  0
    5.0523   -5.9584    3.1608 H   0  0  0  0  0  0  0  0  0  0  0  0
  1  2  1  0
  1 40  1  0
  1 41  1  0
  1 42  1  0
  2  3  1  0
  2 14  2  3
  3  4  2  3
  3 43  1  0
  4  5  1  0
  4 44  1  0
  5  6  2  3
  5 45  1  0
  6 11  1  0
  6  7  1  0
  7  8  1  0
  7 46  1  0
  7 47  1  0
  8  9  1  0
  8 48  1  0
  8 49  1  0
  9 10  1  0
  9 11  1  0
  9 50  1  1
 10 51  1  0
 10 52  1  0
 11 12  1  0
 11 13  1  1
 12 53  1  0
 12 54  1  0
 12 55  1  0
 13 56  1  0
 14 39  1  0
 14 15  1  0
 15 16  1  0
 15 57  1  0
 15 58  1  0
 17 16  1  6
 17 22  1  0
 17 18  1  0
 17 37  1  0
 18 19  1  0
 18 59  1  0
 18 60  1  0
 19 20  1  0
 19 61  1  0
 19 62  1  0
 20 21  1  0
 20 63  1  0
 20 64  1  0
 21 27  1  6
 21 22  1  0
 21 23  1  0
 22 65  1  0
 22 66  1  0
 23 24  1  0
 24 25  1  0
 25 35  1  0
 25 26  1  0
 25 28  1  0
 26 27  1  0
 28 33  1  0
 28 29  1  0
 28 67  1  6
 29 30  1  0
 29 68  1  0
 29 69  1  0
 30 36  1  0
 30 31  1  0
 30 70  1  6
 31 32  1  0
 31 71  1  0
 31 72  1  0
 32 33  1  0
 32 34  1  0
 32 73  1  1
 33 74  1  0
 33 75  1  0
 34 35  1  0
 34 76  1  0
 34 77  1  0
 35 36  1  0
 35 78  1  1
 36 79  1  0
 36 80  1  0
 37 38  2  0
 37 39  1  0
M  END
>  <i_m_ct_stereo_status>  (406) 
1

>  <s_m_source_file>  (406) 
/var/tmp/pbs.5076255.sched01/tmpybatibx8/138x0dlab3k.sdf

>  <i_m_source_file_index>  (406) 
37

>  <i_lp_mmshare_version>  (406) 
48012

>  <i_f3d_flags>  (406) 
0

>  <s_epik_input>  (406) 
W05IMl1bQ0BASF0xW0NIMl1bQ0gyXS9DKFtDQEBdMShbQ0gzXSlbT0hdKT1bQ0hdXFtDSF09W0NIXVxDKFxbQ0gzXSk9QyhPQzI9TykvW0NIMl1PW0NAQF0yM1tDSDJdW0NIMl1bQ0gyXUM0KFtDSDJdMylPT1tDQEBdNShPTzQpW0NASF02W0NIMl1bQ0BASF03W0NIMl1bQ0BIXShbQ0gyXTYpW0NIMl1bQ0BIXTVbQ0gyXTc=

>  <s_epik_cmdline>  (406) 
J2VwaWtfcHl0aG9uJywgJy1waHQnLCAnMi4wJywgJy1waCcsICc3LjAnLCAnLXRuJywgJzgnLCAnLW1hJywgJzIwMCcsICctaW1hZScsICc8aW5maWxlLm1hZT4nLCAnLW9tYWUnLCAnPG91dGZpbGUubWFlPic=

>  <r_epik_Ionization_Penalty>  (406) 
1.93298

>  <r_epik_Ionization_Penalty_Charging>  (406) 
0

>  <r_epik_Ionization_Penalty_Neutral>  (406) 
1.93298

>  <r_epik_State_Penalty>  (406) 
2.05666

>  <r_epik_Charging_Adjusted_Penalty>  (406) 
2.05666

>  <i_epik_Tot_Q>  (406) 
0

>  <i_epik_Tot_abs_Q>  (406) 
0

>  <s_lp_Force_Field>  (406) 
OPLS3e

>  <r_lp_Energy>  (406) 
20.5961

>  <b_lp_Chiralities_Consistent>  (406) 
1

>  <s_lp_Variant>  (406) 
110:0-16

>  <s_i_glide_gridfile>  (406) 
pfpi4k_grid

>  <i_i_glide_lignum>  (406) 
37

>  <i_i_glide_rotatable_bonds>  (406) 
3

>  <r_i_docking_score>  (406) 
-1.94591

>  <r_i_glide_ligand_efficiency>  (406) 
-0.0498951

>  <r_i_glide_ligand_efficiency_sa>  (406) 
-0.169205

>  <r_i_glide_ligand_efficiency_ln>  (406) 
-0.417258

>  <r_i_glide_gscore>  (406) 
-1.94591

>  <r_i_glide_lipo>  (406) 
-0.767825

>  <r_i_glide_hbond>  (406) 
-0.00570911

>  <r_i_glide_metal>  (406) 
-0

>  <r_i_glide_rewards>  (406) 
-0.000767379

>  <r_i_glide_evdw>  (406) 
-15.3312

>  <r_i_glide_ecoul>  (406) 
-3.31104

>  <r_i_glide_erotb>  (406) 
0.140033

>  <r_i_glide_esite>  (406) 
-0.0484262

>  <r_i_glide_emodel>  (406) 
-17.7992

>  <r_i_glide_energy>  (406) 
-18.6422

>  <r_i_glide_einternal>  (406) 
0.489677

>  <r_i_glide_intrahb_reward>  (406) 
-0

>  <i_i_glide_confnum>  (406) 
1

>  <i_i_glide_posenum>  (406) 
16

>  <r_i_glide_eff_state_penalty>  (406) 
0

>  <ligand_id>  (406) 
110

>  <original_smiles>  (406) 
CC(C=CC=C1CCC(N)C1(C)O)=C1COC2(CCCC3(C2)OOC2(OO3)C3CC4CC(C3)CC2C4)C(=O)O1

>  <smiles>  (406) 
[H]OC1(C([H])([H])[H])C(=C([H])C([H])=C([H])C(=C2OC(=O)C3(OC2([H])[H])C([H])([H])C([H])([H])C([H])([H])C2(OOC4(OO2)C2([H])C([H])([H])C5([H])C([H])([H])C([H])(C2([H])[H])C([H])([H])C4([H])C5([H])[H])C3([H])[H])C([H])([H])[H])C([H])([H])C([H])([H])C1([H])N([H])[H]

$$$$
111:0:0
     RDKit          3D

 51 57  0  0  1  0  0  0  0  0999 V2000
    2.6901  -11.0432    3.3474 C   0  0  0  0  0  0  0  0  0  0  0  0
    3.7405  -10.0788    2.9573 N   0  0  1  0  0  0  0  0  0  0  0  0
    3.4253   -9.2896    1.7321 C   0  0  0  0  0  0  0  0  0  0  0  0
    2.7773   -7.9387    2.0775 C   0  0  0  0  0  0  0  0  0  0  0  0
    3.5879   -7.1362    3.2043 C   0  0  2  0  0  0  0  0  0  0  0  0
    4.8368   -6.8287    2.5330 C   0  0  0  0  0  0  0  0  0  0  0  0
    5.9502   -7.6519    2.7490 C   0  0  0  0  0  0  0  0  0  0  0  0
    7.0650   -7.3529    1.9446 C   0  0  0  0  0  0  0  0  0  0  0  0
    6.9839   -6.2794    1.0161 C   0  0  0  0  0  0  0  0  0  0  0  0
    5.8001   -5.5078    0.8467 C   0  0  0  0  0  0  0  0  0  0  0  0
    5.7634   -4.4987   -0.0713 O   0  0  0  0  0  0  0  0  0  0  0  0
    4.6509   -5.7647    1.6160 C   0  0  0  0  0  0  0  0  0  0  0  0
    3.3962   -5.0985    1.4888 O   0  0  0  0  0  0  0  0  0  0  0  0
    2.5520   -4.8607    2.6947 C   0  0  1  0  0  0  0  0  0  0  0  0
    1.1175   -5.4314    3.0815 C   0  0  1  0  0  0  0  0  0  0  0  0
    0.4269   -6.1803    2.1017 O   0  0  0  0  0  0  0  0  0  0  0  0
    1.8594   -6.2304    4.1869 C   0  0  0  0  0  0  0  0  0  0  0  0
    1.9336   -7.5173    4.6434 C   0  0  0  0  0  0  0  0  0  0  0  0
    0.7651   -8.4115    5.0803 C   0  0  0  0  0  0  0  0  0  0  0  0
   -0.2713   -8.6279    4.0725 N   0  0  0  0  0  0  0  0  0  0  0  0
   -0.2573   -9.6831    3.2536 N   0  0  0  0  0  0  0  0  0  0  0  0
   -1.3004   -9.4249    2.5023 C   0  0  0  0  0  0  0  0  0  0  0  0
   -1.9200   -8.2622    2.8000 N   0  0  0  0  0  0  0  0  0  0  0  0
   -1.2949   -7.7780    3.8382 N   0  0  0  0  0  0  0  0  0  0  0  0
    3.4569   -7.9489    4.4687 C   0  0  1  0  0  0  0  0  0  0  0  0
    4.2487   -9.2588    4.1046 C   0  0  2  0  0  0  0  0  0  0  0  0
    5.7358   -8.8002    3.7838 C   0  0  0  0  0  0  0  0  0  0  0  0
    3.1508   -5.7883    3.7009 C   0  0  1  0  0  0  0  0  0  0  0  0
    3.9609   -5.1887    4.7012 O   0  0  0  0  0  0  0  0  0  0  0  0
    1.8510  -10.4314    3.6012 H   0  0  0  0  0  0  0  0  0  0  0  0
    2.9351  -11.6212    4.2455 H   0  0  0  0  0  0  0  0  0  0  0  0
    2.4378  -11.7200    2.5228 H   0  0  0  0  0  0  0  0  0  0  0  0
    4.3461   -9.1157    1.1721 H   0  0  0  0  0  0  0  0  0  0  0  0
    2.7707   -9.8541    1.0625 H   0  0  0  0  0  0  0  0  0  0  0  0
    2.6467   -7.3642    1.1609 H   0  0  0  0  0  0  0  0  0  0  0  0
    1.7713   -8.2148    2.3686 H   0  0  0  0  0  0  0  0  0  0  0  0
    7.9679   -7.9495    2.0070 H   0  0  0  0  0  0  0  0  0  0  0  0
    7.8290   -6.0652    0.3896 H   0  0  0  0  0  0  0  0  0  0  0  0
    4.9129   -4.0834   -0.1219 H   0  0  0  0  0  0  0  0  0  0  0  0
    2.6352   -3.8192    3.0199 H   0  0  0  0  0  0  0  0  0  0  0  0
    0.4785   -4.6303    3.4521 H   0  0  0  0  0  0  0  0  0  0  0  0
    0.8008   -7.0485    2.1049 H   0  0  0  0  0  0  0  0  0  0  0  0
    1.1346   -9.3656    5.4485 H   0  0  0  0  0  0  0  0  0  0  0  0
    0.2804   -7.9425    5.9327 H   0  0  0  0  0  0  0  0  0  0  0  0
   -1.5754  -10.0810    1.6817 H   0  0  0  0  0  0  0  0  0  0  0  0
    3.9945   -7.5359    5.3304 H   0  0  0  0  0  0  0  0  0  0  0  0
    4.2768   -9.9080    4.9836 H   0  0  0  0  0  0  0  0  0  0  0  0
    6.3126   -9.6694    3.4575 H   0  0  0  0  0  0  0  0  0  0  0  0
    6.1960   -8.4688    4.7161 H   0  0  0  0  0  0  0  0  0  0  0  0
    4.8285   -5.1090    4.3257 H   0  0  0  0  0  0  0  0  0  0  0  0
    4.5070  -10.6803    2.6717 H   0  0  0  0  0  0  0  0  0  0  0  0
  1  2  1  0
  1 30  1  0
  1 31  1  0
  1 32  1  0
  2 26  1  0
  2  3  1  0
  2 51  1  6
  3  4  1  0
  3 33  1  0
  3 34  1  0
  5  4  1  6
  4 35  1  0
  4 36  1  0
  5 25  1  0
  5 28  1  0
  5  6  1  0
  6 12  2  0
  6  7  1  0
  7 27  1  0
  7  8  2  0
  8  9  1  0
  8 37  1  0
  9 10  2  0
  9 38  1  0
 10 11  1  0
 10 12  1  0
 11 39  1  0
 12 13  1  0
 13 14  1  0
 14 28  1  0
 14 15  1  0
 14 40  1  1
 15 16  1  0
 15 17  1  0
 15 41  1  1
 16 42  1  0
 17 18  2  0
 17 28  1  0
 18 19  1  0
 18 25  1  0
 19 20  1  0
 19 43  1  0
 19 44  1  0
 20 24  1  0
 20 21  1  0
 21 22  2  0
 22 23  1  0
 22 45  1  0
 23 24  2  0
 25 26  1  0
 25 46  1  1
 26 27  1  0
 26 47  1  1
 27 48  1  0
 27 49  1  0
 28 29  1  1
 29 50  1  0
M  CHG  1   2   1
M  END
>  <i_m_ct_stereo_status>  (407) 
1

>  <s_m_source_file>  (407) 
/var/tmp/pbs.5076255.sched01/tmpybatibx8/138x0dlab3k.sdf

>  <i_m_source_file_index>  (407) 
38

>  <i_lp_mmshare_version>  (407) 
48012

>  <i_f3d_flags>  (407) 
0

>  <s_epik_input>  (407) 
bjFuW2NIXW5uMVtDSDJdQyhbQ0BIXTJbQ0BIXShbQ0gyXTMpTihbQ0gzXSlbQ0gyXVtDSDJdNCk9QyhbQ0BASF01W09IXSlbQ0BdNihbT0hdKVtDQEhdNU9jN2MoW09IXSlbY0hdW2NIXWMzYzdbQ0BdMjQ2

>  <s_epik_cmdline>  (407) 
J2VwaWtfcHl0aG9uJywgJy1waHQnLCAnMi4wJywgJy1waCcsICc3LjAnLCAnLXRuJywgJzgnLCAnLW1hJywgJzIwMCcsICctaW1hZScsICc8aW5maWxlLm1hZT4nLCAnLW9tYWUnLCAnPG91dGZpbGUubWFlPic=

>  <r_lp_tautomer_probability>  (407) 
1

>  <r_epik_Ionization_Penalty>  (407) 
0.108227

>  <r_epik_Ionization_Penalty_Charging>  (407) 
0.10663

>  <r_epik_Ionization_Penalty_Neutral>  (407) 
0.00159722

>  <r_epik_State_Penalty>  (407) 
0.0964735

>  <r_epik_Charging_Adjusted_Penalty>  (407) 
0.203104

>  <i_epik_Tot_Q>  (407) 
1

>  <i_epik_Tot_abs_Q>  (407) 
1

>  <s_lp_Force_Field>  (407) 
OPLS3e

>  <r_lp_Energy>  (407) 
164.884

>  <b_lp_Chiralities_Consistent>  (407) 
1

>  <s_lp_Variant>  (407) 
111:0-1

>  <s_i_glide_gridfile>  (407) 
pfpi4k_grid

>  <i_i_glide_lignum>  (407) 
38

>  <i_i_glide_rotatable_bonds>  (407) 
5

>  <r_i_docking_score>  (407) 
-3.66919

>  <r_i_glide_ligand_efficiency>  (407) 
-0.126524

>  <r_i_glide_ligand_efficiency_sa>  (407) 
-0.388721

>  <r_i_glide_ligand_efficiency_ln>  (407) 
-0.840151

>  <r_i_glide_gscore>  (407) 
-3.66919

>  <r_i_glide_lipo>  (407) 
-0.26616

>  <r_i_glide_hbond>  (407) 
0

>  <r_i_glide_metal>  (407) 
-0

>  <r_i_glide_rewards>  (407) 
-0.993106

>  <r_i_glide_evdw>  (407) 
-25.2497

>  <r_i_glide_ecoul>  (407) 
-8.18361

>  <r_i_glide_erotb>  (407) 
0.248996

>  <r_i_glide_esite>  (407) 
-0.168893

>  <r_i_glide_emodel>  (407) 
-42.1404

>  <r_i_glide_energy>  (407) 
-33.4333

>  <r_i_glide_einternal>  (407) 
1.55534

>  <r_i_glide_intrahb_reward>  (407) 
-0

>  <i_i_glide_confnum>  (407) 
2

>  <i_i_glide_posenum>  (407) 
3

>  <r_i_glide_eff_state_penalty>  (407) 
0

>  <ligand_id>  (407) 
111

>  <original_smiles>  (407) 
CN1CCC23c4c5ccc(O)c4OC4C(O)C(=C(Cn6ncnn6)C2C1C5)C43O

>  <smiles>  (407) 
[H]Oc1c([H])c([H])c2c3c1OC1([H])C([H])(O[H])C4=C(C([H])([H])n5nnc([H])n5)C5([H])C3(C([H])([H])C([H])([H])[N+]([H])(C([H])([H])[H])C5([H])C2([H])[H])C41O[H]

$$$$
111:0:1
     RDKit          3D

 51 57  0  0  1  0  0  0  0  0999 V2000
    6.8957   -8.3160    2.7784 C   0  0  0  0  0  0  0  0  0  0  0  0
    5.4607   -8.6808    2.7906 N   0  0  1  0  0  0  0  0  0  0  0  0
    4.7283   -8.1590    3.9689 C   0  0  0  0  0  0  0  0  0  0  0  0
    4.0925   -6.8015    3.6491 C   0  0  0  0  0  0  0  0  0  0  0  0
    3.2211   -6.8356    2.2955 C   0  0  2  0  0  0  0  0  0  0  0  0
    2.1408   -7.7357    2.6458 C   0  0  0  0  0  0  0  0  0  0  0  0
    2.2223   -9.0776    2.2640 C   0  0  0  0  0  0  0  0  0  0  0  0
    1.1927   -9.8912    2.7705 C   0  0  0  0  0  0  0  0  0  0  0  0
    0.1878   -9.3096    3.5935 C   0  0  0  0  0  0  0  0  0  0  0  0
    0.1967   -7.9299    3.9438 C   0  0  0  0  0  0  0  0  0  0  0  0
   -0.7910   -7.4250    4.7355 O   0  0  0  0  0  0  0  0  0  0  0  0
    1.2069   -7.0679    3.4826 C   0  0  0  0  0  0  0  0  0  0  0  0
    1.3642   -5.6928    3.8314 O   0  0  0  0  0  0  0  0  0  0  0  0
    1.8986   -4.7274    2.8405 C   0  0  1  0  0  0  0  0  0  0  0  0
    3.2403   -3.8795    2.8145 C   0  0  1  0  0  0  0  0  0  0  0  0
    4.0750   -3.8803    3.9533 O   0  0  0  0  0  0  0  0  0  0  0  0
    3.6567   -4.8035    1.6356 C   0  0  0  0  0  0  0  0  0  0  0  0
    4.7468   -5.5587    1.2849 C   0  0  0  0  0  0  0  0  0  0  0  0
    6.2094   -5.1024    1.2212 C   0  0  0  0  0  0  0  0  0  0  0  0
    6.3731   -3.6739    0.9459 N   0  0  0  0  0  0  0  0  0  0  0  0
    5.8711   -2.7135    1.7434 N   0  0  0  0  0  0  0  0  0  0  0  0
    6.2612   -1.6351    1.0927 C   0  0  0  0  0  0  0  0  0  0  0  0
    7.0315   -1.9032   -0.0005 N   0  0  0  0  0  0  0  0  0  0  0  0
    7.1150   -3.1949   -0.0780 N   0  0  0  0  0  0  0  0  0  0  0  0
    4.2161   -7.0490    1.1779 C   0  0  1  0  0  0  0  0  0  0  0  0
    4.7540   -8.4867    1.4885 C   0  0  2  0  0  0  0  0  0  0  0  0
    3.4868   -9.4465    1.4274 C   0  0  0  0  0  0  0  0  0  0  0  0
    2.4783   -5.6291    1.7900 C   0  0  1  0  0  0  0  0  0  0  0  0
    1.7312   -5.7696    0.5869 O   0  0  0  0  0  0  0  0  0  0  0  0
    7.0155   -7.2390    2.7960 H   0  0  0  0  0  0  0  0  0  0  0  0
    7.4034   -8.7105    1.8960 H   0  0  0  0  0  0  0  0  0  0  0  0
    7.3974   -8.7090    3.6649 H   0  0  0  0  0  0  0  0  0  0  0  0
    3.9597   -8.8686    4.2769 H   0  0  0  0  0  0  0  0  0  0  0  0
    5.4003   -8.0740    4.8273 H   0  0  0  0  0  0  0  0  0  0  0  0
    3.5269   -6.4780    4.5225 H   0  0  0  0  0  0  0  0  0  0  0  0
    4.9526   -6.1342    3.6182 H   0  0  0  0  0  0  0  0  0  0  0  0
    1.1738  -10.9505    2.5543 H   0  0  0  0  0  0  0  0  0  0  0  0
   -0.5898   -9.9419    3.9817 H   0  0  0  0  0  0  0  0  0  0  0  0
   -1.3638   -8.1090    5.0444 H   0  0  0  0  0  0  0  0  0  0  0  0
    1.0838   -4.1154    2.4671 H   0  0  0  0  0  0  0  0  0  0  0  0
    3.0263   -2.8473    2.5356 H   0  0  0  0  0  0  0  0  0  0  0  0
    4.3827   -4.7646    4.0766 H   0  0  0  0  0  0  0  0  0  0  0  0
    6.7040   -5.2847    2.1681 H   0  0  0  0  0  0  0  0  0  0  0  0
    6.7407   -5.6707    0.4577 H   0  0  0  0  0  0  0  0  0  0  0  0
    5.9898   -0.6389    1.4192 H   0  0  0  0  0  0  0  0  0  0  0  0
    3.7827   -7.1207    0.1809 H   0  0  0  0  0  0  0  0  0  0  0  0
    5.4353   -8.7991    0.6974 H   0  0  0  0  0  0  0  0  0  0  0  0
    3.7776  -10.4568    1.7084 H   0  0  0  0  0  0  0  0  0  0  0  0
    3.1555   -9.5097    0.3926 H   0  0  0  0  0  0  0  0  0  0  0  0
    2.3317   -5.6863   -0.1412 H   0  0  0  0  0  0  0  0  0  0  0  0
    5.4688   -9.6850    2.9244 H   0  0  0  0  0  0  0  0  0  0  0  0
  1  2  1  0
  1 30  1  0
  1 31  1  0
  1 32  1  0
  2 26  1  0
  2  3  1  0
  2 51  1  1
  3  4  1  0
  3 33  1  0
  3 34  1  0
  5  4  1  1
  4 35  1  0
  4 36  1  0
  5 25  1  0
  5 28  1  0
  5  6  1  0
  6 12  2  0
  6  7  1  0
  7 27  1  0
  7  8  2  0
  8  9  1  0
  8 37  1  0
  9 10  2  0
  9 38  1  0
 10 11  1  0
 10 12  1  0
 11 39  1  0
 12 13  1  0
 13 14  1  0
 14 28  1  0
 14 15  1  0
 14 40  1  6
 15 16  1  0
 15 17  1  0
 15 41  1  6
 16 42  1  0
 17 18  2  0
 17 28  1  0
 18 19  1  0
 18 25  1  0
 19 20  1  0
 19 43  1  0
 19 44  1  0
 20 24  1  0
 20 21  1  0
 21 22  2  0
 22 23  1  0
 22 45  1  0
 23 24  2  0
 25 26  1  0
 25 46  1  6
 26 27  1  0
 26 47  1  6
 27 48  1  0
 27 49  1  0
 28 29  1  6
 29 50  1  0
M  CHG  1   2   1
M  END
>  <i_m_ct_stereo_status>  (408) 
1

>  <s_m_source_file>  (408) 
/var/tmp/pbs.5076255.sched01/tmpybatibx8/138x0dlab3k.sdf

>  <i_m_source_file_index>  (408) 
38

>  <i_lp_mmshare_version>  (408) 
48012

>  <i_f3d_flags>  (408) 
0

>  <s_epik_input>  (408) 
bjFuW2NIXW5uMVtDSDJdQyhbQ0BIXTJbQ0BIXShbQ0gyXTMpTihbQ0gzXSlbQ0gyXVtDSDJdNCk9QyhbQ0BASF01W09IXSlbQ0BdNihbT0hdKVtDQEhdNU9jN2MoW09IXSlbY0hdW2NIXWMzYzdbQ0BdMjQ2

>  <s_epik_cmdline>  (408) 
J2VwaWtfcHl0aG9uJywgJy1waHQnLCAnMi4wJywgJy1waCcsICc3LjAnLCAnLXRuJywgJzgnLCAnLW1hJywgJzIwMCcsICctaW1hZScsICc8aW5maWxlLm1hZT4nLCAnLW9tYWUnLCAnPG91dGZpbGUubWFlPic=

>  <r_lp_tautomer_probability>  (408) 
1

>  <r_epik_Ionization_Penalty>  (408) 
0.108227

>  <r_epik_Ionization_Penalty_Charging>  (408) 
0.10663

>  <r_epik_Ionization_Penalty_Neutral>  (408) 
0.00159722

>  <r_epik_State_Penalty>  (408) 
0.0964735

>  <r_epik_Charging_Adjusted_Penalty>  (408) 
0.203104

>  <i_epik_Tot_Q>  (408) 
1

>  <i_epik_Tot_abs_Q>  (408) 
1

>  <s_lp_Force_Field>  (408) 
OPLS3e

>  <r_lp_Energy>  (408) 
164.884

>  <b_lp_Chiralities_Consistent>  (408) 
1

>  <s_lp_Variant>  (408) 
111:0-1

>  <s_i_glide_gridfile>  (408) 
pfpi4k_grid

>  <i_i_glide_lignum>  (408) 
38

>  <i_i_glide_rotatable_bonds>  (408) 
5

>  <r_i_docking_score>  (408) 
-3.61874

>  <r_i_glide_ligand_efficiency>  (408) 
-0.124784

>  <r_i_glide_ligand_efficiency_sa>  (408) 
-0.383377

>  <r_i_glide_ligand_efficiency_ln>  (408) 
-0.8286

>  <r_i_glide_gscore>  (408) 
-3.61874

>  <r_i_glide_lipo>  (408) 
-0.445049

>  <r_i_glide_hbond>  (408) 
0

>  <r_i_glide_metal>  (408) 
-0

>  <r_i_glide_rewards>  (408) 
-1.008

>  <r_i_glide_evdw>  (408) 
-25.2505

>  <r_i_glide_ecoul>  (408) 
-7.44424

>  <r_i_glide_erotb>  (408) 
0.248996

>  <r_i_glide_esite>  (408) 
-0.0355266

>  <r_i_glide_emodel>  (408) 
-41.4739

>  <r_i_glide_energy>  (408) 
-32.6948

>  <r_i_glide_einternal>  (408) 
2.85922

>  <r_i_glide_intrahb_reward>  (408) 
-0

>  <i_i_glide_confnum>  (408) 
4

>  <i_i_glide_posenum>  (408) 
6

>  <r_i_glide_eff_state_penalty>  (408) 
0

>  <ligand_id>  (408) 
111

>  <original_smiles>  (408) 
CN1CCC23c4c5ccc(O)c4OC4C(O)C(=C(Cn6ncnn6)C2C1C5)C43O

>  <smiles>  (408) 
[H]Oc1c([H])c([H])c2c3c1OC1([H])C([H])(O[H])C4=C(C([H])([H])n5nnc([H])n5)C5([H])C3(C([H])([H])C([H])([H])[N+]([H])(C([H])([H])[H])C5([H])C2([H])[H])C41O[H]

$$$$
111:0:2
     RDKit          3D

 51 57  0  0  1  0  0  0  0  0999 V2000
    2.1214    0.6002    1.4635 C   0  0  0  0  0  0  0  0  0  0  0  0
    2.4553   -0.3083    2.5818 N   0  0  1  0  0  0  0  0  0  0  0  0
    1.5816   -1.4941    2.6443 C   0  0  0  0  0  0  0  0  0  0  0  0
    2.2129   -2.6844    1.9280 C   0  0  0  0  0  0  0  0  0  0  0  0
    3.7082   -2.9642    2.4017 C   0  0  2  0  0  0  0  0  0  0  0  0
    3.5266   -3.3644    3.7804 C   0  0  0  0  0  0  0  0  0  0  0  0
    3.7112   -2.4084    4.8020 C   0  0  0  0  0  0  0  0  0  0  0  0
    3.3846   -2.8590    6.0897 C   0  0  0  0  0  0  0  0  0  0  0  0
    2.9093   -4.1902    6.2595 C   0  0  0  0  0  0  0  0  0  0  0  0
    2.7313   -5.0841    5.1526 C   0  0  0  0  0  0  0  0  0  0  0  0
    2.2668   -6.3466    5.3684 O   0  0  0  0  0  0  0  0  0  0  0  0
    3.0344   -4.6905    3.8450 C   0  0  0  0  0  0  0  0  0  0  0  0
    2.8424   -5.4789    2.6546 O   0  0  0  0  0  0  0  0  0  0  0  0
    3.8167   -5.3872    1.5374 C   0  0  1  0  0  0  0  0  0  0  0  0
    3.5939   -4.8666    0.0571 C   0  0  1  0  0  0  0  0  0  0  0  0
    2.2646   -4.5851   -0.3057 O   0  0  0  0  0  0  0  0  0  0  0  0
    4.4685   -3.6568    0.4761 C   0  0  0  0  0  0  0  0  0  0  0  0
    4.4569   -2.2865    0.4024 C   0  0  0  0  0  0  0  0  0  0  0  0
    4.2577   -1.4114   -0.8487 C   0  0  0  0  0  0  0  0  0  0  0  0
    3.9570   -2.1609   -2.0631 N   0  0  0  0  0  0  0  0  0  0  0  0
    2.7199   -2.5778   -2.3769 N   0  0  0  0  0  0  0  0  0  0  0  0
    2.9589   -3.2048   -3.5127 C   0  0  0  0  0  0  0  0  0  0  0  0
    4.2585   -3.1149   -3.9202 N   0  0  0  0  0  0  0  0  0  0  0  0
    4.8857   -2.4516   -3.0018 N   0  0  0  0  0  0  0  0  0  0  0  0
    4.5138   -1.7829    1.9118 C   0  0  1  0  0  0  0  0  0  0  0  0
    3.9051   -0.6144    2.7618 C   0  0  2  0  0  0  0  0  0  0  0  0
    4.1573   -1.0025    4.2863 C   0  0  0  0  0  0  0  0  0  0  0  0
    4.5166   -4.0968    1.8461 C   0  0  1  0  0  0  0  0  0  0  0  0
    5.8376   -4.1861    2.3323 O   0  0  0  0  0  0  0  0  0  0  0  0
    2.1291    0.0578    0.5356 H   0  0  0  0  0  0  0  0  0  0  0  0
    2.8274    1.4306    1.4065 H   0  0  0  0  0  0  0  0  0  0  0  0
    1.1061    1.0019    1.5503 H   0  0  0  0  0  0  0  0  0  0  0  0
    1.3754   -1.7542    3.6807 H   0  0  0  0  0  0  0  0  0  0  0  0
    0.6153   -1.2611    2.2081 H   0  0  0  0  0  0  0  0  0  0  0  0
    1.5655   -3.5418    2.0706 H   0  0  0  0  0  0  0  0  0  0  0  0
    2.1133   -2.4359    0.8765 H   0  0  0  0  0  0  0  0  0  0  0  0
    3.4651   -2.1922    6.9479 H   0  0  0  0  0  0  0  0  0  0  0  0
    2.6509   -4.5296    7.2455 H   0  0  0  0  0  0  0  0  0  0  0  0
    2.1810   -6.5681    6.2803 H   0  0  0  0  0  0  0  0  0  0  0  0
    4.5074   -6.2378    1.5126 H   0  0  0  0  0  0  0  0  0  0  0  0
    4.0400   -5.5354   -0.6863 H   0  0  0  0  0  0  0  0  0  0  0  0
    2.1943   -4.7877   -1.2165 H   0  0  0  0  0  0  0  0  0  0  0  0
    3.4329   -0.7291   -0.7469 H   0  0  0  0  0  0  0  0  0  0  0  0
    5.1321   -0.7784   -1.0141 H   0  0  0  0  0  0  0  0  0  0  0  0
    2.2076   -3.7861   -4.0262 H   0  0  0  0  0  0  0  0  0  0  0  0
    5.5658   -1.8019    2.2050 H   0  0  0  0  0  0  0  0  0  0  0  0
    4.4560    0.3037    2.5718 H   0  0  0  0  0  0  0  0  0  0  0  0
    3.7097   -0.2529    4.9404 H   0  0  0  0  0  0  0  0  0  0  0  0
    5.2300   -0.9481    4.4693 H   0  0  0  0  0  0  0  0  0  0  0  0
    6.3172   -4.7305    1.7298 H   0  0  0  0  0  0  0  0  0  0  0  0
    2.2047    0.2388    3.3886 H   0  0  0  0  0  0  0  0  0  0  0  0
  1  2  1  0
  1 30  1  0
  1 31  1  0
  1 32  1  0
  2 26  1  0
  2  3  1  0
  2 51  1  1
  3  4  1  0
  3 33  1  0
  3 34  1  0
  5  4  1  6
  4 35  1  0
  4 36  1  0
  5 25  1  0
  5 28  1  0
  5  6  1  0
  6 12  2  0
  6  7  1  0
  7 27  1  0
  7  8  2  0
  8  9  1  0
  8 37  1  0
  9 10  2  0
  9 38  1  0
 10 11  1  0
 10 12  1  0
 11 39  1  0
 12 13  1  0
 13 14  1  0
 14 28  1  0
 14 15  1  0
 14 40  1  6
 15 16  1  0
 15 17  1  0
 15 41  1  6
 16 42  1  0
 17 18  2  0
 17 28  1  0
 18 19  1  0
 18 25  1  0
 19 20  1  0
 19 43  1  0
 19 44  1  0
 20 24  1  0
 20 21  1  0
 21 22  2  0
 22 23  1  0
 22 45  1  0
 23 24  2  0
 25 26  1  0
 25 46  1  1
 26 27  1  0
 26 47  1  6
 27 48  1  0
 27 49  1  0
 28 29  1  1
 29 50  1  0
M  CHG  1   2   1
M  END
>  <i_m_ct_stereo_status>  (409) 
1

>  <s_m_source_file>  (409) 
/var/tmp/pbs.5076255.sched01/tmpybatibx8/138x0dlab3k.sdf

>  <i_m_source_file_index>  (409) 
38

>  <i_lp_mmshare_version>  (409) 
48012

>  <i_f3d_flags>  (409) 
0

>  <s_epik_input>  (409) 
bjFuW2NIXW5uMVtDSDJdQyhbQ0BIXTJbQ0BIXShbQ0gyXTMpTihbQ0gzXSlbQ0gyXVtDSDJdNCk9QyhbQ0BASF01W09IXSlbQ0BdNihbT0hdKVtDQEhdNU9jN2MoW09IXSlbY0hdW2NIXWMzYzdbQ0BdMjQ2

>  <s_epik_cmdline>  (409) 
J2VwaWtfcHl0aG9uJywgJy1waHQnLCAnMi4wJywgJy1waCcsICc3LjAnLCAnLXRuJywgJzgnLCAnLW1hJywgJzIwMCcsICctaW1hZScsICc8aW5maWxlLm1hZT4nLCAnLW9tYWUnLCAnPG91dGZpbGUubWFlPic=

>  <r_lp_tautomer_probability>  (409) 
1

>  <r_epik_Ionization_Penalty>  (409) 
0.108227

>  <r_epik_Ionization_Penalty_Charging>  (409) 
0.10663

>  <r_epik_Ionization_Penalty_Neutral>  (409) 
0.00159722

>  <r_epik_State_Penalty>  (409) 
0.0964735

>  <r_epik_Charging_Adjusted_Penalty>  (409) 
0.203104

>  <i_epik_Tot_Q>  (409) 
1

>  <i_epik_Tot_abs_Q>  (409) 
1

>  <s_lp_Force_Field>  (409) 
OPLS3e

>  <r_lp_Energy>  (409) 
164.884

>  <b_lp_Chiralities_Consistent>  (409) 
1

>  <s_lp_Variant>  (409) 
111:0-1

>  <s_i_glide_gridfile>  (409) 
pfpi4k_grid

>  <i_i_glide_lignum>  (409) 
38

>  <i_i_glide_rotatable_bonds>  (409) 
5

>  <r_i_docking_score>  (409) 
-3.45525

>  <r_i_glide_ligand_efficiency>  (409) 
-0.119147

>  <r_i_glide_ligand_efficiency_sa>  (409) 
-0.366056

>  <r_i_glide_ligand_efficiency_ln>  (409) 
-0.791165

>  <r_i_glide_gscore>  (409) 
-3.45525

>  <r_i_glide_lipo>  (409) 
-0.122082

>  <r_i_glide_hbond>  (409) 
0

>  <r_i_glide_metal>  (409) 
-0

>  <r_i_glide_rewards>  (409) 
-0.980724

>  <r_i_glide_evdw>  (409) 
-24.9826

>  <r_i_glide_ecoul>  (409) 
-8.80875

>  <r_i_glide_erotb>  (409) 
0.248996

>  <r_i_glide_esite>  (409) 
-0.0310009

>  <r_i_glide_emodel>  (409) 
-42.1556

>  <r_i_glide_energy>  (409) 
-33.7913

>  <r_i_glide_einternal>  (409) 
2.17888

>  <r_i_glide_intrahb_reward>  (409) 
-0

>  <i_i_glide_confnum>  (409) 
3

>  <i_i_glide_posenum>  (409) 
1

>  <r_i_glide_eff_state_penalty>  (409) 
0

>  <ligand_id>  (409) 
111

>  <original_smiles>  (409) 
CN1CCC23c4c5ccc(O)c4OC4C(O)C(=C(Cn6ncnn6)C2C1C5)C43O

>  <smiles>  (409) 
[H]Oc1c([H])c([H])c2c3c1OC1([H])C([H])(O[H])C4=C(C([H])([H])n5nnc([H])n5)C5([H])C3(C([H])([H])C([H])([H])[N+]([H])(C([H])([H])[H])C5([H])C2([H])[H])C41O[H]

$$$$
111:1:0
     RDKit          3D

 50 56  0  0  1  0  0  0  0  0999 V2000
    5.2368   -3.9190    6.1271 C   0  0  0  0  0  0  0  0  0  0  0  0
    4.8611   -4.1437    4.7334 N   0  0  0  0  0  0  0  0  0  0  0  0
    3.4354   -3.8807    4.5534 C   0  0  0  0  0  0  0  0  0  0  0  0
    3.0483   -4.1655    3.0949 C   0  0  0  0  0  0  0  0  0  0  0  0
    3.5362   -5.6081    2.6028 C   0  0  2  0  0  0  0  0  0  0  0  0
    2.6336   -6.5012    3.3036 C   0  0  0  0  0  0  0  0  0  0  0  0
    3.0581   -7.0705    4.5041 C   0  0  0  0  0  0  0  0  0  0  0  0
    2.0711   -7.8345    5.1582 C   0  0  0  0  0  0  0  0  0  0  0  0
    0.7673   -7.9409    4.5907 C   0  0  0  0  0  0  0  0  0  0  0  0
    0.4151   -7.2813    3.3790 C   0  0  0  0  0  0  0  0  0  0  0  0
   -0.8564   -7.3738    2.8877 O   0  0  0  0  0  0  0  0  0  0  0  0
    1.3650   -6.5240    2.6612 C   0  0  0  0  0  0  0  0  0  0  0  0
    1.1083   -5.7955    1.4627 O   0  0  0  0  0  0  0  0  0  0  0  0
    2.1667   -5.6082    0.4353 C   0  0  1  0  0  0  0  0  0  0  0  0
    2.9905   -4.3395   -0.0896 C   0  0  1  0  0  0  0  0  0  0  0  0
    2.6761   -3.0420    0.3669 O   0  0  0  0  0  0  0  0  0  0  0  0
    4.2092   -5.0121    0.6025 C   0  0  0  0  0  0  0  0  0  0  0  0
    5.2246   -4.6825    1.4621 C   0  0  0  0  0  0  0  0  0  0  0  0
    6.0151   -3.3802    1.4895 C   0  0  0  0  0  0  0  0  0  0  0  0
    7.1143   -3.3885    0.5390 N   0  0  0  0  0  0  0  0  0  0  0  0
    7.0871   -2.6996   -0.6218 N   0  0  0  0  0  0  0  0  0  0  0  0
    8.2656   -3.0537   -1.1073 C   0  0  0  0  0  0  0  0  0  0  0  0
    8.9927   -3.8798   -0.2902 N   0  0  0  0  0  0  0  0  0  0  0  0
    8.2548   -4.0890    0.7500 N   0  0  0  0  0  0  0  0  0  0  0  0
    5.0414   -5.6238    2.7178 C   0  0  1  0  0  0  0  0  0  0  0  0
    5.2711   -5.4663    4.2413 C   0  0  2  0  0  0  0  0  0  0  0  0
    4.5079   -6.6850    4.9520 C   0  0  0  0  0  0  0  0  0  0  0  0
    3.3883   -6.0551    1.1747 C   0  0  1  0  0  0  0  0  0  0  0  0
    3.8835   -7.3449    0.8699 O   0  0  0  0  0  0  0  0  0  0  0  0
    5.0560   -2.8793    6.4030 H   0  0  0  0  0  0  0  0  0  0  0  0
    6.2978   -4.1180    6.2818 H   0  0  0  0  0  0  0  0  0  0  0  0
    4.6720   -4.5410    6.8239 H   0  0  0  0  0  0  0  0  0  0  0  0
    2.8202   -4.4714    5.2339 H   0  0  0  0  0  0  0  0  0  0  0  0
    3.2426   -2.8291    4.7810 H   0  0  0  0  0  0  0  0  0  0  0  0
    1.9744   -4.0096    2.9723 H   0  0  0  0  0  0  0  0  0  0  0  0
    3.4973   -3.3301    2.5667 H   0  0  0  0  0  0  0  0  0  0  0  0
    2.2889   -8.3090    6.1028 H   0  0  0  0  0  0  0  0  0  0  0  0
    0.0166   -8.5148    5.1150 H   0  0  0  0  0  0  0  0  0  0  0  0
   -1.3418   -8.0727    3.3022 H   0  0  0  0  0  0  0  0  0  0  0  0
    1.9377   -6.2539   -0.4046 H   0  0  0  0  0  0  0  0  0  0  0  0
    3.0313   -4.3225   -1.1781 H   0  0  0  0  0  0  0  0  0  0  0  0
    2.2117   -2.5840   -0.3239 H   0  0  0  0  0  0  0  0  0  0  0  0
    5.3579   -2.5414    1.2548 H   0  0  0  0  0  0  0  0  0  0  0  0
    6.4053   -3.1969    2.4799 H   0  0  0  0  0  0  0  0  0  0  0  0
    8.6276   -2.7020   -2.0677 H   0  0  0  0  0  0  0  0  0  0  0  0
    5.5052   -6.5739    2.4519 H   0  0  0  0  0  0  0  0  0  0  0  0
    6.3372   -5.5605    4.4485 H   0  0  0  0  0  0  0  0  0  0  0  0
    4.4866   -6.5619    6.0326 H   0  0  0  0  0  0  0  0  0  0  0  0
    5.1017   -7.5847    4.7918 H   0  0  0  0  0  0  0  0  0  0  0  0
    3.4186   -7.9544    1.4282 H   0  0  0  0  0  0  0  0  0  0  0  0
  1  2  1  0
  1 30  1  0
  1 31  1  0
  1 32  1  0
  2 26  1  0
  2  3  1  0
  3  4  1  0
  3 33  1  0
  3 34  1  0
  5  4  1  6
  4 35  1  0
  4 36  1  0
  5 25  1  0
  5 28  1  0
  5  6  1  0
  6 12  2  0
  6  7  1  0
  7 27  1  0
  7  8  2  0
  8  9  1  0
  8 37  1  0
  9 10  2  0
  9 38  1  0
 10 11  1  0
 10 12  1  0
 11 39  1  0
 12 13  1  0
 13 14  1  0
 14 28  1  0
 14 15  1  0
 14 40  1  6
 15 16  1  0
 15 17  1  0
 15 41  1  6
 16 42  1  0
 17 18  2  0
 17 28  1  0
 18 19  1  0
 18 25  1  0
 19 20  1  0
 19 43  1  0
 19 44  1  0
 20 24  1  0
 20 21  1  0
 21 22  2  0
 22 23  1  0
 22 45  1  0
 23 24  2  0
 25 26  1  0
 25 46  1  6
 26 27  1  0
 26 47  1  6
 27 48  1  0
 27 49  1  0
 28 29  1  1
 29 50  1  0
M  END
>  <i_m_ct_stereo_status>  (410) 
1

>  <s_m_source_file>  (410) 
/var/tmp/pbs.5076255.sched01/tmpybatibx8/138x0dlab3k.sdf

>  <i_m_source_file_index>  (410) 
39

>  <i_lp_mmshare_version>  (410) 
48012

>  <i_f3d_flags>  (410) 
0

>  <s_epik_input>  (410) 
bjFuW2NIXW5uMVtDSDJdQyhbQ0BIXTJbQ0BIXShbQ0gyXTMpTihbQ0gzXSlbQ0gyXVtDSDJdNCk9QyhbQ0BASF01W09IXSlbQ0BdNihbT0hdKVtDQEhdNU9jN2MoW09IXSlbY0hdW2NIXWMzYzdbQ0BdMjQ2

>  <s_epik_cmdline>  (410) 
J2VwaWtfcHl0aG9uJywgJy1waHQnLCAnMi4wJywgJy1waCcsICc3LjAnLCAnLXRuJywgJzgnLCAnLW1hJywgJzIwMCcsICctaW1hZScsICc8aW5maWxlLm1hZT4nLCAnLW9tYWUnLCAnPG91dGZpbGUubWFlPic=

>  <r_lp_tautomer_probability>  (410) 
1

>  <r_epik_Ionization_Penalty>  (410) 
1.06893

>  <r_epik_Ionization_Penalty_Charging>  (410) 
0

>  <r_epik_Ionization_Penalty_Neutral>  (410) 
1.06893

>  <r_epik_State_Penalty>  (410) 
1.12298

>  <r_epik_Charging_Adjusted_Penalty>  (410) 
1.12298

>  <i_epik_Tot_Q>  (410) 
0

>  <i_epik_Tot_abs_Q>  (410) 
0

>  <s_lp_Force_Field>  (410) 
OPLS3e

>  <r_lp_Energy>  (410) 
150.899

>  <b_lp_Chiralities_Consistent>  (410) 
1

>  <s_lp_Variant>  (410) 
111:0-2

>  <s_i_glide_gridfile>  (410) 
pfpi4k_grid

>  <i_i_glide_lignum>  (410) 
39

>  <i_i_glide_rotatable_bonds>  (410) 
5

>  <r_i_docking_score>  (410) 
-3.3523

>  <r_i_glide_ligand_efficiency>  (410) 
-0.115597

>  <r_i_glide_ligand_efficiency_sa>  (410) 
-0.35515

>  <r_i_glide_ligand_efficiency_ln>  (410) 
-0.767593

>  <r_i_glide_gscore>  (410) 
-3.3523

>  <r_i_glide_lipo>  (410) 
-0.193463

>  <r_i_glide_hbond>  (410) 
-0.140946

>  <r_i_glide_metal>  (410) 
-0

>  <r_i_glide_rewards>  (410) 
-0.876829

>  <r_i_glide_evdw>  (410) 
-22.4046

>  <r_i_glide_ecoul>  (410) 
-7.88642

>  <r_i_glide_erotb>  (410) 
0.250138

>  <r_i_glide_esite>  (410) 
-0.0880096

>  <r_i_glide_emodel>  (410) 
-36.2593

>  <r_i_glide_energy>  (410) 
-30.291

>  <r_i_glide_einternal>  (410) 
2.48349

>  <r_i_glide_intrahb_reward>  (410) 
-0

>  <i_i_glide_confnum>  (410) 
1

>  <i_i_glide_posenum>  (410) 
7

>  <r_i_glide_eff_state_penalty>  (410) 
0

>  <ligand_id>  (410) 
111

>  <original_smiles>  (410) 
CN1CCC23c4c5ccc(O)c4OC4C(O)C(=C(Cn6ncnn6)C2C1C5)C43O

>  <smiles>  (410) 
[H]Oc1c([H])c([H])c2c3c1OC1([H])C([H])(O[H])C4=C(C([H])([H])n5nnc([H])n5)C5([H])C([H])(N(C([H])([H])[H])C([H])([H])C([H])([H])C35C41O[H])C2([H])[H]

$$$$
111:1:1
     RDKit          3D

 50 56  0  0  1  0  0  0  0  0999 V2000
    2.0550    1.3872    2.1205 C   0  0  0  0  0  0  0  0  0  0  0  0
    2.6222    0.1480    1.5921 N   0  0  0  0  0  0  0  0  0  0  0  0
    1.8614   -0.9956    2.0705 C   0  0  0  0  0  0  0  0  0  0  0  0
    2.5005   -2.2822    1.5342 C   0  0  0  0  0  0  0  0  0  0  0  0
    4.0736   -2.3570    1.8120 C   0  0  2  0  0  0  0  0  0  0  0  0
    4.1237   -2.5992    3.2355 C   0  0  0  0  0  0  0  0  0  0  0  0
    4.3066   -1.5066    4.0987 C   0  0  0  0  0  0  0  0  0  0  0  0
    4.2294   -1.8340    5.4628 C   0  0  0  0  0  0  0  0  0  0  0  0
    3.9676   -3.1788    5.8518 C   0  0  0  0  0  0  0  0  0  0  0  0
    3.7575   -4.2188    4.8934 C   0  0  0  0  0  0  0  0  0  0  0  0
    3.4917   -5.4886    5.3145 O   0  0  0  0  0  0  0  0  0  0  0  0
    3.8249   -3.9599    3.5141 C   0  0  0  0  0  0  0  0  0  0  0  0
    3.5688   -4.9023    2.4646 O   0  0  0  0  0  0  0  0  0  0  0  0
    4.3409   -4.8397    1.1954 C   0  0  1  0  0  0  0  0  0  0  0  0
    3.8814   -4.5124   -0.2872 C   0  0  1  0  0  0  0  0  0  0  0  0
    2.4996   -4.3951   -0.5115 O   0  0  0  0  0  0  0  0  0  0  0  0
    4.6634   -3.1902   -0.1159 C   0  0  0  0  0  0  0  0  0  0  0  0
    4.4942   -1.8432   -0.3196 C   0  0  0  0  0  0  0  0  0  0  0  0
    3.8175   -1.1542   -1.5017 C   0  0  0  0  0  0  0  0  0  0  0  0
    3.5320   -2.0545   -2.6140 N   0  0  0  0  0  0  0  0  0  0  0  0
    2.3282   -2.6161   -2.8369 N   0  0  0  0  0  0  0  0  0  0  0  0
    2.6154   -3.3741   -3.8835 C   0  0  0  0  0  0  0  0  0  0  0  0
    3.9171   -3.2814   -4.2814 N   0  0  0  0  0  0  0  0  0  0  0  0
    4.4873   -2.4354   -3.4897 N   0  0  0  0  0  0  0  0  0  0  0  0
    4.6982   -1.1859    1.0992 C   0  0  1  0  0  0  0  0  0  0  0  0
    4.0630    0.0189    1.8358 C   0  0  2  0  0  0  0  0  0  0  0  0
    4.4427   -0.1219    3.3875 C   0  0  0  0  0  0  0  0  0  0  0  0
    4.9299   -3.4674    1.2678 C   0  0  1  0  0  0  0  0  0  0  0  0
    6.3117   -3.4140    1.5485 O   0  0  0  0  0  0  0  0  0  0  0  0
    1.0291    1.5063    1.7689 H   0  0  0  0  0  0  0  0  0  0  0  0
    2.6163    2.2556    1.7807 H   0  0  0  0  0  0  0  0  0  0  0  0
    2.0333    1.4101    3.2107 H   0  0  0  0  0  0  0  0  0  0  0  0
    1.8025   -1.0250    3.1592 H   0  0  0  0  0  0  0  0  0  0  0  0
    0.8426   -0.9133    1.6892 H   0  0  0  0  0  0  0  0  0  0  0  0
    1.9573   -3.1429    1.9196 H   0  0  0  0  0  0  0  0  0  0  0  0
    2.2406   -2.2553    0.4838 H   0  0  0  0  0  0  0  0  0  0  0  0
    4.3268   -1.0606    6.2173 H   0  0  0  0  0  0  0  0  0  0  0  0
    3.8902   -3.4144    6.8990 H   0  0  0  0  0  0  0  0  0  0  0  0
    3.4944   -5.5802    6.2518 H   0  0  0  0  0  0  0  0  0  0  0  0
    5.1209   -5.6058    1.1701 H   0  0  0  0  0  0  0  0  0  0  0  0
    4.3194   -5.2139   -1.0007 H   0  0  0  0  0  0  0  0  0  0  0  0
    2.3334   -4.8898   -1.3031 H   0  0  0  0  0  0  0  0  0  0  0  0
    2.8871   -0.7152   -1.1710 H   0  0  0  0  0  0  0  0  0  0  0  0
    4.4292   -0.3293   -1.8662 H   0  0  0  0  0  0  0  0  0  0  0  0
    1.8859   -4.0093   -4.3569 H   0  0  0  0  0  0  0  0  0  0  0  0
    5.7757   -1.0810    1.2496 H   0  0  0  0  0  0  0  0  0  0  0  0
    4.5053    0.9241    1.4206 H   0  0  0  0  0  0  0  0  0  0  0  0
    3.9056    0.6097    3.9921 H   0  0  0  0  0  0  0  0  0  0  0  0
    5.4927    0.1500    3.5008 H   0  0  0  0  0  0  0  0  0  0  0  0
    6.3778   -3.4339    2.4905 H   0  0  0  0  0  0  0  0  0  0  0  0
  1  2  1  0
  1 30  1  0
  1 31  1  0
  1 32  1  0
  2 26  1  0
  2  3  1  0
  3  4  1  0
  3 33  1  0
  3 34  1  0
  5  4  1  6
  4 35  1  0
  4 36  1  0
  5 25  1  0
  5 28  1  0
  5  6  1  0
  6 12  2  0
  6  7  1  0
  7 27  1  0
  7  8  2  0
  8  9  1  0
  8 37  1  0
  9 10  2  0
  9 38  1  0
 10 11  1  0
 10 12  1  0
 11 39  1  0
 12 13  1  0
 13 14  1  0
 14 28  1  0
 14 15  1  0
 14 40  1  6
 15 16  1  0
 15 17  1  0
 15 41  1  6
 16 42  1  0
 17 18  2  0
 17 28  1  0
 18 19  1  0
 18 25  1  0
 19 20  1  0
 19 43  1  0
 19 44  1  0
 20 24  1  0
 20 21  1  0
 21 22  2  0
 22 23  1  0
 22 45  1  0
 23 24  2  0
 25 26  1  0
 25 46  1  1
 26 27  1  0
 26 47  1  6
 27 48  1  0
 27 49  1  0
 28 29  1  6
 29 50  1  0
M  END
>  <i_m_ct_stereo_status>  (411) 
1

>  <s_m_source_file>  (411) 
/var/tmp/pbs.5076255.sched01/tmpybatibx8/138x0dlab3k.sdf

>  <i_m_source_file_index>  (411) 
39

>  <i_lp_mmshare_version>  (411) 
48012

>  <i_f3d_flags>  (411) 
0

>  <s_epik_input>  (411) 
bjFuW2NIXW5uMVtDSDJdQyhbQ0BIXTJbQ0BIXShbQ0gyXTMpTihbQ0gzXSlbQ0gyXVtDSDJdNCk9QyhbQ0BASF01W09IXSlbQ0BdNihbT0hdKVtDQEhdNU9jN2MoW09IXSlbY0hdW2NIXWMzYzdbQ0BdMjQ2

>  <s_epik_cmdline>  (411) 
J2VwaWtfcHl0aG9uJywgJy1waHQnLCAnMi4wJywgJy1waCcsICc3LjAnLCAnLXRuJywgJzgnLCAnLW1hJywgJzIwMCcsICctaW1hZScsICc8aW5maWxlLm1hZT4nLCAnLW9tYWUnLCAnPG91dGZpbGUubWFlPic=

>  <r_lp_tautomer_probability>  (411) 
1

>  <r_epik_Ionization_Penalty>  (411) 
1.06893

>  <r_epik_Ionization_Penalty_Charging>  (411) 
0

>  <r_epik_Ionization_Penalty_Neutral>  (411) 
1.06893

>  <r_epik_State_Penalty>  (411) 
1.12298

>  <r_epik_Charging_Adjusted_Penalty>  (411) 
1.12298

>  <i_epik_Tot_Q>  (411) 
0

>  <i_epik_Tot_abs_Q>  (411) 
0

>  <s_lp_Force_Field>  (411) 
OPLS3e

>  <r_lp_Energy>  (411) 
150.899

>  <b_lp_Chiralities_Consistent>  (411) 
1

>  <s_lp_Variant>  (411) 
111:0-2

>  <s_i_glide_gridfile>  (411) 
pfpi4k_grid

>  <i_i_glide_lignum>  (411) 
39

>  <i_i_glide_rotatable_bonds>  (411) 
5

>  <r_i_docking_score>  (411) 
-3.18525

>  <r_i_glide_ligand_efficiency>  (411) 
-0.109836

>  <r_i_glide_ligand_efficiency_sa>  (411) 
-0.337452

>  <r_i_glide_ligand_efficiency_ln>  (411) 
-0.729342

>  <r_i_glide_gscore>  (411) 
-3.18525

>  <r_i_glide_lipo>  (411) 
-0.249975

>  <r_i_glide_hbond>  (411) 
0

>  <r_i_glide_metal>  (411) 
-0

>  <r_i_glide_rewards>  (411) 
-0.880159

>  <r_i_glide_evdw>  (411) 
-24.2631

>  <r_i_glide_ecoul>  (411) 
-6.90916

>  <r_i_glide_erotb>  (411) 
0.250138

>  <r_i_glide_esite>  (411) 
-0.0557255

>  <r_i_glide_emodel>  (411) 
-36.2278

>  <r_i_glide_energy>  (411) 
-31.1723

>  <r_i_glide_einternal>  (411) 
3.06445

>  <r_i_glide_intrahb_reward>  (411) 
-0

>  <i_i_glide_confnum>  (411) 
1

>  <i_i_glide_posenum>  (411) 
11

>  <r_i_glide_eff_state_penalty>  (411) 
0

>  <ligand_id>  (411) 
111

>  <original_smiles>  (411) 
CN1CCC23c4c5ccc(O)c4OC4C(O)C(=C(Cn6ncnn6)C2C1C5)C43O

>  <smiles>  (411) 
[H]Oc1c([H])c([H])c2c3c1OC1([H])C([H])(O[H])C4=C(C([H])([H])n5nnc([H])n5)C5([H])C([H])(N(C([H])([H])[H])C([H])([H])C([H])([H])C35C41O[H])C2([H])[H]

$$$$
111:1:2
     RDKit          3D

 50 56  0  0  1  0  0  0  0  0999 V2000
    7.7921   -6.6546    0.8443 C   0  0  0  0  0  0  0  0  0  0  0  0
    6.6687   -5.8368    1.3019 N   0  0  0  0  0  0  0  0  0  0  0  0
    5.5034   -6.0386    0.4462 C   0  0  0  0  0  0  0  0  0  0  0  0
    4.3564   -5.1421    0.9283 C   0  0  0  0  0  0  0  0  0  0  0  0
    4.8048   -3.6124    1.1063 C   0  0  2  0  0  0  0  0  0  0  0  0
    4.9418   -3.1775   -0.2613 C   0  0  0  0  0  0  0  0  0  0  0  0
    6.2134   -3.1902   -0.8431 C   0  0  0  0  0  0  0  0  0  0  0  0
    6.2188   -2.8583   -2.2039 C   0  0  0  0  0  0  0  0  0  0  0  0
    4.9952   -2.5609   -2.8719 C   0  0  0  0  0  0  0  0  0  0  0  0
    3.7415   -2.6008   -2.1913 C   0  0  0  0  0  0  0  0  0  0  0  0
    2.6007   -2.2851   -2.8663 O   0  0  0  0  0  0  0  0  0  0  0  0
    3.6627   -2.9315   -0.8271 C   0  0  0  0  0  0  0  0  0  0  0  0
    2.4650   -3.0945   -0.0603 O   0  0  0  0  0  0  0  0  0  0  0  0
    2.4296   -2.6867    1.3648 C   0  0  1  0  0  0  0  0  0  0  0  0
    2.2308   -3.5551    2.6918 C   0  0  1  0  0  0  0  0  0  0  0  0
    1.8847   -4.9219    2.5919 O   0  0  0  0  0  0  0  0  0  0  0  0
    3.7278   -3.2355    2.9680 C   0  0  0  0  0  0  0  0  0  0  0  0
    4.8909   -3.8825    3.3115 C   0  0  0  0  0  0  0  0  0  0  0  0
    5.0616   -5.0219    4.3026 C   0  0  0  0  0  0  0  0  0  0  0  0
    5.9195   -4.6749    5.4221 N   0  0  0  0  0  0  0  0  0  0  0  0
    6.9571   -5.4421    5.8040 N   0  0  0  0  0  0  0  0  0  0  0  0
    7.3876   -4.7302    6.8340 C   0  0  0  0  0  0  0  0  0  0  0  0
    6.6510   -3.6068    7.0851 N   0  0  0  0  0  0  0  0  0  0  0  0
    5.7064   -3.5906    6.2046 N   0  0  0  0  0  0  0  0  0  0  0  0
    5.9002   -3.6004    2.1350 C   0  0  1  0  0  0  0  0  0  0  0  0
    7.0243   -4.4221    1.4540 C   0  0  2  0  0  0  0  0  0  0  0  0
    7.3679   -3.6851    0.0815 C   0  0  0  0  0  0  0  0  0  0  0  0
    3.8892   -2.5700    1.6959 C   0  0  1  0  0  0  0  0  0  0  0  0
    4.4302   -1.2638    1.8348 O   0  0  0  0  0  0  0  0  0  0  0  0
    7.5313   -7.7122    0.8867 H   0  0  0  0  0  0  0  0  0  0  0  0
    8.6708   -6.5102    1.4733 H   0  0  0  0  0  0  0  0  0  0  0  0
    8.0853   -6.4367   -0.1828 H   0  0  0  0  0  0  0  0  0  0  0  0
    5.7213   -5.8335   -0.6016 H   0  0  0  0  0  0  0  0  0  0  0  0
    5.1993   -7.0861    0.5117 H   0  0  0  0  0  0  0  0  0  0  0  0
    3.5065   -5.2741    0.2566 H   0  0  0  0  0  0  0  0  0  0  0  0
    4.0585   -5.6353    1.8457 H   0  0  0  0  0  0  0  0  0  0  0  0
    7.1587   -2.8577   -2.7312 H   0  0  0  0  0  0  0  0  0  0  0  0
    4.9947   -2.3134   -3.9214 H   0  0  0  0  0  0  0  0  0  0  0  0
    1.8766   -2.1212   -2.2708 H   0  0  0  0  0  0  0  0  0  0  0  0
    1.9209   -1.7238    1.4681 H   0  0  0  0  0  0  0  0  0  0  0  0
    1.5192   -3.0620    3.3547 H   0  0  0  0  0  0  0  0  0  0  0  0
    2.6319   -5.3754    2.2287 H   0  0  0  0  0  0  0  0  0  0  0  0
    4.0861   -5.2853    4.7089 H   0  0  0  0  0  0  0  0  0  0  0  0
    5.4493   -5.9084    3.8025 H   0  0  0  0  0  0  0  0  0  0  0  0
    8.2610   -5.0166    7.4104 H   0  0  0  0  0  0  0  0  0  0  0  0
    6.3249   -2.6134    2.3159 H   0  0  0  0  0  0  0  0  0  0  0  0
    7.9209   -4.4014    2.0737 H   0  0  0  0  0  0  0  0  0  0  0  0
    8.0469   -4.2755   -0.5287 H   0  0  0  0  0  0  0  0  0  0  0  0
    7.9390   -2.7891    0.3196 H   0  0  0  0  0  0  0  0  0  0  0  0
    3.8168   -0.7345    2.3160 H   0  0  0  0  0  0  0  0  0  0  0  0
  1  2  1  0
  1 30  1  0
  1 31  1  0
  1 32  1  0
  2 26  1  0
  2  3  1  0
  3  4  1  0
  3 33  1  0
  3 34  1  0
  5  4  1  6
  4 35  1  0
  4 36  1  0
  5 25  1  0
  5 28  1  0
  5  6  1  0
  6 12  2  0
  6  7  1  0
  7 27  1  0
  7  8  2  0
  8  9  1  0
  8 37  1  0
  9 10  2  0
  9 38  1  0
 10 11  1  0
 10 12  1  0
 11 39  1  0
 12 13  1  0
 13 14  1  0
 14 28  1  0
 14 15  1  0
 14 40  1  6
 15 16  1  0
 15 17  1  0
 15 41  1  1
 16 42  1  0
 17 18  2  0
 17 28  1  0
 18 19  1  0
 18 25  1  0
 19 20  1  0
 19 43  1  0
 19 44  1  0
 20 24  1  0
 20 21  1  0
 21 22  2  0
 22 23  1  0
 22 45  1  0
 23 24  2  0
 25 26  1  0
 25 46  1  1
 26 27  1  0
 26 47  1  1
 27 48  1  0
 27 49  1  0
 28 29  1  1
 29 50  1  0
M  END
>  <i_m_ct_stereo_status>  (412) 
1

>  <s_m_source_file>  (412) 
/var/tmp/pbs.5076255.sched01/tmpybatibx8/138x0dlab3k.sdf

>  <i_m_source_file_index>  (412) 
39

>  <i_lp_mmshare_version>  (412) 
48012

>  <i_f3d_flags>  (412) 
0

>  <s_epik_input>  (412) 
bjFuW2NIXW5uMVtDSDJdQyhbQ0BIXTJbQ0BIXShbQ0gyXTMpTihbQ0gzXSlbQ0gyXVtDSDJdNCk9QyhbQ0BASF01W09IXSlbQ0BdNihbT0hdKVtDQEhdNU9jN2MoW09IXSlbY0hdW2NIXWMzYzdbQ0BdMjQ2

>  <s_epik_cmdline>  (412) 
J2VwaWtfcHl0aG9uJywgJy1waHQnLCAnMi4wJywgJy1waCcsICc3LjAnLCAnLXRuJywgJzgnLCAnLW1hJywgJzIwMCcsICctaW1hZScsICc8aW5maWxlLm1hZT4nLCAnLW9tYWUnLCAnPG91dGZpbGUubWFlPic=

>  <r_lp_tautomer_probability>  (412) 
1

>  <r_epik_Ionization_Penalty>  (412) 
1.06893

>  <r_epik_Ionization_Penalty_Charging>  (412) 
0

>  <r_epik_Ionization_Penalty_Neutral>  (412) 
1.06893

>  <r_epik_State_Penalty>  (412) 
1.12298

>  <r_epik_Charging_Adjusted_Penalty>  (412) 
1.12298

>  <i_epik_Tot_Q>  (412) 
0

>  <i_epik_Tot_abs_Q>  (412) 
0

>  <s_lp_Force_Field>  (412) 
OPLS3e

>  <r_lp_Energy>  (412) 
150.899

>  <b_lp_Chiralities_Consistent>  (412) 
1

>  <s_lp_Variant>  (412) 
111:0-2

>  <s_i_glide_gridfile>  (412) 
pfpi4k_grid

>  <i_i_glide_lignum>  (412) 
39

>  <i_i_glide_rotatable_bonds>  (412) 
5

>  <r_i_docking_score>  (412) 
-2.85244

>  <r_i_glide_ligand_efficiency>  (412) 
-0.0983601

>  <r_i_glide_ligand_efficiency_sa>  (412) 
-0.302193

>  <r_i_glide_ligand_efficiency_ln>  (412) 
-0.653137

>  <r_i_glide_gscore>  (412) 
-2.85244

>  <r_i_glide_lipo>  (412) 
-0.784683

>  <r_i_glide_hbond>  (412) 
0

>  <r_i_glide_metal>  (412) 
-0

>  <r_i_glide_rewards>  (412) 
-0.742052

>  <r_i_glide_evdw>  (412) 
-24.8944

>  <r_i_glide_ecoul>  (412) 
-2.20749

>  <r_i_glide_erotb>  (412) 
0.250138

>  <r_i_glide_esite>  (412) 
0

>  <r_i_glide_emodel>  (412) 
-32.5772

>  <r_i_glide_energy>  (412) 
-27.1019

>  <r_i_glide_einternal>  (412) 
1.16104

>  <r_i_glide_intrahb_reward>  (412) 
-0

>  <i_i_glide_confnum>  (412) 
1

>  <i_i_glide_posenum>  (412) 
1

>  <r_i_glide_eff_state_penalty>  (412) 
0

>  <ligand_id>  (412) 
111

>  <original_smiles>  (412) 
CN1CCC23c4c5ccc(O)c4OC4C(O)C(=C(Cn6ncnn6)C2C1C5)C43O

>  <smiles>  (412) 
[H]Oc1c([H])c([H])c2c3c1OC1([H])C([H])(O[H])C4=C(C([H])([H])n5nnc([H])n5)C5([H])C([H])(N(C([H])([H])[H])C([H])([H])C([H])([H])C35C41O[H])C2([H])[H]

$$$$
112:0:0
     RDKit          3D

 43 46  0  0  1  0  0  0  0  0999 V2000
    3.0994   -1.8293   -3.6878 C   0  0  0  0  0  0  0  0  0  0  0  0
    3.5445   -3.1867   -3.1388 C   0  0  0  0  0  0  0  0  0  0  0  0
    4.0793   -3.0406   -1.7036 C   0  0  0  0  0  0  0  0  0  0  0  0
    4.6096   -4.3432   -1.1919 N   0  0  0  0  0  0  0  0  0  0  0  0
    4.3804   -4.7114    0.1961 C   0  0  1  0  0  0  0  0  0  0  0  0
    2.8612   -4.8527    0.5470 C   0  0  0  0  0  0  0  0  0  0  0  0
    2.6769   -5.2817    1.9995 C   0  0  2  0  0  0  0  0  0  0  0  0
    3.3216   -4.2300    2.9339 C   0  0  0  0  0  0  0  0  0  0  0  0
    4.8319   -4.1315    2.6364 C   0  0  1  0  0  0  0  0  0  0  0  0
    5.4971   -5.5043    2.8631 C   0  0  0  0  0  0  0  0  0  0  0  0
    4.8502   -6.5443    1.9196 C   0  0  1  0  0  0  0  0  0  0  0  0
    3.3440   -6.6541    2.2276 C   0  0  0  0  0  0  0  0  0  0  0  0
    5.0414   -6.0972    0.4635 C   0  0  0  0  0  0  0  0  0  0  0  0
    5.0276   -3.6916    1.1789 C   0  0  0  0  0  0  0  0  0  0  0  0
    5.1733   -1.9613   -1.6951 C   0  0  0  0  0  0  0  0  0  0  0  0
    4.6225   -0.6716   -2.3131 C   0  0  0  0  0  0  0  0  0  0  0  0
    4.1919   -0.9173   -3.6439 O   0  0  0  0  0  0  0  0  0  0  0  0
    2.2508   -1.4492   -3.1085 H   0  0  0  0  0  0  0  0  0  0  0  0
    2.7718   -1.9345   -4.7202 H   0  0  0  0  0  0  0  0  0  0  0  0
    2.6812   -3.8537   -3.1578 H   0  0  0  0  0  0  0  0  0  0  0  0
    4.3032   -3.6172   -3.7959 H   0  0  0  0  0  0  0  0  0  0  0  0
    3.2469   -2.6928   -1.0982 H   0  0  0  0  0  0  0  0  0  0  0  0
    4.1594   -5.0687   -1.7613 H   0  0  0  0  0  0  0  0  0  0  0  0
    2.3245   -3.9120    0.4055 H   0  0  0  0  0  0  0  0  0  0  0  0
    2.3971   -5.5842   -0.1244 H   0  0  0  0  0  0  0  0  0  0  0  0
    1.6132   -5.3568    2.2323 H   0  0  0  0  0  0  0  0  0  0  0  0
    2.8502   -3.2557    2.7829 H   0  0  0  0  0  0  0  0  0  0  0  0
    3.1586   -4.4968    3.9804 H   0  0  0  0  0  0  0  0  0  0  0  0
    5.2894   -3.3936    3.2975 H   0  0  0  0  0  0  0  0  0  0  0  0
    6.5730   -5.4381    2.6733 H   0  0  0  0  0  0  0  0  0  0  0  0
    5.3806   -5.8119    3.9066 H   0  0  0  0  0  0  0  0  0  0  0  0
    5.3226   -7.5145    2.0816 H   0  0  0  0  0  0  0  0  0  0  0  0
    3.1901   -6.9907    3.2572 H   0  0  0  0  0  0  0  0  0  0  0  0
    2.8839   -7.4028    1.5778 H   0  0  0  0  0  0  0  0  0  0  0  0
    4.6129   -6.8492   -0.2074 H   0  0  0  0  0  0  0  0  0  0  0  0
    6.1097   -6.0609    0.2309 H   0  0  0  0  0  0  0  0  0  0  0  0
    6.0932   -3.5805    0.9622 H   0  0  0  0  0  0  0  0  0  0  0  0
    4.5688   -2.7092    1.0641 H   0  0  0  0  0  0  0  0  0  0  0  0
    5.5162   -1.7387   -0.6882 H   0  0  0  0  0  0  0  0  0  0  0  0
    6.0429   -2.2998   -2.2619 H   0  0  0  0  0  0  0  0  0  0  0  0
    3.8141   -0.2760   -1.7085 H   0  0  0  0  0  0  0  0  0  0  0  0
    5.4041    0.0859   -2.3280 H   0  0  0  0  0  0  0  0  0  0  0  0
    5.5950   -4.3808   -1.3994 H   0  0  0  0  0  0  0  0  0  0  0  0
  1 17  1  0
  1  2  1  0
  1 18  1  0
  1 19  1  0
  2  3  1  0
  2 20  1  0
  2 21  1  0
  3  4  1  0
  3 15  1  0
  3 22  1  0
  5  4  1  6
  4 23  1  0
  4 43  1  0
  5 13  1  0
  5 14  1  0
  5  6  1  0
  6  7  1  0
  6 24  1  0
  6 25  1  0
  7 12  1  0
  7  8  1  0
  7 26  1  1
  8  9  1  0
  8 27  1  0
  8 28  1  0
  9 10  1  0
  9 14  1  0
  9 29  1  1
 10 11  1  0
 10 30  1  0
 10 31  1  0
 11 12  1  0
 11 13  1  0
 11 32  1  6
 12 33  1  0
 12 34  1  0
 13 35  1  0
 13 36  1  0
 14 37  1  0
 14 38  1  0
 15 16  1  0
 15 39  1  0
 15 40  1  0
 16 17  1  0
 16 41  1  0
 16 42  1  0
M  CHG  1   4   1
M  END
>  <i_m_ct_stereo_status>  (413) 
1

>  <s_m_source_file>  (413) 
/var/tmp/pbs.5076255.sched01/tmpybatibx8/138x0dlab3k.sdf

>  <i_m_source_file_index>  (413) 
40

>  <i_lp_mmshare_version>  (413) 
48012

>  <i_f3d_flags>  (413) 
0

>  <s_epik_input>  (413) 
W0NIMl0xW0NIMl1PW0NIMl1bQ0gyXVtDSF0xW05IXUMyM1tDSDJdW0NASF00W0NIMl1bQ0BASF0oW0NIMl0zKVtDSDJdW0NASF0oW0NIMl00KVtDSDJdMg==

>  <s_epik_cmdline>  (413) 
J2VwaWtfcHl0aG9uJywgJy1waHQnLCAnMi4wJywgJy1waCcsICc3LjAnLCAnLXRuJywgJzgnLCAnLW1hJywgJzIwMCcsICctaW1hZScsICc8aW5maWxlLm1hZT4nLCAnLW9tYWUnLCAnPG91dGZpbGUubWFlPic=

>  <r_lp_tautomer_probability>  (413) 
1

>  <r_epik_Ionization_Penalty>  (413) 
0.000130264

>  <r_epik_Ionization_Penalty_Charging>  (413) 
0.000130264

>  <r_epik_Ionization_Penalty_Neutral>  (413) 
1.51239e-12

>  <r_epik_State_Penalty>  (413) 
-0

>  <r_epik_Charging_Adjusted_Penalty>  (413) 
0.000130264

>  <i_epik_Tot_Q>  (413) 
1

>  <i_epik_Tot_abs_Q>  (413) 
1

>  <s_lp_Force_Field>  (413) 
OPLS3e

>  <r_lp_Energy>  (413) 
17.2035

>  <b_lp_Chiralities_Consistent>  (413) 
1

>  <s_lp_Variant>  (413) 
112:0-1

>  <s_i_glide_gridfile>  (413) 
pfpi4k_grid

>  <i_i_glide_lignum>  (413) 
40

>  <i_i_glide_rotatable_bonds>  (413) 
2

>  <r_i_docking_score>  (413) 
-3.70635

>  <r_i_glide_ligand_efficiency>  (413) 
-0.218021

>  <r_i_glide_ligand_efficiency_sa>  (413) 
-0.560593

>  <r_i_glide_ligand_efficiency_ln>  (413) 
-0.966905

>  <r_i_glide_gscore>  (413) 
-3.70635

>  <r_i_glide_lipo>  (413) 
-0.542364

>  <r_i_glide_hbond>  (413) 
0

>  <r_i_glide_metal>  (413) 
-0

>  <r_i_glide_rewards>  (413) 
-1.79746

>  <r_i_glide_evdw>  (413) 
-20.3723

>  <r_i_glide_ecoul>  (413) 
-6.21255

>  <r_i_glide_erotb>  (413) 
0.616278

>  <r_i_glide_esite>  (413) 
-0.0323117

>  <r_i_glide_emodel>  (413) 
-32.6832

>  <r_i_glide_energy>  (413) 
-26.5849

>  <r_i_glide_einternal>  (413) 
0.0517502

>  <r_i_glide_intrahb_reward>  (413) 
-0

>  <i_i_glide_confnum>  (413) 
5

>  <i_i_glide_posenum>  (413) 
13

>  <r_i_glide_eff_state_penalty>  (413) 
0

>  <ligand_id>  (413) 
112

>  <original_smiles>  (413) 
C1CC(NC23CC4CC(CC(C4)C2)C3)CCO1

>  <smiles>  (413) 
[H]C1([H])OC([H])([H])C([H])([H])C([H])([N+]([H])([H])C23C([H])([H])C4([H])C([H])([H])C([H])(C([H])([H])C([H])(C4([H])[H])C2([H])[H])C3([H])[H])C1([H])[H]

$$$$
112:0:1
     RDKit          3D

 43 46  0  0  1  0  0  0  0  0999 V2000
    8.5039   -3.3439    0.3193 C   0  0  0  0  0  0  0  0  0  0  0  0
    7.0575   -2.9671    0.1534 C   0  0  0  0  0  0  0  0  0  0  0  0
    6.0367   -3.8380    0.9146 C   0  0  0  0  0  0  0  0  0  0  0  0
    4.6070   -3.5313    0.5908 N   0  0  0  0  0  0  0  0  0  0  0  0
    4.2725   -3.0330   -0.7841 C   0  0  1  0  0  0  0  0  0  0  0  0
    4.8357   -1.5956   -1.0889 C   0  0  0  0  0  0  0  0  0  0  0  0
    4.5170   -1.1955   -2.5113 C   0  0  2  0  0  0  0  0  0  0  0  0
    3.0174   -1.0508   -2.6676 C   0  0  0  0  0  0  0  0  0  0  0  0
    2.3904   -2.4005   -2.3427 C   0  0  1  0  0  0  0  0  0  0  0  0
    2.7781   -3.3751   -3.4160 C   0  0  0  0  0  0  0  0  0  0  0  0
    4.2768   -3.6337   -3.2553 C   0  0  1  0  0  0  0  0  0  0  0  0
    4.9528   -2.2902   -3.4967 C   0  0  0  0  0  0  0  0  0  0  0  0
    4.6709   -4.0796   -1.8353 C   0  0  0  0  0  0  0  0  0  0  0  0
    2.7344   -2.9276   -0.9050 C   0  0  0  0  0  0  0  0  0  0  0  0
    6.3739   -5.3313    0.7160 C   0  0  0  0  0  0  0  0  0  0  0  0
    7.8894   -5.5576    0.8827 C   0  0  0  0  0  0  0  0  0  0  0  0
    8.6463   -4.7243    0.0076 O   0  0  0  0  0  0  0  0  0  0  0  0
    8.8466   -3.0905    1.3040 H   0  0  0  0  0  0  0  0  0  0  0  0
    9.0492   -2.7395   -0.4099 H   0  0  0  0  0  0  0  0  0  0  0  0
    6.9311   -1.9173    0.4564 H   0  0  0  0  0  0  0  0  0  0  0  0
    6.9498   -3.0866   -0.9288 H   0  0  0  0  0  0  0  0  0  0  0  0
    6.1485   -3.6197    1.9836 H   0  0  0  0  0  0  0  0  0  0  0  0
    4.0864   -4.3876    0.7330 H   0  0  0  0  0  0  0  0  0  0  0  0
    4.4907   -0.8677   -0.3528 H   0  0  0  0  0  0  0  0  0  0  0  0
    5.8915   -1.4764   -1.2110 H   0  0  0  0  0  0  0  0  0  0  0  0
    4.9629   -0.2366   -2.7411 H   0  0  0  0  0  0  0  0  0  0  0  0
    2.6447   -0.3352   -1.9547 H   0  0  0  0  0  0  0  0  0  0  0  0
    2.7133   -0.6631   -3.6468 H   0  0  0  0  0  0  0  0  0  0  0  0
    1.3124   -2.3313   -2.4045 H   0  0  0  0  0  0  0  0  0  0  0  0
    2.1597   -4.2371   -3.2099 H   0  0  0  0  0  0  0  0  0  0  0  0
    2.5244   -3.0422   -4.4218 H   0  0  0  0  0  0  0  0  0  0  0  0
    4.6340   -4.3608   -3.9802 H   0  0  0  0  0  0  0  0  0  0  0  0
    4.7546   -1.9142   -4.5056 H   0  0  0  0  0  0  0  0  0  0  0  0
    6.0213   -2.4817   -3.3769 H   0  0  0  0  0  0  0  0  0  0  0  0
    5.7191   -4.3151   -1.8991 H   0  0  0  0  0  0  0  0  0  0  0  0
    4.2676   -5.0392   -1.4996 H   0  0  0  0  0  0  0  0  0  0  0  0
    2.1886   -3.8591   -0.6830 H   0  0  0  0  0  0  0  0  0  0  0  0
    2.3751   -2.2297   -0.1458 H   0  0  0  0  0  0  0  0  0  0  0  0
    5.8054   -5.9500    1.4164 H   0  0  0  0  0  0  0  0  0  0  0  0
    6.0884   -5.6813   -0.2729 H   0  0  0  0  0  0  0  0  0  0  0  0
    8.1939   -5.3554    1.9092 H   0  0  0  0  0  0  0  0  0  0  0  0
    8.1272   -6.5936    0.6424 H   0  0  0  0  0  0  0  0  0  0  0  0
    4.2392   -2.8734    1.2587 H   0  0  0  0  0  0  0  0  0  0  0  0
  1 17  1  0
  1  2  1  0
  1 18  1  0
  1 19  1  0
  2  3  1  0
  2 20  1  0
  2 21  1  0
  3  4  1  0
  3 15  1  0
  3 22  1  0
  5  4  1  1
  4 23  1  0
  4 43  1  0
  5 13  1  0
  5 14  1  0
  5  6  1  0
  6  7  1  0
  6 24  1  0
  6 25  1  0
  7 12  1  0
  7  8  1  0
  7 26  1  6
  8  9  1  0
  8 27  1  0
  8 28  1  0
  9 10  1  0
  9 14  1  0
  9 29  1  1
 10 11  1  0
 10 30  1  0
 10 31  1  0
 11 12  1  0
 11 13  1  0
 11 32  1  6
 12 33  1  0
 12 34  1  0
 13 35  1  0
 13 36  1  0
 14 37  1  0
 14 38  1  0
 15 16  1  0
 15 39  1  0
 15 40  1  0
 16 17  1  0
 16 41  1  0
 16 42  1  0
M  CHG  1   4   1
M  END
>  <i_m_ct_stereo_status>  (414) 
1

>  <s_m_source_file>  (414) 
/var/tmp/pbs.5076255.sched01/tmpybatibx8/138x0dlab3k.sdf

>  <i_m_source_file_index>  (414) 
40

>  <i_lp_mmshare_version>  (414) 
48012

>  <i_f3d_flags>  (414) 
0

>  <s_epik_input>  (414) 
W0NIMl0xW0NIMl1PW0NIMl1bQ0gyXVtDSF0xW05IXUMyM1tDSDJdW0NASF00W0NIMl1bQ0BASF0oW0NIMl0zKVtDSDJdW0NASF0oW0NIMl00KVtDSDJdMg==

>  <s_epik_cmdline>  (414) 
J2VwaWtfcHl0aG9uJywgJy1waHQnLCAnMi4wJywgJy1waCcsICc3LjAnLCAnLXRuJywgJzgnLCAnLW1hJywgJzIwMCcsICctaW1hZScsICc8aW5maWxlLm1hZT4nLCAnLW9tYWUnLCAnPG91dGZpbGUubWFlPic=

>  <r_lp_tautomer_probability>  (414) 
1

>  <r_epik_Ionization_Penalty>  (414) 
0.000130264

>  <r_epik_Ionization_Penalty_Charging>  (414) 
0.000130264

>  <r_epik_Ionization_Penalty_Neutral>  (414) 
1.51239e-12

>  <r_epik_State_Penalty>  (414) 
-0

>  <r_epik_Charging_Adjusted_Penalty>  (414) 
0.000130264

>  <i_epik_Tot_Q>  (414) 
1

>  <i_epik_Tot_abs_Q>  (414) 
1

>  <s_lp_Force_Field>  (414) 
OPLS3e

>  <r_lp_Energy>  (414) 
17.2035

>  <b_lp_Chiralities_Consistent>  (414) 
1

>  <s_lp_Variant>  (414) 
112:0-1

>  <s_i_glide_gridfile>  (414) 
pfpi4k_grid

>  <i_i_glide_lignum>  (414) 
40

>  <i_i_glide_rotatable_bonds>  (414) 
2

>  <r_i_docking_score>  (414) 
-2.32272

>  <r_i_glide_ligand_efficiency>  (414) 
-0.136631

>  <r_i_glide_ligand_efficiency_sa>  (414) 
-0.351316

>  <r_i_glide_ligand_efficiency_ln>  (414) 
-0.605947

>  <r_i_glide_gscore>  (414) 
-2.32272

>  <r_i_glide_lipo>  (414) 
-0.810589

>  <r_i_glide_hbond>  (414) 
0

>  <r_i_glide_metal>  (414) 
-0

>  <r_i_glide_rewards>  (414) 
-1.79746

>  <r_i_glide_evdw>  (414) 
-6.82651

>  <r_i_glide_ecoul>  (414) 
-3.04153

>  <r_i_glide_erotb>  (414) 
0.616278

>  <r_i_glide_esite>  (414) 
0

>  <r_i_glide_emodel>  (414) 
-2.68032

>  <r_i_glide_energy>  (414) 
-9.86804

>  <r_i_glide_einternal>  (414) 
12.0281

>  <r_i_glide_intrahb_reward>  (414) 
-0

>  <i_i_glide_confnum>  (414) 
5

>  <i_i_glide_posenum>  (414) 
7

>  <r_i_glide_eff_state_penalty>  (414) 
0

>  <ligand_id>  (414) 
112

>  <original_smiles>  (414) 
C1CC(NC23CC4CC(CC(C4)C2)C3)CCO1

>  <smiles>  (414) 
[H]C1([H])OC([H])([H])C([H])([H])C([H])([N+]([H])([H])C23C([H])([H])C4([H])C([H])([H])C([H])(C([H])([H])C([H])(C4([H])[H])C2([H])[H])C3([H])[H])C1([H])[H]

$$$$
112:0:2
     RDKit          3D

 43 46  0  0  1  0  0  0  0  0999 V2000
    5.0875   -0.9969    3.0456 C   0  0  0  0  0  0  0  0  0  0  0  0
    5.4220   -1.6984    1.7292 C   0  0  0  0  0  0  0  0  0  0  0  0
    4.3538   -2.7607    1.4194 C   0  0  0  0  0  0  0  0  0  0  0  0
    4.6901   -3.5318    0.1962 N   0  0  0  0  0  0  0  0  0  0  0  0
    4.1992   -3.0558   -1.1283 C   0  0  1  0  0  0  0  0  0  0  0  0
    4.6586   -1.6098   -1.4413 C   0  0  0  0  0  0  0  0  0  0  0  0
    4.1716   -1.1964   -2.8342 C   0  0  2  0  0  0  0  0  0  0  0  0
    2.6612   -1.2204   -2.8873 C   0  0  0  0  0  0  0  0  0  0  0  0
    2.1623   -2.6515   -2.5931 C   0  0  1  0  0  0  0  0  0  0  0  0
    2.6500   -3.5523   -3.7057 C   0  0  0  0  0  0  0  0  0  0  0  0
    4.1902   -3.6047   -3.6157 C   0  0  1  0  0  0  0  0  0  0  0  0
    4.6278   -2.1686   -3.8993 C   0  0  0  0  0  0  0  0  0  0  0  0
    4.7762   -3.9896   -2.2091 C   0  0  0  0  0  0  0  0  0  0  0  0
    2.6600   -3.1373   -1.2106 C   0  0  0  0  0  0  0  0  0  0  0  0
    4.2303   -3.7128    2.6197 C   0  0  0  0  0  0  0  0  0  0  0  0
    3.9737   -2.9136    3.9084 C   0  0  0  0  0  0  0  0  0  0  0  0
    5.0152   -1.9565    4.0974 O   0  0  0  0  0  0  0  0  0  0  0  0
    4.1431   -0.4586    2.9627 H   0  0  0  0  0  0  0  0  0  0  0  0
    5.8587   -0.2634    3.2803 H   0  0  0  0  0  0  0  0  0  0  0  0
    5.4904   -0.9368    0.9502 H   0  0  0  0  0  0  0  0  0  0  0  0
    6.4007   -2.1737    1.8199 H   0  0  0  0  0  0  0  0  0  0  0  0
    3.3858   -2.2731    1.3238 H   0  0  0  0  0  0  0  0  0  0  0  0
    5.6915   -3.6384    0.1429 H   0  0  0  0  0  0  0  0  0  0  0  0
    4.2696   -0.8797   -0.7249 H   0  0  0  0  0  0  0  0  0  0  0  0
    5.7477   -1.5471   -1.4124 H   0  0  0  0  0  0  0  0  0  0  0  0
    4.5358   -0.2126   -3.0792 H   0  0  0  0  0  0  0  0  0  0  0  0
    2.2789   -0.5000   -2.1694 H   0  0  0  0  0  0  0  0  0  0  0  0
    2.3443   -0.9161   -3.8909 H   0  0  0  0  0  0  0  0  0  0  0  0
    1.0702   -2.6387   -2.5787 H   0  0  0  0  0  0  0  0  0  0  0  0
    2.2049   -4.5289   -3.5503 H   0  0  0  0  0  0  0  0  0  0  0  0
    2.3268   -3.1407   -4.6764 H   0  0  0  0  0  0  0  0  0  0  0  0
    4.5611   -4.2903   -4.3868 H   0  0  0  0  0  0  0  0  0  0  0  0
    4.3046   -1.8288   -4.8957 H   0  0  0  0  0  0  0  0  0  0  0  0
    5.7060   -2.2211   -3.8210 H   0  0  0  0  0  0  0  0  0  0  0  0
    5.8591   -3.8682   -2.2439 H   0  0  0  0  0  0  0  0  0  0  0  0
    4.6594   -5.0499   -1.9213 H   0  0  0  0  0  0  0  0  0  0  0  0
    2.2932   -4.1373   -0.9790 H   0  0  0  0  0  0  0  0  0  0  0  0
    2.2602   -2.4677   -0.4483 H   0  0  0  0  0  0  0  0  0  0  0  0
    3.4173   -4.4265    2.4707 H   0  0  0  0  0  0  0  0  0  0  0  0
    5.1385   -4.3061    2.7382 H   0  0  0  0  0  0  0  0  0  0  0  0
    3.0037   -2.4075    3.8661 H   0  0  0  0  0  0  0  0  0  0  0  0
    3.9552   -3.5813    4.7732 H   0  0  0  0  0  0  0  0  0  0  0  0
    4.3042   -4.4549    0.2828 H   0  0  0  0  0  0  0  0  0  0  0  0
  1 17  1  0
  1  2  1  0
  1 18  1  0
  1 19  1  0
  2  3  1  0
  2 20  1  0
  2 21  1  0
  3  4  1  0
  3 15  1  0
  3 22  1  0
  5  4  1  1
  4 23  1  0
  4 43  1  0
  5 13  1  0
  5 14  1  0
  5  6  1  0
  6  7  1  0
  6 24  1  0
  6 25  1  0
  7 12  1  0
  7  8  1  0
  7 26  1  6
  8  9  1  0
  8 27  1  0
  8 28  1  0
  9 10  1  0
  9 14  1  0
  9 29  1  1
 10 11  1  0
 10 30  1  0
 10 31  1  0
 11 12  1  0
 11 13  1  0
 11 32  1  6
 12 33  1  0
 12 34  1  0
 13 35  1  0
 13 36  1  0
 14 37  1  0
 14 38  1  0
 15 16  1  0
 15 39  1  0
 15 40  1  0
 16 17  1  0
 16 41  1  0
 16 42  1  0
M  CHG  1   4   1
M  END
>  <i_m_ct_stereo_status>  (415) 
1

>  <s_m_source_file>  (415) 
/var/tmp/pbs.5076255.sched01/tmpybatibx8/138x0dlab3k.sdf

>  <i_m_source_file_index>  (415) 
40

>  <i_lp_mmshare_version>  (415) 
48012

>  <i_f3d_flags>  (415) 
0

>  <s_epik_input>  (415) 
W0NIMl0xW0NIMl1PW0NIMl1bQ0gyXVtDSF0xW05IXUMyM1tDSDJdW0NASF00W0NIMl1bQ0BASF0oW0NIMl0zKVtDSDJdW0NASF0oW0NIMl00KVtDSDJdMg==

>  <s_epik_cmdline>  (415) 
J2VwaWtfcHl0aG9uJywgJy1waHQnLCAnMi4wJywgJy1waCcsICc3LjAnLCAnLXRuJywgJzgnLCAnLW1hJywgJzIwMCcsICctaW1hZScsICc8aW5maWxlLm1hZT4nLCAnLW9tYWUnLCAnPG91dGZpbGUubWFlPic=

>  <r_lp_tautomer_probability>  (415) 
1

>  <r_epik_Ionization_Penalty>  (415) 
0.000130264

>  <r_epik_Ionization_Penalty_Charging>  (415) 
0.000130264

>  <r_epik_Ionization_Penalty_Neutral>  (415) 
1.51239e-12

>  <r_epik_State_Penalty>  (415) 
-0

>  <r_epik_Charging_Adjusted_Penalty>  (415) 
0.000130264

>  <i_epik_Tot_Q>  (415) 
1

>  <i_epik_Tot_abs_Q>  (415) 
1

>  <s_lp_Force_Field>  (415) 
OPLS3e

>  <r_lp_Energy>  (415) 
17.2035

>  <b_lp_Chiralities_Consistent>  (415) 
1

>  <s_lp_Variant>  (415) 
112:0-1

>  <s_i_glide_gridfile>  (415) 
pfpi4k_grid

>  <i_i_glide_lignum>  (415) 
40

>  <i_i_glide_rotatable_bonds>  (415) 
2

>  <r_i_docking_score>  (415) 
-2.12049

>  <r_i_glide_ligand_efficiency>  (415) 
-0.124735

>  <r_i_glide_ligand_efficiency_sa>  (415) 
-0.320729

>  <r_i_glide_ligand_efficiency_ln>  (415) 
-0.55319

>  <r_i_glide_gscore>  (415) 
-2.12049

>  <r_i_glide_lipo>  (415) 
-0.476975

>  <r_i_glide_hbond>  (415) 
0

>  <r_i_glide_metal>  (415) 
-0

>  <r_i_glide_rewards>  (415) 
-1.79746

>  <r_i_glide_evdw>  (415) 
-1.6062

>  <r_i_glide_ecoul>  (415) 
-2.54688

>  <r_i_glide_erotb>  (415) 
0.616278

>  <r_i_glide_esite>  (415) 
0

>  <r_i_glide_emodel>  (415) 
-6.16726

>  <r_i_glide_energy>  (415) 
-4.15307

>  <r_i_glide_einternal>  (415) 
0.0478734

>  <r_i_glide_intrahb_reward>  (415) 
-0

>  <i_i_glide_confnum>  (415) 
5

>  <i_i_glide_posenum>  (415) 
1

>  <r_i_glide_eff_state_penalty>  (415) 
0

>  <ligand_id>  (415) 
112

>  <original_smiles>  (415) 
C1CC(NC23CC4CC(CC(C4)C2)C3)CCO1

>  <smiles>  (415) 
[H]C1([H])OC([H])([H])C([H])([H])C([H])([N+]([H])([H])C23C([H])([H])C4([H])C([H])([H])C([H])(C([H])([H])C([H])(C4([H])[H])C2([H])[H])C3([H])[H])C1([H])[H]

$$$$
113:0:0
     RDKit          3D

 39 43  0  0  1  0  0  0  0  0999 V2000
    8.4318   -4.7431   -0.0088 C   0  0  0  0  0  0  0  0  0  0  0  0
    7.2650   -4.1709    0.7277 C   0  0  0  0  0  0  0  0  0  0  0  0
    6.8174   -4.7895    1.8081 N   0  0  0  0  0  0  0  0  0  0  0  0
    5.8163   -4.0137    2.2894 N   0  0  0  0  0  0  0  0  0  0  0  0
    5.1352   -4.4035    3.5076 C   0  0  0  0  0  0  0  0  0  0  0  0
    5.6309   -2.9104    1.4751 C   0  0  0  0  0  0  0  0  0  0  0  0
    6.4766   -3.0136    0.4159 C   0  0  0  0  0  0  0  0  0  0  0  0
    6.5668   -2.2458   -0.7184 O   0  0  0  0  0  0  0  0  0  0  0  0
    5.4402   -2.2152   -1.4991 C   0  0  0  0  0  0  0  0  0  0  0  0
    4.8487   -3.3761   -2.0137 C   0  0  0  0  0  0  0  0  0  0  0  0
    4.5053   -3.0586   -3.3604 C   0  0  0  0  0  0  0  0  0  0  0  0
    4.1510   -1.7262   -3.7335 C   0  0  0  0  0  0  0  0  0  0  0  0
    4.1672   -0.6577   -2.7911 C   0  0  0  0  0  0  0  0  0  0  0  0
    4.6844   -1.0491   -1.5330 C   0  0  0  0  0  0  0  0  0  0  0  0
    3.6126   -1.7069   -0.6881 C   0  0  2  0  0  0  0  0  0  0  0  0
    3.7494   -1.3383    0.7899 C   0  0  0  0  0  0  0  0  0  0  0  0
    3.0304   -0.4052    1.4864 C   0  0  0  0  0  0  0  0  0  0  0  0
    3.5343   -0.3449    2.8182 C   0  0  0  0  0  0  0  0  0  0  0  0
    4.5450   -1.2447    2.9088 C   0  0  0  0  0  0  0  0  0  0  0  0
    4.6909   -1.8706    1.6861 N   0  0  0  0  0  0  0  0  0  0  0  0
    3.6919   -3.2373   -1.0375 C   0  0  1  0  0  0  0  0  0  0  0  0
    2.4279   -3.7811   -1.5865 N   0  0  0  0  0  0  0  0  0  0  0  0
    8.6471   -4.1791   -0.9174 H   0  0  0  0  0  0  0  0  0  0  0  0
    8.2350   -5.7790   -0.2896 H   0  0  0  0  0  0  0  0  0  0  0  0
    9.3293   -4.7502    0.6116 H   0  0  0  0  0  0  0  0  0  0  0  0
    4.1096   -4.0363    3.4940 H   0  0  0  0  0  0  0  0  0  0  0  0
    5.6520   -3.9867    4.3655 H   0  0  0  0  0  0  0  0  0  0  0  0
    5.1174   -5.4869    3.5947 H   0  0  0  0  0  0  0  0  0  0  0  0
    4.3520   -3.8669   -4.0603 H   0  0  0  0  0  0  0  0  0  0  0  0
    3.7988   -1.5283   -4.7415 H   0  0  0  0  0  0  0  0  0  0  0  0
    3.8079    0.3410   -3.0209 H   0  0  0  0  0  0  0  0  0  0  0  0
    2.6645   -1.3216   -1.0465 H   0  0  0  0  0  0  0  0  0  0  0  0
    2.2188    0.1834    1.0854 H   0  0  0  0  0  0  0  0  0  0  0  0
    3.2019    0.2889    3.6251 H   0  0  0  0  0  0  0  0  0  0  0  0
    5.1850   -1.4984    3.7515 H   0  0  0  0  0  0  0  0  0  0  0  0
    3.9102   -3.8393   -0.1580 H   0  0  0  0  0  0  0  0  0  0  0  0
    2.6171   -4.7412   -1.8587 H   0  0  0  0  0  0  0  0  0  0  0  0
    2.1672   -3.2698   -2.4152 H   0  0  0  0  0  0  0  0  0  0  0  0
    1.6969   -3.7212   -0.9033 H   0  0  0  0  0  0  0  0  0  0  0  0
  1  2  1  0
  1 23  1  0
  1 24  1  0
  1 25  1  0
  2  7  1  0
  2  3  2  0
  3  4  1  0
  4  5  1  0
  4  6  1  0
  5 26  1  0
  5 27  1  0
  5 28  1  0
  6 20  1  0
  6  7  2  0
  7  8  1  0
  8  9  1  0
  9 14  2  0
  9 10  1  0
 10 21  1  0
 10 11  2  0
 11 12  1  0
 11 29  1  0
 12 13  2  0
 12 30  1  0
 13 14  1  0
 13 31  1  0
 14 15  1  0
 15 16  1  0
 15 21  1  0
 15 32  1  6
 16 20  1  0
 16 17  2  0
 17 18  1  0
 17 33  1  0
 18 19  2  0
 18 34  1  0
 19 20  1  0
 19 35  1  0
 21 22  1  0
 21 36  1  1
 22 37  1  0
 22 38  1  0
 22 39  1  0
M  CHG  1  22   1
M  END
>  <i_m_ct_stereo_status>  (416) 
1

>  <s_m_source_file>  (416) 
/var/tmp/pbs.5076255.sched01/tmpybatibx8/138x0dlab3k.sdf

>  <i_m_source_file_index>  (416) 
41

>  <i_lp_mmshare_version>  (416) 
48012

>  <i_f3d_flags>  (416) 
0

>  <s_epik_input>  (416) 
W0NIM11uMW5jKFtDSDNdKWMoYzEyKU9jM2M0W2NIXVtjSF1bY0hdYzNbQ0BASF0oW0NASF00W05IMl0pYzVuMltjSF1bY0hdW2NIXTU=

>  <s_epik_cmdline>  (416) 
J2VwaWtfcHl0aG9uJywgJy1waHQnLCAnMi4wJywgJy1waCcsICc3LjAnLCAnLXRuJywgJzgnLCAnLW1hJywgJzIwMCcsICctaW1hZScsICc8aW5maWxlLm1hZT4nLCAnLW9tYWUnLCAnPG91dGZpbGUubWFlPic=

>  <r_lp_tautomer_probability>  (416) 
1

>  <r_epik_Ionization_Penalty>  (416) 
0.0602556

>  <r_epik_Ionization_Penalty_Charging>  (416) 
0.0602554

>  <r_epik_Ionization_Penalty_Neutral>  (416) 
1.22417e-07

>  <r_epik_State_Penalty>  (416) 
0.0522264

>  <r_epik_Charging_Adjusted_Penalty>  (416) 
0.112482

>  <i_epik_Tot_Q>  (416) 
1

>  <i_epik_Tot_abs_Q>  (416) 
1

>  <s_lp_Force_Field>  (416) 
OPLS3e

>  <r_lp_Energy>  (416) 
162.412

>  <b_lp_Chiralities_Consistent>  (416) 
1

>  <s_lp_Variant>  (416) 
113:0-1

>  <s_i_glide_gridfile>  (416) 
pfpi4k_grid

>  <i_i_glide_lignum>  (416) 
41

>  <i_i_glide_rotatable_bonds>  (416) 
0

>  <r_i_docking_score>  (416) 
-4.88026

>  <r_i_glide_ligand_efficiency>  (416) 
-0.22183

>  <r_i_glide_ligand_efficiency_sa>  (416) 
-0.621576

>  <r_i_glide_ligand_efficiency_ln>  (416) 
-1.19291

>  <r_i_glide_gscore>  (416) 
-4.88026

>  <r_i_glide_lipo>  (416) 
-0.839562

>  <r_i_glide_hbond>  (416) 
-0.0759317

>  <r_i_glide_metal>  (416) 
-0

>  <r_i_glide_rewards>  (416) 
-1.58776

>  <r_i_glide_evdw>  (416) 
-23.8844

>  <r_i_glide_ecoul>  (416) 
-7.8852

>  <r_i_glide_erotb>  (416) 
0

>  <r_i_glide_esite>  (416) 
0

>  <r_i_glide_emodel>  (416) 
-41.5048

>  <r_i_glide_energy>  (416) 
-31.7696

>  <r_i_glide_einternal>  (416) 
0

>  <r_i_glide_intrahb_reward>  (416) 
-0

>  <i_i_glide_confnum>  (416) 
2

>  <i_i_glide_posenum>  (416) 
15

>  <r_i_glide_eff_state_penalty>  (416) 
0

>  <ligand_id>  (416) 
113

>  <original_smiles>  (416) 
Cc1nn(C)c2c1Oc1c3cccc1C(c1cccn1-2)C3N

>  <smiles>  (416) 
[H]c1c([H])c2c3c(c1[H])C([H])([N+]([H])([H])[H])C2([H])c1c([H])c([H])c([H])n1-c1c(c(C([H])([H])[H])nn1C([H])([H])[H])O3

$$$$
113:0:1
     RDKit          3D

 39 43  0  0  1  0  0  0  0  0999 V2000
    6.8921   -6.1560    1.2961 C   0  0  0  0  0  0  0  0  0  0  0  0
    5.8385   -5.2113    1.7767 C   0  0  0  0  0  0  0  0  0  0  0  0
    5.0072   -5.5987    2.7308 N   0  0  0  0  0  0  0  0  0  0  0  0
    4.2029   -4.5349    2.9711 N   0  0  0  0  0  0  0  0  0  0  0  0
    3.1421   -4.6481    3.9479 C   0  0  0  0  0  0  0  0  0  0  0  0
    4.5557   -3.4752    2.1579 C   0  0  0  0  0  0  0  0  0  0  0  0
    5.5461   -3.8778    1.3292 C   0  0  0  0  0  0  0  0  0  0  0  0
    6.1437   -3.2247    0.2858 O   0  0  0  0  0  0  0  0  0  0  0  0
    5.3128   -2.8664   -0.7465 C   0  0  0  0  0  0  0  0  0  0  0  0
    4.5346   -3.8074   -1.4336 C   0  0  0  0  0  0  0  0  0  0  0  0
    4.6311   -3.4577   -2.8113 C   0  0  0  0  0  0  0  0  0  0  0  0
    4.7784   -2.0995   -3.2017 C   0  0  0  0  0  0  0  0  0  0  0  0
    4.9257   -1.0493   -2.2497 C   0  0  0  0  0  0  0  0  0  0  0  0
    4.9860   -1.5261   -0.9180 C   0  0  0  0  0  0  0  0  0  0  0  0
    3.5866   -1.7852   -0.3878 C   0  0  2  0  0  0  0  0  0  0  0  0
    3.4728   -1.4187    1.0902 C   0  0  0  0  0  0  0  0  0  0  0  0
    2.9379   -0.2791    1.6294 C   0  0  0  0  0  0  0  0  0  0  0  0
    3.0991   -0.3257    3.0451 C   0  0  0  0  0  0  0  0  0  0  0  0
    3.7204   -1.4932    3.3408 C   0  0  0  0  0  0  0  0  0  0  0  0
    3.9514   -2.1827    2.1670 N   0  0  0  0  0  0  0  0  0  0  0  0
    3.2656   -3.2789   -0.7789 C   0  0  1  0  0  0  0  0  0  0  0  0
    2.0933   -3.4481   -1.6589 N   0  0  0  0  0  0  0  0  0  0  0  0
    7.4864   -5.7198    0.4930 H   0  0  0  0  0  0  0  0  0  0  0  0
    6.4438   -7.0781    0.9245 H   0  0  0  0  0  0  0  0  0  0  0  0
    7.5750   -6.4244    2.1050 H   0  0  0  0  0  0  0  0  0  0  0  0
    2.3194   -3.9801    3.6900 H   0  0  0  0  0  0  0  0  0  0  0  0
    3.5241   -4.3805    4.9287 H   0  0  0  0  0  0  0  0  0  0  0  0
    2.7593   -5.6663    3.9769 H   0  0  0  0  0  0  0  0  0  0  0  0
    4.4055   -4.2063   -3.5577 H   0  0  0  0  0  0  0  0  0  0  0  0
    4.7680   -1.8523   -4.2555 H   0  0  0  0  0  0  0  0  0  0  0  0
    4.9660   -0.0035   -2.5203 H   0  0  0  0  0  0  0  0  0  0  0  0
    2.9517   -1.1071   -0.9539 H   0  0  0  0  0  0  0  0  0  0  0  0
    2.4744    0.5224    1.0742 H   0  0  0  0  0  0  0  0  0  0  0  0
    2.7988    0.4150    3.7695 H   0  0  0  0  0  0  0  0  0  0  0  0
    4.0282   -1.8992    4.3000 H   0  0  0  0  0  0  0  0  0  0  0  0
    3.0640   -3.8786    0.1069 H   0  0  0  0  0  0  0  0  0  0  0  0
    2.0045   -4.4248   -1.8997 H   0  0  0  0  0  0  0  0  0  0  0  0
    2.2089   -2.9085   -2.5013 H   0  0  0  0  0  0  0  0  0  0  0  0
    1.2801   -3.0920   -1.1872 H   0  0  0  0  0  0  0  0  0  0  0  0
  1  2  1  0
  1 23  1  0
  1 24  1  0
  1 25  1  0
  2  7  1  0
  2  3  2  0
  3  4  1  0
  4  5  1  0
  4  6  1  0
  5 26  1  0
  5 27  1  0
  5 28  1  0
  6 20  1  0
  6  7  2  0
  7  8  1  0
  8  9  1  0
  9 14  2  0
  9 10  1  0
 10 21  1  0
 10 11  2  0
 11 12  1  0
 11 29  1  0
 12 13  2  0
 12 30  1  0
 13 14  1  0
 13 31  1  0
 14 15  1  0
 15 16  1  0
 15 21  1  0
 15 32  1  6
 16 20  1  0
 16 17  2  0
 17 18  1  0
 17 33  1  0
 18 19  2  0
 18 34  1  0
 19 20  1  0
 19 35  1  0
 21 22  1  0
 21 36  1  1
 22 37  1  0
 22 38  1  0
 22 39  1  0
M  CHG  1  22   1
M  END
>  <i_m_ct_stereo_status>  (417) 
1

>  <s_m_source_file>  (417) 
/var/tmp/pbs.5076255.sched01/tmpybatibx8/138x0dlab3k.sdf

>  <i_m_source_file_index>  (417) 
41

>  <i_lp_mmshare_version>  (417) 
48012

>  <i_f3d_flags>  (417) 
0

>  <s_epik_input>  (417) 
W0NIM11uMW5jKFtDSDNdKWMoYzEyKU9jM2M0W2NIXVtjSF1bY0hdYzNbQ0BASF0oW0NASF00W05IMl0pYzVuMltjSF1bY0hdW2NIXTU=

>  <s_epik_cmdline>  (417) 
J2VwaWtfcHl0aG9uJywgJy1waHQnLCAnMi4wJywgJy1waCcsICc3LjAnLCAnLXRuJywgJzgnLCAnLW1hJywgJzIwMCcsICctaW1hZScsICc8aW5maWxlLm1hZT4nLCAnLW9tYWUnLCAnPG91dGZpbGUubWFlPic=

>  <r_lp_tautomer_probability>  (417) 
1

>  <r_epik_Ionization_Penalty>  (417) 
0.0602556

>  <r_epik_Ionization_Penalty_Charging>  (417) 
0.0602554

>  <r_epik_Ionization_Penalty_Neutral>  (417) 
1.22417e-07

>  <r_epik_State_Penalty>  (417) 
0.0522264

>  <r_epik_Charging_Adjusted_Penalty>  (417) 
0.112482

>  <i_epik_Tot_Q>  (417) 
1

>  <i_epik_Tot_abs_Q>  (417) 
1

>  <s_lp_Force_Field>  (417) 
OPLS3e

>  <r_lp_Energy>  (417) 
162.412

>  <b_lp_Chiralities_Consistent>  (417) 
1

>  <s_lp_Variant>  (417) 
113:0-1

>  <s_i_glide_gridfile>  (417) 
pfpi4k_grid

>  <i_i_glide_lignum>  (417) 
41

>  <i_i_glide_rotatable_bonds>  (417) 
0

>  <r_i_docking_score>  (417) 
-3.67253

>  <r_i_glide_ligand_efficiency>  (417) 
-0.166933

>  <r_i_glide_ligand_efficiency_sa>  (417) 
-0.467753

>  <r_i_glide_ligand_efficiency_ln>  (417) 
-0.897699

>  <r_i_glide_gscore>  (417) 
-3.67253

>  <r_i_glide_lipo>  (417) 
-0.368959

>  <r_i_glide_hbond>  (417) 
-0.0790454

>  <r_i_glide_metal>  (417) 
-0

>  <r_i_glide_rewards>  (417) 
-1.44027

>  <r_i_glide_evdw>  (417) 
-20.1787

>  <r_i_glide_ecoul>  (417) 
-5.16315

>  <r_i_glide_erotb>  (417) 
0

>  <r_i_glide_esite>  (417) 
-0.000849261

>  <r_i_glide_emodel>  (417) 
-32.5942

>  <r_i_glide_energy>  (417) 
-25.3418

>  <r_i_glide_einternal>  (417) 
0

>  <r_i_glide_intrahb_reward>  (417) 
-0

>  <i_i_glide_confnum>  (417) 
2

>  <i_i_glide_posenum>  (417) 
5

>  <r_i_glide_eff_state_penalty>  (417) 
0

>  <ligand_id>  (417) 
113

>  <original_smiles>  (417) 
Cc1nn(C)c2c1Oc1c3cccc1C(c1cccn1-2)C3N

>  <smiles>  (417) 
[H]c1c([H])c2c3c(c1[H])C([H])([N+]([H])([H])[H])C2([H])c1c([H])c([H])c([H])n1-c1c(c(C([H])([H])[H])nn1C([H])([H])[H])O3

$$$$
113:0:2
     RDKit          3D

 39 43  0  0  1  0  0  0  0  0999 V2000
    1.7652   -6.2856    1.3926 C   0  0  0  0  0  0  0  0  0  0  0  0
    3.1774   -5.9862    1.8144 C   0  0  0  0  0  0  0  0  0  0  0  0
    3.4945   -6.0777    3.1016 N   0  0  0  0  0  0  0  0  0  0  0  0
    4.8127   -5.7879    3.1606 N   0  0  0  0  0  0  0  0  0  0  0  0
    5.4843   -5.7657    4.4436 C   0  0  0  0  0  0  0  0  0  0  0  0
    5.3233   -5.5170    1.9035 C   0  0  0  0  0  0  0  0  0  0  0  0
    4.2734   -5.5619    1.0179 C   0  0  0  0  0  0  0  0  0  0  0  0
    4.2632   -5.2551   -0.3124 O   0  0  0  0  0  0  0  0  0  0  0  0
    4.5906   -3.9724   -0.6432 C   0  0  0  0  0  0  0  0  0  0  0  0
    3.9301   -2.8495   -0.1218 C   0  0  0  0  0  0  0  0  0  0  0  0
    3.7497   -1.9566   -1.2095 C   0  0  0  0  0  0  0  0  0  0  0  0
    4.6870   -1.9034   -2.2875 C   0  0  0  0  0  0  0  0  0  0  0  0
    5.8180   -2.7709   -2.3094 C   0  0  0  0  0  0  0  0  0  0  0  0
    5.8127   -3.7116   -1.2643 C   0  0  0  0  0  0  0  0  0  0  0  0
    6.3724   -3.1320    0.0282 C   0  0  2  0  0  0  0  0  0  0  0  0
    7.1851   -4.1627    0.7999 C   0  0  0  0  0  0  0  0  0  0  0  0
    8.5494   -4.2845    0.8477 C   0  0  0  0  0  0  0  0  0  0  0  0
    8.8792   -5.4164    1.6406 C   0  0  0  0  0  0  0  0  0  0  0  0
    7.7151   -5.9697    2.0678 C   0  0  0  0  0  0  0  0  0  0  0  0
    6.6619   -5.2124    1.5820 N   0  0  0  0  0  0  0  0  0  0  0  0
    5.1289   -2.5154    0.7601 C   0  0  1  0  0  0  0  0  0  0  0  0
    5.2358   -1.0638    1.0107 N   0  0  0  0  0  0  0  0  0  0  0  0
    1.6349   -6.1402    0.3187 H   0  0  0  0  0  0  0  0  0  0  0  0
    1.0643   -5.6399    1.9182 H   0  0  0  0  0  0  0  0  0  0  0  0
    1.4989   -7.3176    1.6209 H   0  0  0  0  0  0  0  0  0  0  0  0
    6.3206   -5.0699    4.4190 H   0  0  0  0  0  0  0  0  0  0  0  0
    5.8514   -6.7625    4.6728 H   0  0  0  0  0  0  0  0  0  0  0  0
    4.7926   -5.4463    5.2222 H   0  0  0  0  0  0  0  0  0  0  0  0
    2.9961   -1.1887   -1.1440 H   0  0  0  0  0  0  0  0  0  0  0  0
    4.5548   -1.1534   -3.0517 H   0  0  0  0  0  0  0  0  0  0  0  0
    6.6047   -2.6950   -3.0522 H   0  0  0  0  0  0  0  0  0  0  0  0
    7.0530   -2.3279   -0.2592 H   0  0  0  0  0  0  0  0  0  0  0  0
    9.2501   -3.6238    0.3561 H   0  0  0  0  0  0  0  0  0  0  0  0
    9.8524   -5.8097    1.8887 H   0  0  0  0  0  0  0  0  0  0  0  0
    7.5430   -6.8413    2.6827 H   0  0  0  0  0  0  0  0  0  0  0  0
    4.9724   -2.9752    1.7355 H   0  0  0  0  0  0  0  0  0  0  0  0
    4.3724   -0.7687    1.4434 H   0  0  0  0  0  0  0  0  0  0  0  0
    5.3444   -0.5583    0.1432 H   0  0  0  0  0  0  0  0  0  0  0  0
    6.0063   -0.8772    1.6344 H   0  0  0  0  0  0  0  0  0  0  0  0
  1  2  1  0
  1 23  1  0
  1 24  1  0
  1 25  1  0
  2  7  1  0
  2  3  2  0
  3  4  1  0
  4  5  1  0
  4  6  1  0
  5 26  1  0
  5 27  1  0
  5 28  1  0
  6 20  1  0
  6  7  2  0
  7  8  1  0
  8  9  1  0
  9 14  2  0
  9 10  1  0
 10 21  1  0
 10 11  2  0
 11 12  1  0
 11 29  1  0
 12 13  2  0
 12 30  1  0
 13 14  1  0
 13 31  1  0
 14 15  1  0
 15 16  1  0
 15 21  1  0
 15 32  1  6
 16 20  1  0
 16 17  2  0
 17 18  1  0
 17 33  1  0
 18 19  2  0
 18 34  1  0
 19 20  1  0
 19 35  1  0
 21 22  1  0
 21 36  1  1
 22 37  1  0
 22 38  1  0
 22 39  1  0
M  CHG  1  22   1
M  END
>  <i_m_ct_stereo_status>  (418) 
1

>  <s_m_source_file>  (418) 
/var/tmp/pbs.5076255.sched01/tmpybatibx8/138x0dlab3k.sdf

>  <i_m_source_file_index>  (418) 
41

>  <i_lp_mmshare_version>  (418) 
48012

>  <i_f3d_flags>  (418) 
0

>  <s_epik_input>  (418) 
W0NIM11uMW5jKFtDSDNdKWMoYzEyKU9jM2M0W2NIXVtjSF1bY0hdYzNbQ0BASF0oW0NASF00W05IMl0pYzVuMltjSF1bY0hdW2NIXTU=

>  <s_epik_cmdline>  (418) 
J2VwaWtfcHl0aG9uJywgJy1waHQnLCAnMi4wJywgJy1waCcsICc3LjAnLCAnLXRuJywgJzgnLCAnLW1hJywgJzIwMCcsICctaW1hZScsICc8aW5maWxlLm1hZT4nLCAnLW9tYWUnLCAnPG91dGZpbGUubWFlPic=

>  <r_lp_tautomer_probability>  (418) 
1

>  <r_epik_Ionization_Penalty>  (418) 
0.0602556

>  <r_epik_Ionization_Penalty_Charging>  (418) 
0.0602554

>  <r_epik_Ionization_Penalty_Neutral>  (418) 
1.22417e-07

>  <r_epik_State_Penalty>  (418) 
0.0522264

>  <r_epik_Charging_Adjusted_Penalty>  (418) 
0.112482

>  <i_epik_Tot_Q>  (418) 
1

>  <i_epik_Tot_abs_Q>  (418) 
1

>  <s_lp_Force_Field>  (418) 
OPLS3e

>  <r_lp_Energy>  (418) 
162.412

>  <b_lp_Chiralities_Consistent>  (418) 
1

>  <s_lp_Variant>  (418) 
113:0-1

>  <s_i_glide_gridfile>  (418) 
pfpi4k_grid

>  <i_i_glide_lignum>  (418) 
41

>  <i_i_glide_rotatable_bonds>  (418) 
0

>  <r_i_docking_score>  (418) 
-3.2553

>  <r_i_glide_ligand_efficiency>  (418) 
-0.147968

>  <r_i_glide_ligand_efficiency_sa>  (418) 
-0.414612

>  <r_i_glide_ligand_efficiency_ln>  (418) 
-0.795714

>  <r_i_glide_gscore>  (418) 
-3.2553

>  <r_i_glide_lipo>  (418) 
-0.483425

>  <r_i_glide_hbond>  (418) 
0

>  <r_i_glide_metal>  (418) 
-0

>  <r_i_glide_rewards>  (418) 
-1.56152

>  <r_i_glide_evdw>  (418) 
-21.7527

>  <r_i_glide_ecoul>  (418) 
-0.818114

>  <r_i_glide_erotb>  (418) 
0

>  <r_i_glide_esite>  (418) 
0

>  <r_i_glide_emodel>  (418) 
-29.0162

>  <r_i_glide_energy>  (418) 
-22.5708

>  <r_i_glide_einternal>  (418) 
0

>  <r_i_glide_intrahb_reward>  (418) 
-0

>  <i_i_glide_confnum>  (418) 
2

>  <i_i_glide_posenum>  (418) 
21

>  <r_i_glide_eff_state_penalty>  (418) 
0

>  <ligand_id>  (418) 
113

>  <original_smiles>  (418) 
Cc1nn(C)c2c1Oc1c3cccc1C(c1cccn1-2)C3N

>  <smiles>  (418) 
[H]c1c([H])c2c3c(c1[H])C([H])([N+]([H])([H])[H])C2([H])c1c([H])c([H])c([H])n1-c1c(c(C([H])([H])[H])nn1C([H])([H])[H])O3

$$$$
113:1:0
     RDKit          3D

 38 42  0  0  1  0  0  0  0  0999 V2000
    8.2821   -5.1193    0.1327 C   0  0  0  0  0  0  0  0  0  0  0  0
    7.1861   -4.3989    0.8634 C   0  0  0  0  0  0  0  0  0  0  0  0
    6.6904   -4.9453    1.9648 N   0  0  0  0  0  0  0  0  0  0  0  0
    5.7806   -4.0589    2.4230 N   0  0  0  0  0  0  0  0  0  0  0  0
    5.0411   -4.3589    3.6337 C   0  0  0  0  0  0  0  0  0  0  0  0
    5.7057   -2.9506    1.5987 C   0  0  0  0  0  0  0  0  0  0  0  0
    6.5483   -3.1729    0.5387 C   0  0  0  0  0  0  0  0  0  0  0  0
    6.7373   -2.4223   -0.5912 O   0  0  0  0  0  0  0  0  0  0  0  0
    5.6455   -2.2526   -1.3987 C   0  0  0  0  0  0  0  0  0  0  0  0
    4.8979   -3.3213   -1.9128 C   0  0  0  0  0  0  0  0  0  0  0  0
    4.5599   -2.9840   -3.2538 C   0  0  0  0  0  0  0  0  0  0  0  0
    4.3511   -1.6199   -3.6266 C   0  0  0  0  0  0  0  0  0  0  0  0
    4.5230   -0.5702   -2.6837 C   0  0  0  0  0  0  0  0  0  0  0  0
    5.0062   -1.0165   -1.4355 C   0  0  0  0  0  0  0  0  0  0  0  0
    3.8663   -1.5361   -0.5723 C   0  0  2  0  0  0  0  0  0  0  0  0
    4.0258   -1.1751    0.8911 C   0  0  0  0  0  0  0  0  0  0  0  0
    3.4033   -0.1704    1.5848 C   0  0  0  0  0  0  0  0  0  0  0  0
    3.9021   -0.1570    2.9153 C   0  0  0  0  0  0  0  0  0  0  0  0
    4.8097   -1.1639    3.0172 C   0  0  0  0  0  0  0  0  0  0  0  0
    4.8903   -1.8135    1.7948 N   0  0  0  0  0  0  0  0  0  0  0  0
    3.7699   -3.0650   -0.9151 C   0  0  1  0  0  0  0  0  0  0  0  0
    2.4686   -3.4512   -1.4263 N   0  0  0  0  0  0  0  0  0  0  0  0
    8.5849   -4.5751   -0.7623 H   0  0  0  0  0  0  0  0  0  0  0  0
    7.9646   -6.1238   -0.1409 H   0  0  0  0  0  0  0  0  0  0  0  0
    9.1639   -5.2309    0.7597 H   0  0  0  0  0  0  0  0  0  0  0  0
    4.0645   -3.8804    3.6037 H   0  0  0  0  0  0  0  0  0  0  0  0
    5.5902   -3.9929    4.4984 H   0  0  0  0  0  0  0  0  0  0  0  0
    4.8960   -5.4344    3.7319 H   0  0  0  0  0  0  0  0  0  0  0  0
    4.2759   -3.7687   -3.9402 H   0  0  0  0  0  0  0  0  0  0  0  0
    4.0300   -1.3875   -4.6275 H   0  0  0  0  0  0  0  0  0  0  0  0
    4.2859    0.4635   -2.9041 H   0  0  0  0  0  0  0  0  0  0  0  0
    2.9798   -1.0308   -0.9416 H   0  0  0  0  0  0  0  0  0  0  0  0
    2.6607    0.5048    1.1812 H   0  0  0  0  0  0  0  0  0  0  0  0
    3.6402    0.5191    3.7160 H   0  0  0  0  0  0  0  0  0  0  0  0
    5.4122   -1.4804    3.8555 H   0  0  0  0  0  0  0  0  0  0  0  0
    3.9358   -3.6828   -0.0306 H   0  0  0  0  0  0  0  0  0  0  0  0
    2.4450   -4.4555   -1.5864 H   0  0  0  0  0  0  0  0  0  0  0  0
    1.7622   -3.1951   -0.7563 H   0  0  0  0  0  0  0  0  0  0  0  0
  1  2  1  0
  1 23  1  0
  1 24  1  0
  1 25  1  0
  2  7  1  0
  2  3  2  0
  3  4  1  0
  4  5  1  0
  4  6  1  0
  5 26  1  0
  5 27  1  0
  5 28  1  0
  6 20  1  0
  6  7  2  0
  7  8  1  0
  8  9  1  0
  9 14  2  0
  9 10  1  0
 10 21  1  0
 10 11  2  0
 11 12  1  0
 11 29  1  0
 12 13  2  0
 12 30  1  0
 13 14  1  0
 13 31  1  0
 14 15  1  0
 15 16  1  0
 15 21  1  0
 15 32  1  6
 16 20  1  0
 16 17  2  0
 17 18  1  0
 17 33  1  0
 18 19  2  0
 18 34  1  0
 19 20  1  0
 19 35  1  0
 21 22  1  0
 21 36  1  1
 22 37  1  0
 22 38  1  0
M  END
>  <i_m_ct_stereo_status>  (419) 
1

>  <s_m_source_file>  (419) 
/var/tmp/pbs.5076255.sched01/tmpybatibx8/138x0dlab3k.sdf

>  <i_m_source_file_index>  (419) 
42

>  <i_lp_mmshare_version>  (419) 
48012

>  <i_f3d_flags>  (419) 
0

>  <s_epik_input>  (419) 
W0NIM11uMW5jKFtDSDNdKWMoYzEyKU9jM2M0W2NIXVtjSF1bY0hdYzNbQ0BASF0oW0NASF00W05IMl0pYzVuMltjSF1bY0hdW2NIXTU=

>  <s_epik_cmdline>  (419) 
J2VwaWtfcHl0aG9uJywgJy1waHQnLCAnMi4wJywgJy1waCcsICc3LjAnLCAnLXRuJywgJzgnLCAnLW1hJywgJzIwMCcsICctaW1hZScsICc8aW5maWxlLm1hZT4nLCAnLW9tYWUnLCAnPG91dGZpbGUubWFlPic=

>  <r_lp_tautomer_probability>  (419) 
1

>  <r_epik_Ionization_Penalty>  (419) 
1.38414

>  <r_epik_Ionization_Penalty_Charging>  (419) 
0

>  <r_epik_Ionization_Penalty_Neutral>  (419) 
1.38414

>  <r_epik_State_Penalty>  (419) 
1.46491

>  <r_epik_Charging_Adjusted_Penalty>  (419) 
1.46491

>  <i_epik_Tot_Q>  (419) 
0

>  <i_epik_Tot_abs_Q>  (419) 
0

>  <s_lp_Force_Field>  (419) 
OPLS3e

>  <r_lp_Energy>  (419) 
160.53

>  <b_lp_Chiralities_Consistent>  (419) 
1

>  <s_lp_Variant>  (419) 
113:0-2

>  <s_i_glide_gridfile>  (419) 
pfpi4k_grid

>  <i_i_glide_lignum>  (419) 
42

>  <i_i_glide_rotatable_bonds>  (419) 
0

>  <r_i_docking_score>  (419) 
-4.18521

>  <r_i_glide_ligand_efficiency>  (419) 
-0.190237

>  <r_i_glide_ligand_efficiency_sa>  (419) 
-0.533051

>  <r_i_glide_ligand_efficiency_ln>  (419) 
-1.02302

>  <r_i_glide_gscore>  (419) 
-4.18521

>  <r_i_glide_lipo>  (419) 
-0.814238

>  <r_i_glide_hbond>  (419) 
-0.357393

>  <r_i_glide_metal>  (419) 
-0

>  <r_i_glide_rewards>  (419) 
-1.61048

>  <r_i_glide_evdw>  (419) 
-24.7851

>  <r_i_glide_ecoul>  (419) 
-1.09232

>  <r_i_glide_erotb>  (419) 
0

>  <r_i_glide_esite>  (419) 
0

>  <r_i_glide_emodel>  (419) 
-31.9865

>  <r_i_glide_energy>  (419) 
-25.8774

>  <r_i_glide_einternal>  (419) 
0

>  <r_i_glide_intrahb_reward>  (419) 
-0

>  <i_i_glide_confnum>  (419) 
2

>  <i_i_glide_posenum>  (419) 
33

>  <r_i_glide_eff_state_penalty>  (419) 
0

>  <ligand_id>  (419) 
113

>  <original_smiles>  (419) 
Cc1nn(C)c2c1Oc1c3cccc1C(c1cccn1-2)C3N

>  <smiles>  (419) 
[H]c1c([H])c2c3c(c1[H])C([H])(N([H])[H])C2([H])c1c([H])c([H])c([H])n1-c1c(c(C([H])([H])[H])nn1C([H])([H])[H])O3

$$$$
113:1:1
     RDKit          3D

 38 42  0  0  1  0  0  0  0  0999 V2000
    8.2693   -6.3295    0.7146 C   0  0  0  0  0  0  0  0  0  0  0  0
    6.9200   -6.2103    1.3635 C   0  0  0  0  0  0  0  0  0  0  0  0
    6.2716   -7.3206    1.6977 N   0  0  0  0  0  0  0  0  0  0  0  0
    5.1323   -6.8941    2.2825 N   0  0  0  0  0  0  0  0  0  0  0  0
    4.1549   -7.8671    2.7379 C   0  0  0  0  0  0  0  0  0  0  0  0
    5.0738   -5.5094    2.3274 C   0  0  0  0  0  0  0  0  0  0  0  0
    6.1934   -5.0373    1.6759 C   0  0  0  0  0  0  0  0  0  0  0  0
    6.5335   -3.7442    1.3690 O   0  0  0  0  0  0  0  0  0  0  0  0
    5.6717   -3.0612    0.5654 C   0  0  0  0  0  0  0  0  0  0  0  0
    5.2906   -3.5316   -0.7015 C   0  0  0  0  0  0  0  0  0  0  0  0
    5.2800   -2.4035   -1.5628 C   0  0  0  0  0  0  0  0  0  0  0  0
    4.9786   -1.0961   -1.0592 C   0  0  0  0  0  0  0  0  0  0  0  0
    4.7051   -0.8849    0.3270 C   0  0  0  0  0  0  0  0  0  0  0  0
    4.8791   -2.0435    1.1074 C   0  0  0  0  0  0  0  0  0  0  0  0
    3.6529   -2.9519    1.0475 C   0  0  2  0  0  0  0  0  0  0  0  0
    3.3591   -3.6221    2.3777 C   0  0  0  0  0  0  0  0  0  0  0  0
    2.4157   -3.2685    3.3060 C   0  0  0  0  0  0  0  0  0  0  0  0
    2.5418   -4.1222    4.4330 C   0  0  0  0  0  0  0  0  0  0  0  0
    3.5475   -4.9991    4.1693 C   0  0  0  0  0  0  0  0  0  0  0  0
    4.0562   -4.7264    2.9061 N   0  0  0  0  0  0  0  0  0  0  0  0
    3.9131   -3.9171   -0.1632 C   0  0  1  0  0  0  0  0  0  0  0  0
    2.8534   -3.8472   -1.1538 N   0  0  0  0  0  0  0  0  0  0  0  0
    8.6779   -5.3497    0.4688 H   0  0  0  0  0  0  0  0  0  0  0  0
    8.2167   -6.9145   -0.2003 H   0  0  0  0  0  0  0  0  0  0  0  0
    8.9692   -6.8219    1.3867 H   0  0  0  0  0  0  0  0  0  0  0  0
    3.1548   -7.4398    2.7023 H   0  0  0  0  0  0  0  0  0  0  0  0
    4.3837   -8.1571    3.7600 H   0  0  0  0  0  0  0  0  0  0  0  0
    4.1752   -8.7516    2.0996 H   0  0  0  0  0  0  0  0  0  0  0  0
    5.3075   -2.5574   -2.6327 H   0  0  0  0  0  0  0  0  0  0  0  0
    4.8766   -0.2811   -1.7591 H   0  0  0  0  0  0  0  0  0  0  0  0
    4.3422    0.0640    0.7096 H   0  0  0  0  0  0  0  0  0  0  0  0
    2.7994   -2.3152    0.8016 H   0  0  0  0  0  0  0  0  0  0  0  0
    1.7074   -2.4592    3.1979 H   0  0  0  0  0  0  0  0  0  0  0  0
    1.9753   -4.1032    5.3527 H   0  0  0  0  0  0  0  0  0  0  0  0
    3.9600   -5.7965    4.7733 H   0  0  0  0  0  0  0  0  0  0  0  0
    3.9482   -4.9639    0.1470 H   0  0  0  0  0  0  0  0  0  0  0  0
    3.0228   -4.5482   -1.8713 H   0  0  0  0  0  0  0  0  0  0  0  0
    1.9613   -4.0856   -0.7568 H   0  0  0  0  0  0  0  0  0  0  0  0
  1  2  1  0
  1 23  1  0
  1 24  1  0
  1 25  1  0
  2  7  1  0
  2  3  2  0
  3  4  1  0
  4  5  1  0
  4  6  1  0
  5 26  1  0
  5 27  1  0
  5 28  1  0
  6 20  1  0
  6  7  2  0
  7  8  1  0
  8  9  1  0
  9 14  2  0
  9 10  1  0
 10 21  1  0
 10 11  2  0
 11 12  1  0
 11 29  1  0
 12 13  2  0
 12 30  1  0
 13 14  1  0
 13 31  1  0
 14 15  1  0
 15 16  1  0
 15 21  1  0
 15 32  1  6
 16 20  1  0
 16 17  2  0
 17 18  1  0
 17 33  1  0
 18 19  2  0
 18 34  1  0
 19 20  1  0
 19 35  1  0
 21 22  1  0
 21 36  1  1
 22 37  1  0
 22 38  1  0
M  END
>  <i_m_ct_stereo_status>  (420) 
1

>  <s_m_source_file>  (420) 
/var/tmp/pbs.5076255.sched01/tmpybatibx8/138x0dlab3k.sdf

>  <i_m_source_file_index>  (420) 
42

>  <i_lp_mmshare_version>  (420) 
48012

>  <i_f3d_flags>  (420) 
0

>  <s_epik_input>  (420) 
W0NIM11uMW5jKFtDSDNdKWMoYzEyKU9jM2M0W2NIXVtjSF1bY0hdYzNbQ0BASF0oW0NASF00W05IMl0pYzVuMltjSF1bY0hdW2NIXTU=

>  <s_epik_cmdline>  (420) 
J2VwaWtfcHl0aG9uJywgJy1waHQnLCAnMi4wJywgJy1waCcsICc3LjAnLCAnLXRuJywgJzgnLCAnLW1hJywgJzIwMCcsICctaW1hZScsICc8aW5maWxlLm1hZT4nLCAnLW9tYWUnLCAnPG91dGZpbGUubWFlPic=

>  <r_lp_tautomer_probability>  (420) 
1

>  <r_epik_Ionization_Penalty>  (420) 
1.38414

>  <r_epik_Ionization_Penalty_Charging>  (420) 
0

>  <r_epik_Ionization_Penalty_Neutral>  (420) 
1.38414

>  <r_epik_State_Penalty>  (420) 
1.46491

>  <r_epik_Charging_Adjusted_Penalty>  (420) 
1.46491

>  <i_epik_Tot_Q>  (420) 
0

>  <i_epik_Tot_abs_Q>  (420) 
0

>  <s_lp_Force_Field>  (420) 
OPLS3e

>  <r_lp_Energy>  (420) 
160.53

>  <b_lp_Chiralities_Consistent>  (420) 
1

>  <s_lp_Variant>  (420) 
113:0-2

>  <s_i_glide_gridfile>  (420) 
pfpi4k_grid

>  <i_i_glide_lignum>  (420) 
42

>  <i_i_glide_rotatable_bonds>  (420) 
0

>  <r_i_docking_score>  (420) 
-3.65328

>  <r_i_glide_ligand_efficiency>  (420) 
-0.166058

>  <r_i_glide_ligand_efficiency_sa>  (420) 
-0.465301

>  <r_i_glide_ligand_efficiency_ln>  (420) 
-0.892995

>  <r_i_glide_gscore>  (420) 
-3.65328

>  <r_i_glide_lipo>  (420) 
-0.380181

>  <r_i_glide_hbond>  (420) 
-0.32

>  <r_i_glide_metal>  (420) 
-0

>  <r_i_glide_rewards>  (420) 
-1.43186

>  <r_i_glide_evdw>  (420) 
-18.4617

>  <r_i_glide_ecoul>  (420) 
-3.98769

>  <r_i_glide_erotb>  (420) 
0

>  <r_i_glide_esite>  (420) 
0

>  <r_i_glide_emodel>  (420) 
-27.7768

>  <r_i_glide_energy>  (420) 
-22.4494

>  <r_i_glide_einternal>  (420) 
0

>  <r_i_glide_intrahb_reward>  (420) 
-0

>  <i_i_glide_confnum>  (420) 
2

>  <i_i_glide_posenum>  (420) 
6

>  <r_i_glide_eff_state_penalty>  (420) 
0

>  <ligand_id>  (420) 
113

>  <original_smiles>  (420) 
Cc1nn(C)c2c1Oc1c3cccc1C(c1cccn1-2)C3N

>  <smiles>  (420) 
[H]c1c([H])c2c3c(c1[H])C([H])(N([H])[H])C2([H])c1c([H])c([H])c([H])n1-c1c(c(C([H])([H])[H])nn1C([H])([H])[H])O3

$$$$
113:1:2
     RDKit          3D

 38 42  0  0  1  0  0  0  0  0999 V2000
    7.3034   -5.6440    0.8880 C   0  0  0  0  0  0  0  0  0  0  0  0
    6.1560   -4.8327    1.4194 C   0  0  0  0  0  0  0  0  0  0  0  0
    5.4211   -5.3349    2.4033 N   0  0  0  0  0  0  0  0  0  0  0  0
    4.5034   -4.3856    2.6815 N   0  0  0  0  0  0  0  0  0  0  0  0
    3.4991   -4.6383    3.6965 C   0  0  0  0  0  0  0  0  0  0  0  0
    4.6854   -3.2714    1.8813 C   0  0  0  0  0  0  0  0  0  0  0  0
    5.7003   -3.5525    1.0057 C   0  0  0  0  0  0  0  0  0  0  0  0
    6.1756   -2.8054   -0.0397 O   0  0  0  0  0  0  0  0  0  0  0  0
    5.2915   -2.5204   -1.0417 C   0  0  0  0  0  0  0  0  0  0  0  0
    4.5882   -3.5184   -1.7324 C   0  0  0  0  0  0  0  0  0  0  0  0
    4.5654   -3.1423   -3.1029 C   0  0  0  0  0  0  0  0  0  0  0  0
    4.5515   -1.7601   -3.4671 C   0  0  0  0  0  0  0  0  0  0  0  0
    4.6125   -0.7324   -2.4827 C   0  0  0  0  0  0  0  0  0  0  0  0
    4.7782   -1.2295   -1.1736 C   0  0  0  0  0  0  0  0  0  0  0  0
    3.4493   -1.6774   -0.5775 C   0  0  2  0  0  0  0  0  0  0  0  0
    3.3427   -1.3442    0.8985 C   0  0  0  0  0  0  0  0  0  0  0  0
    2.6763   -0.2954    1.4843 C   0  0  0  0  0  0  0  0  0  0  0  0
    2.8906   -0.3426    2.8858 C   0  0  0  0  0  0  0  0  0  0  0  0
    3.6690   -1.4307    3.1403 C   0  0  0  0  0  0  0  0  0  0  0  0
    3.9415   -2.0686    1.9414 N   0  0  0  0  0  0  0  0  0  0  0  0
    3.3033   -3.1857   -0.9780 C   0  0  1  0  0  0  0  0  0  0  0  0
    2.1108   -3.4598   -1.7569 N   0  0  0  0  0  0  0  0  0  0  0  0
    7.8096   -5.1200    0.0794 H   0  0  0  0  0  0  0  0  0  0  0  0
    6.9560   -6.6021    0.5090 H   0  0  0  0  0  0  0  0  0  0  0  0
    8.0371   -5.8421    1.6686 H   0  0  0  0  0  0  0  0  0  0  0  0
    2.5931   -4.0768    3.4794 H   0  0  0  0  0  0  0  0  0  0  0  0
    3.8845   -4.3346    4.6683 H   0  0  0  0  0  0  0  0  0  0  0  0
    3.2484   -5.6997    3.7267 H   0  0  0  0  0  0  0  0  0  0  0  0
    4.3559   -3.8907   -3.8507 H   0  0  0  0  0  0  0  0  0  0  0  0
    4.4638   -1.4944   -4.5064 H   0  0  0  0  0  0  0  0  0  0  0  0
    4.4989    0.3183   -2.7177 H   0  0  0  0  0  0  0  0  0  0  0  0
    2.6980   -1.1000   -1.1147 H   0  0  0  0  0  0  0  0  0  0  0  0
    2.0862    0.4388    0.9540 H   0  0  0  0  0  0  0  0  0  0  0  0
    2.5242    0.3430    3.6360 H   0  0  0  0  0  0  0  0  0  0  0  0
    4.0578   -1.8102    4.0722 H   0  0  0  0  0  0  0  0  0  0  0  0
    3.2298   -3.8247   -0.1004 H   0  0  0  0  0  0  0  0  0  0  0  0
    2.0316   -4.4602   -1.9398 H   0  0  0  0  0  0  0  0  0  0  0  0
    1.2912   -3.1361   -1.2702 H   0  0  0  0  0  0  0  0  0  0  0  0
  1  2  1  0
  1 23  1  0
  1 24  1  0
  1 25  1  0
  2  7  1  0
  2  3  2  0
  3  4  1  0
  4  5  1  0
  4  6  1  0
  5 26  1  0
  5 27  1  0
  5 28  1  0
  6 20  1  0
  6  7  2  0
  7  8  1  0
  8  9  1  0
  9 14  2  0
  9 10  1  0
 10 21  1  0
 10 11  2  0
 11 12  1  0
 11 29  1  0
 12 13  2  0
 12 30  1  0
 13 14  1  0
 13 31  1  0
 14 15  1  0
 15 16  1  0
 15 21  1  0
 15 32  1  6
 16 20  1  0
 16 17  2  0
 17 18  1  0
 17 33  1  0
 18 19  2  0
 18 34  1  0
 19 20  1  0
 19 35  1  0
 21 22  1  0
 21 36  1  1
 22 37  1  0
 22 38  1  0
M  END
>  <i_m_ct_stereo_status>  (421) 
1

>  <s_m_source_file>  (421) 
/var/tmp/pbs.5076255.sched01/tmpybatibx8/138x0dlab3k.sdf

>  <i_m_source_file_index>  (421) 
42

>  <i_lp_mmshare_version>  (421) 
48012

>  <i_f3d_flags>  (421) 
0

>  <s_epik_input>  (421) 
W0NIM11uMW5jKFtDSDNdKWMoYzEyKU9jM2M0W2NIXVtjSF1bY0hdYzNbQ0BASF0oW0NASF00W05IMl0pYzVuMltjSF1bY0hdW2NIXTU=

>  <s_epik_cmdline>  (421) 
J2VwaWtfcHl0aG9uJywgJy1waHQnLCAnMi4wJywgJy1waCcsICc3LjAnLCAnLXRuJywgJzgnLCAnLW1hJywgJzIwMCcsICctaW1hZScsICc8aW5maWxlLm1hZT4nLCAnLW9tYWUnLCAnPG91dGZpbGUubWFlPic=

>  <r_lp_tautomer_probability>  (421) 
1

>  <r_epik_Ionization_Penalty>  (421) 
1.38414

>  <r_epik_Ionization_Penalty_Charging>  (421) 
0

>  <r_epik_Ionization_Penalty_Neutral>  (421) 
1.38414

>  <r_epik_State_Penalty>  (421) 
1.46491

>  <r_epik_Charging_Adjusted_Penalty>  (421) 
1.46491

>  <i_epik_Tot_Q>  (421) 
0

>  <i_epik_Tot_abs_Q>  (421) 
0

>  <s_lp_Force_Field>  (421) 
OPLS3e

>  <r_lp_Energy>  (421) 
160.53

>  <b_lp_Chiralities_Consistent>  (421) 
1

>  <s_lp_Variant>  (421) 
113:0-2

>  <s_i_glide_gridfile>  (421) 
pfpi4k_grid

>  <i_i_glide_lignum>  (421) 
42

>  <i_i_glide_rotatable_bonds>  (421) 
0

>  <r_i_docking_score>  (421) 
-3.53667

>  <r_i_glide_ligand_efficiency>  (421) 
-0.160758

>  <r_i_glide_ligand_efficiency_sa>  (421) 
-0.450449

>  <r_i_glide_ligand_efficiency_ln>  (421) 
-0.86449

>  <r_i_glide_gscore>  (421) 
-3.53667

>  <r_i_glide_lipo>  (421) 
-0.473877

>  <r_i_glide_hbond>  (421) 
-0.348576

>  <r_i_glide_metal>  (421) 
-0

>  <r_i_glide_rewards>  (421) 
-1.46427

>  <r_i_glide_evdw>  (421) 
-21.9431

>  <r_i_glide_ecoul>  (421) 
-1.0033

>  <r_i_glide_erotb>  (421) 
0

>  <r_i_glide_esite>  (421) 
-0.00229174

>  <r_i_glide_emodel>  (421) 
-28.0404

>  <r_i_glide_energy>  (421) 
-22.9464

>  <r_i_glide_einternal>  (421) 
0

>  <r_i_glide_intrahb_reward>  (421) 
-0

>  <i_i_glide_confnum>  (421) 
2

>  <i_i_glide_posenum>  (421) 
23

>  <r_i_glide_eff_state_penalty>  (421) 
0

>  <ligand_id>  (421) 
113

>  <original_smiles>  (421) 
Cc1nn(C)c2c1Oc1c3cccc1C(c1cccn1-2)C3N

>  <smiles>  (421) 
[H]c1c([H])c2c3c(c1[H])C([H])(N([H])[H])C2([H])c1c([H])c([H])c([H])n1-c1c(c(C([H])([H])[H])nn1C([H])([H])[H])O3

$$$$
114:0:0
     RDKit          3D

 70 74  0  0  1  0  0  0  0  0999 V2000
    5.0162   -1.4620    2.6777 C   0  0  0  0  0  0  0  0  0  0  0  0
    5.1728   -2.5888    1.8136 O   0  0  0  0  0  0  0  0  0  0  0  0
    4.9981   -3.8071    2.3572 C   0  0  0  0  0  0  0  0  0  0  0  0
    4.7677   -3.9471    3.5405 O   0  0  0  0  0  0  0  0  0  0  0  0
    5.0318   -4.9842    1.3167 C   0  0  1  0  0  0  0  0  0  0  0  0
    4.1403   -4.5584    0.1174 C   0  0  0  0  0  0  0  0  0  0  0  0
    6.4342   -5.1759    0.6787 C   0  0  0  0  0  0  0  0  0  0  0  0
    7.4235   -6.0057    1.4924 C   0  0  0  0  0  0  0  0  0  0  0  0
    6.8282   -7.3757    1.8475 C   0  0  0  0  0  0  0  0  0  0  0  0
    5.5055   -7.3105    2.6704 C   0  0  1  0  0  0  0  0  0  0  0  0
    5.9036   -6.7481    4.0624 C   0  0  0  0  0  0  0  0  0  0  0  0
    4.5224   -6.3839    1.8624 C   0  0  1  0  0  0  0  0  0  0  0  0
    3.1565   -6.3283    2.5610 C   0  0  0  0  0  0  0  0  0  0  0  0
    2.5326   -7.7154    2.7490 C   0  0  0  0  0  0  0  0  0  0  0  0
    3.3727   -8.8103    3.4972 C   0  0  2  0  0  0  0  0  0  0  0  0
    3.4377   -8.6211    5.0405 C   0  0  0  0  0  0  0  0  0  0  0  0
    2.6162   -7.6616    5.6270 C   0  0  0  0  0  0  0  0  0  0  0  0
    1.5273   -8.0049    6.5368 C   0  0  0  0  0  0  0  0  0  0  0  0
    0.8109   -9.1688    6.4781 C   0  0  0  0  0  0  0  0  0  0  0  0
    1.0503  -10.2154    5.4824 C   0  0  0  0  0  0  0  0  0  0  0  0
    2.2929  -10.4436    4.9747 C   0  0  0  0  0  0  0  0  0  0  0  0
    3.5396   -9.9769    5.7167 C   0  0  2  0  0  0  0  0  0  0  0  0
    3.5670  -10.0450    7.2845 C   0  0  0  0  0  0  0  0  0  0  0  0
    4.8091  -10.8423    5.3657 C   0  0  0  0  0  0  0  0  0  0  0  0
    5.9914  -10.1305    4.7109 C   0  0  0  0  0  0  0  0  0  0  0  0
    5.8121   -9.8814    3.2132 C   0  0  0  0  0  0  0  0  0  0  0  0
    4.8188   -8.7580    2.7947 C   0  0  2  0  0  0  0  0  0  0  0  0
    2.5191  -10.2122    3.4546 C   0  0  1  0  0  0  0  0  0  0  0  0
    1.1893  -10.1669    2.6623 C   0  0  0  0  0  0  0  0  0  0  0  0
    3.2079  -11.3658    2.9110 N   0  0  0  0  0  0  0  0  0  0  0  0
    5.0440   -0.5249    2.1139 H   0  0  0  0  0  0  0  0  0  0  0  0
    5.8158   -1.4677    3.4157 H   0  0  0  0  0  0  0  0  0  0  0  0
    4.0666   -1.5055    3.2171 H   0  0  0  0  0  0  0  0  0  0  0  0
    4.1382   -5.3048   -0.6782 H   0  0  0  0  0  0  0  0  0  0  0  0
    4.4951   -3.6440   -0.3599 H   0  0  0  0  0  0  0  0  0  0  0  0
    3.1061   -4.3759    0.4030 H   0  0  0  0  0  0  0  0  0  0  0  0
    6.3263   -5.6568   -0.2935 H   0  0  0  0  0  0  0  0  0  0  0  0
    6.9013   -4.2118    0.4826 H   0  0  0  0  0  0  0  0  0  0  0  0
    8.3237   -6.1730    0.8996 H   0  0  0  0  0  0  0  0  0  0  0  0
    7.7702   -5.4659    2.3716 H   0  0  0  0  0  0  0  0  0  0  0  0
    6.6585   -7.9351    0.9264 H   0  0  0  0  0  0  0  0  0  0  0  0
    7.6190   -7.8945    2.3882 H   0  0  0  0  0  0  0  0  0  0  0  0
    5.0526   -6.5970    4.7167 H   0  0  0  0  0  0  0  0  0  0  0  0
    6.4224   -5.7983    3.9945 H   0  0  0  0  0  0  0  0  0  0  0  0
    6.6302   -7.3645    4.5756 H   0  0  0  0  0  0  0  0  0  0  0  0
    4.3321   -6.9379    0.9407 H   0  0  0  0  0  0  0  0  0  0  0  0
    3.2381   -5.8419    3.5231 H   0  0  0  0  0  0  0  0  0  0  0  0
    2.4568   -5.7197    1.9912 H   0  0  0  0  0  0  0  0  0  0  0  0
    1.5653   -7.5652    3.2297 H   0  0  0  0  0  0  0  0  0  0  0  0
    2.3180   -8.0607    1.7382 H   0  0  0  0  0  0  0  0  0  0  0  0
    2.4085   -6.7573    5.1122 H   0  0  0  0  0  0  0  0  0  0  0  0
    1.2481   -7.2777    7.2926 H   0  0  0  0  0  0  0  0  0  0  0  0
    0.0060   -9.3137    7.1876 H   0  0  0  0  0  0  0  0  0  0  0  0
    0.1762  -10.4311    4.8960 H   0  0  0  0  0  0  0  0  0  0  0  0
    2.8307   -9.5271    7.8765 H   0  0  0  0  0  0  0  0  0  0  0  0
    4.5224   -9.6679    7.6516 H   0  0  0  0  0  0  0  0  0  0  0  0
    3.4855  -11.0824    7.6106 H   0  0  0  0  0  0  0  0  0  0  0  0
    5.2387  -11.2733    6.2679 H   0  0  0  0  0  0  0  0  0  0  0  0
    4.5791  -11.7589    4.8368 H   0  0  0  0  0  0  0  0  0  0  0  0
    6.2591   -9.2329    5.2696 H   0  0  0  0  0  0  0  0  0  0  0  0
    6.8661  -10.7815    4.8096 H   0  0  0  0  0  0  0  0  0  0  0  0
    6.8029   -9.7185    2.7913 H   0  0  0  0  0  0  0  0  0  0  0  0
    5.5633  -10.8202    2.7247 H   0  0  0  0  0  0  0  0  0  0  0  0
    4.6168   -9.0260    1.7571 H   0  0  0  0  0  0  0  0  0  0  0  0
    0.4898   -9.3984    2.9694 H   0  0  0  0  0  0  0  0  0  0  0  0
    0.6597  -11.1172    2.7441 H   0  0  0  0  0  0  0  0  0  0  0  0
    1.4023  -10.0299    1.6039 H   0  0  0  0  0  0  0  0  0  0  0  0
    3.4224  -11.2713    1.9094 H   0  0  0  0  0  0  0  0  0  0  0  0
    2.6202  -12.1831    3.0161 H   0  0  0  0  0  0  0  0  0  0  0  0
    4.0665  -11.5247    3.4043 H   0  0  0  0  0  0  0  0  0  0  0  0
  1  2  1  0
  1 31  1  0
  1 32  1  0
  1 33  1  0
  2  3  1  0
  3  4  2  0
  3  5  1  0
  5 12  1  0
  5  6  1  6
  5  7  1  0
  6 34  1  0
  6 35  1  0
  6 36  1  0
  7  8  1  0
  7 37  1  0
  7 38  1  0
  8  9  1  0
  8 39  1  0
  8 40  1  0
  9 10  1  0
  9 41  1  0
  9 42  1  0
 10 27  1  0
 10 11  1  1
 10 12  1  0
 11 43  1  0
 11 44  1  0
 11 45  1  0
 12 13  1  0
 12 46  1  6
 13 14  1  0
 13 47  1  0
 13 48  1  0
 15 14  1  6
 14 49  1  0
 14 50  1  0
 15 27  1  0
 15 28  1  0
 15 16  1  0
 16 22  1  0
 16 17  2  0
 17 18  1  0
 17 51  1  0
 18 19  2  0
 18 52  1  0
 19 20  1  0
 19 53  1  0
 20 21  2  0
 20 54  1  0
 21 22  1  0
 21 28  1  0
 22 23  1  1
 22 24  1  0
 23 55  1  0
 23 56  1  0
 23 57  1  0
 24 25  1  0
 24 58  1  0
 24 59  1  0
 25 26  1  0
 25 60  1  0
 25 61  1  0
 26 27  1  0
 26 62  1  0
 26 63  1  0
 27 64  1  6
 28 29  1  6
 28 30  1  0
 29 65  1  0
 29 66  1  0
 29 67  1  0
 30 68  1  0
 30 69  1  0
 30 70  1  0
M  CHG  1  30   1
M  END
>  <i_m_ct_stereo_status>  (422) 
1

>  <s_m_source_file>  (422) 
/var/tmp/pbs.5076255.sched01/tmpybatibx8/138x0dlab3k.sdf

>  <i_m_source_file_index>  (422) 
43

>  <i_lp_mmshare_version>  (422) 
48012

>  <i_f3d_flags>  (422) 
0

>  <s_epik_input>  (422) 
W0NIM11PQyg9TylbQ0BAXShbQ0gzXSkoW0NIMl1bQ0gyXVtDSDJdMSlbQ0BIXShbQ0gyXVtDSDJdMilbQ0BAXTEoW0NIM10pW0NASF0zW0NIMl1bQ0gyXVtDSDJdW0NAXShDPTRbQ0BAXTIzNSkoW0NIM10pQyhbQ0BdNShbQ0gzXSlbTkgyXSk9W0NIXVtDSF09W0NIXVtDSF00

>  <s_epik_cmdline>  (422) 
J2VwaWtfcHl0aG9uJywgJy1waHQnLCAnMi4wJywgJy1waCcsICc3LjAnLCAnLXRuJywgJzgnLCAnLW1hJywgJzIwMCcsICctaW1hZScsICc8aW5maWxlLm1hZT4nLCAnLW9tYWUnLCAnPG91dGZpbGUubWFlPic=

>  <r_epik_Ionization_Penalty>  (422) 
0.00782248

>  <r_epik_Ionization_Penalty_Charging>  (422) 
0.00782248

>  <r_epik_Ionization_Penalty_Neutral>  (422) 
0

>  <r_epik_State_Penalty>  (422) 
0.00586394

>  <r_epik_Charging_Adjusted_Penalty>  (422) 
0.0136864

>  <i_epik_Tot_Q>  (422) 
1

>  <i_epik_Tot_abs_Q>  (422) 
1

>  <s_epik_Chemistry_Notes>  (422) 
This compound has an ester and may undergo hydrolysis at high or low pH.

>  <s_lp_Force_Field>  (422) 
OPLS3e

>  <r_lp_Energy>  (422) 
159.883

>  <b_lp_Chiralities_Consistent>  (422) 
1

>  <s_lp_Variant>  (422) 
114:0-1

>  <s_i_glide_gridfile>  (422) 
pfpi4k_grid

>  <i_i_glide_lignum>  (422) 
43

>  <i_i_glide_rotatable_bonds>  (422) 
2

>  <r_i_docking_score>  (422) 
-3.3949

>  <r_i_glide_ligand_efficiency>  (422) 
-0.113163

>  <r_i_glide_ligand_efficiency_sa>  (422) 
-0.351625

>  <r_i_glide_ligand_efficiency_ln>  (422) 
-0.771359

>  <r_i_glide_gscore>  (422) 
-3.3949

>  <r_i_glide_lipo>  (422) 
-0.554529

>  <r_i_glide_hbond>  (422) 
-0.188975

>  <r_i_glide_metal>  (422) 
-0

>  <r_i_glide_rewards>  (422) 
-0.65669

>  <r_i_glide_evdw>  (422) 
-24.3093

>  <r_i_glide_ecoul>  (422) 
-5.5065

>  <r_i_glide_erotb>  (422) 
0.116854

>  <r_i_glide_esite>  (422) 
-0.0701232

>  <r_i_glide_emodel>  (422) 
-37.1847

>  <r_i_glide_energy>  (422) 
-29.8158

>  <r_i_glide_einternal>  (422) 
1.78947

>  <r_i_glide_intrahb_reward>  (422) 
-0

>  <i_i_glide_confnum>  (422) 
6

>  <i_i_glide_posenum>  (422) 
38

>  <r_i_glide_eff_state_penalty>  (422) 
0

>  <ligand_id>  (422) 
114

>  <original_smiles>  (422) 
COC(=O)C1(C)CCCC2(C)C1CCC13C4=CC=CC=C(C4(C)CCCC21)C3(C)[N+]

>  <smiles>  (422) 
[H]C1=C([H])C([H])=C2C3(C([H])([H])[H])C(=C1[H])C1(C([H])([H])C([H])([H])C4([H])C(C(=O)OC([H])([H])[H])(C([H])([H])[H])C([H])([H])C([H])([H])C([H])([H])C4(C([H])([H])[H])C1([H])C([H])([H])C([H])([H])C3([H])[H])C2(C([H])([H])[H])[N+]([H])([H])[H]

$$$$
114:0:1
     RDKit          3D

 70 74  0  0  1  0  0  0  0  0999 V2000
    4.8703   -0.7116    2.2546 C   0  0  0  0  0  0  0  0  0  0  0  0
    5.3663   -1.7088    1.3721 O   0  0  0  0  0  0  0  0  0  0  0  0
    4.5488   -2.2648    0.4776 C   0  0  0  0  0  0  0  0  0  0  0  0
    3.4008   -1.8715    0.2752 O   0  0  0  0  0  0  0  0  0  0  0  0
    5.1401   -3.4772   -0.3111 C   0  0  1  0  0  0  0  0  0  0  0  0
    4.4183   -3.4943   -1.6890 C   0  0  0  0  0  0  0  0  0  0  0  0
    6.6334   -3.2592   -0.6668 C   0  0  0  0  0  0  0  0  0  0  0  0
    7.6187   -3.6333    0.4383 C   0  0  0  0  0  0  0  0  0  0  0  0
    7.3855   -5.0635    0.9411 C   0  0  0  0  0  0  0  0  0  0  0  0
    5.9612   -5.3406    1.5130 C   0  0  1  0  0  0  0  0  0  0  0  0
    5.8142   -4.5427    2.8335 C   0  0  0  0  0  0  0  0  0  0  0  0
    4.9451   -4.8828    0.4015 C   0  0  1  0  0  0  0  0  0  0  0  0
    3.5152   -5.1607    0.8794 C   0  0  0  0  0  0  0  0  0  0  0  0
    3.3081   -6.6491    1.2132 C   0  0  0  0  0  0  0  0  0  0  0  0
    4.2640   -7.3361    2.2505 C   0  0  2  0  0  0  0  0  0  0  0  0
    3.9127   -6.9634    3.7297 C   0  0  0  0  0  0  0  0  0  0  0  0
    2.7711   -6.2699    3.9984 C   0  0  0  0  0  0  0  0  0  0  0  0
    1.6499   -6.8543    4.7495 C   0  0  0  0  0  0  0  0  0  0  0  0
    1.3547   -8.1811    4.7875 C   0  0  0  0  0  0  0  0  0  0  0  0
    2.1048   -9.2184    4.0717 C   0  0  0  0  0  0  0  0  0  0  0  0
    3.4256   -9.0573    3.7970 C   0  0  0  0  0  0  0  0  0  0  0  0
    4.3121   -8.1370    4.6262 C   0  0  2  0  0  0  0  0  0  0  0  0
    4.0222   -8.0032    6.1678 C   0  0  0  0  0  0  0  0  0  0  0  0
    5.8264   -8.5596    4.6441 C   0  0  0  0  0  0  0  0  0  0  0  0
    6.8494   -7.5799    4.0736 C   0  0  0  0  0  0  0  0  0  0  0  0
    6.9178   -7.5794    2.5463 C   0  0  0  0  0  0  0  0  0  0  0  0
    5.7365   -6.9083    1.7852 C   0  0  2  0  0  0  0  0  0  0  0  0
    3.8931   -8.9263    2.3190 C   0  0  1  0  0  0  0  0  0  0  0  0
    2.8282   -9.4376    1.3223 C   0  0  0  0  0  0  0  0  0  0  0  0
    4.9957   -9.8653    2.0735 N   0  0  0  0  0  0  0  0  0  0  0  0
    5.6234   -0.5085    3.0150 H   0  0  0  0  0  0  0  0  0  0  0  0
    3.9626   -1.0296    2.7742 H   0  0  0  0  0  0  0  0  0  0  0  0
    4.6548    0.2142    1.7185 H   0  0  0  0  0  0  0  0  0  0  0  0
    4.8049   -4.2890   -2.3341 H   0  0  0  0  0  0  0  0  0  0  0  0
    4.5582   -2.5505   -2.2235 H   0  0  0  0  0  0  0  0  0  0  0  0
    3.3422   -3.6554   -1.6067 H   0  0  0  0  0  0  0  0  0  0  0  0
    6.8881   -3.8361   -1.5619 H   0  0  0  0  0  0  0  0  0  0  0  0
    6.8039   -2.2203   -0.9419 H   0  0  0  0  0  0  0  0  0  0  0  0
    8.6273   -3.5574    0.0372 H   0  0  0  0  0  0  0  0  0  0  0  0
    7.5830   -2.9169    1.2579 H   0  0  0  0  0  0  0  0  0  0  0  0
    7.5925   -5.7501    0.1201 H   0  0  0  0  0  0  0  0  0  0  0  0
    8.1598   -5.2233    1.6887 H   0  0  0  0  0  0  0  0  0  0  0  0
    4.8462   -4.6350    3.3107 H   0  0  0  0  0  0  0  0  0  0  0  0
    5.9970   -3.4868    2.7106 H   0  0  0  0  0  0  0  0  0  0  0  0
    6.5749   -4.8485    3.5514 H   0  0  0  0  0  0  0  0  0  0  0  0
    5.1099   -5.5799   -0.4209 H   0  0  0  0  0  0  0  0  0  0  0  0
    3.2632   -4.5084    1.7105 H   0  0  0  0  0  0  0  0  0  0  0  0
    2.8042   -4.9153    0.0913 H   0  0  0  0  0  0  0  0  0  0  0  0
    2.2607   -6.7986    1.4731 H   0  0  0  0  0  0  0  0  0  0  0  0
    3.4607   -7.1469    0.2634 H   0  0  0  0  0  0  0  0  0  0  0  0
    2.4109   -5.5561    3.2853 H   0  0  0  0  0  0  0  0  0  0  0  0
    1.0212   -6.1761    5.3075 H   0  0  0  0  0  0  0  0  0  0  0  0
    0.5028   -8.4970    5.3732 H   0  0  0  0  0  0  0  0  0  0  0  0
    1.4847   -9.7567    3.3754 H   0  0  0  0  0  0  0  0  0  0  0  0
    3.0600   -7.6847    6.5324 H   0  0  0  0  0  0  0  0  0  0  0  0
    4.7157   -7.2854    6.6090 H   0  0  0  0  0  0  0  0  0  0  0  0
    4.1939   -8.9600    6.6637 H   0  0  0  0  0  0  0  0  0  0  0  0
    6.1659   -8.7173    5.6711 H   0  0  0  0  0  0  0  0  0  0  0  0
    5.9920   -9.5573    4.2504 H   0  0  0  0  0  0  0  0  0  0  0  0
    6.7068   -6.5942    4.5088 H   0  0  0  0  0  0  0  0  0  0  0  0
    7.8326   -7.8897    4.4270 H   0  0  0  0  0  0  0  0  0  0  0  0
    7.8771   -7.1528    2.2703 H   0  0  0  0  0  0  0  0  0  0  0  0
    7.0707   -8.5997    2.2018 H   0  0  0  0  0  0  0  0  0  0  0  0
    5.8342   -7.3506    0.7951 H   0  0  0  0  0  0  0  0  0  0  0  0
    1.8763   -8.9101    1.3502 H   0  0  0  0  0  0  0  0  0  0  0  0
    2.6139  -10.4846    1.5303 H   0  0  0  0  0  0  0  0  0  0  0  0
    3.2046   -9.4275    0.3008 H   0  0  0  0  0  0  0  0  0  0  0  0
    5.3162   -9.7774    1.1175 H   0  0  0  0  0  0  0  0  0  0  0  0
    4.6493  -10.8122    2.1955 H   0  0  0  0  0  0  0  0  0  0  0  0
    5.7475   -9.6834    2.7206 H   0  0  0  0  0  0  0  0  0  0  0  0
  1  2  1  0
  1 31  1  0
  1 32  1  0
  1 33  1  0
  2  3  1  0
  3  4  2  0
  3  5  1  0
  5 12  1  0
  5  6  1  6
  5  7  1  0
  6 34  1  0
  6 35  1  0
  6 36  1  0
  7  8  1  0
  7 37  1  0
  7 38  1  0
  8  9  1  0
  8 39  1  0
  8 40  1  0
  9 10  1  0
  9 41  1  0
  9 42  1  0
 10 27  1  0
 10 11  1  1
 10 12  1  0
 11 43  1  0
 11 44  1  0
 11 45  1  0
 12 13  1  0
 12 46  1  6
 13 14  1  0
 13 47  1  0
 13 48  1  0
 15 14  1  6
 14 49  1  0
 14 50  1  0
 15 27  1  0
 15 28  1  0
 15 16  1  0
 16 22  1  0
 16 17  2  0
 17 18  1  0
 17 51  1  0
 18 19  2  0
 18 52  1  0
 19 20  1  0
 19 53  1  0
 20 21  2  0
 20 54  1  0
 21 22  1  0
 21 28  1  0
 22 23  1  1
 22 24  1  0
 23 55  1  0
 23 56  1  0
 23 57  1  0
 24 25  1  0
 24 58  1  0
 24 59  1  0
 25 26  1  0
 25 60  1  0
 25 61  1  0
 26 27  1  0
 26 62  1  0
 26 63  1  0
 27 64  1  6
 28 29  1  6
 28 30  1  0
 29 65  1  0
 29 66  1  0
 29 67  1  0
 30 68  1  0
 30 69  1  0
 30 70  1  0
M  CHG  1  30   1
M  END
>  <i_m_ct_stereo_status>  (423) 
1

>  <s_m_source_file>  (423) 
/var/tmp/pbs.5076255.sched01/tmpybatibx8/138x0dlab3k.sdf

>  <i_m_source_file_index>  (423) 
43

>  <i_lp_mmshare_version>  (423) 
48012

>  <i_f3d_flags>  (423) 
0

>  <s_epik_input>  (423) 
W0NIM11PQyg9TylbQ0BAXShbQ0gzXSkoW0NIMl1bQ0gyXVtDSDJdMSlbQ0BIXShbQ0gyXVtDSDJdMilbQ0BAXTEoW0NIM10pW0NASF0zW0NIMl1bQ0gyXVtDSDJdW0NAXShDPTRbQ0BAXTIzNSkoW0NIM10pQyhbQ0BdNShbQ0gzXSlbTkgyXSk9W0NIXVtDSF09W0NIXVtDSF00

>  <s_epik_cmdline>  (423) 
J2VwaWtfcHl0aG9uJywgJy1waHQnLCAnMi4wJywgJy1waCcsICc3LjAnLCAnLXRuJywgJzgnLCAnLW1hJywgJzIwMCcsICctaW1hZScsICc8aW5maWxlLm1hZT4nLCAnLW9tYWUnLCAnPG91dGZpbGUubWFlPic=

>  <r_epik_Ionization_Penalty>  (423) 
0.00782248

>  <r_epik_Ionization_Penalty_Charging>  (423) 
0.00782248

>  <r_epik_Ionization_Penalty_Neutral>  (423) 
0

>  <r_epik_State_Penalty>  (423) 
0.00586394

>  <r_epik_Charging_Adjusted_Penalty>  (423) 
0.0136864

>  <i_epik_Tot_Q>  (423) 
1

>  <i_epik_Tot_abs_Q>  (423) 
1

>  <s_epik_Chemistry_Notes>  (423) 
This compound has an ester and may undergo hydrolysis at high or low pH.

>  <s_lp_Force_Field>  (423) 
OPLS3e

>  <r_lp_Energy>  (423) 
159.883

>  <b_lp_Chiralities_Consistent>  (423) 
1

>  <s_lp_Variant>  (423) 
114:0-1

>  <s_i_glide_gridfile>  (423) 
pfpi4k_grid

>  <i_i_glide_lignum>  (423) 
43

>  <i_i_glide_rotatable_bonds>  (423) 
2

>  <r_i_docking_score>  (423) 
-2.91667

>  <r_i_glide_ligand_efficiency>  (423) 
-0.0972223

>  <r_i_glide_ligand_efficiency_sa>  (423) 
-0.302092

>  <r_i_glide_ligand_efficiency_ln>  (423) 
-0.662699

>  <r_i_glide_gscore>  (423) 
-2.91667

>  <r_i_glide_lipo>  (423) 
-0.874385

>  <r_i_glide_hbond>  (423) 
-0.0135694

>  <r_i_glide_metal>  (423) 
-0

>  <r_i_glide_rewards>  (423) 
-0.609464

>  <r_i_glide_evdw>  (423) 
-26.0578

>  <r_i_glide_ecoul>  (423) 
-1.09916

>  <r_i_glide_erotb>  (423) 
0.116854

>  <r_i_glide_esite>  (423) 
-0.0683396

>  <r_i_glide_emodel>  (423) 
-34.2223

>  <r_i_glide_energy>  (423) 
-27.157

>  <r_i_glide_einternal>  (423) 
0.487308

>  <r_i_glide_intrahb_reward>  (423) 
-0

>  <i_i_glide_confnum>  (423) 
3

>  <i_i_glide_posenum>  (423) 
3

>  <r_i_glide_eff_state_penalty>  (423) 
0

>  <ligand_id>  (423) 
114

>  <original_smiles>  (423) 
COC(=O)C1(C)CCCC2(C)C1CCC13C4=CC=CC=C(C4(C)CCCC21)C3(C)[N+]

>  <smiles>  (423) 
[H]C1=C([H])C([H])=C2C3(C([H])([H])[H])C(=C1[H])C1(C([H])([H])C([H])([H])C4([H])C(C(=O)OC([H])([H])[H])(C([H])([H])[H])C([H])([H])C([H])([H])C([H])([H])C4(C([H])([H])[H])C1([H])C([H])([H])C([H])([H])C3([H])[H])C2(C([H])([H])[H])[N+]([H])([H])[H]

$$$$
114:0:2
     RDKit          3D

 70 74  0  0  1  0  0  0  0  0999 V2000
    2.3983   -1.3152    2.4429 C   0  0  0  0  0  0  0  0  0  0  0  0
    2.8818   -2.3607    1.6161 O   0  0  0  0  0  0  0  0  0  0  0  0
    4.2086   -2.5284    1.4171 C   0  0  0  0  0  0  0  0  0  0  0  0
    5.0872   -1.8271    1.9209 O   0  0  0  0  0  0  0  0  0  0  0  0
    4.5264   -3.7137    0.4565 C   0  0  1  0  0  0  0  0  0  0  0  0
    3.6248   -3.5233   -0.7945 C   0  0  0  0  0  0  0  0  0  0  0  0
    5.9721   -3.6434   -0.1079 C   0  0  0  0  0  0  0  0  0  0  0  0
    7.0602   -4.1743    0.8197 C   0  0  0  0  0  0  0  0  0  0  0  0
    6.7373   -5.6018    1.2718 C   0  0  0  0  0  0  0  0  0  0  0  0
    5.3799   -5.7608    2.0260 C   0  0  1  0  0  0  0  0  0  0  0  0
    5.5200   -4.9914    3.3694 C   0  0  0  0  0  0  0  0  0  0  0  0
    4.2764   -5.1447    1.0886 C   0  0  1  0  0  0  0  0  0  0  0  0
    2.9058   -5.3143    1.7551 C   0  0  0  0  0  0  0  0  0  0  0  0
    2.5702   -6.7849    2.0297 C   0  0  0  0  0  0  0  0  0  0  0  0
    3.5802   -7.6259    2.8922 C   0  0  2  0  0  0  0  0  0  0  0  0
    3.4895   -7.3116    4.4231 C   0  0  0  0  0  0  0  0  0  0  0  0
    2.4792   -6.5214    4.8931 C   0  0  0  0  0  0  0  0  0  0  0  0
    1.4173   -7.0307    5.7735 C   0  0  0  0  0  0  0  0  0  0  0  0
    0.9767   -8.3227    5.7848 C   0  0  0  0  0  0  0  0  0  0  0  0
    1.4956   -9.3755    4.9071 C   0  0  0  0  0  0  0  0  0  0  0  0
    2.7776   -9.3459    4.4518 C   0  0  0  0  0  0  0  0  0  0  0  0
    3.8667   -8.5793    5.1930 C   0  0  2  0  0  0  0  0  0  0  0  0
    3.8126   -8.5263    6.7646 C   0  0  0  0  0  0  0  0  0  0  0  0
    5.3085   -9.1641    4.9663 C   0  0  0  0  0  0  0  0  0  0  0  0
    6.3488   -8.2576    4.3089 C   0  0  0  0  0  0  0  0  0  0  0  0
    6.2060   -8.1599    2.7911 C   0  0  0  0  0  0  0  0  0  0  0  0
    5.0177   -7.3103    2.2525 C   0  0  2  0  0  0  0  0  0  0  0  0
    3.0457   -9.1692    2.9345 C   0  0  1  0  0  0  0  0  0  0  0  0
    1.7962   -9.4792    2.0742 C   0  0  0  0  0  0  0  0  0  0  0  0
    3.9906  -10.2050    2.4800 N   0  0  0  0  0  0  0  0  0  0  0  0
    1.3079   -1.3563    2.4906 H   0  0  0  0  0  0  0  0  0  0  0  0
    2.6820   -0.3387    2.0491 H   0  0  0  0  0  0  0  0  0  0  0  0
    2.7840   -1.4206    3.4568 H   0  0  0  0  0  0  0  0  0  0  0  0
    3.8375   -4.2833   -1.5418 H   0  0  0  0  0  0  0  0  0  0  0  0
    3.8027   -2.5615   -1.2777 H   0  0  0  0  0  0  0  0  0  0  0  0
    2.5580   -3.5853   -0.5854 H   0  0  0  0  0  0  0  0  0  0  0  0
    6.0345   -4.1998   -1.0442 H   0  0  0  0  0  0  0  0  0  0  0  0
    6.2235   -2.6128   -0.3620 H   0  0  0  0  0  0  0  0  0  0  0  0
    8.0062   -4.1831    0.2792 H   0  0  0  0  0  0  0  0  0  0  0  0
    7.2177   -3.5063    1.6636 H   0  0  0  0  0  0  0  0  0  0  0  0
    6.7411   -6.2494    0.3953 H   0  0  0  0  0  0  0  0  0  0  0  0
    7.5829   -5.8981    1.8892 H   0  0  0  0  0  0  0  0  0  0  0  0
    4.6373   -5.0446    3.9965 H   0  0  0  0  0  0  0  0  0  0  0  0
    5.7120   -3.9331    3.2254 H   0  0  0  0  0  0  0  0  0  0  0  0
    6.3668   -5.3471    3.9502 H   0  0  0  0  0  0  0  0  0  0  0  0
    4.2520   -5.7975    0.2145 H   0  0  0  0  0  0  0  0  0  0  0  0
    2.8537   -4.7199    2.6636 H   0  0  0  0  0  0  0  0  0  0  0  0
    2.1244   -4.9236    1.1072 H   0  0  0  0  0  0  0  0  0  0  0  0
    1.5656   -6.8203    2.4510 H   0  0  0  0  0  0  0  0  0  0  0  0
    2.4937   -7.2387    1.0421 H   0  0  0  0  0  0  0  0  0  0  0  0
    2.1083   -5.7219    4.2871 H   0  0  0  0  0  0  0  0  0  0  0  0
    0.9515   -6.3302    6.4543 H   0  0  0  0  0  0  0  0  0  0  0  0
    0.1819   -8.5816    6.4694 H   0  0  0  0  0  0  0  0  0  0  0  0
    0.7228   -9.8021    4.2909 H   0  0  0  0  0  0  0  0  0  0  0  0
    2.9515   -8.1328    7.2819 H   0  0  0  0  0  0  0  0  0  0  0  0
    4.6390   -7.9212    7.1394 H   0  0  0  0  0  0  0  0  0  0  0  0
    3.9375   -9.5292    7.1768 H   0  0  0  0  0  0  0  0  0  0  0  0
    5.7675   -9.4299    5.9195 H   0  0  0  0  0  0  0  0  0  0  0  0
    5.3024  -10.1415    4.5005 H   0  0  0  0  0  0  0  0  0  0  0  0
    6.3836   -7.2818    4.7978 H   0  0  0  0  0  0  0  0  0  0  0  0
    7.3310   -8.6987    4.4966 H   0  0  0  0  0  0  0  0  0  0  0  0
    7.1615   -7.8207    2.3987 H   0  0  0  0  0  0  0  0  0  0  0  0
    6.1849   -9.1610    2.3720 H   0  0  0  0  0  0  0  0  0  0  0  0
    4.9310   -7.6873    1.2321 H   0  0  0  0  0  0  0  0  0  0  0  0
    0.9279   -8.8559    2.2903 H   0  0  0  0  0  0  0  0  0  0  0  0
    1.4688  -10.5088    2.2318 H   0  0  0  0  0  0  0  0  0  0  0  0
    2.0192   -9.3924    1.0140 H   0  0  0  0  0  0  0  0  0  0  0  0
    4.1928  -10.1159    1.4920 H   0  0  0  0  0  0  0  0  0  0  0  0
    3.5802  -11.1176    2.6166 H   0  0  0  0  0  0  0  0  0  0  0  0
    4.8443  -10.1397    3.0112 H   0  0  0  0  0  0  0  0  0  0  0  0
  1  2  1  0
  1 31  1  0
  1 32  1  0
  1 33  1  0
  2  3  1  0
  3  4  2  0
  3  5  1  0
  5 12  1  0
  5  6  1  6
  5  7  1  0
  6 34  1  0
  6 35  1  0
  6 36  1  0
  7  8  1  0
  7 37  1  0
  7 38  1  0
  8  9  1  0
  8 39  1  0
  8 40  1  0
  9 10  1  0
  9 41  1  0
  9 42  1  0
 10 27  1  0
 10 11  1  1
 10 12  1  0
 11 43  1  0
 11 44  1  0
 11 45  1  0
 12 13  1  0
 12 46  1  6
 13 14  1  0
 13 47  1  0
 13 48  1  0
 15 14  1  6
 14 49  1  0
 14 50  1  0
 15 27  1  0
 15 28  1  0
 15 16  1  0
 16 22  1  0
 16 17  2  0
 17 18  1  0
 17 51  1  0
 18 19  2  0
 18 52  1  0
 19 20  1  0
 19 53  1  0
 20 21  2  0
 20 54  1  0
 21 22  1  0
 21 28  1  0
 22 23  1  1
 22 24  1  0
 23 55  1  0
 23 56  1  0
 23 57  1  0
 24 25  1  0
 24 58  1  0
 24 59  1  0
 25 26  1  0
 25 60  1  0
 25 61  1  0
 26 27  1  0
 26 62  1  0
 26 63  1  0
 27 64  1  6
 28 29  1  6
 28 30  1  0
 29 65  1  0
 29 66  1  0
 29 67  1  0
 30 68  1  0
 30 69  1  0
 30 70  1  0
M  CHG  1  30   1
M  END
>  <i_m_ct_stereo_status>  (424) 
1

>  <s_m_source_file>  (424) 
/var/tmp/pbs.5076255.sched01/tmpybatibx8/138x0dlab3k.sdf

>  <i_m_source_file_index>  (424) 
43

>  <i_lp_mmshare_version>  (424) 
48012

>  <i_f3d_flags>  (424) 
0

>  <s_epik_input>  (424) 
W0NIM11PQyg9TylbQ0BAXShbQ0gzXSkoW0NIMl1bQ0gyXVtDSDJdMSlbQ0BIXShbQ0gyXVtDSDJdMilbQ0BAXTEoW0NIM10pW0NASF0zW0NIMl1bQ0gyXVtDSDJdW0NAXShDPTRbQ0BAXTIzNSkoW0NIM10pQyhbQ0BdNShbQ0gzXSlbTkgyXSk9W0NIXVtDSF09W0NIXVtDSF00

>  <s_epik_cmdline>  (424) 
J2VwaWtfcHl0aG9uJywgJy1waHQnLCAnMi4wJywgJy1waCcsICc3LjAnLCAnLXRuJywgJzgnLCAnLW1hJywgJzIwMCcsICctaW1hZScsICc8aW5maWxlLm1hZT4nLCAnLW9tYWUnLCAnPG91dGZpbGUubWFlPic=

>  <r_epik_Ionization_Penalty>  (424) 
0.00782248

>  <r_epik_Ionization_Penalty_Charging>  (424) 
0.00782248

>  <r_epik_Ionization_Penalty_Neutral>  (424) 
0

>  <r_epik_State_Penalty>  (424) 
0.00586394

>  <r_epik_Charging_Adjusted_Penalty>  (424) 
0.0136864

>  <i_epik_Tot_Q>  (424) 
1

>  <i_epik_Tot_abs_Q>  (424) 
1

>  <s_epik_Chemistry_Notes>  (424) 
This compound has an ester and may undergo hydrolysis at high or low pH.

>  <s_lp_Force_Field>  (424) 
OPLS3e

>  <r_lp_Energy>  (424) 
159.883

>  <b_lp_Chiralities_Consistent>  (424) 
1

>  <s_lp_Variant>  (424) 
114:0-1

>  <s_i_glide_gridfile>  (424) 
pfpi4k_grid

>  <i_i_glide_lignum>  (424) 
43

>  <i_i_glide_rotatable_bonds>  (424) 
2

>  <r_i_docking_score>  (424) 
-2.87902

>  <r_i_glide_ligand_efficiency>  (424) 
-0.0959673

>  <r_i_glide_ligand_efficiency_sa>  (424) 
-0.298193

>  <r_i_glide_ligand_efficiency_ln>  (424) 
-0.654144

>  <r_i_glide_gscore>  (424) 
-2.87902

>  <r_i_glide_lipo>  (424) 
-0.52159

>  <r_i_glide_hbond>  (424) 
-0.0170292

>  <r_i_glide_metal>  (424) 
-0

>  <r_i_glide_rewards>  (424) 
-0.616483

>  <r_i_glide_evdw>  (424) 
-24.6291

>  <r_i_glide_ecoul>  (424) 
-3.56353

>  <r_i_glide_erotb>  (424) 
0.116854

>  <r_i_glide_esite>  (424) 
-0.0747878

>  <r_i_glide_emodel>  (424) 
-35.448

>  <r_i_glide_energy>  (424) 
-28.1926

>  <r_i_glide_einternal>  (424) 
0.0234651

>  <r_i_glide_intrahb_reward>  (424) 
-0

>  <i_i_glide_confnum>  (424) 
3

>  <i_i_glide_posenum>  (424) 
39

>  <r_i_glide_eff_state_penalty>  (424) 
0

>  <ligand_id>  (424) 
114

>  <original_smiles>  (424) 
COC(=O)C1(C)CCCC2(C)C1CCC13C4=CC=CC=C(C4(C)CCCC21)C3(C)[N+]

>  <smiles>  (424) 
[H]C1=C([H])C([H])=C2C3(C([H])([H])[H])C(=C1[H])C1(C([H])([H])C([H])([H])C4([H])C(C(=O)OC([H])([H])[H])(C([H])([H])[H])C([H])([H])C([H])([H])C([H])([H])C4(C([H])([H])[H])C1([H])C([H])([H])C([H])([H])C3([H])[H])C2(C([H])([H])[H])[N+]([H])([H])[H]

$$$$
