0:0:0
     RDKit          3D

 47 51  0  0  1  0  0  0  0  0999 V2000
    0.1174   -8.6657    2.1149 O   0  0  0  0  0  0  0  0  0  0  0  0
    1.3570   -9.3041    2.3319 C   0  0  2  0  0  0  0  0  0  0  0  0
    1.6558   -9.2106    3.8233 C   0  0  1  0  0  0  0  0  0  0  0  0
    1.3134  -10.4452    4.6797 C   0  0  0  0  0  0  0  0  0  0  0  0
    1.6593  -10.2138    6.1058 N   0  0  0  0  0  0  0  0  0  0  0  0
    0.8500   -9.2325    6.8578 C   0  0  2  0  0  0  0  0  0  0  0  0
    1.2139   -7.7642    6.4588 C   0  0  0  0  0  0  0  0  0  0  0  0
    1.6961   -7.1189    7.7547 C   0  0  1  0  0  0  0  0  0  0  0  0
    0.5119   -7.0185    8.6780 C   0  0  0  0  0  0  0  0  0  0  0  0
    0.2204   -8.2639    9.0637 C   0  0  0  0  0  0  0  0  0  0  0  0
    1.1923   -9.2118    8.3745 C   0  0  2  0  0  0  0  0  0  0  0  0
    2.4397   -8.3153    8.3552 C   0  0  0  0  0  0  0  0  0  0  0  0
    3.0496   -8.9292    3.9185 O   0  0  0  0  0  0  0  0  0  0  0  0
    3.3404   -8.0172    2.9163 C   0  0  1  0  0  0  0  0  0  0  0  0
    4.8187   -8.0466    2.6456 N   0  0  0  0  0  0  0  0  0  0  0  0
    5.7047   -9.0296    2.9001 C   0  0  0  0  0  0  0  0  0  0  0  0
    6.9770   -8.8299    2.5391 N   0  0  0  0  0  0  0  0  0  0  0  0
    6.9021   -7.5643    1.9869 C   0  0  0  0  0  0  0  0  0  0  0  0
    7.8755   -6.7194    1.4133 C   0  0  0  0  0  0  0  0  0  0  0  0
    7.4816   -5.5060    0.9508 N   0  0  0  0  0  0  0  0  0  0  0  0
    6.1944   -5.1538    1.0454 C   0  0  0  0  0  0  0  0  0  0  0  0
    5.1689   -5.8398    1.5608 N   0  0  0  0  0  0  0  0  0  0  0  0
    5.5707   -7.0616    2.0314 C   0  0  0  0  0  0  0  0  0  0  0  0
    2.5096   -8.4927    1.7098 C   0  0  1  0  0  0  0  0  0  0  0  0
    3.2447   -9.3571    0.8765 O   0  0  0  0  0  0  0  0  0  0  0  0
   -0.1686   -8.9142    1.2339 H   0  0  0  0  0  0  0  0  0  0  0  0
    1.3148  -10.3433    1.9845 H   0  0  0  0  0  0  0  0  0  0  0  0
    1.1106   -8.3398    4.1602 H   0  0  0  0  0  0  0  0  0  0  0  0
    0.2556  -10.6930    4.6010 H   0  0  0  0  0  0  0  0  0  0  0  0
    1.8617  -11.3192    4.3367 H   0  0  0  0  0  0  0  0  0  0  0  0
    1.5201  -11.1111    6.6036 H   0  0  0  0  0  0  0  0  0  0  0  0
   -0.2124   -9.4662    6.7176 H   0  0  0  0  0  0  0  0  0  0  0  0
    2.0619   -7.7036    5.7881 H   0  0  0  0  0  0  0  0  0  0  0  0
    0.3709   -7.2423    5.9980 H   0  0  0  0  0  0  0  0  0  0  0  0
    2.2761   -6.2114    7.6125 H   0  0  0  0  0  0  0  0  0  0  0  0
    0.0047   -6.0930    8.9078 H   0  0  0  0  0  0  0  0  0  0  0  0
   -0.5919   -8.5896    9.6983 H   0  0  0  0  0  0  0  0  0  0  0  0
    1.3066  -10.1811    8.8692 H   0  0  0  0  0  0  0  0  0  0  0  0
    3.2473   -8.6987    7.7257 H   0  0  0  0  0  0  0  0  0  0  0  0
    2.8421   -8.1057    9.3455 H   0  0  0  0  0  0  0  0  0  0  0  0
    3.1215   -7.0030    3.2582 H   0  0  0  0  0  0  0  0  0  0  0  0
    5.4068   -9.9564    3.3665 H   0  0  0  0  0  0  0  0  0  0  0  0
    8.9187   -6.9872    1.3406 H   0  0  0  0  0  0  0  0  0  0  0  0
    5.9668   -4.1717    0.6630 H   0  0  0  0  0  0  0  0  0  0  0  0
    2.1843   -7.6021    1.1685 H   0  0  0  0  0  0  0  0  0  0  0  0
    3.4474  -10.1659    1.3124 H   0  0  0  0  0  0  0  0  0  0  0  0
    2.6381   -9.9853    6.1904 H   0  0  0  0  0  0  0  0  0  0  0  0
  1  2  1  0
  1 26  1  0
  2 24  1  0
  2  3  1  0
  2 27  1  6
  3  4  1  0
  3 13  1  0
  3 28  1  1
  4  5  1  0
  4 29  1  0
  4 30  1  0
  5  6  1  0
  5 31  1  0
  5 47  1  0
  6 11  1  0
  6  7  1  0
  6 32  1  1
  7  8  1  0
  7 33  1  0
  7 34  1  0
  8 12  1  0
  8  9  1  0
  8 35  1  6
  9 10  2  0
  9 36  1  0
 10 11  1  0
 10 37  1  0
 11 12  1  0
 11 38  1  1
 12 39  1  0
 12 40  1  0
 13 14  1  0
 14 15  1  0
 14 24  1  0
 14 41  1  1
 15 23  1  0
 15 16  1  0
 16 17  2  0
 16 42  1  0
 17 18  1  0
 18 23  2  0
 18 19  1  0
 19 20  2  0
 19 43  1  0
 20 21  1  0
 21 22  2  0
 21 44  1  0
 22 23  1  0
 24 25  1  0
 24 45  1  6
 25 46  1  0
M  CHG  1   5   1
M  END
>  <i_m_ct_stereo_status>  (1) 
1

>  <s_m_source_file>  (1) 
/var/tmp/pbs.5076255.sched01/tmppfua8s0c/0korcpw03.sdf

>  <i_m_source_file_index>  (1) 
1

>  <i_lp_mmshare_version>  (1) 
48012

>  <i_f3d_flags>  (1) 
0

>  <s_epik_input>  (1) 
W0NIXTE9W0NIXVtDQEhdKFtDSDJdMilbQ0BASF0oW0NIMl1bQ0BASF0xMilbTkhdW0NIMl1bQ0BIXShbQ0BIXTNbT0hdKU9bQ0BIXShbQ0BIXTNbT0hdKW4oW2NIXW40KWMoYzQ1KW5bY0hdbltjSF01

>  <s_epik_cmdline>  (1) 
J2VwaWtfcHl0aG9uJywgJy1waHQnLCAnMi4wJywgJy1waCcsICc3LjAnLCAnLXRuJywgJzgnLCAnLW1hJywgJzIwMCcsICctaW1hZScsICc8aW5maWxlLm1hZT4nLCAnLW9tYWUnLCAnPG91dGZpbGUubWFlPic=

>  <r_lp_tautomer_probability>  (1) 
1

>  <r_epik_Ionization_Penalty>  (1) 
0.00230479

>  <r_epik_Ionization_Penalty_Charging>  (1) 
0.00225744

>  <r_epik_Ionization_Penalty_Neutral>  (1) 
4.73488e-05

>  <r_epik_State_Penalty>  (1) 
0.00155474

>  <r_epik_Charging_Adjusted_Penalty>  (1) 
0.00381218

>  <i_epik_Tot_Q>  (1) 
1

>  <i_epik_Tot_abs_Q>  (1) 
1

>  <s_epik_Chemistry_Notes>  (1) 
This compound contains an acetal/aminal-like group ( X-CH(R)-Y where X, Y are N, S, or O) that may be acid/base labile, releasing an aldehyde.

>  <s_lp_Force_Field>  (1) 
OPLS3e

>  <r_lp_Energy>  (1) 
45.5665

>  <b_lp_Chiralities_Consistent>  (1) 
1

>  <s_lp_Variant>  (1) 
0:0-1

>  <s_i_glide_gridfile>  (1) 
pfpi4k_grid

>  <i_i_glide_lignum>  (1) 
1

>  <i_i_glide_rotatable_bonds>  (1) 
6

>  <r_i_docking_score>  (1) 
-3.84265

>  <r_i_glide_ligand_efficiency>  (1) 
-0.153706

>  <r_i_glide_ligand_efficiency_sa>  (1) 
-0.449439

>  <r_i_glide_ligand_efficiency_ln>  (1) 
-0.910824

>  <r_i_glide_gscore>  (1) 
-3.84265

>  <r_i_glide_lipo>  (1) 
-0.13845

>  <r_i_glide_hbond>  (1) 
-0.2

>  <r_i_glide_metal>  (1) 
-0

>  <r_i_glide_rewards>  (1) 
-1.25038

>  <r_i_glide_evdw>  (1) 
-18.5805

>  <r_i_glide_ecoul>  (1) 
-12.3883

>  <r_i_glide_erotb>  (1) 
0.640347

>  <r_i_glide_esite>  (1) 
-0.106904

>  <r_i_glide_emodel>  (1) 
-39.3977

>  <r_i_glide_energy>  (1) 
-30.9688

>  <r_i_glide_einternal>  (1) 
1.7507

>  <r_i_glide_intrahb_reward>  (1) 
-0

>  <i_i_glide_confnum>  (1) 
6

>  <i_i_glide_posenum>  (1) 
2

>  <r_i_glide_eff_state_penalty>  (1) 
0

>  <ligand_id>  (1) 
0

>  <original_smiles>  (1) 
OC1C(CNC2CC3C=CC2C3)OC(n2cnc3cncnc32)C1O

>  <smiles>  (1) 
[H]OC1([H])C([H])(n2c([H])nc3c([H])nc([H])nc32)OC([H])(C([H])([H])[N+]([H])([H])C2([H])C([H])([H])C3([H])C([H])=C([H])C2([H])C3([H])[H])C1([H])O[H]

$$$$
0:0:1
     RDKit          3D

 47 51  0  0  1  0  0  0  0  0999 V2000
    6.7781   -1.0495    0.4936 O   0  0  0  0  0  0  0  0  0  0  0  0
    5.7521   -1.9706    0.1931 C   0  0  2  0  0  0  0  0  0  0  0  0
    4.5087   -1.7114    1.0600 C   0  0  1  0  0  0  0  0  0  0  0  0
    3.4294   -0.8492    0.3856 C   0  0  0  0  0  0  0  0  0  0  0  0
    2.2768   -0.5986    1.2824 N   0  0  0  0  0  0  0  0  0  0  0  0
    2.3752    0.6102    2.1277 C   0  0  2  0  0  0  0  0  0  0  0  0
    3.0342    0.2729    3.4984 C   0  0  0  0  0  0  0  0  0  0  0  0
    1.9293    0.6498    4.5070 C   0  0  1  0  0  0  0  0  0  0  0  0
    1.7506    2.1501    4.4503 C   0  0  0  0  0  0  0  0  0  0  0  0
    1.1835    2.4355    3.2765 C   0  0  0  0  0  0  0  0  0  0  0  0
    0.9805    1.1254    2.5392 C   0  0  2  0  0  0  0  0  0  0  0  0
    0.6891    0.1989    3.7258 C   0  0  0  0  0  0  0  0  0  0  0  0
    3.9919   -3.0038    1.3551 O   0  0  0  0  0  0  0  0  0  0  0  0
    5.0907   -3.8138    1.6026 C   0  0  1  0  0  0  0  0  0  0  0  0
    4.6803   -5.2451    1.4915 N   0  0  0  0  0  0  0  0  0  0  0  0
    3.4353   -5.7597    1.3616 C   0  0  0  0  0  0  0  0  0  0  0  0
    3.3209   -7.0834    1.2984 N   0  0  0  0  0  0  0  0  0  0  0  0
    4.6395   -7.4841    1.4184 C   0  0  0  0  0  0  0  0  0  0  0  0
    5.2563   -8.7535    1.4369 C   0  0  0  0  0  0  0  0  0  0  0  0
    6.6049   -8.8082    1.5661 N   0  0  0  0  0  0  0  0  0  0  0  0
    7.3030   -7.6749    1.6855 C   0  0  0  0  0  0  0  0  0  0  0  0
    6.8591   -6.4120    1.7023 N   0  0  0  0  0  0  0  0  0  0  0  0
    5.5030   -6.3586    1.5508 C   0  0  0  0  0  0  0  0  0  0  0  0
    6.1453   -3.4007    0.5594 C   0  0  1  0  0  0  0  0  0  0  0  0
    6.0886   -4.1732   -0.6190 O   0  0  0  0  0  0  0  0  0  0  0  0
    6.9232   -1.0084    1.4297 H   0  0  0  0  0  0  0  0  0  0  0  0
    5.5156   -1.8835   -0.8737 H   0  0  0  0  0  0  0  0  0  0  0  0
    4.8208   -1.2496    1.9999 H   0  0  0  0  0  0  0  0  0  0  0  0
    3.8664    0.0967    0.0596 H   0  0  0  0  0  0  0  0  0  0  0  0
    3.0545   -1.3437   -0.5170 H   0  0  0  0  0  0  0  0  0  0  0  0
    1.4886   -0.5251    0.6314 H   0  0  0  0  0  0  0  0  0  0  0  0
    2.9120    1.4072    1.6114 H   0  0  0  0  0  0  0  0  0  0  0  0
    3.2701   -0.7857    3.6057 H   0  0  0  0  0  0  0  0  0  0  0  0
    3.9555    0.8365    3.6596 H   0  0  0  0  0  0  0  0  0  0  0  0
    2.0319    0.2310    5.5077 H   0  0  0  0  0  0  0  0  0  0  0  0
    2.0690    2.8367    5.2190 H   0  0  0  0  0  0  0  0  0  0  0  0
    0.9397    3.4092    2.8747 H   0  0  0  0  0  0  0  0  0  0  0  0
    0.2204    1.1683    1.7572 H   0  0  0  0  0  0  0  0  0  0  0  0
    0.6804   -0.8631    3.4746 H   0  0  0  0  0  0  0  0  0  0  0  0
   -0.2468    0.4437    4.2304 H   0  0  0  0  0  0  0  0  0  0  0  0
    5.4183   -3.6790    2.6349 H   0  0  0  0  0  0  0  0  0  0  0  0
    2.5661   -5.1225    1.3071 H   0  0  0  0  0  0  0  0  0  0  0  0
    4.7094   -9.6857    1.3575 H   0  0  0  0  0  0  0  0  0  0  0  0
    8.3702   -7.7970    1.7837 H   0  0  0  0  0  0  0  0  0  0  0  0
    7.1316   -3.4872    1.0111 H   0  0  0  0  0  0  0  0  0  0  0  0
    5.1880   -4.2603   -0.8994 H   0  0  0  0  0  0  0  0  0  0  0  0
    2.1270   -1.4163    1.8538 H   0  0  0  0  0  0  0  0  0  0  0  0
  1  2  1  0
  1 26  1  0
  2 24  1  0
  2  3  1  0
  2 27  1  6
  3  4  1  0
  3 13  1  0
  3 28  1  1
  4  5  1  0
  4 29  1  0
  4 30  1  0
  5  6  1  0
  5 31  1  0
  5 47  1  0
  6 11  1  0
  6  7  1  0
  6 32  1  6
  7  8  1  0
  7 33  1  0
  7 34  1  0
  8 12  1  0
  8  9  1  0
  8 35  1  1
  9 10  2  0
  9 36  1  0
 10 11  1  0
 10 37  1  0
 11 12  1  0
 11 38  1  6
 12 39  1  0
 12 40  1  0
 13 14  1  0
 14 15  1  0
 14 24  1  0
 14 41  1  1
 15 23  1  0
 15 16  1  0
 16 17  2  0
 16 42  1  0
 17 18  1  0
 18 23  2  0
 18 19  1  0
 19 20  2  0
 19 43  1  0
 20 21  1  0
 21 22  2  0
 21 44  1  0
 22 23  1  0
 24 25  1  0
 24 45  1  1
 25 46  1  0
M  CHG  1   5   1
M  END
>  <i_m_ct_stereo_status>  (2) 
1

>  <s_m_source_file>  (2) 
/var/tmp/pbs.5076255.sched01/tmppfua8s0c/0korcpw03.sdf

>  <i_m_source_file_index>  (2) 
1

>  <i_lp_mmshare_version>  (2) 
48012

>  <i_f3d_flags>  (2) 
0

>  <s_epik_input>  (2) 
W0NIXTE9W0NIXVtDQEhdKFtDSDJdMilbQ0BASF0oW0NIMl1bQ0BASF0xMilbTkhdW0NIMl1bQ0BIXShbQ0BIXTNbT0hdKU9bQ0BIXShbQ0BIXTNbT0hdKW4oW2NIXW40KWMoYzQ1KW5bY0hdbltjSF01

>  <s_epik_cmdline>  (2) 
J2VwaWtfcHl0aG9uJywgJy1waHQnLCAnMi4wJywgJy1waCcsICc3LjAnLCAnLXRuJywgJzgnLCAnLW1hJywgJzIwMCcsICctaW1hZScsICc8aW5maWxlLm1hZT4nLCAnLW9tYWUnLCAnPG91dGZpbGUubWFlPic=

>  <r_lp_tautomer_probability>  (2) 
1

>  <r_epik_Ionization_Penalty>  (2) 
0.00230479

>  <r_epik_Ionization_Penalty_Charging>  (2) 
0.00225744

>  <r_epik_Ionization_Penalty_Neutral>  (2) 
4.73488e-05

>  <r_epik_State_Penalty>  (2) 
0.00155474

>  <r_epik_Charging_Adjusted_Penalty>  (2) 
0.00381218

>  <i_epik_Tot_Q>  (2) 
1

>  <i_epik_Tot_abs_Q>  (2) 
1

>  <s_epik_Chemistry_Notes>  (2) 
This compound contains an acetal/aminal-like group ( X-CH(R)-Y where X, Y are N, S, or O) that may be acid/base labile, releasing an aldehyde.

>  <s_lp_Force_Field>  (2) 
OPLS3e

>  <r_lp_Energy>  (2) 
45.5665

>  <b_lp_Chiralities_Consistent>  (2) 
1

>  <s_lp_Variant>  (2) 
0:0-1

>  <s_i_glide_gridfile>  (2) 
pfpi4k_grid

>  <i_i_glide_lignum>  (2) 
1

>  <i_i_glide_rotatable_bonds>  (2) 
6

>  <r_i_docking_score>  (2) 
-3.60045

>  <r_i_glide_ligand_efficiency>  (2) 
-0.144018

>  <r_i_glide_ligand_efficiency_sa>  (2) 
-0.421111

>  <r_i_glide_ligand_efficiency_ln>  (2) 
-0.853414

>  <r_i_glide_gscore>  (2) 
-3.60045

>  <r_i_glide_lipo>  (2) 
-0.191764

>  <r_i_glide_hbond>  (2) 
-0.2

>  <r_i_glide_metal>  (2) 
-0

>  <r_i_glide_rewards>  (2) 
-1.34609

>  <r_i_glide_evdw>  (2) 
-21.1451

>  <r_i_glide_ecoul>  (2) 
-9.06349

>  <r_i_glide_erotb>  (2) 
0.640347

>  <r_i_glide_esite>  (2) 
-0.0861557

>  <r_i_glide_emodel>  (2) 
-38.5288

>  <r_i_glide_energy>  (2) 
-30.2086

>  <r_i_glide_einternal>  (2) 
3.17834

>  <r_i_glide_intrahb_reward>  (2) 
-0

>  <i_i_glide_confnum>  (2) 
6

>  <i_i_glide_posenum>  (2) 
5

>  <r_i_glide_eff_state_penalty>  (2) 
0

>  <ligand_id>  (2) 
0

>  <original_smiles>  (2) 
OC1C(CNC2CC3C=CC2C3)OC(n2cnc3cncnc32)C1O

>  <smiles>  (2) 
[H]OC1([H])C([H])(n2c([H])nc3c([H])nc([H])nc32)OC([H])(C([H])([H])[N+]([H])([H])C2([H])C([H])([H])C3([H])C([H])=C([H])C2([H])C3([H])[H])C1([H])O[H]

$$$$
0:0:2
     RDKit          3D

 47 51  0  0  1  0  0  0  0  0999 V2000
    5.2049   -0.3989    3.9782 O   0  0  0  0  0  0  0  0  0  0  0  0
    4.8188   -0.3836    2.6121 C   0  0  2  0  0  0  0  0  0  0  0  0
    3.2938   -0.5610    2.4654 C   0  0  1  0  0  0  0  0  0  0  0  0
    2.5125    0.7487    2.2727 C   0  0  0  0  0  0  0  0  0  0  0  0
    1.0519    0.4950    2.3105 N   0  0  0  0  0  0  0  0  0  0  0  0
    0.2082    1.6580    2.6799 C   0  0  2  0  0  0  0  0  0  0  0  0
    0.4564    2.1230    4.1554 C   0  0  0  0  0  0  0  0  0  0  0  0
   -0.9237    1.9496    4.8233 C   0  0  1  0  0  0  0  0  0  0  0  0
   -1.8675    2.9488    4.1966 C   0  0  0  0  0  0  0  0  0  0  0  0
   -2.0880    2.5499    2.9437 C   0  0  0  0  0  0  0  0  0  0  0  0
   -1.2943    1.2773    2.7215 C   0  0  2  0  0  0  0  0  0  0  0  0
   -1.3854    0.6652    4.1311 C   0  0  0  0  0  0  0  0  0  0  0  0
    3.1261   -1.3929    1.3327 O   0  0  0  0  0  0  0  0  0  0  0  0
    4.1700   -2.3079    1.3628 C   0  0  1  0  0  0  0  0  0  0  0  0
    4.3613   -2.9024    0.0198 N   0  0  0  0  0  0  0  0  0  0  0  0
    4.8268   -4.1412   -0.2389 C   0  0  0  0  0  0  0  0  0  0  0  0
    5.0169   -4.4656   -1.5088 N   0  0  0  0  0  0  0  0  0  0  0  0
    4.5897   -3.3256   -2.1564 C   0  0  0  0  0  0  0  0  0  0  0  0
    4.5096   -2.9890   -3.5190 C   0  0  0  0  0  0  0  0  0  0  0  0
    4.0788   -1.7535   -3.8588 N   0  0  0  0  0  0  0  0  0  0  0  0
    3.7541   -0.8910   -2.8830 C   0  0  0  0  0  0  0  0  0  0  0  0
    3.8190   -1.0562   -1.5591 N   0  0  0  0  0  0  0  0  0  0  0  0
    4.2086   -2.3192   -1.2249 C   0  0  0  0  0  0  0  0  0  0  0  0
    5.4270   -1.5597    1.8505 C   0  0  1  0  0  0  0  0  0  0  0  0
    6.2806   -1.0893    0.8105 O   0  0  0  0  0  0  0  0  0  0  0  0
    4.9539   -1.2213    4.3769 H   0  0  0  0  0  0  0  0  0  0  0  0
    5.1395    0.5368    2.1586 H   0  0  0  0  0  0  0  0  0  0  0  0
    2.9063   -1.1117    3.3280 H   0  0  0  0  0  0  0  0  0  0  0  0
    2.8103    1.4318    3.0669 H   0  0  0  0  0  0  0  0  0  0  0  0
    2.7647    1.2550    1.3391 H   0  0  0  0  0  0  0  0  0  0  0  0
    0.7779    0.1408    1.3972 H   0  0  0  0  0  0  0  0  0  0  0  0
    0.3888    2.4682    1.9730 H   0  0  0  0  0  0  0  0  0  0  0  0
    1.1840    1.5104    4.6883 H   0  0  0  0  0  0  0  0  0  0  0  0
    0.8034    3.1576    4.1982 H   0  0  0  0  0  0  0  0  0  0  0  0
   -0.9328    1.9262    5.9130 H   0  0  0  0  0  0  0  0  0  0  0  0
   -2.2501    3.8271    4.6908 H   0  0  0  0  0  0  0  0  0  0  0  0
   -2.6928    3.0342    2.1908 H   0  0  0  0  0  0  0  0  0  0  0  0
   -1.6670    0.6621    1.9009 H   0  0  0  0  0  0  0  0  0  0  0  0
   -0.7305   -0.1915    4.2949 H   0  0  0  0  0  0  0  0  0  0  0  0
   -2.3969    0.3802    4.4281 H   0  0  0  0  0  0  0  0  0  0  0  0
    3.8766   -3.1328    2.0154 H   0  0  0  0  0  0  0  0  0  0  0  0
    5.1002   -4.8265    0.5492 H   0  0  0  0  0  0  0  0  0  0  0  0
    4.7950   -3.6683   -4.3144 H   0  0  0  0  0  0  0  0  0  0  0  0
    3.3886    0.0750   -3.2032 H   0  0  0  0  0  0  0  0  0  0  0  0
    5.9973   -2.2388    2.4846 H   0  0  0  0  0  0  0  0  0  0  0  0
    6.9300   -0.4939    1.1698 H   0  0  0  0  0  0  0  0  0  0  0  0
    0.8727   -0.2183    3.0038 H   0  0  0  0  0  0  0  0  0  0  0  0
  1  2  1  0
  1 26  1  0
  2 24  1  0
  2  3  1  0
  2 27  1  6
  3  4  1  0
  3 13  1  0
  3 28  1  1
  4  5  1  0
  4 29  1  0
  4 30  1  0
  5  6  1  0
  5 31  1  0
  5 47  1  0
  6 11  1  0
  6  7  1  0
  6 32  1  6
  7  8  1  0
  7 33  1  0
  7 34  1  0
  8 12  1  0
  8  9  1  0
  8 35  1  1
  9 10  2  0
  9 36  1  0
 10 11  1  0
 10 37  1  0
 11 12  1  0
 11 38  1  6
 12 39  1  0
 12 40  1  0
 13 14  1  0
 14 15  1  0
 14 24  1  0
 14 41  1  1
 15 23  1  0
 15 16  1  0
 16 17  2  0
 16 42  1  0
 17 18  1  0
 18 23  2  0
 18 19  1  0
 19 20  2  0
 19 43  1  0
 20 21  1  0
 21 22  2  0
 21 44  1  0
 22 23  1  0
 24 25  1  0
 24 45  1  1
 25 46  1  0
M  CHG  1   5   1
M  END
>  <i_m_ct_stereo_status>  (3) 
1

>  <s_m_source_file>  (3) 
/var/tmp/pbs.5076255.sched01/tmppfua8s0c/0korcpw03.sdf

>  <i_m_source_file_index>  (3) 
1

>  <i_lp_mmshare_version>  (3) 
48012

>  <i_f3d_flags>  (3) 
0

>  <s_epik_input>  (3) 
W0NIXTE9W0NIXVtDQEhdKFtDSDJdMilbQ0BASF0oW0NIMl1bQ0BASF0xMilbTkhdW0NIMl1bQ0BIXShbQ0BIXTNbT0hdKU9bQ0BIXShbQ0BIXTNbT0hdKW4oW2NIXW40KWMoYzQ1KW5bY0hdbltjSF01

>  <s_epik_cmdline>  (3) 
J2VwaWtfcHl0aG9uJywgJy1waHQnLCAnMi4wJywgJy1waCcsICc3LjAnLCAnLXRuJywgJzgnLCAnLW1hJywgJzIwMCcsICctaW1hZScsICc8aW5maWxlLm1hZT4nLCAnLW9tYWUnLCAnPG91dGZpbGUubWFlPic=

>  <r_lp_tautomer_probability>  (3) 
1

>  <r_epik_Ionization_Penalty>  (3) 
0.00230479

>  <r_epik_Ionization_Penalty_Charging>  (3) 
0.00225744

>  <r_epik_Ionization_Penalty_Neutral>  (3) 
4.73488e-05

>  <r_epik_State_Penalty>  (3) 
0.00155474

>  <r_epik_Charging_Adjusted_Penalty>  (3) 
0.00381218

>  <i_epik_Tot_Q>  (3) 
1

>  <i_epik_Tot_abs_Q>  (3) 
1

>  <s_epik_Chemistry_Notes>  (3) 
This compound contains an acetal/aminal-like group ( X-CH(R)-Y where X, Y are N, S, or O) that may be acid/base labile, releasing an aldehyde.

>  <s_lp_Force_Field>  (3) 
OPLS3e

>  <r_lp_Energy>  (3) 
45.5665

>  <b_lp_Chiralities_Consistent>  (3) 
1

>  <s_lp_Variant>  (3) 
0:0-1

>  <s_i_glide_gridfile>  (3) 
pfpi4k_grid

>  <i_i_glide_lignum>  (3) 
1

>  <i_i_glide_rotatable_bonds>  (3) 
6

>  <r_i_docking_score>  (3) 
-3.06926

>  <r_i_glide_ligand_efficiency>  (3) 
-0.12277

>  <r_i_glide_ligand_efficiency_sa>  (3) 
-0.358983

>  <r_i_glide_ligand_efficiency_ln>  (3) 
-0.727506

>  <r_i_glide_gscore>  (3) 
-3.06926

>  <r_i_glide_lipo>  (3) 
-0.433535

>  <r_i_glide_hbond>  (3) 
-0.0478507

>  <r_i_glide_metal>  (3) 
-0

>  <r_i_glide_rewards>  (3) 
-1.14446

>  <r_i_glide_evdw>  (3) 
-29.2105

>  <r_i_glide_ecoul>  (3) 
-3.71624

>  <r_i_glide_erotb>  (3) 
0.640347

>  <r_i_glide_esite>  (3) 
-0.0658009

>  <r_i_glide_emodel>  (3) 
-40.6183

>  <r_i_glide_energy>  (3) 
-32.9267

>  <r_i_glide_einternal>  (3) 
1.61379

>  <r_i_glide_intrahb_reward>  (3) 
-0

>  <i_i_glide_confnum>  (3) 
2

>  <i_i_glide_posenum>  (3) 
4

>  <r_i_glide_eff_state_penalty>  (3) 
0

>  <ligand_id>  (3) 
0

>  <original_smiles>  (3) 
OC1C(CNC2CC3C=CC2C3)OC(n2cnc3cncnc32)C1O

>  <smiles>  (3) 
[H]OC1([H])C([H])(n2c([H])nc3c([H])nc([H])nc32)OC([H])(C([H])([H])[N+]([H])([H])C2([H])C([H])([H])C3([H])C([H])=C([H])C2([H])C3([H])[H])C1([H])O[H]

$$$$
1:0:0
     RDKit          3D

 54 60  0  0  1  0  0  0  0  0999 V2000
    4.9632   -0.2201    0.6196 C   0  0  0  0  0  0  0  0  0  0  0  0
    5.3644   -1.6364    0.5316 C   0  0  0  0  0  0  0  0  0  0  0  0
    6.6024   -2.0801    0.7699 N   0  0  0  0  0  0  0  0  0  0  0  0
    6.5501   -3.4392    0.5689 N   0  0  0  0  0  0  0  0  0  0  0  0
    5.2904   -3.6819    0.2146 C   0  0  0  0  0  0  0  0  0  0  0  0
    4.4966   -2.6064    0.1860 N   0  0  0  0  0  0  0  0  0  0  0  0
    3.0732   -2.6026   -0.1023 C   0  0  0  0  0  0  0  0  0  0  0  0
    2.6505   -3.9683   -0.6874 C   0  0  0  0  0  0  0  0  0  0  0  0
    3.2724   -5.0456    0.1131 N   0  0  0  0  0  0  0  0  0  0  0  0
    2.5830   -5.8707    0.9427 C   0  0  0  0  0  0  0  0  0  0  0  0
    1.3493   -5.8777    0.9786 O   0  0  0  0  0  0  0  0  0  0  0  0
    3.3703   -6.7521    1.9618 C   0  0  1  0  0  0  0  0  0  0  0  0
    4.3855   -7.8375    1.1819 C   0  0  0  0  0  0  0  0  0  0  0  0
    4.2870   -9.4144    1.6189 C   0  0  1  0  0  0  0  0  0  0  0  0
    3.1574  -10.4113    2.4913 C   0  0  1  0  0  0  0  0  0  0  0  0
    4.3420  -10.3188    3.4174 C   0  0  0  0  0  0  0  0  0  0  0  0
    4.2014   -8.8509    2.9068 C   0  0  2  0  0  0  0  0  0  0  0  0
    2.9188   -8.0620    2.2621 C   0  0  1  0  0  0  0  0  0  0  0  0
    1.8058   -8.3084    3.0422 C   0  0  1  0  0  0  0  0  0  0  0  0
    1.9376   -9.7614    3.3879 C   0  0  1  0  0  0  0  0  0  0  0  0
    0.5059  -10.1108    3.7684 C   0  0  0  0  0  0  0  0  0  0  0  0
    0.1225   -9.0214    4.9055 C   0  0  0  0  0  0  0  0  0  0  0  0
    0.7238   -7.5080    4.8095 C   0  0  0  0  0  0  0  0  0  0  0  0
    2.0707   -7.5052    4.1513 N   0  0  2  0  0  0  0  0  0  0  0  0
    2.9006   -6.3880    3.5071 C   0  0  0  0  0  0  0  0  0  0  0  0
    4.7449   -5.0395   -0.0558 C   0  0  0  0  0  0  0  0  0  0  0  0
    5.8250    0.3935    0.8827 H   0  0  0  0  0  0  0  0  0  0  0  0
    4.1876   -0.0970    1.3734 H   0  0  0  0  0  0  0  0  0  0  0  0
    4.5844    0.1032   -0.3474 H   0  0  0  0  0  0  0  0  0  0  0  0
    2.5306   -2.4052    0.8253 H   0  0  0  0  0  0  0  0  0  0  0  0
    2.8752   -1.7983   -0.8106 H   0  0  0  0  0  0  0  0  0  0  0  0
    1.5695   -4.0558   -0.7732 H   0  0  0  0  0  0  0  0  0  0  0  0
    3.0296   -4.0321   -1.7052 H   0  0  0  0  0  0  0  0  0  0  0  0
    4.2411   -7.7694    0.0957 H   0  0  0  0  0  0  0  0  0  0  0  0
    5.4365   -7.5500    1.3203 H   0  0  0  0  0  0  0  0  0  0  0  0
    5.2057   -9.9327    1.3370 H   0  0  0  0  0  0  0  0  0  0  0  0
    3.0225  -11.4248    2.0989 H   0  0  0  0  0  0  0  0  0  0  0  0
    4.1923  -10.4576    4.4896 H   0  0  0  0  0  0  0  0  0  0  0  0
    5.2566  -10.8494    3.1294 H   0  0  0  0  0  0  0  0  0  0  0  0
    5.0441   -8.2613    3.3018 H   0  0  0  0  0  0  0  0  0  0  0  0
    2.3709   -8.4345    1.3515 H   0  0  0  0  0  0  0  0  0  0  0  0
    0.8872   -8.0361    2.5046 H   0  0  0  0  0  0  0  0  0  0  0  0
    2.2998   -9.8344    4.4168 H   0  0  0  0  0  0  0  0  0  0  0  0
   -0.1657  -10.0416    2.9088 H   0  0  0  0  0  0  0  0  0  0  0  0
    0.4335  -11.1305    4.1602 H   0  0  0  0  0  0  0  0  0  0  0  0
   -0.9618   -8.9901    5.0143 H   0  0  0  0  0  0  0  0  0  0  0  0
    0.4773   -9.4441    5.8483 H   0  0  0  0  0  0  0  0  0  0  0  0
    0.0323   -6.8878    4.2366 H   0  0  0  0  0  0  0  0  0  0  0  0
    0.7750   -7.0636    5.8044 H   0  0  0  0  0  0  0  0  0  0  0  0
    3.7790   -6.1940    4.1207 H   0  0  0  0  0  0  0  0  0  0  0  0
    2.3260   -5.4577    3.5393 H   0  0  0  0  0  0  0  0  0  0  0  0
    5.0088   -5.3582   -1.0754 H   0  0  0  0  0  0  0  0  0  0  0  0
    5.2961   -5.6298    0.6513 H   0  0  0  0  0  0  0  0  0  0  0  0
    2.7048   -8.0224    4.7555 H   0  0  0  0  0  0  0  0  0  0  0  0
  1  2  1  0
  1 27  1  0
  1 28  1  0
  1 29  1  0
  2  6  1  0
  2  3  2  0
  3  4  1  0
  4  5  2  0
  5 26  1  0
  5  6  1  0
  6  7  1  0
  7  8  1  0
  7 30  1  0
  7 31  1  0
  8  9  1  0
  8 32  1  0
  8 33  1  0
  9 10  1  0
  9 26  1  0
 10 11  2  0
 12 10  1  6
 12 18  1  0
 12 25  1  0
 12 13  1  0
 13 14  1  0
 13 34  1  0
 13 35  1  0
 14 17  1  0
 14 15  1  0
 14 36  1  1
 15 20  1  0
 15 16  1  0
 15 37  1  6
 16 17  1  0
 16 38  1  0
 16 39  1  0
 17 18  1  0
 17 40  1  1
 18 19  1  0
 18 41  1  6
 19 24  1  0
 19 20  1  0
 19 42  1  6
 20 21  1  0
 20 43  1  1
 21 22  1  0
 21 44  1  0
 21 45  1  0
 22 23  1  0
 22 46  1  0
 22 47  1  0
 23 24  1  0
 23 48  1  0
 23 49  1  0
 24 25  1  0
 24 54  1  1
 25 50  1  0
 25 51  1  0
 26 52  1  0
 26 53  1  0
M  CHG  1  24   1
M  END
>  <i_m_ct_stereo_status>  (4) 
1

>  <s_m_source_file>  (4) 
/var/tmp/pbs.5076255.sched01/tmppfua8s0c/0korcpw03.sdf

>  <i_m_source_file_index>  (4) 
2

>  <i_lp_mmshare_version>  (4) 
48012

>  <i_f3d_flags>  (4) 
0

>  <s_epik_input>  (4) 
bjFuYyhbQ0gzXSluKGMxMilbQ0gyXVtDSDJdTihbQ0gyXTIpQyg9TylbQ0BAXTM0W0NASF01W0NAQEhdNltDQEhdKFtDSDJdMylbQ0BASF0oW0NIMl02KVtDQEhdN1tDQEhdNU4oW0NIMl00KVtDSDJdW0NIMl1bQ0gyXTc=

>  <s_epik_cmdline>  (4) 
J2VwaWtfcHl0aG9uJywgJy1waHQnLCAnMi4wJywgJy1waCcsICc3LjAnLCAnLXRuJywgJzgnLCAnLW1hJywgJzIwMCcsICctaW1hZScsICc8aW5maWxlLm1hZT4nLCAnLW9tYWUnLCAnPG91dGZpbGUubWFlPic=

>  <r_lp_tautomer_probability>  (4) 
1

>  <r_epik_Ionization_Penalty>  (4) 
0.00183737

>  <r_epik_Ionization_Penalty_Charging>  (4) 
0.00150841

>  <r_epik_Ionization_Penalty_Neutral>  (4) 
0.000328965

>  <r_epik_State_Penalty>  (4) 
-0

>  <r_epik_Charging_Adjusted_Penalty>  (4) 
0.00150841

>  <i_epik_Tot_Q>  (4) 
1

>  <i_epik_Tot_abs_Q>  (4) 
1

>  <s_lp_Force_Field>  (4) 
OPLS3e

>  <r_lp_Energy>  (4) 
350.499

>  <b_lp_Chiralities_Consistent>  (4) 
1

>  <s_lp_Variant>  (4) 
1:0-1

>  <s_i_glide_gridfile>  (4) 
pfpi4k_grid

>  <i_i_glide_lignum>  (4) 
2

>  <i_i_glide_rotatable_bonds>  (4) 
2

>  <r_i_docking_score>  (4) 
-3.49628

>  <r_i_glide_ligand_efficiency>  (4) 
-0.134472

>  <r_i_glide_ligand_efficiency_sa>  (4) 
-0.398374

>  <r_i_glide_ligand_efficiency_ln>  (4) 
-0.821091

>  <r_i_glide_gscore>  (4) 
-3.49628

>  <r_i_glide_lipo>  (4) 
-0.220719

>  <r_i_glide_hbond>  (4) 
-0.157459

>  <r_i_glide_metal>  (4) 
-0

>  <r_i_glide_rewards>  (4) 
-1.15468

>  <r_i_glide_evdw>  (4) 
-23.8773

>  <r_i_glide_ecoul>  (4) 
-6.77826

>  <r_i_glide_erotb>  (4) 
0.304168

>  <r_i_glide_esite>  (4) 
-0.0569949

>  <r_i_glide_emodel>  (4) 
-36.4227

>  <r_i_glide_energy>  (4) 
-30.6555

>  <r_i_glide_einternal>  (4) 
1.26904

>  <r_i_glide_intrahb_reward>  (4) 
-0

>  <i_i_glide_confnum>  (4) 
3

>  <i_i_glide_posenum>  (4) 
39

>  <r_i_glide_eff_state_penalty>  (4) 
0

>  <ligand_id>  (4) 
1

>  <original_smiles>  (4) 
Cc1nnc2n1CCN(C(=O)C13CC4C5CC4C1C1C5CCCN1C3)C2

>  <smiles>  (4) 
[H]C([H])([H])c1nnc2n1C([H])([H])C([H])([H])N(C(=O)C13C([H])([H])C4([H])C5([H])C([H])([H])C4([H])C1([H])C1([H])C5([H])C([H])([H])C([H])([H])C([H])([H])[N+]1([H])C3([H])[H])C2([H])[H]

$$$$
1:0:1
     RDKit          3D

 54 60  0  0  1  0  0  0  0  0999 V2000
    5.2026   -0.9387    2.8547 C   0  0  0  0  0  0  0  0  0  0  0  0
    4.7834   -1.7102    1.6477 C   0  0  0  0  0  0  0  0  0  0  0  0
    4.4945   -1.1456    0.4733 N   0  0  0  0  0  0  0  0  0  0  0  0
    4.1344   -2.1890   -0.3605 N   0  0  0  0  0  0  0  0  0  0  0  0
    4.2359   -3.2875    0.3863 C   0  0  0  0  0  0  0  0  0  0  0  0
    4.6590   -3.0509    1.6441 N   0  0  0  0  0  0  0  0  0  0  0  0
    4.8496   -4.0487    2.6812 C   0  0  0  0  0  0  0  0  0  0  0  0
    4.8641   -5.4688    2.0713 C   0  0  0  0  0  0  0  0  0  0  0  0
    3.7673   -5.5880    1.0850 N   0  0  0  0  0  0  0  0  0  0  0  0
    2.6270   -6.2930    1.3034 C   0  0  0  0  0  0  0  0  0  0  0  0
    1.5959   -6.1060    0.6491 O   0  0  0  0  0  0  0  0  0  0  0  0
    2.6433   -7.3718    2.4170 C   0  0  1  0  0  0  0  0  0  0  0  0
    3.2946   -8.7989    1.8515 C   0  0  0  0  0  0  0  0  0  0  0  0
    2.3830  -10.1767    2.1044 C   0  0  1  0  0  0  0  0  0  0  0  0
    0.7077  -10.5359    2.5110 C   0  0  1  0  0  0  0  0  0  0  0  0
    1.4732  -10.9384    3.7422 C   0  0  0  0  0  0  0  0  0  0  0  0
    2.1711   -9.5920    3.3609 C   0  0  2  0  0  0  0  0  0  0  0  0
    1.6149   -8.3436    2.4513 C   0  0  1  0  0  0  0  0  0  0  0  0
    0.3340   -8.0331    2.8553 C   0  0  1  0  0  0  0  0  0  0  0  0
   -0.3044   -9.3654    3.0882 C   0  0  1  0  0  0  0  0  0  0  0  0
   -1.7818   -9.0007    2.9923 C   0  0  0  0  0  0  0  0  0  0  0  0
   -1.9521   -7.8106    4.0702 C   0  0  0  0  0  0  0  0  0  0  0  0
   -0.7414   -6.7521    4.3258 C   0  0  0  0  0  0  0  0  0  0  0  0
    0.5904   -7.3876    4.0762 N   0  0  2  0  0  0  0  0  0  0  0  0
    1.9695   -6.7817    3.7969 C   0  0  0  0  0  0  0  0  0  0  0  0
    3.9399   -4.6882   -0.0779 C   0  0  0  0  0  0  0  0  0  0  0  0
    5.2103    0.1302    2.6433 H   0  0  0  0  0  0  0  0  0  0  0  0
    6.2099   -1.2344    3.1496 H   0  0  0  0  0  0  0  0  0  0  0  0
    4.5210   -1.1262    3.6814 H   0  0  0  0  0  0  0  0  0  0  0  0
    5.7806   -3.8400    3.2093 H   0  0  0  0  0  0  0  0  0  0  0  0
    4.0313   -3.9476    3.3947 H   0  0  0  0  0  0  0  0  0  0  0  0
    5.8166   -5.6482    1.5669 H   0  0  0  0  0  0  0  0  0  0  0  0
    4.8255   -6.1983    2.8807 H   0  0  0  0  0  0  0  0  0  0  0  0
    3.5030   -8.7121    0.7796 H   0  0  0  0  0  0  0  0  0  0  0  0
    4.2964   -8.9207    2.2747 H   0  0  0  0  0  0  0  0  0  0  0  0
    3.0251  -11.0603    2.0722 H   0  0  0  0  0  0  0  0  0  0  0  0
    0.2189  -11.4001    2.0568 H   0  0  0  0  0  0  0  0  0  0  0  0
    0.9587  -10.9573    4.7046 H   0  0  0  0  0  0  0  0  0  0  0  0
    2.0810  -11.8498    3.6779 H   0  0  0  0  0  0  0  0  0  0  0  0
    3.0363   -9.4306    4.0169 H   0  0  0  0  0  0  0  0  0  0  0  0
    1.2569   -8.4843    1.3907 H   0  0  0  0  0  0  0  0  0  0  0  0
   -0.1648   -7.4028    2.1074 H   0  0  0  0  0  0  0  0  0  0  0  0
   -0.3418   -9.5533    4.1623 H   0  0  0  0  0  0  0  0  0  0  0  0
   -2.0685   -8.6844    1.9887 H   0  0  0  0  0  0  0  0  0  0  0  0
   -2.4162   -9.8494    3.2670 H   0  0  0  0  0  0  0  0  0  0  0  0
   -2.8786   -7.2757    3.8717 H   0  0  0  0  0  0  0  0  0  0  0  0
   -2.1052   -8.3339    5.0151 H   0  0  0  0  0  0  0  0  0  0  0  0
   -0.8584   -5.9010    3.6632 H   0  0  0  0  0  0  0  0  0  0  0  0
   -0.7990   -6.3372    5.3345 H   0  0  0  0  0  0  0  0  0  0  0  0
    2.6245   -6.9884    4.6445 H   0  0  0  0  0  0  0  0  0  0  0  0
    1.8793   -5.6941    3.7483 H   0  0  0  0  0  0  0  0  0  0  0  0
    3.0668   -4.6530   -0.7273 H   0  0  0  0  0  0  0  0  0  0  0  0
    4.7704   -5.0380   -0.6955 H   0  0  0  0  0  0  0  0  0  0  0  0
    0.7205   -8.1122    4.7693 H   0  0  0  0  0  0  0  0  0  0  0  0
  1  2  1  0
  1 27  1  0
  1 28  1  0
  1 29  1  0
  2  6  1  0
  2  3  2  0
  3  4  1  0
  4  5  2  0
  5 26  1  0
  5  6  1  0
  6  7  1  0
  7  8  1  0
  7 30  1  0
  7 31  1  0
  8  9  1  0
  8 32  1  0
  8 33  1  0
  9 10  1  0
  9 26  1  0
 10 11  2  0
 12 10  1  6
 12 18  1  0
 12 25  1  0
 12 13  1  0
 13 14  1  0
 13 34  1  0
 13 35  1  0
 14 17  1  0
 14 15  1  0
 14 36  1  1
 15 20  1  0
 15 16  1  0
 15 37  1  6
 16 17  1  0
 16 38  1  0
 16 39  1  0
 17 18  1  0
 17 40  1  1
 18 19  1  0
 18 41  1  6
 19 24  1  0
 19 20  1  0
 19 42  1  6
 20 21  1  0
 20 43  1  1
 21 22  1  0
 21 44  1  0
 21 45  1  0
 22 23  1  0
 22 46  1  0
 22 47  1  0
 23 24  1  0
 23 48  1  0
 23 49  1  0
 24 25  1  0
 24 54  1  1
 25 50  1  0
 25 51  1  0
 26 52  1  0
 26 53  1  0
M  CHG  1  24   1
M  END
>  <i_m_ct_stereo_status>  (5) 
1

>  <s_m_source_file>  (5) 
/var/tmp/pbs.5076255.sched01/tmppfua8s0c/0korcpw03.sdf

>  <i_m_source_file_index>  (5) 
2

>  <i_lp_mmshare_version>  (5) 
48012

>  <i_f3d_flags>  (5) 
0

>  <s_epik_input>  (5) 
bjFuYyhbQ0gzXSluKGMxMilbQ0gyXVtDSDJdTihbQ0gyXTIpQyg9TylbQ0BAXTM0W0NASF01W0NAQEhdNltDQEhdKFtDSDJdMylbQ0BASF0oW0NIMl02KVtDQEhdN1tDQEhdNU4oW0NIMl00KVtDSDJdW0NIMl1bQ0gyXTc=

>  <s_epik_cmdline>  (5) 
J2VwaWtfcHl0aG9uJywgJy1waHQnLCAnMi4wJywgJy1waCcsICc3LjAnLCAnLXRuJywgJzgnLCAnLW1hJywgJzIwMCcsICctaW1hZScsICc8aW5maWxlLm1hZT4nLCAnLW9tYWUnLCAnPG91dGZpbGUubWFlPic=

>  <r_lp_tautomer_probability>  (5) 
1

>  <r_epik_Ionization_Penalty>  (5) 
0.00183737

>  <r_epik_Ionization_Penalty_Charging>  (5) 
0.00150841

>  <r_epik_Ionization_Penalty_Neutral>  (5) 
0.000328965

>  <r_epik_State_Penalty>  (5) 
-0

>  <r_epik_Charging_Adjusted_Penalty>  (5) 
0.00150841

>  <i_epik_Tot_Q>  (5) 
1

>  <i_epik_Tot_abs_Q>  (5) 
1

>  <s_lp_Force_Field>  (5) 
OPLS3e

>  <r_lp_Energy>  (5) 
350.499

>  <b_lp_Chiralities_Consistent>  (5) 
1

>  <s_lp_Variant>  (5) 
1:0-1

>  <s_i_glide_gridfile>  (5) 
pfpi4k_grid

>  <i_i_glide_lignum>  (5) 
2

>  <i_i_glide_rotatable_bonds>  (5) 
2

>  <r_i_docking_score>  (5) 
-3.01243

>  <r_i_glide_ligand_efficiency>  (5) 
-0.115863

>  <r_i_glide_ligand_efficiency_sa>  (5) 
-0.343243

>  <r_i_glide_ligand_efficiency_ln>  (5) 
-0.70746

>  <r_i_glide_gscore>  (5) 
-3.01243

>  <r_i_glide_lipo>  (5) 
-0.436233

>  <r_i_glide_hbond>  (5) 
-0.0867874

>  <r_i_glide_metal>  (5) 
-0

>  <r_i_glide_rewards>  (5) 
-1.1499

>  <r_i_glide_evdw>  (5) 
-24.9926

>  <r_i_glide_ecoul>  (5) 
-2.29369

>  <r_i_glide_erotb>  (5) 
0.304168

>  <r_i_glide_esite>  (5) 
-0.0500016

>  <r_i_glide_emodel>  (5) 
-32.7973

>  <r_i_glide_energy>  (5) 
-27.2863

>  <r_i_glide_einternal>  (5) 
1.30614

>  <r_i_glide_intrahb_reward>  (5) 
-0

>  <i_i_glide_confnum>  (5) 
1

>  <i_i_glide_posenum>  (5) 
16

>  <r_i_glide_eff_state_penalty>  (5) 
0

>  <ligand_id>  (5) 
1

>  <original_smiles>  (5) 
Cc1nnc2n1CCN(C(=O)C13CC4C5CC4C1C1C5CCCN1C3)C2

>  <smiles>  (5) 
[H]C([H])([H])c1nnc2n1C([H])([H])C([H])([H])N(C(=O)C13C([H])([H])C4([H])C5([H])C([H])([H])C4([H])C1([H])C1([H])C5([H])C([H])([H])C([H])([H])C([H])([H])[N+]1([H])C3([H])[H])C2([H])[H]

$$$$
1:0:2
     RDKit          3D

 54 60  0  0  1  0  0  0  0  0999 V2000
    3.8133   -0.3506    2.3879 C   0  0  0  0  0  0  0  0  0  0  0  0
    4.2320   -1.7173    2.8190 C   0  0  0  0  0  0  0  0  0  0  0  0
    4.7849   -1.9863    4.0079 N   0  0  0  0  0  0  0  0  0  0  0  0
    5.0092   -3.3507    4.0154 N   0  0  0  0  0  0  0  0  0  0  0  0
    4.5769   -3.7838    2.8307 C   0  0  0  0  0  0  0  0  0  0  0  0
    4.0779   -2.8072    2.0481 N   0  0  0  0  0  0  0  0  0  0  0  0
    3.4910   -2.9859    0.7294 C   0  0  0  0  0  0  0  0  0  0  0  0
    3.8369   -4.3906    0.1972 C   0  0  0  0  0  0  0  0  0  0  0  0
    3.6440   -5.3934    1.2624 N   0  0  0  0  0  0  0  0  0  0  0  0
    2.5963   -6.2551    1.3024 C   0  0  0  0  0  0  0  0  0  0  0  0
    1.6528   -6.1889    0.5086 O   0  0  0  0  0  0  0  0  0  0  0  0
    2.6137   -7.3485    2.4089 C   0  0  1  0  0  0  0  0  0  0  0  0
    3.2783   -8.7722    1.8493 C   0  0  0  0  0  0  0  0  0  0  0  0
    2.3769  -10.1590    2.1052 C   0  0  1  0  0  0  0  0  0  0  0  0
    0.7029  -10.5262    2.5107 C   0  0  1  0  0  0  0  0  0  0  0  0
    1.4684  -10.9218    3.7445 C   0  0  0  0  0  0  0  0  0  0  0  0
    2.1589   -9.5720    3.3599 C   0  0  2  0  0  0  0  0  0  0  0  0
    1.5955   -8.3283    2.4455 C   0  0  1  0  0  0  0  0  0  0  0  0
    0.3146   -8.0214    2.8497 C   0  0  1  0  0  0  0  0  0  0  0  0
   -0.3159   -9.3584    3.0833 C   0  0  1  0  0  0  0  0  0  0  0  0
   -1.7926   -9.0003    2.9867 C   0  0  0  0  0  0  0  0  0  0  0  0
   -1.9733   -7.8119    4.0683 C   0  0  0  0  0  0  0  0  0  0  0  0
   -0.7688   -6.7447    4.3201 C   0  0  0  0  0  0  0  0  0  0  0  0
    0.5649   -7.3753    4.0714 N   0  0  2  0  0  0  0  0  0  0  0  0
    1.9382   -6.7627    3.7919 C   0  0  0  0  0  0  0  0  0  0  0  0
    4.6194   -5.2161    2.3623 C   0  0  0  0  0  0  0  0  0  0  0  0
    4.0395    0.3812    3.1646 H   0  0  0  0  0  0  0  0  0  0  0  0
    2.7410   -0.3312    2.1964 H   0  0  0  0  0  0  0  0  0  0  0  0
    4.3405   -0.0621    1.4792 H   0  0  0  0  0  0  0  0  0  0  0  0
    2.4115   -2.8616    0.8167 H   0  0  0  0  0  0  0  0  0  0  0  0
    3.8636   -2.2071    0.0632 H   0  0  0  0  0  0  0  0  0  0  0  0
    3.2684   -4.6185   -0.7052 H   0  0  0  0  0  0  0  0  0  0  0  0
    4.8873   -4.4087   -0.1045 H   0  0  0  0  0  0  0  0  0  0  0  0
    3.4927   -8.6865    0.7788 H   0  0  0  0  0  0  0  0  0  0  0  0
    4.2797   -8.8853    2.2787 H   0  0  0  0  0  0  0  0  0  0  0  0
    3.0210  -11.0434    2.0747 H   0  0  0  0  0  0  0  0  0  0  0  0
    0.2192  -11.3920    2.0532 H   0  0  0  0  0  0  0  0  0  0  0  0
    0.9518  -10.9402    4.7061 H   0  0  0  0  0  0  0  0  0  0  0  0
    2.0799  -11.8306    3.6824 H   0  0  0  0  0  0  0  0  0  0  0  0
    3.0224   -9.4038    4.0181 H   0  0  0  0  0  0  0  0  0  0  0  0
    1.2369   -8.4776    1.3864 H   0  0  0  0  0  0  0  0  0  0  0  0
   -0.1828   -7.3919    2.0987 H   0  0  0  0  0  0  0  0  0  0  0  0
   -0.3529   -9.5434    4.1581 H   0  0  0  0  0  0  0  0  0  0  0  0
   -2.0808   -8.6865    1.9823 H   0  0  0  0  0  0  0  0  0  0  0  0
   -2.4200   -9.8541    3.2588 H   0  0  0  0  0  0  0  0  0  0  0  0
   -2.9006   -7.2823    3.8650 H   0  0  0  0  0  0  0  0  0  0  0  0
   -2.1233   -8.3344    5.0101 H   0  0  0  0  0  0  0  0  0  0  0  0
   -0.8862   -5.8947    3.6575 H   0  0  0  0  0  0  0  0  0  0  0  0
   -0.8276   -6.3283    5.3276 H   0  0  0  0  0  0  0  0  0  0  0  0
    2.5940   -6.9675    4.6401 H   0  0  0  0  0  0  0  0  0  0  0  0
    1.8423   -5.6762    3.7475 H   0  0  0  0  0  0  0  0  0  0  0  0
    5.6249   -5.4517    2.0111 H   0  0  0  0  0  0  0  0  0  0  0  0
    4.4456   -5.8540    3.2264 H   0  0  0  0  0  0  0  0  0  0  0  0
    0.6987   -8.0977    4.7672 H   0  0  0  0  0  0  0  0  0  0  0  0
  1  2  1  0
  1 27  1  0
  1 28  1  0
  1 29  1  0
  2  6  1  0
  2  3  2  0
  3  4  1  0
  4  5  2  0
  5 26  1  0
  5  6  1  0
  6  7  1  0
  7  8  1  0
  7 30  1  0
  7 31  1  0
  8  9  1  0
  8 32  1  0
  8 33  1  0
  9 10  1  0
  9 26  1  0
 10 11  2  0
 12 10  1  6
 12 18  1  0
 12 25  1  0
 12 13  1  0
 13 14  1  0
 13 34  1  0
 13 35  1  0
 14 17  1  0
 14 15  1  0
 14 36  1  1
 15 20  1  0
 15 16  1  0
 15 37  1  6
 16 17  1  0
 16 38  1  0
 16 39  1  0
 17 18  1  0
 17 40  1  1
 18 19  1  0
 18 41  1  6
 19 24  1  0
 19 20  1  0
 19 42  1  6
 20 21  1  0
 20 43  1  1
 21 22  1  0
 21 44  1  0
 21 45  1  0
 22 23  1  0
 22 46  1  0
 22 47  1  0
 23 24  1  0
 23 48  1  0
 23 49  1  0
 24 25  1  0
 24 54  1  1
 25 50  1  0
 25 51  1  0
 26 52  1  0
 26 53  1  0
M  CHG  1  24   1
M  END
>  <i_m_ct_stereo_status>  (6) 
1

>  <s_m_source_file>  (6) 
/var/tmp/pbs.5076255.sched01/tmppfua8s0c/0korcpw03.sdf

>  <i_m_source_file_index>  (6) 
2

>  <i_lp_mmshare_version>  (6) 
48012

>  <i_f3d_flags>  (6) 
0

>  <s_epik_input>  (6) 
bjFuYyhbQ0gzXSluKGMxMilbQ0gyXVtDSDJdTihbQ0gyXTIpQyg9TylbQ0BAXTM0W0NASF01W0NAQEhdNltDQEhdKFtDSDJdMylbQ0BASF0oW0NIMl02KVtDQEhdN1tDQEhdNU4oW0NIMl00KVtDSDJdW0NIMl1bQ0gyXTc=

>  <s_epik_cmdline>  (6) 
J2VwaWtfcHl0aG9uJywgJy1waHQnLCAnMi4wJywgJy1waCcsICc3LjAnLCAnLXRuJywgJzgnLCAnLW1hJywgJzIwMCcsICctaW1hZScsICc8aW5maWxlLm1hZT4nLCAnLW9tYWUnLCAnPG91dGZpbGUubWFlPic=

>  <r_lp_tautomer_probability>  (6) 
1

>  <r_epik_Ionization_Penalty>  (6) 
0.00183737

>  <r_epik_Ionization_Penalty_Charging>  (6) 
0.00150841

>  <r_epik_Ionization_Penalty_Neutral>  (6) 
0.000328965

>  <r_epik_State_Penalty>  (6) 
-0

>  <r_epik_Charging_Adjusted_Penalty>  (6) 
0.00150841

>  <i_epik_Tot_Q>  (6) 
1

>  <i_epik_Tot_abs_Q>  (6) 
1

>  <s_lp_Force_Field>  (6) 
OPLS3e

>  <r_lp_Energy>  (6) 
350.499

>  <b_lp_Chiralities_Consistent>  (6) 
1

>  <s_lp_Variant>  (6) 
1:0-1

>  <s_i_glide_gridfile>  (6) 
pfpi4k_grid

>  <i_i_glide_lignum>  (6) 
2

>  <i_i_glide_rotatable_bonds>  (6) 
2

>  <r_i_docking_score>  (6) 
-2.86399

>  <r_i_glide_ligand_efficiency>  (6) 
-0.110153

>  <r_i_glide_ligand_efficiency_sa>  (6) 
-0.326329

>  <r_i_glide_ligand_efficiency_ln>  (6) 
-0.672599

>  <r_i_glide_gscore>  (6) 
-2.86399

>  <r_i_glide_lipo>  (6) 
-0.321696

>  <r_i_glide_hbond>  (6) 
-0.0445559

>  <r_i_glide_metal>  (6) 
-0

>  <r_i_glide_rewards>  (6) 
-1.05068

>  <r_i_glide_evdw>  (6) 
-22.6287

>  <r_i_glide_ecoul>  (6) 
-3.92811

>  <r_i_glide_erotb>  (6) 
0.304168

>  <r_i_glide_esite>  (6) 
-0.0305694

>  <r_i_glide_emodel>  (6) 
-31.8136

>  <r_i_glide_energy>  (6) 
-26.5568

>  <r_i_glide_einternal>  (6) 
1.21128

>  <r_i_glide_intrahb_reward>  (6) 
-0

>  <i_i_glide_confnum>  (6) 
3

>  <i_i_glide_posenum>  (6) 
38

>  <r_i_glide_eff_state_penalty>  (6) 
0

>  <ligand_id>  (6) 
1

>  <original_smiles>  (6) 
Cc1nnc2n1CCN(C(=O)C13CC4C5CC4C1C1C5CCCN1C3)C2

>  <smiles>  (6) 
[H]C([H])([H])c1nnc2n1C([H])([H])C([H])([H])N(C(=O)C13C([H])([H])C4([H])C5([H])C([H])([H])C4([H])C1([H])C1([H])C5([H])C([H])([H])C([H])([H])C([H])([H])[N+]1([H])C3([H])[H])C2([H])[H]

$$$$
2:0:0
     RDKit          3D

 74 78  0  0  1  0  0  0  0  0999 V2000
    1.3166    6.8768    6.4572 C   0  0  0  0  0  0  0  0  0  0  0  0
    0.9570    5.5015    6.4033 O   0  0  0  0  0  0  0  0  0  0  0  0
    1.4967    4.7581    5.3092 C   0  0  2  0  0  0  0  0  0  0  0  0
    0.7196    5.0423    4.0109 C   0  0  1  0  0  0  0  0  0  0  0  0
    1.5177    4.6847    2.8960 O   0  0  0  0  0  0  0  0  0  0  0  0
   -0.6531    4.3457    4.0353 C   0  0  1  0  0  0  0  0  0  0  0  0
   -1.3894    4.7767    2.8990 O   0  0  0  0  0  0  0  0  0  0  0  0
   -0.6342    2.7863    4.2788 C   0  0  0  0  0  0  0  0  0  0  0  0
   -2.1289    2.3616    4.3376 C   0  0  0  0  0  0  0  0  0  0  0  0
   -0.0971    2.1063    3.0043 C   0  0  0  0  0  0  0  0  0  0  0  0
    0.1962    2.4190    5.6312 C   0  0  2  0  0  0  0  0  0  0  0  0
   -0.6226    2.9928    6.8526 C   0  0  0  0  0  0  0  0  0  0  0  0
    1.5552    3.2438    5.6896 C   0  0  1  0  0  0  0  0  0  0  0  0
    2.8136    2.5807    5.0753 C   0  0  0  0  0  0  0  0  0  0  0  0
    3.0984    1.1556    5.5390 C   0  0  1  0  0  0  0  0  0  0  0  0
    3.6564    0.8345    6.9521 C   0  0  0  0  0  0  0  0  0  0  0  0
    5.1425    0.4593    6.9710 C   0  0  0  0  0  0  0  0  0  0  0  0
    3.4480    1.8472    8.0810 C   0  0  0  0  0  0  0  0  0  0  0  0
    2.6898   -0.3560    6.9535 C   0  0  1  0  0  0  0  0  0  0  0  0
    1.9775   -0.6448    8.1423 O   0  0  0  0  0  0  0  0  0  0  0  0
    1.9242    0.1841    5.7086 C   0  0  1  0  0  0  0  0  0  0  0  0
    0.5022    0.8591    6.0243 C   0  0  2  0  0  0  0  0  0  0  0  0
   -0.6357   -0.2308    6.1133 C   0  0  1  0  0  0  0  0  0  0  0  0
   -1.9362    0.1925    6.4482 O   0  0  0  0  0  0  0  0  0  0  0  0
   -0.6788   -1.2612    4.9633 C   0  0  0  0  0  0  0  0  0  0  0  0
    0.6975   -1.9225    4.9304 C   0  0  1  0  0  0  0  0  0  0  0  0
    0.9883   -3.0833    4.0139 C   0  0  0  0  0  0  0  0  0  0  0  0
    2.2675   -3.0634    3.6257 C   0  0  0  0  0  0  0  0  0  0  0  0
    2.9937   -4.1153    2.8125 C   0  0  0  0  0  0  0  0  0  0  0  0
    2.9908   -1.8417    4.1669 C   0  0  0  0  0  0  0  0  0  0  0  0
    1.7971   -0.9117    4.5924 C   0  0  2  0  0  0  0  0  0  0  0  0
    1.5262   -0.2756    3.3690 O   0  0  0  0  0  0  0  0  0  0  0  0
    0.8805    7.3242    7.3515 H   0  0  0  0  0  0  0  0  0  0  0  0
    0.9406    7.4364    5.6013 H   0  0  0  0  0  0  0  0  0  0  0  0
    2.3981    7.0089    6.5140 H   0  0  0  0  0  0  0  0  0  0  0  0
    2.5223    5.1119    5.1862 H   0  0  0  0  0  0  0  0  0  0  0  0
    0.5495    6.1119    3.9080 H   0  0  0  0  0  0  0  0  0  0  0  0
    0.9683    4.6337    2.1124 H   0  0  0  0  0  0  0  0  0  0  0  0
   -1.2082    4.8010    4.8530 H   0  0  0  0  0  0  0  0  0  0  0  0
   -0.8922    4.5426    2.1163 H   0  0  0  0  0  0  0  0  0  0  0  0
   -2.2481    1.2840    4.2968 H   0  0  0  0  0  0  0  0  0  0  0  0
   -2.6783    2.7175    3.4649 H   0  0  0  0  0  0  0  0  0  0  0  0
   -2.6618    2.7614    5.1994 H   0  0  0  0  0  0  0  0  0  0  0  0
    0.9809    2.1729    2.9139 H   0  0  0  0  0  0  0  0  0  0  0  0
   -0.5138    2.5360    2.0932 H   0  0  0  0  0  0  0  0  0  0  0  0
   -0.3947    1.0647    2.9601 H   0  0  0  0  0  0  0  0  0  0  0  0
   -0.0654    2.9377    7.7921 H   0  0  0  0  0  0  0  0  0  0  0  0
   -1.5581    2.4776    7.0508 H   0  0  0  0  0  0  0  0  0  0  0  0
   -0.8956    4.0384    6.7546 H   0  0  0  0  0  0  0  0  0  0  0  0
    1.8182    3.2956    6.7381 H   0  0  0  0  0  0  0  0  0  0  0  0
    2.7561    2.5932    3.9910 H   0  0  0  0  0  0  0  0  0  0  0  0
    3.6870    3.1918    5.2982 H   0  0  0  0  0  0  0  0  0  0  0  0
    3.7910    0.6946    4.8341 H   0  0  0  0  0  0  0  0  0  0  0  0
    5.4403    0.0355    7.9314 H   0  0  0  0  0  0  0  0  0  0  0  0
    5.7739    1.3259    6.7706 H   0  0  0  0  0  0  0  0  0  0  0  0
    5.3747   -0.2915    6.2114 H   0  0  0  0  0  0  0  0  0  0  0  0
    3.9386    1.5319    9.0044 H   0  0  0  0  0  0  0  0  0  0  0  0
    2.3888    1.9621    8.3241 H   0  0  0  0  0  0  0  0  0  0  0  0
    3.8465    2.8264    7.8089 H   0  0  0  0  0  0  0  0  0  0  0  0
    3.2598   -1.2483    6.7320 H   0  0  0  0  0  0  0  0  0  0  0  0
    2.5790   -1.0955    8.7144 H   0  0  0  0  0  0  0  0  0  0  0  0
    0.6003    1.0296    7.0930 H   0  0  0  0  0  0  0  0  0  0  0  0
   -0.3795   -0.8244    6.9919 H   0  0  0  0  0  0  0  0  0  0  0  0
   -2.2276    0.7636    5.7520 H   0  0  0  0  0  0  0  0  0  0  0  0
   -1.4431   -2.0131    5.1584 H   0  0  0  0  0  0  0  0  0  0  0  0
   -0.9384   -0.7985    4.0131 H   0  0  0  0  0  0  0  0  0  0  0  0
    0.8893   -2.3324    5.9219 H   0  0  0  0  0  0  0  0  0  0  0  0
    0.2696   -3.8578    3.7984 H   0  0  0  0  0  0  0  0  0  0  0  0
    3.8264   -4.5276    3.3851 H   0  0  0  0  0  0  0  0  0  0  0  0
    3.3853   -3.6705    1.8980 H   0  0  0  0  0  0  0  0  0  0  0  0
    2.3231   -4.9318    2.5446 H   0  0  0  0  0  0  0  0  0  0  0  0
    3.6289   -2.2001    4.9708 H   0  0  0  0  0  0  0  0  0  0  0  0
    3.6430   -1.4089    3.4075 H   0  0  0  0  0  0  0  0  0  0  0  0
    2.2599    0.2835    3.1607 H   0  0  0  0  0  0  0  0  0  0  0  0
  1  2  1  0
  1 33  1  0
  1 34  1  0
  1 35  1  0
  2  3  1  0
  3 13  1  0
  3  4  1  0
  3 36  1  6
  4  5  1  0
  4  6  1  0
  4 37  1  6
  5 38  1  0
  6  7  1  0
  6  8  1  0
  6 39  1  1
  7 40  1  0
  8  9  1  0
  8 10  1  0
  8 11  1  0
  9 41  1  0
  9 42  1  0
  9 43  1  0
 10 44  1  0
 10 45  1  0
 10 46  1  0
 11 22  1  0
 11 12  1  1
 11 13  1  0
 12 47  1  0
 12 48  1  0
 12 49  1  0
 13 14  1  0
 13 50  1  1
 14 15  1  0
 14 51  1  0
 14 52  1  0
 15 21  1  0
 15 16  1  0
 15 53  1  6
 16 17  1  0
 16 18  1  0
 16 19  1  0
 17 54  1  0
 17 55  1  0
 17 56  1  0
 18 57  1  0
 18 58  1  0
 18 59  1  0
 19 20  1  0
 19 21  1  0
 19 60  1  6
 20 61  1  0
 21 31  1  6
 21 22  1  0
 22 23  1  0
 22 62  1  1
 23 24  1  0
 23 25  1  0
 23 63  1  1
 24 64  1  0
 25 26  1  0
 25 65  1  0
 25 66  1  0
 26 31  1  0
 26 27  1  0
 26 67  1  1
 27 28  2  0
 27 68  1  0
 28 29  1  0
 28 30  1  0
 29 69  1  0
 29 70  1  0
 29 71  1  0
 30 31  1  0
 30 72  1  0
 30 73  1  0
 31 32  1  6
 32 74  1  0
M  END
>  <i_m_ct_stereo_status>  (7) 
1

>  <s_m_source_file>  (7) 
/var/tmp/pbs.5076255.sched01/tmppfua8s0c/0korcpw03.sdf

>  <i_m_source_file_index>  (7) 
3

>  <i_lp_mmshare_version>  (7) 
48012

>  <i_f3d_flags>  (7) 
0

>  <s_epik_input>  (7) 
W0NIM11PW0NAQEhdMVtDQEBIXShbT0hdKVtDQEBIXShbT0hdKUMoW0NIM10pKFtDSDNdKVtDQF0oW0NIM10pKFtDQEhdMVtDSDJdW0NASF0oW0NAQF0yMzQpQyhbQ0gzXSkoW0NIM10pW0NASF0yW09IXSlbQ0BIXTNbQ0BASF0oW09IXSlbQ0gyXVtDQEBIXTVbQ0BdNChbT0hdKVtDSDJdQyg9W0NIXTUpW0NIM10=

>  <s_epik_cmdline>  (7) 
J2VwaWtfcHl0aG9uJywgJy1waHQnLCAnMi4wJywgJy1waCcsICc3LjAnLCAnLXRuJywgJzgnLCAnLW1hJywgJzIwMCcsICctaW1hZScsICc8aW5maWxlLm1hZT4nLCAnLW9tYWUnLCAnPG91dGZpbGUubWFlPic=

>  <r_lp_tautomer_probability>  (7) 
1

>  <r_epik_Ionization_Penalty>  (7) 
4.11974e-06

>  <r_epik_Ionization_Penalty_Charging>  (7) 
0

>  <r_epik_Ionization_Penalty_Neutral>  (7) 
4.11974e-06

>  <r_epik_State_Penalty>  (7) 
-0

>  <r_epik_Charging_Adjusted_Penalty>  (7) 
0

>  <i_epik_Tot_Q>  (7) 
0

>  <i_epik_Tot_abs_Q>  (7) 
0

>  <s_lp_Force_Field>  (7) 
OPLS3e

>  <r_lp_Energy>  (7) 
92.2768

>  <b_lp_Chiralities_Consistent>  (7) 
1

>  <s_lp_Variant>  (7) 
2:0-1

>  <s_i_glide_gridfile>  (7) 
pfpi4k_grid

>  <i_i_glide_lignum>  (7) 
3

>  <i_i_glide_rotatable_bonds>  (7) 
6

>  <r_i_docking_score>  (7) 
-3.43884

>  <r_i_glide_ligand_efficiency>  (7) 
-0.107464

>  <r_i_glide_ligand_efficiency_sa>  (7) 
-0.341176

>  <r_i_glide_ligand_efficiency_ln>  (7) 
-0.770051

>  <r_i_glide_gscore>  (7) 
-3.43884

>  <r_i_glide_lipo>  (7) 
-0.0356745

>  <r_i_glide_hbond>  (7) 
-0.152

>  <r_i_glide_metal>  (7) 
-0

>  <r_i_glide_rewards>  (7) 
-0.336763

>  <r_i_glide_evdw>  (7) 
-13.9365

>  <r_i_glide_ecoul>  (7) 
-14.7839

>  <r_i_glide_erotb>  (7) 
0

>  <r_i_glide_esite>  (7) 
0

>  <r_i_glide_emodel>  (7) 
-35.6531

>  <r_i_glide_energy>  (7) 
-28.7203

>  <r_i_glide_einternal>  (7) 
2.2567

>  <r_i_glide_intrahb_reward>  (7) 
-0

>  <i_i_glide_confnum>  (7) 
1

>  <i_i_glide_posenum>  (7) 
15

>  <r_i_glide_eff_state_penalty>  (7) 
0

>  <ligand_id>  (7) 
2

>  <original_smiles>  (7) 
COC1C(O)C(O)C(C)(C)C2(C)C1CC1C(C)(C)C(O)C13C2C(O)CC1C=C(C)CC13O

>  <smiles>  (7) 
[H]OC1([H])C([H])(OC([H])([H])[H])C2([H])C([H])([H])C3([H])C(C([H])([H])[H])(C([H])([H])[H])C([H])(O[H])C34C([H])(C([H])(O[H])C([H])([H])C3([H])C([H])=C(C([H])([H])[H])C([H])([H])C34O[H])C2(C([H])([H])[H])C(C([H])([H])[H])(C([H])([H])[H])C1([H])O[H]

$$$$
2:0:1
     RDKit          3D

 74 78  0  0  1  0  0  0  0  0999 V2000
    2.2839    7.0675    5.9433 C   0  0  0  0  0  0  0  0  0  0  0  0
    1.8627    5.7113    6.0159 O   0  0  0  0  0  0  0  0  0  0  0  0
    2.1768    4.8983    4.8865 C   0  0  2  0  0  0  0  0  0  0  0  0
    1.2241    5.1895    3.7094 C   0  0  1  0  0  0  0  0  0  0  0  0
    1.8303    4.7272    2.5125 O   0  0  0  0  0  0  0  0  0  0  0  0
   -0.1648    4.5884    3.9799 C   0  0  1  0  0  0  0  0  0  0  0  0
   -1.0489    5.0392    2.9646 O   0  0  0  0  0  0  0  0  0  0  0  0
   -0.2034    3.0386    4.2776 C   0  0  0  0  0  0  0  0  0  0  0  0
   -1.6948    2.7177    4.5764 C   0  0  0  0  0  0  0  0  0  0  0  0
    0.0868    2.2776    2.9690 C   0  0  0  0  0  0  0  0  0  0  0  0
    0.7982    2.6606    5.5026 C   0  0  2  0  0  0  0  0  0  0  0  0
    0.2131    3.3328    6.8051 C   0  0  0  0  0  0  0  0  0  0  0  0
    2.1961    3.3972    5.3173 C   0  0  1  0  0  0  0  0  0  0  0  0
    3.3007    2.6302    4.5516 C   0  0  0  0  0  0  0  0  0  0  0  0
    3.5668    1.2070    5.0370 C   0  0  1  0  0  0  0  0  0  0  0  0
    4.3135    0.8968    6.3620 C   0  0  0  0  0  0  0  0  0  0  0  0
    5.7610    0.4242    6.1703 C   0  0  0  0  0  0  0  0  0  0  0  0
    4.3463    1.9603    7.4602 C   0  0  0  0  0  0  0  0  0  0  0  0
    3.2902   -0.2266    6.5528 C   0  0  1  0  0  0  0  0  0  0  0  0
    2.7567   -0.4527    7.8448 O   0  0  0  0  0  0  0  0  0  0  0  0
    2.3722    0.3216    5.4198 C   0  0  1  0  0  0  0  0  0  0  0  0
    1.0578    1.0999    5.9139 C   0  0  2  0  0  0  0  0  0  0  0  0
   -0.1200    0.0872    6.2209 C   0  0  1  0  0  0  0  0  0  0  0  0
   -1.3283    0.6004    6.7391 O   0  0  0  0  0  0  0  0  0  0  0  0
   -0.3957   -0.9768    5.1388 C   0  0  0  0  0  0  0  0  0  0  0  0
    0.9210   -1.7243    4.9309 C   0  0  1  0  0  0  0  0  0  0  0  0
    0.9997   -2.9336    4.0315 C   0  0  0  0  0  0  0  0  0  0  0  0
    2.2004   -3.0070    3.4547 C   0  0  0  0  0  0  0  0  0  0  0  0
    2.7314   -4.1355    2.5860 C   0  0  0  0  0  0  0  0  0  0  0  0
    3.0698   -1.8166    3.8257 C   0  0  0  0  0  0  0  0  0  0  0  0
    2.0140   -0.8030    4.3840 C   0  0  2  0  0  0  0  0  0  0  0  0
    1.5992   -0.1965    3.1841 O   0  0  0  0  0  0  0  0  0  0  0  0
    2.0205    7.5740    6.8733 H   0  0  0  0  0  0  0  0  0  0  0  0
    1.7969    7.6132    5.1360 H   0  0  0  0  0  0  0  0  0  0  0  0
    3.3648    7.1479    5.8166 H   0  0  0  0  0  0  0  0  0  0  0  0
    3.1919    5.1779    4.5935 H   0  0  0  0  0  0  0  0  0  0  0  0
    1.1071    6.2677    3.5750 H   0  0  0  0  0  0  0  0  0  0  0  0
    1.1675    4.6261    1.8124 H   0  0  0  0  0  0  0  0  0  0  0  0
   -0.5532    5.1088    4.8475 H   0  0  0  0  0  0  0  0  0  0  0  0
   -0.6753    4.7648    2.1231 H   0  0  0  0  0  0  0  0  0  0  0  0
   -1.8877    1.6498    4.6219 H   0  0  0  0  0  0  0  0  0  0  0  0
   -2.3469    3.0729    3.7767 H   0  0  0  0  0  0  0  0  0  0  0  0
   -2.0660    3.1856    5.4861 H   0  0  0  0  0  0  0  0  0  0  0  0
    1.1374    2.2704    2.7037 H   0  0  0  0  0  0  0  0  0  0  0  0
   -0.4451    2.7077    2.1238 H   0  0  0  0  0  0  0  0  0  0  0  0
   -0.2926    1.2625    3.0060 H   0  0  0  0  0  0  0  0  0  0  0  0
    0.9027    3.2755    7.6510 H   0  0  0  0  0  0  0  0  0  0  0  0
   -0.7175    2.9019    7.1613 H   0  0  0  0  0  0  0  0  0  0  0  0
    0.0006    4.3925    6.7007 H   0  0  0  0  0  0  0  0  0  0  0  0
    2.6206    3.4682    6.3079 H   0  0  0  0  0  0  0  0  0  0  0  0
    3.0845    2.6050    3.4878 H   0  0  0  0  0  0  0  0  0  0  0  0
    4.2299    3.1939    4.6148 H   0  0  0  0  0  0  0  0  0  0  0  0
    4.1068    0.6746    4.2593 H   0  0  0  0  0  0  0  0  0  0  0  0
    6.1758    0.0130    7.0920 H   0  0  0  0  0  0  0  0  0  0  0  0
    6.4085    1.2370    5.8389 H   0  0  0  0  0  0  0  0  0  0  0  0
    5.8270   -0.3644    5.4197 H   0  0  0  0  0  0  0  0  0  0  0  0
    4.9536    1.6435    8.3118 H   0  0  0  0  0  0  0  0  0  0  0  0
    3.3498    2.1595    7.8529 H   0  0  0  0  0  0  0  0  0  0  0  0
    4.7609    2.8975    7.0865 H   0  0  0  0  0  0  0  0  0  0  0  0
    3.7749   -1.1502    6.2731 H   0  0  0  0  0  0  0  0  0  0  0  0
    2.3880    0.3650    8.1345 H   0  0  0  0  0  0  0  0  0  0  0  0
    1.3320    1.3045    6.9445 H   0  0  0  0  0  0  0  0  0  0  0  0
    0.2379   -0.4829    7.0811 H   0  0  0  0  0  0  0  0  0  0  0  0
   -1.1269    1.4081    7.1780 H   0  0  0  0  0  0  0  0  0  0  0  0
   -1.1685   -1.6683    5.4776 H   0  0  0  0  0  0  0  0  0  0  0  0
   -0.7718   -0.5292    4.2208 H   0  0  0  0  0  0  0  0  0  0  0  0
    1.2367   -2.1155    5.8975 H   0  0  0  0  0  0  0  0  0  0  0  0
    0.2144   -3.6719    3.9577 H   0  0  0  0  0  0  0  0  0  0  0  0
    3.6129   -4.5820    3.0441 H   0  0  0  0  0  0  0  0  0  0  0  0
    3.0056   -3.7514    1.6061 H   0  0  0  0  0  0  0  0  0  0  0  0
    1.9805   -4.9149    2.4585 H   0  0  0  0  0  0  0  0  0  0  0  0
    3.8011   -2.1937    4.5345 H   0  0  0  0  0  0  0  0  0  0  0  0
    3.6186   -1.4508    2.9549 H   0  0  0  0  0  0  0  0  0  0  0  0
    1.0273    0.5231    3.3991 H   0  0  0  0  0  0  0  0  0  0  0  0
  1  2  1  0
  1 33  1  0
  1 34  1  0
  1 35  1  0
  2  3  1  0
  3 13  1  0
  3  4  1  0
  3 36  1  6
  4  5  1  0
  4  6  1  0
  4 37  1  6
  5 38  1  0
  6  7  1  0
  6  8  1  0
  6 39  1  1
  7 40  1  0
  8  9  1  0
  8 10  1  0
  8 11  1  0
  9 41  1  0
  9 42  1  0
  9 43  1  0
 10 44  1  0
 10 45  1  0
 10 46  1  0
 11 22  1  0
 11 12  1  1
 11 13  1  0
 12 47  1  0
 12 48  1  0
 12 49  1  0
 13 14  1  0
 13 50  1  1
 14 15  1  0
 14 51  1  0
 14 52  1  0
 15 21  1  0
 15 16  1  0
 15 53  1  6
 16 17  1  0
 16 18  1  0
 16 19  1  0
 17 54  1  0
 17 55  1  0
 17 56  1  0
 18 57  1  0
 18 58  1  0
 18 59  1  0
 19 20  1  0
 19 21  1  0
 19 60  1  6
 20 61  1  0
 21 31  1  6
 21 22  1  0
 22 23  1  0
 22 62  1  1
 23 24  1  0
 23 25  1  0
 23 63  1  1
 24 64  1  0
 25 26  1  0
 25 65  1  0
 25 66  1  0
 26 31  1  0
 26 27  1  0
 26 67  1  1
 27 28  2  0
 27 68  1  0
 28 29  1  0
 28 30  1  0
 29 69  1  0
 29 70  1  0
 29 71  1  0
 30 31  1  0
 30 72  1  0
 30 73  1  0
 31 32  1  6
 32 74  1  0
M  END
>  <i_m_ct_stereo_status>  (8) 
1

>  <s_m_source_file>  (8) 
/var/tmp/pbs.5076255.sched01/tmppfua8s0c/0korcpw03.sdf

>  <i_m_source_file_index>  (8) 
3

>  <i_lp_mmshare_version>  (8) 
48012

>  <i_f3d_flags>  (8) 
0

>  <s_epik_input>  (8) 
W0NIM11PW0NAQEhdMVtDQEBIXShbT0hdKVtDQEBIXShbT0hdKUMoW0NIM10pKFtDSDNdKVtDQF0oW0NIM10pKFtDQEhdMVtDSDJdW0NASF0oW0NAQF0yMzQpQyhbQ0gzXSkoW0NIM10pW0NASF0yW09IXSlbQ0BIXTNbQ0BASF0oW09IXSlbQ0gyXVtDQEBIXTVbQ0BdNChbT0hdKVtDSDJdQyg9W0NIXTUpW0NIM10=

>  <s_epik_cmdline>  (8) 
J2VwaWtfcHl0aG9uJywgJy1waHQnLCAnMi4wJywgJy1waCcsICc3LjAnLCAnLXRuJywgJzgnLCAnLW1hJywgJzIwMCcsICctaW1hZScsICc8aW5maWxlLm1hZT4nLCAnLW9tYWUnLCAnPG91dGZpbGUubWFlPic=

>  <r_lp_tautomer_probability>  (8) 
1

>  <r_epik_Ionization_Penalty>  (8) 
4.11974e-06

>  <r_epik_Ionization_Penalty_Charging>  (8) 
0

>  <r_epik_Ionization_Penalty_Neutral>  (8) 
4.11974e-06

>  <r_epik_State_Penalty>  (8) 
-0

>  <r_epik_Charging_Adjusted_Penalty>  (8) 
0

>  <i_epik_Tot_Q>  (8) 
0

>  <i_epik_Tot_abs_Q>  (8) 
0

>  <s_lp_Force_Field>  (8) 
OPLS3e

>  <r_lp_Energy>  (8) 
92.2768

>  <b_lp_Chiralities_Consistent>  (8) 
1

>  <s_lp_Variant>  (8) 
2:0-1

>  <s_i_glide_gridfile>  (8) 
pfpi4k_grid

>  <i_i_glide_lignum>  (8) 
3

>  <i_i_glide_rotatable_bonds>  (8) 
6

>  <r_i_docking_score>  (8) 
-3.36978

>  <r_i_glide_ligand_efficiency>  (8) 
-0.105306

>  <r_i_glide_ligand_efficiency_sa>  (8) 
-0.334324

>  <r_i_glide_ligand_efficiency_ln>  (8) 
-0.754585

>  <r_i_glide_gscore>  (8) 
-3.36978

>  <r_i_glide_lipo>  (8) 
-0.0869948

>  <r_i_glide_hbond>  (8) 
-0.142841

>  <r_i_glide_metal>  (8) 
-0

>  <r_i_glide_rewards>  (8) 
-0.336763

>  <r_i_glide_evdw>  (8) 
-12.4106

>  <r_i_glide_ecoul>  (8) 
-14.551

>  <r_i_glide_erotb>  (8) 
0

>  <r_i_glide_esite>  (8) 
0

>  <r_i_glide_emodel>  (8) 
-33.6684

>  <r_i_glide_energy>  (8) 
-26.9616

>  <r_i_glide_einternal>  (8) 
1.96285

>  <r_i_glide_intrahb_reward>  (8) 
-0

>  <i_i_glide_confnum>  (8) 
1

>  <i_i_glide_posenum>  (8) 
1

>  <r_i_glide_eff_state_penalty>  (8) 
0

>  <ligand_id>  (8) 
2

>  <original_smiles>  (8) 
COC1C(O)C(O)C(C)(C)C2(C)C1CC1C(C)(C)C(O)C13C2C(O)CC1C=C(C)CC13O

>  <smiles>  (8) 
[H]OC1([H])C([H])(OC([H])([H])[H])C2([H])C([H])([H])C3([H])C(C([H])([H])[H])(C([H])([H])[H])C([H])(O[H])C34C([H])(C([H])(O[H])C([H])([H])C3([H])C([H])=C(C([H])([H])[H])C([H])([H])C34O[H])C2(C([H])([H])[H])C(C([H])([H])[H])(C([H])([H])[H])C1([H])O[H]

$$$$
2:0:2
     RDKit          3D

 74 78  0  0  1  0  0  0  0  0999 V2000
    7.8124   -3.2498    0.4263 C   0  0  0  0  0  0  0  0  0  0  0  0
    6.6465   -2.5386    0.8297 O   0  0  0  0  0  0  0  0  0  0  0  0
    5.4117   -3.1016    0.3848 C   0  0  2  0  0  0  0  0  0  0  0  0
    4.4320   -1.9508    0.1326 C   0  0  1  0  0  0  0  0  0  0  0  0
    3.4179   -2.3801   -0.7588 O   0  0  0  0  0  0  0  0  0  0  0  0
    3.8649   -1.3847    1.4454 C   0  0  1  0  0  0  0  0  0  0  0  0
    3.0599   -0.2542    1.1247 O   0  0  0  0  0  0  0  0  0  0  0  0
    3.1854   -2.4325    2.4138 C   0  0  0  0  0  0  0  0  0  0  0  0
    2.7863   -1.6299    3.6849 C   0  0  0  0  0  0  0  0  0  0  0  0
    1.8405   -2.8274    1.7991 C   0  0  0  0  0  0  0  0  0  0  0  0
    4.1675   -3.6935    2.7033 C   0  0  2  0  0  0  0  0  0  0  0  0
    5.3706   -3.1319    3.5373 C   0  0  0  0  0  0  0  0  0  0  0  0
    4.8648   -4.1895    1.3637 C   0  0  1  0  0  0  0  0  0  0  0  0
    4.1530   -5.3103    0.5708 C   0  0  0  0  0  0  0  0  0  0  0  0
    3.7653   -6.5363    1.3882 C   0  0  1  0  0  0  0  0  0  0  0  0
    4.8084   -7.5790    1.8729 C   0  0  0  0  0  0  0  0  0  0  0  0
    4.7992   -8.8885    1.0802 C   0  0  0  0  0  0  0  0  0  0  0  0
    6.2740   -7.1544    2.0079 C   0  0  0  0  0  0  0  0  0  0  0  0
    4.0139   -7.6124    3.1820 C   0  0  1  0  0  0  0  0  0  0  0  0
    4.7225   -7.6560    4.4041 O   0  0  0  0  0  0  0  0  0  0  0  0
    3.2009   -6.3406    2.8010 C   0  0  1  0  0  0  0  0  0  0  0  0
    3.6481   -4.9933    3.5479 C   0  0  2  0  0  0  0  0  0  0  0  0
    2.9569   -4.8635    4.9624 C   0  0  1  0  0  0  0  0  0  0  0  0
    3.2983   -3.7653    5.7749 O   0  0  0  0  0  0  0  0  0  0  0  0
    1.4327   -5.1118    4.9908 C   0  0  0  0  0  0  0  0  0  0  0  0
    1.2114   -6.5068    4.4048 C   0  0  1  0  0  0  0  0  0  0  0  0
   -0.1584   -7.1353    4.3896 C   0  0  0  0  0  0  0  0  0  0  0  0
   -0.2920   -7.9295    3.3195 C   0  0  0  0  0  0  0  0  0  0  0  0
   -1.4526   -8.8532    3.0055 C   0  0  0  0  0  0  0  0  0  0  0  0
    0.9382   -7.8773    2.4279 C   0  0  0  0  0  0  0  0  0  0  0  0
    1.6604   -6.5826    2.9397 C   0  0  2  0  0  0  0  0  0  0  0  0
    1.0167   -5.5991    2.1724 O   0  0  0  0  0  0  0  0  0  0  0  0
    8.6942   -2.7877    0.8752 H   0  0  0  0  0  0  0  0  0  0  0  0
    7.9387   -3.2120   -0.6583 H   0  0  0  0  0  0  0  0  0  0  0  0
    7.7933   -4.2957    0.7383 H   0  0  0  0  0  0  0  0  0  0  0  0
    5.6123   -3.5576   -0.5895 H   0  0  0  0  0  0  0  0  0  0  0  0
    4.9705   -1.1536   -0.3789 H   0  0  0  0  0  0  0  0  0  0  0  0
    2.7222   -1.7332   -0.7749 H   0  0  0  0  0  0  0  0  0  0  0  0
    4.7039   -0.9391    1.9729 H   0  0  0  0  0  0  0  0  0  0  0  0
    2.2937   -0.5372    0.6419 H   0  0  0  0  0  0  0  0  0  0  0  0
    2.1271   -2.1898    4.3394 H   0  0  0  0  0  0  0  0  0  0  0  0
    2.2087   -0.7420    3.4282 H   0  0  0  0  0  0  0  0  0  0  0  0
    3.6418   -1.2649    4.2477 H   0  0  0  0  0  0  0  0  0  0  0  0
    1.9518   -3.5498    0.9985 H   0  0  0  0  0  0  0  0  0  0  0  0
    1.3242   -1.9685    1.3751 H   0  0  0  0  0  0  0  0  0  0  0  0
    1.1579   -3.2130    2.5485 H   0  0  0  0  0  0  0  0  0  0  0  0
    6.1599   -3.8785    3.6515 H   0  0  0  0  0  0  0  0  0  0  0  0
    5.1247   -2.8234    4.5484 H   0  0  0  0  0  0  0  0  0  0  0  0
    5.8500   -2.2671    3.0923 H   0  0  0  0  0  0  0  0  0  0  0  0
    5.7697   -4.6820    1.6839 H   0  0  0  0  0  0  0  0  0  0  0  0
    3.2728   -4.9216    0.0689 H   0  0  0  0  0  0  0  0  0  0  0  0
    4.7950   -5.6345   -0.2482 H   0  0  0  0  0  0  0  0  0  0  0  0
    3.0135   -7.0960    0.8312 H   0  0  0  0  0  0  0  0  0  0  0  0
    5.3843   -9.6670    1.5731 H   0  0  0  0  0  0  0  0  0  0  0  0
    5.1947   -8.7409    0.0868 H   0  0  0  0  0  0  0  0  0  0  0  0
    3.7878   -9.2857    0.9672 H   0  0  0  0  0  0  0  0  0  0  0  0
    6.9132   -7.9903    2.2992 H   0  0  0  0  0  0  0  0  0  0  0  0
    6.4006   -6.3971    2.7829 H   0  0  0  0  0  0  0  0  0  0  0  0
    6.6570   -6.7549    1.0686 H   0  0  0  0  0  0  0  0  0  0  0  0
    3.4014   -8.5079    3.1662 H   0  0  0  0  0  0  0  0  0  0  0  0
    4.3809   -8.3928    4.8893 H   0  0  0  0  0  0  0  0  0  0  0  0
    4.6250   -5.2980    3.9119 H   0  0  0  0  0  0  0  0  0  0  0  0
    3.3764   -5.6832    5.5503 H   0  0  0  0  0  0  0  0  0  0  0  0
    3.0031   -2.9784    5.3462 H   0  0  0  0  0  0  0  0  0  0  0  0
    1.0709   -5.0831    6.0198 H   0  0  0  0  0  0  0  0  0  0  0  0
    0.8838   -4.3407    4.4544 H   0  0  0  0  0  0  0  0  0  0  0  0
    1.8075   -7.2072    4.9925 H   0  0  0  0  0  0  0  0  0  0  0  0
   -0.8657   -7.0351    5.1996 H   0  0  0  0  0  0  0  0  0  0  0  0
   -1.1035   -9.8854    2.9516 H   0  0  0  0  0  0  0  0  0  0  0  0
   -1.8974   -8.5870    2.0473 H   0  0  0  0  0  0  0  0  0  0  0  0
   -2.2164   -8.7961    3.7808 H   0  0  0  0  0  0  0  0  0  0  0  0
    1.4685   -8.8134    2.5818 H   0  0  0  0  0  0  0  0  0  0  0  0
    0.6561   -7.8368    1.3743 H   0  0  0  0  0  0  0  0  0  0  0  0
    1.3940   -4.7751    2.4326 H   0  0  0  0  0  0  0  0  0  0  0  0
  1  2  1  0
  1 33  1  0
  1 34  1  0
  1 35  1  0
  2  3  1  0
  3 13  1  0
  3  4  1  0
  3 36  1  6
  4  5  1  0
  4  6  1  0
  4 37  1  6
  5 38  1  0
  6  7  1  0
  6  8  1  0
  6 39  1  1
  7 40  1  0
  8  9  1  0
  8 10  1  0
  8 11  1  0
  9 41  1  0
  9 42  1  0
  9 43  1  0
 10 44  1  0
 10 45  1  0
 10 46  1  0
 11 22  1  0
 11 12  1  1
 11 13  1  0
 12 47  1  0
 12 48  1  0
 12 49  1  0
 13 14  1  0
 13 50  1  1
 14 15  1  0
 14 51  1  0
 14 52  1  0
 15 21  1  0
 15 16  1  0
 15 53  1  6
 16 17  1  0
 16 18  1  0
 16 19  1  0
 17 54  1  0
 17 55  1  0
 17 56  1  0
 18 57  1  0
 18 58  1  0
 18 59  1  0
 19 20  1  0
 19 21  1  0
 19 60  1  6
 20 61  1  0
 21 31  1  6
 21 22  1  0
 22 23  1  0
 22 62  1  1
 23 24  1  0
 23 25  1  0
 23 63  1  1
 24 64  1  0
 25 26  1  0
 25 65  1  0
 25 66  1  0
 26 31  1  0
 26 27  1  0
 26 67  1  1
 27 28  2  0
 27 68  1  0
 28 29  1  0
 28 30  1  0
 29 69  1  0
 29 70  1  0
 29 71  1  0
 30 31  1  0
 30 72  1  0
 30 73  1  0
 31 32  1  6
 32 74  1  0
M  END
>  <i_m_ct_stereo_status>  (9) 
1

>  <s_m_source_file>  (9) 
/var/tmp/pbs.5076255.sched01/tmppfua8s0c/0korcpw03.sdf

>  <i_m_source_file_index>  (9) 
3

>  <i_lp_mmshare_version>  (9) 
48012

>  <i_f3d_flags>  (9) 
0

>  <s_epik_input>  (9) 
W0NIM11PW0NAQEhdMVtDQEBIXShbT0hdKVtDQEBIXShbT0hdKUMoW0NIM10pKFtDSDNdKVtDQF0oW0NIM10pKFtDQEhdMVtDSDJdW0NASF0oW0NAQF0yMzQpQyhbQ0gzXSkoW0NIM10pW0NASF0yW09IXSlbQ0BIXTNbQ0BASF0oW09IXSlbQ0gyXVtDQEBIXTVbQ0BdNChbT0hdKVtDSDJdQyg9W0NIXTUpW0NIM10=

>  <s_epik_cmdline>  (9) 
J2VwaWtfcHl0aG9uJywgJy1waHQnLCAnMi4wJywgJy1waCcsICc3LjAnLCAnLXRuJywgJzgnLCAnLW1hJywgJzIwMCcsICctaW1hZScsICc8aW5maWxlLm1hZT4nLCAnLW9tYWUnLCAnPG91dGZpbGUubWFlPic=

>  <r_lp_tautomer_probability>  (9) 
1

>  <r_epik_Ionization_Penalty>  (9) 
4.11974e-06

>  <r_epik_Ionization_Penalty_Charging>  (9) 
0

>  <r_epik_Ionization_Penalty_Neutral>  (9) 
4.11974e-06

>  <r_epik_State_Penalty>  (9) 
-0

>  <r_epik_Charging_Adjusted_Penalty>  (9) 
0

>  <i_epik_Tot_Q>  (9) 
0

>  <i_epik_Tot_abs_Q>  (9) 
0

>  <s_lp_Force_Field>  (9) 
OPLS3e

>  <r_lp_Energy>  (9) 
92.2768

>  <b_lp_Chiralities_Consistent>  (9) 
1

>  <s_lp_Variant>  (9) 
2:0-1

>  <s_i_glide_gridfile>  (9) 
pfpi4k_grid

>  <i_i_glide_lignum>  (9) 
3

>  <i_i_glide_rotatable_bonds>  (9) 
6

>  <r_i_docking_score>  (9) 
-3.01471

>  <r_i_glide_ligand_efficiency>  (9) 
-0.0942096

>  <r_i_glide_ligand_efficiency_sa>  (9) 
-0.299097

>  <r_i_glide_ligand_efficiency_ln>  (9) 
-0.675075

>  <r_i_glide_gscore>  (9) 
-3.01471

>  <r_i_glide_lipo>  (9) 
-0.52131

>  <r_i_glide_hbond>  (9) 
-0.0873591

>  <r_i_glide_metal>  (9) 
-0

>  <r_i_glide_rewards>  (9) 
-0.336763

>  <r_i_glide_evdw>  (9) 
-21.2199

>  <r_i_glide_ecoul>  (9) 
-6.72188

>  <r_i_glide_erotb>  (9) 
0

>  <r_i_glide_esite>  (9) 
0

>  <r_i_glide_emodel>  (9) 
-33.6461

>  <r_i_glide_energy>  (9) 
-27.9417

>  <r_i_glide_einternal>  (9) 
2.69276

>  <r_i_glide_intrahb_reward>  (9) 
-0

>  <i_i_glide_confnum>  (9) 
2

>  <i_i_glide_posenum>  (9) 
27

>  <r_i_glide_eff_state_penalty>  (9) 
0

>  <ligand_id>  (9) 
2

>  <original_smiles>  (9) 
COC1C(O)C(O)C(C)(C)C2(C)C1CC1C(C)(C)C(O)C13C2C(O)CC1C=C(C)CC13O

>  <smiles>  (9) 
[H]OC1([H])C([H])(OC([H])([H])[H])C2([H])C([H])([H])C3([H])C(C([H])([H])[H])(C([H])([H])[H])C([H])(O[H])C34C([H])(C([H])(O[H])C([H])([H])C3([H])C([H])=C(C([H])([H])[H])C([H])([H])C34O[H])C2(C([H])([H])[H])C(C([H])([H])[H])(C([H])([H])[H])C1([H])O[H]

$$$$
4:0:0
     RDKit          3D

 52 55  0  0  1  0  0  0  0  0999 V2000
   -2.3619    3.1347    3.0590 C   0  0  0  0  0  0  0  0  0  0  0  0
   -1.4833    2.2235    3.9249 C   0  0  2  0  0  0  0  0  0  0  0  0
   -1.7329    2.4853    5.4202 C   0  0  0  0  0  0  0  0  0  0  0  0
   -2.6714    3.1791    5.8065 O   0  0  0  0  0  0  0  0  0  0  0  0
   -0.8038    1.8078    6.4369 C   0  0  0  0  0  0  0  0  0  0  0  0
    0.6863    1.7364    5.9765 C   0  0  2  0  0  0  0  0  0  0  0  0
    1.4122    3.1305    6.1841 C   0  0  0  0  0  0  0  0  0  0  0  0
    0.5510    4.2899    6.7754 C   0  0  0  0  0  0  0  0  0  0  0  0
    2.5210    3.0048    7.2619 C   0  0  0  0  0  0  0  0  0  0  0  0
    1.9289    3.6259    4.8077 C   0  0  1  0  0  0  0  0  0  0  0  0
    3.2926    3.0492    4.3717 C   0  0  0  0  0  0  0  0  0  0  0  0
    3.4029    1.5265    4.2244 C   0  0  1  0  0  0  0  0  0  0  0  0
    3.9985    0.9379    5.3583 O   0  0  0  0  0  0  0  0  0  0  0  0
    2.1210    0.7811    3.7826 C   0  0  2  0  0  0  0  0  0  0  0  0
    2.4992   -0.5894    3.9114 O   0  0  0  0  0  0  0  0  0  0  0  0
    1.8405    1.0705    2.2665 C   0  0  1  0  0  0  0  0  0  0  0  0
    2.1557   -0.0027    1.3894 O   0  0  0  0  0  0  0  0  0  0  0  0
    0.3826    1.5672    2.1445 C   0  0  1  0  0  0  0  0  0  0  0  0
   -0.4904    0.5481    1.6759 O   0  0  0  0  0  0  0  0  0  0  0  0
    0.0582    2.1377    3.5656 C   0  0  1  0  0  0  0  0  0  0  0  0
    0.8499    3.5164    3.6856 C   0  0  1  0  0  0  0  0  0  0  0  0
    0.0456    4.6732    3.6724 O   0  0  0  0  0  0  0  0  0  0  0  0
    0.7431    1.0984    4.5201 C   0  0  2  0  0  0  0  0  0  0  0  0
   -0.0201   -0.2812    4.6068 C   0  0  0  0  0  0  0  0  0  0  0  0
   -3.3911    2.7748    3.0344 H   0  0  0  0  0  0  0  0  0  0  0  0
   -1.9735    3.1114    2.0608 H   0  0  0  0  0  0  0  0  0  0  0  0
   -2.3835    4.1781    3.3714 H   0  0  0  0  0  0  0  0  0  0  0  0
   -1.8945    1.2397    3.7197 H   0  0  0  0  0  0  0  0  0  0  0  0
   -0.9029    2.3077    7.3984 H   0  0  0  0  0  0  0  0  0  0  0  0
   -1.1939    0.8108    6.6198 H   0  0  0  0  0  0  0  0  0  0  0  0
    1.1738    1.0214    6.6371 H   0  0  0  0  0  0  0  0  0  0  0  0
    1.1542    5.1953    6.8848 H   0  0  0  0  0  0  0  0  0  0  0  0
    0.1710    4.0638    7.7728 H   0  0  0  0  0  0  0  0  0  0  0  0
   -0.2957    4.5789    6.1564 H   0  0  0  0  0  0  0  0  0  0  0  0
    3.2170    3.8440    7.2227 H   0  0  0  0  0  0  0  0  0  0  0  0
    3.0933    2.0907    7.1960 H   0  0  0  0  0  0  0  0  0  0  0  0
    2.0915    2.9865    8.2641 H   0  0  0  0  0  0  0  0  0  0  0  0
    2.1564    4.6907    4.9119 H   0  0  0  0  0  0  0  0  0  0  0  0
    3.5383    3.4903    3.4078 H   0  0  0  0  0  0  0  0  0  0  0  0
    4.0851    3.3978    5.0341 H   0  0  0  0  0  0  0  0  0  0  0  0
    4.1535    1.3344    3.4606 H   0  0  0  0  0  0  0  0  0  0  0  0
    4.1142    0.0204    5.1456 H   0  0  0  0  0  0  0  0  0  0  0  0
    1.9169   -1.0754    3.3433 H   0  0  0  0  0  0  0  0  0  0  0  0
    2.4709    1.9036    1.9511 H   0  0  0  0  0  0  0  0  0  0  0  0
    1.5001   -0.0568    0.6983 H   0  0  0  0  0  0  0  0  0  0  0  0
    0.3180    2.3248    1.3766 H   0  0  0  0  0  0  0  0  0  0  0  0
   -0.5694    0.5820    0.7150 H   0  0  0  0  0  0  0  0  0  0  0  0
    1.4093    3.6865    2.7672 H   0  0  0  0  0  0  0  0  0  0  0  0
   -0.1591    4.8391    2.7531 H   0  0  0  0  0  0  0  0  0  0  0  0
    0.0323   -0.8558    3.6836 H   0  0  0  0  0  0  0  0  0  0  0  0
   -1.0785   -0.2304    4.8378 H   0  0  0  0  0  0  0  0  0  0  0  0
    0.4195   -0.9027    5.3886 H   0  0  0  0  0  0  0  0  0  0  0  0
  1  2  1  0
  1 25  1  0
  1 26  1  0
  1 27  1  0
  2 20  1  0
  2  3  1  0
  2 28  1  1
  3  4  2  0
  3  5  1  0
  5  6  1  0
  5 29  1  0
  5 30  1  0
  6 23  1  0
  6  7  1  0
  6 31  1  1
  7  8  1  0
  7  9  1  0
  7 10  1  0
  8 32  1  0
  8 33  1  0
  8 34  1  0
  9 35  1  0
  9 36  1  0
  9 37  1  0
 10 21  1  0
 10 11  1  0
 10 38  1  1
 11 12  1  0
 11 39  1  0
 11 40  1  0
 12 13  1  0
 12 14  1  0
 12 41  1  6
 13 42  1  0
 14 23  1  0
 14 15  1  6
 14 16  1  0
 15 43  1  0
 16 17  1  0
 16 18  1  0
 16 44  1  6
 17 45  1  0
 18 19  1  0
 18 20  1  0
 18 46  1  6
 19 47  1  0
 20 21  1  0
 20 23  1  1
 21 22  1  0
 21 48  1  6
 22 49  1  0
 23 24  1  1
 24 50  1  0
 24 51  1  0
 24 52  1  0
M  END
>  <i_m_ct_stereo_status>  (10) 
1

>  <s_m_source_file>  (10) 
/var/tmp/pbs.5076255.sched01/tmppfua8s0c/0korcpw03.sdf

>  <i_m_source_file_index>  (10) 
6

>  <i_lp_mmshare_version>  (10) 
48012

>  <i_f3d_flags>  (10) 
0

>  <s_epik_input>  (10) 
W0NIM11bQ0BASF0xQyg9TylbQ0gyXVtDQEBIXShbQ0BdMihbQ0BdMTM0KVtDSDNdKUMoW0NIM10pKFtDSDNdKVtDQEhdKFtDQEBIXTRbT0hdKVtDSDJdW0NAQEhdKFtPSF0pW0NAXTIoW09IXSlbQ0BASF0oW09IXSlbQ0BIXTNbT0hd

>  <s_epik_cmdline>  (10) 
J2VwaWtfcHl0aG9uJywgJy1waHQnLCAnMi4wJywgJy1waCcsICc3LjAnLCAnLXRuJywgJzgnLCAnLW1hJywgJzIwMCcsICctaW1hZScsICc8aW5maWxlLm1hZT4nLCAnLW9tYWUnLCAnPG91dGZpbGUubWFlPic=

>  <r_lp_tautomer_probability>  (10) 
1

>  <r_epik_Ionization_Penalty>  (10) 
5.30003e-07

>  <r_epik_Ionization_Penalty_Charging>  (10) 
0

>  <r_epik_Ionization_Penalty_Neutral>  (10) 
5.30003e-07

>  <r_epik_State_Penalty>  (10) 
-0

>  <r_epik_Charging_Adjusted_Penalty>  (10) 
0

>  <i_epik_Tot_Q>  (10) 
0

>  <i_epik_Tot_abs_Q>  (10) 
0

>  <s_lp_Force_Field>  (10) 
OPLS3e

>  <r_lp_Energy>  (10) 
76.1839

>  <b_lp_Chiralities_Consistent>  (10) 
1

>  <s_lp_Variant>  (10) 
4:0-1

>  <s_i_glide_gridfile>  (10) 
pfpi4k_grid

>  <i_i_glide_lignum>  (10) 
6

>  <i_i_glide_rotatable_bonds>  (10) 
5

>  <r_i_docking_score>  (10) 
-3.93758

>  <r_i_glide_ligand_efficiency>  (10) 
-0.164066

>  <r_i_glide_ligand_efficiency_sa>  (10) 
-0.473248

>  <r_i_glide_ligand_efficiency_ln>  (10) 
-0.942444

>  <r_i_glide_gscore>  (10) 
-3.93758

>  <r_i_glide_lipo>  (10) 
0

>  <r_i_glide_hbond>  (10) 
-0.134616

>  <r_i_glide_metal>  (10) 
-0

>  <r_i_glide_rewards>  (10) 
-1.12821

>  <r_i_glide_evdw>  (10) 
-18.2881

>  <r_i_glide_ecoul>  (10) 
-11.7357

>  <r_i_glide_erotb>  (10) 
0

>  <r_i_glide_esite>  (10) 
0

>  <r_i_glide_emodel>  (10) 
-37.3066

>  <r_i_glide_energy>  (10) 
-30.0238

>  <r_i_glide_einternal>  (10) 
3.41412

>  <r_i_glide_intrahb_reward>  (10) 
-0

>  <i_i_glide_confnum>  (10) 
2

>  <i_i_glide_posenum>  (10) 
6

>  <r_i_glide_eff_state_penalty>  (10) 
0

>  <ligand_id>  (10) 
4

>  <original_smiles>  (10) 
CC1C(=O)CC2C(C)(C)C3CC(O)C4(O)C(O)C(O)C1(C3O)C24C

>  <smiles>  (10) 
[H]OC1([H])C([H])([H])C2([H])C([H])(O[H])C34C([H])(O[H])C([H])(O[H])C1(O[H])C3(C([H])([H])[H])C([H])(C([H])([H])C(=O)C4([H])C([H])([H])[H])C2(C([H])([H])[H])C([H])([H])[H]

$$$$
4:0:1
     RDKit          3D

 52 55  0  0  1  0  0  0  0  0999 V2000
   -2.3815    3.1546    3.1146 C   0  0  0  0  0  0  0  0  0  0  0  0
   -1.4911    2.3322    4.0682 C   0  0  2  0  0  0  0  0  0  0  0  0
   -1.7552    2.6658    5.5525 C   0  0  0  0  0  0  0  0  0  0  0  0
   -2.7166    3.3469    5.9008 O   0  0  0  0  0  0  0  0  0  0  0  0
   -0.8066    2.0638    6.6107 C   0  0  0  0  0  0  0  0  0  0  0  0
    0.6880    2.0028    6.1594 C   0  0  2  0  0  0  0  0  0  0  0  0
    1.3805    3.4247    6.2858 C   0  0  0  0  0  0  0  0  0  0  0  0
    0.4932    4.5924    6.8151 C   0  0  0  0  0  0  0  0  0  0  0  0
    2.4922    3.3845    7.3682 C   0  0  0  0  0  0  0  0  0  0  0  0
    1.8872    3.8578    4.8828 C   0  0  1  0  0  0  0  0  0  0  0  0
    3.2630    3.2871    4.4683 C   0  0  0  0  0  0  0  0  0  0  0  0
    3.4088    1.7583    4.4255 C   0  0  1  0  0  0  0  0  0  0  0  0
    4.0081    1.2775    5.6089 O   0  0  0  0  0  0  0  0  0  0  0  0
    2.1409    0.9618    4.0228 C   0  0  2  0  0  0  0  0  0  0  0  0
    2.5383   -0.3969    4.1973 O   0  0  0  0  0  0  0  0  0  0  0  0
    1.8428    1.1717    2.4969 C   0  0  1  0  0  0  0  0  0  0  0  0
    2.1196    0.0381    1.6836 O   0  0  0  0  0  0  0  0  0  0  0  0
    0.3745    1.6342    2.3717 C   0  0  1  0  0  0  0  0  0  0  0  0
   -0.4934    0.5744    2.0234 O   0  0  0  0  0  0  0  0  0  0  0  0
    0.0523    2.2666    3.7443 C   0  0  1  0  0  0  0  0  0  0  0  0
    0.8084    3.6655    3.7723 C   0  0  1  0  0  0  0  0  0  0  0  0
   -0.0182    4.8015    3.6780 O   0  0  0  0  0  0  0  0  0  0  0  0
    0.7562    1.2881    4.7451 C   0  0  2  0  0  0  0  0  0  0  0  0
    0.0254   -0.1034    4.9121 C   0  0  0  0  0  0  0  0  0  0  0  0
   -3.4053    2.7847    3.1527 H   0  0  0  0  0  0  0  0  0  0  0  0
   -2.0458    3.0773    2.0876 H   0  0  0  0  0  0  0  0  0  0  0  0
   -2.4266    4.2094    3.3792 H   0  0  0  0  0  0  0  0  0  0  0  0
   -1.8846    1.3265    3.9359 H   0  0  0  0  0  0  0  0  0  0  0  0
   -0.9151    2.6118    7.5454 H   0  0  0  0  0  0  0  0  0  0  0  0
   -1.1706    1.0687    6.8563 H   0  0  0  0  0  0  0  0  0  0  0  0
    1.1926    1.3371    6.8578 H   0  0  0  0  0  0  0  0  0  0  0  0
    1.0747    5.5143    6.8752 H   0  0  0  0  0  0  0  0  0  0  0  0
    0.1208    4.4119    7.8235 H   0  0  0  0  0  0  0  0  0  0  0  0
   -0.3578    4.8242    6.1828 H   0  0  0  0  0  0  0  0  0  0  0  0
    3.1709    4.2341    7.2825 H   0  0  0  0  0  0  0  0  0  0  0  0
    3.0831    2.4816    7.3647 H   0  0  0  0  0  0  0  0  0  0  0  0
    2.0634    3.4091    8.3697 H   0  0  0  0  0  0  0  0  0  0  0  0
    2.0862    4.9328    4.9285 H   0  0  0  0  0  0  0  0  0  0  0  0
    3.4983    3.6762    3.4794 H   0  0  0  0  0  0  0  0  0  0  0  0
    4.0421    3.6996    5.1051 H   0  0  0  0  0  0  0  0  0  0  0  0
    4.1703    1.5292    3.6789 H   0  0  0  0  0  0  0  0  0  0  0  0
    4.8620    1.6809    5.6835 H   0  0  0  0  0  0  0  0  0  0  0  0
    1.9400   -0.9206    3.6734 H   0  0  0  0  0  0  0  0  0  0  0  0
    2.4651    1.9838    2.1127 H   0  0  0  0  0  0  0  0  0  0  0  0
    1.6517    0.1204    0.8590 H   0  0  0  0  0  0  0  0  0  0  0  0
    0.2701    2.3439    1.5577 H   0  0  0  0  0  0  0  0  0  0  0  0
   -0.5599    0.5479    1.0711 H   0  0  0  0  0  0  0  0  0  0  0  0
    1.3651    3.7867    2.8452 H   0  0  0  0  0  0  0  0  0  0  0  0
   -0.1832    4.9320    2.7403 H   0  0  0  0  0  0  0  0  0  0  0  0
    0.0907   -0.7317    4.0256 H   0  0  0  0  0  0  0  0  0  0  0  0
   -1.0348   -0.0654    5.1390 H   0  0  0  0  0  0  0  0  0  0  0  0
    0.4823   -0.6709    5.7248 H   0  0  0  0  0  0  0  0  0  0  0  0
  1  2  1  0
  1 25  1  0
  1 26  1  0
  1 27  1  0
  2 20  1  0
  2  3  1  0
  2 28  1  1
  3  4  2  0
  3  5  1  0
  5  6  1  0
  5 29  1  0
  5 30  1  0
  6 23  1  0
  6  7  1  0
  6 31  1  1
  7  8  1  0
  7  9  1  0
  7 10  1  0
  8 32  1  0
  8 33  1  0
  8 34  1  0
  9 35  1  0
  9 36  1  0
  9 37  1  0
 10 21  1  0
 10 11  1  0
 10 38  1  1
 11 12  1  0
 11 39  1  0
 11 40  1  0
 12 13  1  0
 12 14  1  0
 12 41  1  6
 13 42  1  0
 14 23  1  0
 14 15  1  6
 14 16  1  0
 15 43  1  0
 16 17  1  0
 16 18  1  0
 16 44  1  6
 17 45  1  0
 18 19  1  0
 18 20  1  0
 18 46  1  6
 19 47  1  0
 20 21  1  0
 20 23  1  1
 21 22  1  0
 21 48  1  6
 22 49  1  0
 23 24  1  1
 24 50  1  0
 24 51  1  0
 24 52  1  0
M  END
>  <i_m_ct_stereo_status>  (11) 
1

>  <s_m_source_file>  (11) 
/var/tmp/pbs.5076255.sched01/tmppfua8s0c/0korcpw03.sdf

>  <i_m_source_file_index>  (11) 
6

>  <i_lp_mmshare_version>  (11) 
48012

>  <i_f3d_flags>  (11) 
0

>  <s_epik_input>  (11) 
W0NIM11bQ0BASF0xQyg9TylbQ0gyXVtDQEBIXShbQ0BdMihbQ0BdMTM0KVtDSDNdKUMoW0NIM10pKFtDSDNdKVtDQEhdKFtDQEBIXTRbT0hdKVtDSDJdW0NAQEhdKFtPSF0pW0NAXTIoW09IXSlbQ0BASF0oW09IXSlbQ0BIXTNbT0hd

>  <s_epik_cmdline>  (11) 
J2VwaWtfcHl0aG9uJywgJy1waHQnLCAnMi4wJywgJy1waCcsICc3LjAnLCAnLXRuJywgJzgnLCAnLW1hJywgJzIwMCcsICctaW1hZScsICc8aW5maWxlLm1hZT4nLCAnLW9tYWUnLCAnPG91dGZpbGUubWFlPic=

>  <r_lp_tautomer_probability>  (11) 
1

>  <r_epik_Ionization_Penalty>  (11) 
5.30003e-07

>  <r_epik_Ionization_Penalty_Charging>  (11) 
0

>  <r_epik_Ionization_Penalty_Neutral>  (11) 
5.30003e-07

>  <r_epik_State_Penalty>  (11) 
-0

>  <r_epik_Charging_Adjusted_Penalty>  (11) 
0

>  <i_epik_Tot_Q>  (11) 
0

>  <i_epik_Tot_abs_Q>  (11) 
0

>  <s_lp_Force_Field>  (11) 
OPLS3e

>  <r_lp_Energy>  (11) 
76.1839

>  <b_lp_Chiralities_Consistent>  (11) 
1

>  <s_lp_Variant>  (11) 
4:0-1

>  <s_i_glide_gridfile>  (11) 
pfpi4k_grid

>  <i_i_glide_lignum>  (11) 
6

>  <i_i_glide_rotatable_bonds>  (11) 
5

>  <r_i_docking_score>  (11) 
-3.57554

>  <r_i_glide_ligand_efficiency>  (11) 
-0.148981

>  <r_i_glide_ligand_efficiency_sa>  (11) 
-0.429736

>  <r_i_glide_ligand_efficiency_ln>  (11) 
-0.855792

>  <r_i_glide_gscore>  (11) 
-3.57554

>  <r_i_glide_lipo>  (11) 
0

>  <r_i_glide_hbond>  (11) 
-0.133007

>  <r_i_glide_metal>  (11) 
-0

>  <r_i_glide_rewards>  (11) 
-1.15463

>  <r_i_glide_evdw>  (11) 
-22.0683

>  <r_i_glide_ecoul>  (11) 
-7.8966

>  <r_i_glide_erotb>  (11) 
0

>  <r_i_glide_esite>  (11) 
0

>  <r_i_glide_emodel>  (11) 
-36.6075

>  <r_i_glide_energy>  (11) 
-29.9649

>  <r_i_glide_einternal>  (11) 
3.32712

>  <r_i_glide_intrahb_reward>  (11) 
-0

>  <i_i_glide_confnum>  (11) 
1

>  <i_i_glide_posenum>  (11) 
18

>  <r_i_glide_eff_state_penalty>  (11) 
0

>  <ligand_id>  (11) 
4

>  <original_smiles>  (11) 
CC1C(=O)CC2C(C)(C)C3CC(O)C4(O)C(O)C(O)C1(C3O)C24C

>  <smiles>  (11) 
[H]OC1([H])C([H])([H])C2([H])C([H])(O[H])C34C([H])(O[H])C([H])(O[H])C1(O[H])C3(C([H])([H])[H])C([H])(C([H])([H])C(=O)C4([H])C([H])([H])[H])C2(C([H])([H])[H])C([H])([H])[H]

$$$$
4:0:2
     RDKit          3D

 52 55  0  0  1  0  0  0  0  0999 V2000
   -2.3935    3.1503    3.1171 C   0  0  0  0  0  0  0  0  0  0  0  0
   -1.4945    2.3489    4.0795 C   0  0  2  0  0  0  0  0  0  0  0  0
   -1.7608    2.6903    5.5588 C   0  0  0  0  0  0  0  0  0  0  0  0
   -2.7406    3.3473    5.9010 O   0  0  0  0  0  0  0  0  0  0  0  0
   -0.8034    2.1153    6.6225 C   0  0  0  0  0  0  0  0  0  0  0  0
    0.6905    2.0636    6.1703 C   0  0  2  0  0  0  0  0  0  0  0  0
    1.3747    3.4923    6.2788 C   0  0  0  0  0  0  0  0  0  0  0  0
    0.4735    4.6584    6.7937 C   0  0  0  0  0  0  0  0  0  0  0  0
    2.4898    3.4743    7.3586 C   0  0  0  0  0  0  0  0  0  0  0  0
    1.8753    3.9137    4.8713 C   0  0  1  0  0  0  0  0  0  0  0  0
    3.2546    3.3507    4.4647 C   0  0  0  0  0  0  0  0  0  0  0  0
    3.4147    1.8238    4.4248 C   0  0  1  0  0  0  0  0  0  0  0  0
    4.0538    1.3445    5.5883 O   0  0  0  0  0  0  0  0  0  0  0  0
    2.1482    1.0099    4.0387 C   0  0  2  0  0  0  0  0  0  0  0  0
    2.5667   -0.3390    4.2369 O   0  0  0  0  0  0  0  0  0  0  0  0
    1.8503    1.2069    2.5070 C   0  0  1  0  0  0  0  0  0  0  0  0
    2.1825    0.0959    1.6864 O   0  0  0  0  0  0  0  0  0  0  0  0
    0.3751    1.6505    2.3814 C   0  0  1  0  0  0  0  0  0  0  0  0
   -0.4870    0.5802    2.0387 O   0  0  0  0  0  0  0  0  0  0  0  0
    0.0499    2.2935    3.7508 C   0  0  1  0  0  0  0  0  0  0  0  0
    0.7969    3.6998    3.7665 C   0  0  1  0  0  0  0  0  0  0  0  0
   -0.0454    4.8300    3.6716 O   0  0  0  0  0  0  0  0  0  0  0  0
    0.7643    1.3343    4.7629 C   0  0  2  0  0  0  0  0  0  0  0  0
    0.0479   -0.0635    4.9470 C   0  0  0  0  0  0  0  0  0  0  0  0
   -3.4132    2.7701    3.1582 H   0  0  0  0  0  0  0  0  0  0  0  0
   -2.0618    3.0650    2.0808 H   0  0  0  0  0  0  0  0  0  0  0  0
   -2.4478    4.2069    3.3645 H   0  0  0  0  0  0  0  0  0  0  0  0
   -1.8747    1.3385    3.9538 H   0  0  0  0  0  0  0  0  0  0  0  0
   -0.9141    2.6747    7.5461 H   0  0  0  0  0  0  0  0  0  0  0  0
   -1.1521    1.1194    6.8831 H   0  0  0  0  0  0  0  0  0  0  0  0
    1.1994    1.4101    6.8790 H   0  0  0  0  0  0  0  0  0  0  0  0
    1.0429    5.5897    6.8408 H   0  0  0  0  0  0  0  0  0  0  0  0
    0.1025    4.4893    7.8051 H   0  0  0  0  0  0  0  0  0  0  0  0
   -0.3846    4.8732    6.1610 H   0  0  0  0  0  0  0  0  0  0  0  0
    3.1550    4.3342    7.2617 H   0  0  0  0  0  0  0  0  0  0  0  0
    3.0965    2.5802    7.3612 H   0  0  0  0  0  0  0  0  0  0  0  0
    2.0593    3.5136    8.3596 H   0  0  0  0  0  0  0  0  0  0  0  0
    2.0662    4.9932    4.9023 H   0  0  0  0  0  0  0  0  0  0  0  0
    3.4848    3.7324    3.4690 H   0  0  0  0  0  0  0  0  0  0  0  0
    4.0379    3.7736    5.0942 H   0  0  0  0  0  0  0  0  0  0  0  0
    4.1705    1.6110    3.6745 H   0  0  0  0  0  0  0  0  0  0  0  0
    3.4635    1.4473    6.3163 H   0  0  0  0  0  0  0  0  0  0  0  0
    3.2783   -0.4899    3.6350 H   0  0  0  0  0  0  0  0  0  0  0  0
    2.4569    2.0316    2.1223 H   0  0  0  0  0  0  0  0  0  0  0  0
    1.6782    0.1373    0.8812 H   0  0  0  0  0  0  0  0  0  0  0  0
    0.2645    2.3554    1.5642 H   0  0  0  0  0  0  0  0  0  0  0  0
   -0.5657    0.5629    1.0883 H   0  0  0  0  0  0  0  0  0  0  0  0
    1.3459    3.8205    2.8340 H   0  0  0  0  0  0  0  0  0  0  0  0
   -0.1883    4.9681    2.7367 H   0  0  0  0  0  0  0  0  0  0  0  0
    0.1276   -0.7001    4.0664 H   0  0  0  0  0  0  0  0  0  0  0  0
   -1.0127   -0.0360    5.1713 H   0  0  0  0  0  0  0  0  0  0  0  0
    0.5127   -0.6172    5.7647 H   0  0  0  0  0  0  0  0  0  0  0  0
  1  2  1  0
  1 25  1  0
  1 26  1  0
  1 27  1  0
  2 20  1  0
  2  3  1  0
  2 28  1  1
  3  4  2  0
  3  5  1  0
  5  6  1  0
  5 29  1  0
  5 30  1  0
  6 23  1  0
  6  7  1  0
  6 31  1  1
  7  8  1  0
  7  9  1  0
  7 10  1  0
  8 32  1  0
  8 33  1  0
  8 34  1  0
  9 35  1  0
  9 36  1  0
  9 37  1  0
 10 21  1  0
 10 11  1  0
 10 38  1  1
 11 12  1  0
 11 39  1  0
 11 40  1  0
 12 13  1  0
 12 14  1  0
 12 41  1  6
 13 42  1  0
 14 23  1  0
 14 15  1  6
 14 16  1  0
 15 43  1  0
 16 17  1  0
 16 18  1  0
 16 44  1  6
 17 45  1  0
 18 19  1  0
 18 20  1  0
 18 46  1  6
 19 47  1  0
 20 21  1  0
 20 23  1  1
 21 22  1  0
 21 48  1  6
 22 49  1  0
 23 24  1  1
 24 50  1  0
 24 51  1  0
 24 52  1  0
M  END
>  <i_m_ct_stereo_status>  (12) 
1

>  <s_m_source_file>  (12) 
/var/tmp/pbs.5076255.sched01/tmppfua8s0c/0korcpw03.sdf

>  <i_m_source_file_index>  (12) 
6

>  <i_lp_mmshare_version>  (12) 
48012

>  <i_f3d_flags>  (12) 
0

>  <s_epik_input>  (12) 
W0NIM11bQ0BASF0xQyg9TylbQ0gyXVtDQEBIXShbQ0BdMihbQ0BdMTM0KVtDSDNdKUMoW0NIM10pKFtDSDNdKVtDQEhdKFtDQEBIXTRbT0hdKVtDSDJdW0NAQEhdKFtPSF0pW0NAXTIoW09IXSlbQ0BASF0oW09IXSlbQ0BIXTNbT0hd

>  <s_epik_cmdline>  (12) 
J2VwaWtfcHl0aG9uJywgJy1waHQnLCAnMi4wJywgJy1waCcsICc3LjAnLCAnLXRuJywgJzgnLCAnLW1hJywgJzIwMCcsICctaW1hZScsICc8aW5maWxlLm1hZT4nLCAnLW9tYWUnLCAnPG91dGZpbGUubWFlPic=

>  <r_lp_tautomer_probability>  (12) 
1

>  <r_epik_Ionization_Penalty>  (12) 
5.30003e-07

>  <r_epik_Ionization_Penalty_Charging>  (12) 
0

>  <r_epik_Ionization_Penalty_Neutral>  (12) 
5.30003e-07

>  <r_epik_State_Penalty>  (12) 
-0

>  <r_epik_Charging_Adjusted_Penalty>  (12) 
0

>  <i_epik_Tot_Q>  (12) 
0

>  <i_epik_Tot_abs_Q>  (12) 
0

>  <s_lp_Force_Field>  (12) 
OPLS3e

>  <r_lp_Energy>  (12) 
76.1839

>  <b_lp_Chiralities_Consistent>  (12) 
1

>  <s_lp_Variant>  (12) 
4:0-1

>  <s_i_glide_gridfile>  (12) 
pfpi4k_grid

>  <i_i_glide_lignum>  (12) 
6

>  <i_i_glide_rotatable_bonds>  (12) 
5

>  <r_i_docking_score>  (12) 
-3.51938

>  <r_i_glide_ligand_efficiency>  (12) 
-0.146641

>  <r_i_glide_ligand_efficiency_sa>  (12) 
-0.422986

>  <r_i_glide_ligand_efficiency_ln>  (12) 
-0.84235

>  <r_i_glide_gscore>  (12) 
-3.51938

>  <r_i_glide_lipo>  (12) 
0

>  <r_i_glide_hbond>  (12) 
-0.130908

>  <r_i_glide_metal>  (12) 
-0

>  <r_i_glide_rewards>  (12) 
-1.15209

>  <r_i_glide_evdw>  (12) 
-22.1405

>  <r_i_glide_ecoul>  (12) 
-7.52908

>  <r_i_glide_erotb>  (12) 
0

>  <r_i_glide_esite>  (12) 
0

>  <r_i_glide_emodel>  (12) 
-36.4313

>  <r_i_glide_energy>  (12) 
-29.6695

>  <r_i_glide_einternal>  (12) 
2.93467

>  <r_i_glide_intrahb_reward>  (12) 
-0

>  <i_i_glide_confnum>  (12) 
1

>  <i_i_glide_posenum>  (12) 
11

>  <r_i_glide_eff_state_penalty>  (12) 
0

>  <ligand_id>  (12) 
4

>  <original_smiles>  (12) 
CC1C(=O)CC2C(C)(C)C3CC(O)C4(O)C(O)C(O)C1(C3O)C24C

>  <smiles>  (12) 
[H]OC1([H])C([H])([H])C2([H])C([H])(O[H])C34C([H])(O[H])C([H])(O[H])C1(O[H])C3(C([H])([H])[H])C([H])(C([H])([H])C(=O)C4([H])C([H])([H])[H])C2(C([H])([H])[H])C([H])([H])[H]

$$$$
5:0:0
     RDKit          3D

 28 30  0  0  1  0  0  0  0  0999 V2000
   -7.3727   -4.6067   -4.7601 C   0  0  0  0  0  0  0  0  0  0  0  0
   -6.5957   -5.7603   -4.5755 C   0  0  0  0  0  0  0  0  0  0  0  0
   -6.6465   -6.8280   -5.4913 C   0  0  0  0  0  0  0  0  0  0  0  0
   -7.4783   -6.7275   -6.6323 C   0  0  0  0  0  0  0  0  0  0  0  0
   -8.2223   -5.5821   -6.8266 C   0  0  0  0  0  0  0  0  0  0  0  0
   -8.2018   -4.4748   -5.9101 C   0  0  0  0  0  0  0  0  0  0  0  0
   -8.9882   -5.7352   -8.1142 C   0  0  0  0  0  0  0  0  0  0  0  0
   -8.8060   -7.1105   -8.4965 O   0  0  0  0  0  0  0  0  0  0  0  0
   -7.7566   -7.7252   -7.7679 C   0  0  2  0  0  0  0  0  0  0  0  0
   -8.2137   -9.1405   -7.3453 C   0  0  0  0  0  0  0  0  0  0  0  0
   -7.0872   -9.8653   -6.5603 C   0  0  0  0  0  0  0  0  0  0  0  0
   -5.7664   -9.7819   -7.3559 C   0  0  0  0  0  0  0  0  0  0  0  0
   -5.4333   -8.3979   -7.9383 C   0  0  0  0  0  0  0  0  0  0  0  0
   -6.6127   -7.8789   -8.5593 O   0  0  0  0  0  0  0  0  0  0  0  0
   -7.3191   -3.8021   -4.0425 H   0  0  0  0  0  0  0  0  0  0  0  0
   -5.9852   -5.8994   -3.7186 H   0  0  0  0  0  0  0  0  0  0  0  0
   -6.0255   -7.6847   -5.2900 H   0  0  0  0  0  0  0  0  0  0  0  0
   -8.8040   -3.5693   -6.1072 H   0  0  0  0  0  0  0  0  0  0  0  0
  -10.0560   -5.5422   -7.9744 H   0  0  0  0  0  0  0  0  0  0  0  0
   -8.5887   -5.0559   -8.8775 H   0  0  0  0  0  0  0  0  0  0  0  0
   -9.1329   -9.0595   -6.7667 H   0  0  0  0  0  0  0  0  0  0  0  0
   -8.4688   -9.6796   -8.2585 H   0  0  0  0  0  0  0  0  0  0  0  0
   -7.0166   -9.4563   -5.5488 H   0  0  0  0  0  0  0  0  0  0  0  0
   -7.3683  -10.9111   -6.4156 H   0  0  0  0  0  0  0  0  0  0  0  0
   -4.9458  -10.1085   -6.7537 H   0  0  0  0  0  0  0  0  0  0  0  0
   -5.8315  -10.4774   -8.1819 H   0  0  0  0  0  0  0  0  0  0  0  0
   -5.0104   -7.6890   -7.2390 H   0  0  0  0  0  0  0  0  0  0  0  0
   -4.6660   -8.4532   -8.7242 H   0  0  0  0  0  0  0  0  0  0  0  0
  1  6  2  0
  1  2  1  0
  1 15  1  0
  2  3  2  0
  2 16  1  0
  3  4  1  0
  3 17  1  0
  4  9  1  0
  4  5  2  0
  5  6  1  0
  5  7  1  0
  6 18  1  0
  7  8  1  0
  7 19  1  0
  7 20  1  0
  9  8  1  6
  9 14  1  0
  9 10  1  0
 10 11  1  0
 10 21  1  0
 10 22  1  0
 11 12  1  0
 11 23  1  0
 11 24  1  0
 12 13  1  0
 12 25  1  0
 12 26  1  0
 13 14  1  0
 13 27  1  0
 13 28  1  0
M  END
>  <i_m_ct_stereo_status>  (13) 
1

>  <s_m_source_file>  (13) 
/var/tmp/pbs.5076255.sched01/tmppfua8s0c/0korcpw03.sdf

>  <i_m_source_file_index>  (13) 
7

>  <i_lp_mmshare_version>  (13) 
48012

>  <i_f3d_flags>  (13) 
0

>  <s_epik_input>  (13) 
W2NIXTFbY0hdW2NIXVtjSF1jKFtDSDJdTzIpYzFbQ0BAXTIzW0NIMl1bQ0gyXVtDSDJdW0NIMl1PMw==

>  <s_epik_cmdline>  (13) 
J2VwaWtfcHl0aG9uJywgJy1waHQnLCAnMi4wJywgJy1waCcsICc3LjAnLCAnLXRuJywgJzgnLCAnLW1hJywgJzIwMCcsICctaW1hZScsICc8aW5maWxlLm1hZT4nLCAnLW9tYWUnLCAnPG91dGZpbGUubWFlPic=

>  <r_lp_tautomer_probability>  (13) 
1

>  <r_epik_Ionization_Penalty>  (13) 
1.87997e-13

>  <r_epik_Ionization_Penalty_Charging>  (13) 
0

>  <r_epik_Ionization_Penalty_Neutral>  (13) 
1.87997e-13

>  <r_epik_State_Penalty>  (13) 
-0

>  <r_epik_Charging_Adjusted_Penalty>  (13) 
0

>  <i_epik_Tot_Q>  (13) 
0

>  <i_epik_Tot_abs_Q>  (13) 
0

>  <s_lp_Force_Field>  (13) 
OPLS3e

>  <r_lp_Energy>  (13) 
9.2999

>  <b_lp_Chiralities_Consistent>  (13) 
1

>  <s_lp_Variant>  (13) 
5:0-1

>  <s_i_glide_gridfile>  (13) 
pfpi4k_grid

>  <i_i_glide_lignum>  (13) 
7

>  <i_i_glide_rotatable_bonds>  (13) 
0

>  <r_i_docking_score>  (13) 
-6.49203

>  <r_i_glide_ligand_efficiency>  (13) 
-0.463717

>  <r_i_glide_ligand_efficiency_sa>  (13) 
-1.11762

>  <r_i_glide_ligand_efficiency_ln>  (13) 
-1.78399

>  <r_i_glide_gscore>  (13) 
-6.49203

>  <r_i_glide_lipo>  (13) 
-2.44252

>  <r_i_glide_hbond>  (13) 
0

>  <r_i_glide_metal>  (13) 
-0

>  <r_i_glide_rewards>  (13) 
-3.07084

>  <r_i_glide_evdw>  (13) 
-20.7473

>  <r_i_glide_ecoul>  (13) 
0.391281

>  <r_i_glide_erotb>  (13) 
0

>  <r_i_glide_esite>  (13) 
0

>  <r_i_glide_emodel>  (13) 
-27.4313

>  <r_i_glide_energy>  (13) 
-20.356

>  <r_i_glide_einternal>  (13) 
0

>  <r_i_glide_intrahb_reward>  (13) 
-0

>  <i_i_glide_confnum>  (13) 
2

>  <i_i_glide_posenum>  (13) 
6

>  <r_i_glide_eff_state_penalty>  (13) 
0

>  <ligand_id>  (13) 
5

>  <original_smiles>  (13) 
c1ccc2c(c1)COC21CCCCO1

>  <smiles>  (13) 
[H]c1c([H])c([H])c2c(c1[H])C([H])([H])OC21OC([H])([H])C([H])([H])C([H])([H])C1([H])[H]

$$$$
5:0:1
     RDKit          3D

 28 30  0  0  1  0  0  0  0  0999 V2000
   -8.5693   -4.0817   -5.8890 C   0  0  0  0  0  0  0  0  0  0  0  0
   -7.8220   -5.0120   -5.1078 C   0  0  0  0  0  0  0  0  0  0  0  0
   -7.3927   -6.2219   -5.6353 C   0  0  0  0  0  0  0  0  0  0  0  0
   -7.7439   -6.5470   -6.9718 C   0  0  0  0  0  0  0  0  0  0  0  0
   -8.4425   -5.6277   -7.7290 C   0  0  0  0  0  0  0  0  0  0  0  0
   -8.8731   -4.3720   -7.2323 C   0  0  0  0  0  0  0  0  0  0  0  0
   -8.5973   -6.2293   -9.1127 C   0  0  0  0  0  0  0  0  0  0  0  0
   -8.1711   -7.5752   -9.0070 O   0  0  0  0  0  0  0  0  0  0  0  0
   -7.4455   -7.7966   -7.8165 C   0  0  2  0  0  0  0  0  0  0  0  0
   -7.9030   -9.1497   -7.2172 C   0  0  0  0  0  0  0  0  0  0  0  0
   -7.0981   -9.5054   -5.9616 C   0  0  0  0  0  0  0  0  0  0  0  0
   -5.6012   -9.3667   -6.2008 C   0  0  0  0  0  0  0  0  0  0  0  0
   -5.2572   -8.0580   -6.9506 C   0  0  0  0  0  0  0  0  0  0  0  0
   -6.0953   -7.8704   -8.0751 O   0  0  0  0  0  0  0  0  0  0  0  0
   -8.8557   -3.1350   -5.4227 H   0  0  0  0  0  0  0  0  0  0  0  0
   -7.5761   -4.8164   -4.0748 H   0  0  0  0  0  0  0  0  0  0  0  0
   -6.8221   -6.8864   -4.9929 H   0  0  0  0  0  0  0  0  0  0  0  0
   -9.3938   -3.6606   -7.8672 H   0  0  0  0  0  0  0  0  0  0  0  0
   -9.6487   -6.2052   -9.4344 H   0  0  0  0  0  0  0  0  0  0  0  0
   -7.9849   -5.6671   -9.8452 H   0  0  0  0  0  0  0  0  0  0  0  0
   -8.9736   -9.1050   -7.0358 H   0  0  0  0  0  0  0  0  0  0  0  0
   -7.7717   -9.9104   -7.9902 H   0  0  0  0  0  0  0  0  0  0  0  0
   -7.3695   -8.8187   -5.1370 H   0  0  0  0  0  0  0  0  0  0  0  0
   -7.3438  -10.5206   -5.6393 H   0  0  0  0  0  0  0  0  0  0  0  0
   -5.0535   -9.3643   -5.2553 H   0  0  0  0  0  0  0  0  0  0  0  0
   -5.2351  -10.2210   -6.7693 H   0  0  0  0  0  0  0  0  0  0  0  0
   -5.1423   -7.1550   -6.3331 H   0  0  0  0  0  0  0  0  0  0  0  0
   -4.2784   -8.1478   -7.3547 H   0  0  0  0  0  0  0  0  0  0  0  0
  1  6  2  0
  1  2  1  0
  1 15  1  0
  2  3  2  0
  2 16  1  0
  3  4  1  0
  3 17  1  0
  4  9  1  0
  4  5  2  0
  5  6  1  0
  5  7  1  0
  6 18  1  0
  7  8  1  0
  7 19  1  0
  7 20  1  0
  9  8  1  6
  9 14  1  0
  9 10  1  0
 10 11  1  0
 10 21  1  0
 10 22  1  0
 11 12  1  0
 11 23  1  0
 11 24  1  0
 12 13  1  0
 12 25  1  0
 12 26  1  0
 13 14  1  0
 13 27  1  0
 13 28  1  0
M  END
>  <i_m_ct_stereo_status>  (14) 
1

>  <s_m_source_file>  (14) 
/var/tmp/pbs.5076255.sched01/tmppfua8s0c/0korcpw03.sdf

>  <i_m_source_file_index>  (14) 
7

>  <i_lp_mmshare_version>  (14) 
48012

>  <i_f3d_flags>  (14) 
0

>  <s_epik_input>  (14) 
W2NIXTFbY0hdW2NIXVtjSF1jKFtDSDJdTzIpYzFbQ0BAXTIzW0NIMl1bQ0gyXVtDSDJdW0NIMl1PMw==

>  <s_epik_cmdline>  (14) 
J2VwaWtfcHl0aG9uJywgJy1waHQnLCAnMi4wJywgJy1waCcsICc3LjAnLCAnLXRuJywgJzgnLCAnLW1hJywgJzIwMCcsICctaW1hZScsICc8aW5maWxlLm1hZT4nLCAnLW9tYWUnLCAnPG91dGZpbGUubWFlPic=

>  <r_lp_tautomer_probability>  (14) 
1

>  <r_epik_Ionization_Penalty>  (14) 
1.87997e-13

>  <r_epik_Ionization_Penalty_Charging>  (14) 
0

>  <r_epik_Ionization_Penalty_Neutral>  (14) 
1.87997e-13

>  <r_epik_State_Penalty>  (14) 
-0

>  <r_epik_Charging_Adjusted_Penalty>  (14) 
0

>  <i_epik_Tot_Q>  (14) 
0

>  <i_epik_Tot_abs_Q>  (14) 
0

>  <s_lp_Force_Field>  (14) 
OPLS3e

>  <r_lp_Energy>  (14) 
9.2999

>  <b_lp_Chiralities_Consistent>  (14) 
1

>  <s_lp_Variant>  (14) 
5:0-1

>  <s_i_glide_gridfile>  (14) 
pfpi4k_grid

>  <i_i_glide_lignum>  (14) 
7

>  <i_i_glide_rotatable_bonds>  (14) 
0

>  <r_i_docking_score>  (14) 
-6.27754

>  <r_i_glide_ligand_efficiency>  (14) 
-0.448396

>  <r_i_glide_ligand_efficiency_sa>  (14) 
-1.0807

>  <r_i_glide_ligand_efficiency_ln>  (14) 
-1.72505

>  <r_i_glide_gscore>  (14) 
-6.27754

>  <r_i_glide_lipo>  (14) 
-2.38783

>  <r_i_glide_hbond>  (14) 
0

>  <r_i_glide_metal>  (14) 
-0

>  <r_i_glide_rewards>  (14) 
-2.98284

>  <r_i_glide_evdw>  (14) 
-19.5211

>  <r_i_glide_ecoul>  (14) 
0.461199

>  <r_i_glide_erotb>  (14) 
0

>  <r_i_glide_esite>  (14) 
0

>  <r_i_glide_emodel>  (14) 
-25.9833

>  <r_i_glide_energy>  (14) 
-19.0599

>  <r_i_glide_einternal>  (14) 
0

>  <r_i_glide_intrahb_reward>  (14) 
-0

>  <i_i_glide_confnum>  (14) 
4

>  <i_i_glide_posenum>  (14) 
37

>  <r_i_glide_eff_state_penalty>  (14) 
0

>  <ligand_id>  (14) 
5

>  <original_smiles>  (14) 
c1ccc2c(c1)COC21CCCCO1

>  <smiles>  (14) 
[H]c1c([H])c([H])c2c(c1[H])C([H])([H])OC21OC([H])([H])C([H])([H])C([H])([H])C1([H])[H]

$$$$
5:0:2
     RDKit          3D

 28 30  0  0  1  0  0  0  0  0999 V2000
   -6.9710   -4.7232   -4.6064 C   0  0  0  0  0  0  0  0  0  0  0  0
   -6.1934   -5.8613   -4.9412 C   0  0  0  0  0  0  0  0  0  0  0  0
   -6.5731   -6.7018   -6.0146 C   0  0  0  0  0  0  0  0  0  0  0  0
   -7.7308   -6.3775   -6.7370 C   0  0  0  0  0  0  0  0  0  0  0  0
   -8.4837   -5.2699   -6.4047 C   0  0  0  0  0  0  0  0  0  0  0  0
   -8.1390   -4.4116   -5.3414 C   0  0  0  0  0  0  0  0  0  0  0  0
   -9.6563   -5.2148   -7.3208 C   0  0  0  0  0  0  0  0  0  0  0  0
   -9.6398   -6.4661   -8.0272 O   0  0  0  0  0  0  0  0  0  0  0  0
   -8.3822   -7.1016   -7.8881 C   0  0  2  0  0  0  0  0  0  0  0  0
   -8.5541   -8.6079   -7.5758 C   0  0  0  0  0  0  0  0  0  0  0  0
   -9.1028   -9.3680   -8.7797 C   0  0  0  0  0  0  0  0  0  0  0  0
   -8.2218   -9.0976   -9.9932 C   0  0  0  0  0  0  0  0  0  0  0  0
   -8.0746   -7.5800  -10.1937 C   0  0  0  0  0  0  0  0  0  0  0  0
   -7.5738   -6.9518   -9.0152 O   0  0  0  0  0  0  0  0  0  0  0  0
   -6.6705   -4.0907   -3.7795 H   0  0  0  0  0  0  0  0  0  0  0  0
   -5.3108   -6.0999   -4.3709 H   0  0  0  0  0  0  0  0  0  0  0  0
   -5.9913   -7.5759   -6.2767 H   0  0  0  0  0  0  0  0  0  0  0  0
   -8.7514   -3.5581   -5.0847 H   0  0  0  0  0  0  0  0  0  0  0  0
  -10.5841   -5.1259   -6.7575 H   0  0  0  0  0  0  0  0  0  0  0  0
   -9.5489   -4.3637   -7.9953 H   0  0  0  0  0  0  0  0  0  0  0  0
   -7.5736   -9.0046   -7.3101 H   0  0  0  0  0  0  0  0  0  0  0  0
   -9.2110   -8.7516   -6.7288 H   0  0  0  0  0  0  0  0  0  0  0  0
   -9.1141  -10.4367   -8.5595 H   0  0  0  0  0  0  0  0  0  0  0  0
  -10.1365   -9.0716   -8.9730 H   0  0  0  0  0  0  0  0  0  0  0  0
   -7.2427   -9.5598   -9.8537 H   0  0  0  0  0  0  0  0  0  0  0  0
   -8.6564   -9.5619  -10.8771 H   0  0  0  0  0  0  0  0  0  0  0  0
   -7.3830   -7.3883  -11.0119 H   0  0  0  0  0  0  0  0  0  0  0  0
   -9.0306   -7.1366  -10.4752 H   0  0  0  0  0  0  0  0  0  0  0  0
  1  6  2  0
  1  2  1  0
  1 15  1  0
  2  3  2  0
  2 16  1  0
  3  4  1  0
  3 17  1  0
  4  9  1  0
  4  5  2  0
  5  6  1  0
  5  7  1  0
  6 18  1  0
  7  8  1  0
  7 19  1  0
  7 20  1  0
  9  8  1  6
  9 14  1  0
  9 10  1  0
 10 11  1  0
 10 21  1  0
 10 22  1  0
 11 12  1  0
 11 23  1  0
 11 24  1  0
 12 13  1  0
 12 25  1  0
 12 26  1  0
 13 14  1  0
 13 27  1  0
 13 28  1  0
M  END
>  <i_m_ct_stereo_status>  (15) 
1

>  <s_m_source_file>  (15) 
/var/tmp/pbs.5076255.sched01/tmppfua8s0c/0korcpw03.sdf

>  <i_m_source_file_index>  (15) 
7

>  <i_lp_mmshare_version>  (15) 
48012

>  <i_f3d_flags>  (15) 
0

>  <s_epik_input>  (15) 
W2NIXTFbY0hdW2NIXVtjSF1jKFtDSDJdTzIpYzFbQ0BAXTIzW0NIMl1bQ0gyXVtDSDJdW0NIMl1PMw==

>  <s_epik_cmdline>  (15) 
J2VwaWtfcHl0aG9uJywgJy1waHQnLCAnMi4wJywgJy1waCcsICc3LjAnLCAnLXRuJywgJzgnLCAnLW1hJywgJzIwMCcsICctaW1hZScsICc8aW5maWxlLm1hZT4nLCAnLW9tYWUnLCAnPG91dGZpbGUubWFlPic=

>  <r_lp_tautomer_probability>  (15) 
1

>  <r_epik_Ionization_Penalty>  (15) 
1.87997e-13

>  <r_epik_Ionization_Penalty_Charging>  (15) 
0

>  <r_epik_Ionization_Penalty_Neutral>  (15) 
1.87997e-13

>  <r_epik_State_Penalty>  (15) 
-0

>  <r_epik_Charging_Adjusted_Penalty>  (15) 
0

>  <i_epik_Tot_Q>  (15) 
0

>  <i_epik_Tot_abs_Q>  (15) 
0

>  <s_lp_Force_Field>  (15) 
OPLS3e

>  <r_lp_Energy>  (15) 
9.2999

>  <b_lp_Chiralities_Consistent>  (15) 
1

>  <s_lp_Variant>  (15) 
5:0-1

>  <s_i_glide_gridfile>  (15) 
pfpi4k_grid

>  <i_i_glide_lignum>  (15) 
7

>  <i_i_glide_rotatable_bonds>  (15) 
0

>  <r_i_docking_score>  (15) 
-6.1303

>  <r_i_glide_ligand_efficiency>  (15) 
-0.437879

>  <r_i_glide_ligand_efficiency_sa>  (15) 
-1.05535

>  <r_i_glide_ligand_efficiency_ln>  (15) 
-1.68458

>  <r_i_glide_gscore>  (15) 
-6.1303

>  <r_i_glide_lipo>  (15) 
-2.38267

>  <r_i_glide_hbond>  (15) 
0

>  <r_i_glide_metal>  (15) 
-0

>  <r_i_glide_rewards>  (15) 
-2.77086

>  <r_i_glide_evdw>  (15) 
-20.1014

>  <r_i_glide_ecoul>  (15) 
0.188657

>  <r_i_glide_erotb>  (15) 
0

>  <r_i_glide_esite>  (15) 
0

>  <r_i_glide_emodel>  (15) 
-27.425

>  <r_i_glide_energy>  (15) 
-19.9127

>  <r_i_glide_einternal>  (15) 
0

>  <r_i_glide_intrahb_reward>  (15) 
-0

>  <i_i_glide_confnum>  (15) 
3

>  <i_i_glide_posenum>  (15) 
36

>  <r_i_glide_eff_state_penalty>  (15) 
0

>  <ligand_id>  (15) 
5

>  <original_smiles>  (15) 
c1ccc2c(c1)COC21CCCCO1

>  <smiles>  (15) 
[H]c1c([H])c([H])c2c(c1[H])C([H])([H])OC21OC([H])([H])C([H])([H])C([H])([H])C1([H])[H]

$$$$
6:0:0
     RDKit          3D

 89 98  0  0  1  0  0  0  0  0999 V2000
    7.4812   -9.1600    3.4510 C   0  0  0  0  0  0  0  0  0  0  0  0
    6.3303   -9.8224    4.2611 C   0  0  1  0  0  0  0  0  0  0  0  0
    5.9174   -8.8482    5.4781 C   0  0  0  0  0  0  0  0  0  0  0  0
    4.6458   -7.8890    5.5976 C   0  0  1  0  0  0  0  0  0  0  0  0
    4.6485   -6.5942    5.0161 O   0  0  0  0  0  0  0  0  0  0  0  0
    5.0049   -6.2982    3.6674 C   0  0  1  0  0  0  0  0  0  0  0  0
    4.7431   -7.3120    2.5259 C   0  0  0  0  0  0  0  0  0  0  0  0
    3.3299   -7.5123    1.8668 C   0  0  2  0  0  0  0  0  0  0  0  0
    2.9691   -6.0588    1.5731 C   0  0  0  0  0  0  0  0  0  0  0  0
    2.8733   -5.2032    2.8743 C   0  0  2  0  0  0  0  0  0  0  0  0
    4.3264   -4.9686    3.3388 C   0  0  0  0  0  0  0  0  0  0  0  0
    1.9122   -5.6012    4.1016 C   0  0  1  0  0  0  0  0  0  0  0  0
    1.2248   -4.3406    4.6818 C   0  0  0  0  0  0  0  0  0  0  0  0
    0.7614   -3.2413    3.8931 C   0  0  0  0  0  0  0  0  0  0  0  0
    0.1654   -2.2964    4.6429 N   0  0  0  0  0  0  0  0  0  0  0  0
   -0.3959   -1.1540    4.2269 N   0  0  0  0  0  0  0  0  0  0  0  0
   -0.8391   -0.6985    5.4000 C   0  0  0  0  0  0  0  0  0  0  0  0
   -0.5660   -1.4937    6.4870 N   0  0  0  0  0  0  0  0  0  0  0  0
    0.1040   -2.4777    5.9765 C   0  0  0  0  0  0  0  0  0  0  0  0
    0.9753   -3.9509    6.3983 S   0  0  0  0  0  0  0  0  0  0  0  0
    1.1119   -7.0214    4.3170 C   0  0  1  0  0  0  0  0  0  0  0  0
   -0.3291   -6.6587    4.8753 C   0  0  0  0  0  0  0  0  0  0  0  0
    0.7918   -7.7275    2.9145 C   0  0  0  0  0  0  0  0  0  0  0  0
   -0.5295   -8.6110    2.8641 C   0  0  0  0  0  0  0  0  0  0  0  0
    0.2005   -6.6787    1.8892 C   0  0  0  0  0  0  0  0  0  0  0  0
    2.1281   -8.4885    2.3689 C   0  0  2  0  0  0  0  0  0  0  0  0
    2.4894  -10.0221    2.9034 C   0  0  2  0  0  0  0  0  0  0  0  0
    1.2801  -10.7219    3.5455 C   0  0  0  0  0  0  0  0  0  0  0  0
    0.8390  -10.4112    4.8928 O   0  0  0  0  0  0  0  0  0  0  0  0
    0.8824   -9.2801    5.7145 C   0  0  0  0  0  0  0  0  0  0  0  0
    0.1718   -9.2888    6.7225 O   0  0  0  0  0  0  0  0  0  0  0  0
    1.8078   -8.0214    5.4585 C   0  0  2  0  0  0  0  0  0  0  0  0
    1.8632   -7.2767    6.8425 C   0  0  0  0  0  0  0  0  0  0  0  0
    3.2994   -8.6179    5.4272 C   0  0  1  0  0  0  0  0  0  0  0  0
    3.7079   -9.0853    4.2245 O   0  0  0  0  0  0  0  0  0  0  0  0
    3.7280  -10.3922    3.8378 C   0  0  1  0  0  0  0  0  0  0  0  0
    3.5470  -11.4722    4.9800 C   0  0  0  0  0  0  0  0  0  0  0  0
    5.2166  -10.5704    3.2965 C   0  0  1  0  0  0  0  0  0  0  0  0
    5.2512  -10.2552    1.9082 O   0  0  0  0  0  0  0  0  0  0  0  0
    5.6932  -12.0828    3.1766 C   0  0  0  0  0  0  0  0  0  0  0  0
    6.6709  -12.1998    4.2941 C   0  0  0  0  0  0  0  0  0  0  0  0
    7.4279  -13.3416    4.8979 C   0  0  0  0  0  0  0  0  0  0  0  0
    8.1909  -12.6527    5.9010 O   0  0  0  0  0  0  0  0  0  0  0  0
    7.9591  -11.3080    5.8979 C   0  0  0  0  0  0  0  0  0  0  0  0
    8.4612  -10.4841    6.6525 O   0  0  0  0  0  0  0  0  0  0  0  0
    6.9823  -11.0685    4.8347 C   0  0  0  0  0  0  0  0  0  0  0  0
    7.2571   -8.1785    3.0380 H   0  0  0  0  0  0  0  0  0  0  0  0
    7.7714   -9.8041    2.6269 H   0  0  0  0  0  0  0  0  0  0  0  0
    8.3738   -9.0252    4.0652 H   0  0  0  0  0  0  0  0  0  0  0  0
    5.8005   -9.4935    6.3490 H   0  0  0  0  0  0  0  0  0  0  0  0
    6.7811   -8.2387    5.7363 H   0  0  0  0  0  0  0  0  0  0  0  0
    4.6508   -7.6019    6.6491 H   0  0  0  0  0  0  0  0  0  0  0  0
    6.0835   -6.1310    3.7038 H   0  0  0  0  0  0  0  0  0  0  0  0
    5.4002   -6.9954    1.7125 H   0  0  0  0  0  0  0  0  0  0  0  0
    5.1934   -8.2038    2.8169 H   0  0  0  0  0  0  0  0  0  0  0  0
    3.5859   -7.9551    0.8995 H   0  0  0  0  0  0  0  0  0  0  0  0
    3.7801   -5.6407    0.9754 H   0  0  0  0  0  0  0  0  0  0  0  0
    2.1932   -5.9308    0.8319 H   0  0  0  0  0  0  0  0  0  0  0  0
    2.5771   -4.2307    2.4822 H   0  0  0  0  0  0  0  0  0  0  0  0
    4.3746   -4.2751    4.1801 H   0  0  0  0  0  0  0  0  0  0  0  0
    4.8854   -4.4843    2.5351 H   0  0  0  0  0  0  0  0  0  0  0  0
    2.6096   -5.6354    4.9196 H   0  0  0  0  0  0  0  0  0  0  0  0
    0.7911   -3.0444    2.8480 H   0  0  0  0  0  0  0  0  0  0  0  0
   -1.3440    0.2494    5.4568 H   0  0  0  0  0  0  0  0  0  0  0  0
   -0.9543   -7.5370    5.0599 H   0  0  0  0  0  0  0  0  0  0  0  0
   -0.8870   -6.0444    4.1701 H   0  0  0  0  0  0  0  0  0  0  0  0
   -0.3323   -6.1083    5.8092 H   0  0  0  0  0  0  0  0  0  0  0  0
   -0.5928   -9.1822    1.9387 H   0  0  0  0  0  0  0  0  0  0  0  0
   -1.4722   -8.0678    2.9175 H   0  0  0  0  0  0  0  0  0  0  0  0
   -0.7344   -9.2724    3.6882 H   0  0  0  0  0  0  0  0  0  0  0  0
    0.3344   -6.9993    0.8542 H   0  0  0  0  0  0  0  0  0  0  0  0
    0.5448   -5.6611    2.0184 H   0  0  0  0  0  0  0  0  0  0  0  0
   -0.8638   -6.4757    1.9500 H   0  0  0  0  0  0  0  0  0  0  0  0
    1.7285   -8.7715    1.3924 H   0  0  0  0  0  0  0  0  0  0  0  0
    2.6635  -10.5944    1.9921 H   0  0  0  0  0  0  0  0  0  0  0  0
    0.4469  -10.7593    2.8527 H   0  0  0  0  0  0  0  0  0  0  0  0
    1.5181  -11.7845    3.5774 H   0  0  0  0  0  0  0  0  0  0  0  0
    2.5491   -6.4335    6.8552 H   0  0  0  0  0  0  0  0  0  0  0  0
    2.2128   -7.9392    7.6383 H   0  0  0  0  0  0  0  0  0  0  0  0
    0.9073   -6.9173    7.2143 H   0  0  0  0  0  0  0  0  0  0  0  0
    3.3614   -9.3624    6.2189 H   0  0  0  0  0  0  0  0  0  0  0  0
    3.3404  -12.4596    4.5738 H   0  0  0  0  0  0  0  0  0  0  0  0
    2.7727  -11.3166    5.7203 H   0  0  0  0  0  0  0  0  0  0  0  0
    4.4405  -11.5528    5.5911 H   0  0  0  0  0  0  0  0  0  0  0  0
    4.7377  -10.8960    1.4325 H   0  0  0  0  0  0  0  0  0  0  0  0
    4.9080  -12.8346    3.1927 H   0  0  0  0  0  0  0  0  0  0  0  0
    6.2724  -12.2724    2.2775 H   0  0  0  0  0  0  0  0  0  0  0  0
    8.0737  -13.8147    4.1660 H   0  0  0  0  0  0  0  0  0  0  0  0
    6.7705  -14.0903    5.3298 H   0  0  0  0  0  0  0  0  0  0  0  0
  2  1  1  6
  1 47  1  0
  1 48  1  0
  1 49  1  0
  2 38  1  0
  2  3  1  0
  2 46  1  0
  3  4  1  0
  3 50  1  0
  3 51  1  0
  4 34  1  0
  4  5  1  0
  4 52  1  1
  5  6  1  0
  6 11  1  0
  6  7  1  0
  6 53  1  1
  7  8  1  0
  7 54  1  0
  7 55  1  0
  8 26  1  0
  8  9  1  0
  8 56  1  6
  9 10  1  0
  9 57  1  0
  9 58  1  0
 10 11  1  0
 10 12  1  0
 10 59  1  6
 11 60  1  0
 11 61  1  0
 12 13  1  0
 12 21  1  0
 12 62  1  1
 13 20  1  0
 13 14  2  0
 14 15  1  0
 14 63  1  0
 15 19  1  0
 15 16  1  0
 16 17  2  0
 17 18  1  0
 17 64  1  0
 18 19  2  0
 19 20  1  0
 21 32  1  0
 21 22  1  1
 21 23  1  0
 22 65  1  0
 22 66  1  0
 22 67  1  0
 23 24  1  0
 23 25  1  0
 23 26  1  0
 24 68  1  0
 24 69  1  0
 24 70  1  0
 25 71  1  0
 25 72  1  0
 25 73  1  0
 26 27  1  0
 26 74  1  6
 27 36  1  0
 27 28  1  0
 27 75  1  6
 28 29  1  0
 28 76  1  0
 28 77  1  0
 29 30  1  0
 30 31  2  0
 30 32  1  0
 32 33  1  1
 32 34  1  0
 33 78  1  0
 33 79  1  0
 33 80  1  0
 34 35  1  0
 34 81  1  1
 35 36  1  0
 36 37  1  1
 36 38  1  0
 37 82  1  0
 37 83  1  0
 37 84  1  0
 38 39  1  6
 38 40  1  0
 39 85  1  0
 40 86  1  0
 40 87  1  0
 40 41  1  0
 41 46  2  0
 41 42  1  0
 42 43  1  0
 42 88  1  0
 42 89  1  0
 43 44  1  0
 44 46  1  0
 44 45  2  0
M  END
>  <i_m_ct_stereo_status>  (16) 
1

>  <s_m_source_file>  (16) 
/var/tmp/pbs.5076255.sched01/tmppfua8s0c/0korcpw03.sdf

>  <i_m_source_file_index>  (16) 
8

>  <i_lp_mmshare_version>  (16) 
48012

>  <i_f3d_flags>  (16) 
2

>  <s_epik_input>  (16) 
W2NIXTFvYyhbT0hdKWMyYzFbQ0gyXVtDQEBdKFtPSF0pKFtDQEBdMjNbQ0gzXSlbQ0BdNChbQ0gzXSlbQ0BIXTVbQ0BIXTZbQ0BIXTdbQ0gyXVtDQEhdOE9bQ0BASF0oW0NIMl0zKVtDSF0oTzQpW0NAQF0oW0NIM10pKEMoPU8pT1tDSDJdNSlbQ0BAXShbQ0gzXSkoQzYoW0NIM10pW0NIM10pW0NAQEhdKFtDQEBIXShbQ0gyXTcpW0NIMl04KWMoW2NIXTkpc2MobjE5KW5bY0hdbjE=

>  <s_epik_cmdline>  (16) 
J2VwaWtfcHl0aG9uJywgJy1waHQnLCAnMi4wJywgJy1waCcsICc3LjAnLCAnLXRuJywgJzgnLCAnLW1hJywgJzIwMCcsICctaW1hZScsICc8aW5maWxlLm1hZT4nLCAnLW9tYWUnLCAnPG91dGZpbGUubWFlPic=

>  <r_lp_tautomer_probability>  (16) 
0.999841

>  <r_epik_Ionization_Penalty>  (16) 
0.000819473

>  <r_epik_Ionization_Penalty_Charging>  (16) 
0

>  <r_epik_Ionization_Penalty_Neutral>  (16) 
0.000819473

>  <r_epik_State_Penalty>  (16) 
0.000525821

>  <r_epik_Charging_Adjusted_Penalty>  (16) 
0.000525821

>  <i_epik_Tot_Q>  (16) 
0

>  <i_epik_Tot_abs_Q>  (16) 
0

>  <s_epik_Chemistry_Notes>  (16) 
This compound has an ester and may undergo hydrolysis at high or low pH.

>  <s_lp_Force_Field>  (16) 
OPLS3e

>  <r_lp_Energy>  (16) 
272.039

>  <b_lp_Chiralities_Consistent>  (16) 
0

>  <s_lp_Variant>  (16) 
6:0-1

>  <s_i_glide_gridfile>  (16) 
pfpi4k_grid

>  <i_i_glide_lignum>  (16) 
8

>  <i_i_glide_rotatable_bonds>  (16) 
2

>  <r_i_docking_score>  (16) 
-2.99286

>  <r_i_glide_ligand_efficiency>  (16) 
-0.0650621

>  <r_i_glide_ligand_efficiency_sa>  (16) 
-0.233121

>  <r_i_glide_ligand_efficiency_ln>  (16) 
-0.619813

>  <r_i_glide_gscore>  (16) 
-2.99286

>  <r_i_glide_lipo>  (16) 
-0.248207

>  <r_i_glide_hbond>  (16) 
0

>  <r_i_glide_metal>  (16) 
-0

>  <r_i_glide_rewards>  (16) 
-0.0667905

>  <r_i_glide_evdw>  (16) 
-37.5711

>  <r_i_glide_ecoul>  (16) 
-5.00831

>  <r_i_glide_erotb>  (16) 
0.0502856

>  <r_i_glide_esite>  (16) 
-0.0983403

>  <r_i_glide_emodel>  (16) 
-47.073

>  <r_i_glide_energy>  (16) 
-42.5795

>  <r_i_glide_einternal>  (16) 
4.6701

>  <r_i_glide_intrahb_reward>  (16) 
-0

>  <i_i_glide_confnum>  (16) 
2

>  <i_i_glide_posenum>  (16) 
1

>  <r_i_glide_eff_state_penalty>  (16) 
0

>  <ligand_id>  (16) 
6

>  <original_smiles>  (16) 
CC12CC3OC4CC5CC(C4)C(c4cn6ncnc6s4)C4(C)C(C)(C)C5C5COC(=O)C4(C)C3OC5(C)C1(O)Cc1coc(O)c12

>  <smiles>  (16) 
[H]OC12C([H])([H])C3=C(C(=O)OC3([H])[H])C1(C([H])([H])[H])C([H])([H])C1([H])OC3([H])C([H])([H])C4([H])C([H])([H])C([H])(C3([H])[H])C3([H])C5([H])C([H])([H])OC(=O)C(C([H])([H])[H])(C1([H])OC52C([H])([H])[H])C(C([H])([H])[H])(C4([H])c1sc2nc([H])nn2c1[H])C3(C([H])([H])[H])C([H])([H])[H]

$$$$
6:0:1
     RDKit          3D

 89 98  0  0  1  0  0  0  0  0999 V2000
    0.2862   -9.2952    6.2556 C   0  0  0  0  0  0  0  0  0  0  0  0
    0.9496   -8.7217    4.9744 C   0  0  1  0  0  0  0  0  0  0  0  0
    1.5362   -7.2480    5.2662 C   0  0  0  0  0  0  0  0  0  0  0  0
    3.0624   -6.8459    5.4981 C   0  0  1  0  0  0  0  0  0  0  0  0
    3.6473   -6.9786    6.7878 O   0  0  0  0  0  0  0  0  0  0  0  0
    3.6749   -8.1721    7.5646 C   0  0  1  0  0  0  0  0  0  0  0  0
    3.6497   -9.5738    6.9121 C   0  0  0  0  0  0  0  0  0  0  0  0
    4.9247  -10.2331    6.2927 C   0  0  2  0  0  0  0  0  0  0  0  0
    5.8915  -10.0459    7.4496 C   0  0  0  0  0  0  0  0  0  0  0  0
    6.1338   -8.5367    7.7623 C   0  0  2  0  0  0  0  0  0  0  0  0
    4.8763   -8.0489    8.4915 C   0  0  0  0  0  0  0  0  0  0  0  0
    6.6369   -7.4636    6.6846 C   0  0  1  0  0  0  0  0  0  0  0  0
    7.9034   -6.8162    7.3256 C   0  0  0  0  0  0  0  0  0  0  0  0
    7.8622   -5.4328    7.7244 C   0  0  0  0  0  0  0  0  0  0  0  0
    9.0390   -5.0884    8.2656 N   0  0  0  0  0  0  0  0  0  0  0  0
    9.3297   -3.8638    8.7368 N   0  0  0  0  0  0  0  0  0  0  0  0
   10.5882   -4.1202    9.1340 C   0  0  0  0  0  0  0  0  0  0  0  0
   11.0299   -5.4155    8.9195 N   0  0  0  0  0  0  0  0  0  0  0  0
   10.0233   -6.0175    8.3762 C   0  0  0  0  0  0  0  0  0  0  0  0
    9.4771   -7.5794    7.7677 S   0  0  0  0  0  0  0  0  0  0  0  0
    6.7486   -7.7404    5.0729 C   0  0  1  0  0  0  0  0  0  0  0  0
    8.1134   -7.0781    4.6138 C   0  0  0  0  0  0  0  0  0  0  0  0
    6.9528   -9.2919    4.7251 C   0  0  0  0  0  0  0  0  0  0  0  0
    7.7904   -9.6088    3.4182 C   0  0  0  0  0  0  0  0  0  0  0  0
    8.0786   -9.9562    5.6215 C   0  0  0  0  0  0  0  0  0  0  0  0
    5.5209  -10.0538    4.7984 C   0  0  2  0  0  0  0  0  0  0  0  0
    4.4981  -10.0433    3.4930 C   0  0  2  0  0  0  0  0  0  0  0  0
    5.2021   -9.6561    2.1867 C   0  0  0  0  0  0  0  0  0  0  0  0
    5.5541   -8.2821    1.8786 O   0  0  0  0  0  0  0  0  0  0  0  0
    5.8471   -7.1398    2.6368 C   0  0  0  0  0  0  0  0  0  0  0  0
    6.3338   -6.1830    2.0323 O   0  0  0  0  0  0  0  0  0  0  0  0
    5.5690   -6.9889    4.1871 C   0  0  2  0  0  0  0  0  0  0  0  0
    5.6406   -5.4434    4.4553 C   0  0  0  0  0  0  0  0  0  0  0  0
    3.9959   -7.2241    4.3321 C   0  0  1  0  0  0  0  0  0  0  0  0
    3.5847   -8.5050    4.4581 O   0  0  0  0  0  0  0  0  0  0  0  0
    3.1031   -9.2843    3.4503 C   0  0  1  0  0  0  0  0  0  0  0  0
    2.6584   -8.5420    2.1299 C   0  0  0  0  0  0  0  0  0  0  0  0
    1.7697   -9.8581    4.1047 C   0  0  1  0  0  0  0  0  0  0  0  0
    2.0911  -11.0724    4.7801 O   0  0  0  0  0  0  0  0  0  0  0  0
    0.7312  -10.4496    3.0534 C   0  0  0  0  0  0  0  0  0  0  0  0
   -0.3317   -9.4192    3.0646 C   0  0  0  0  0  0  0  0  0  0  0  0
   -1.5668   -9.2257    2.2469 C   0  0  0  0  0  0  0  0  0  0  0  0
   -2.1051   -8.0648    2.8898 O   0  0  0  0  0  0  0  0  0  0  0  0
   -1.3431   -7.6624    3.9561 C   0  0  0  0  0  0  0  0  0  0  0  0
   -1.5484   -6.6862    4.6798 O   0  0  0  0  0  0  0  0  0  0  0  0
   -0.2431   -8.5857    4.0472 C   0  0  0  0  0  0  0  0  0  0  0  0
    0.9486   -9.3769    7.1115 H   0  0  0  0  0  0  0  0  0  0  0  0
   -0.1435  -10.2810    6.0705 H   0  0  0  0  0  0  0  0  0  0  0  0
   -0.5480   -8.6723    6.5805 H   0  0  0  0  0  0  0  0  0  0  0  0
    1.2482   -6.6347    4.4111 H   0  0  0  0  0  0  0  0  0  0  0  0
    0.9768   -6.8303    6.1011 H   0  0  0  0  0  0  0  0  0  0  0  0
    3.0255   -5.7613    5.4539 H   0  0  0  0  0  0  0  0  0  0  0  0
    2.7661   -8.0857    8.1542 H   0  0  0  0  0  0  0  0  0  0  0  0
    3.2944  -10.2565    7.6911 H   0  0  0  0  0  0  0  0  0  0  0  0
    2.8434   -9.5559    6.2605 H   0  0  0  0  0  0  0  0  0  0  0  0
    4.6530  -11.2871    6.2901 H   0  0  0  0  0  0  0  0  0  0  0  0
    5.4243  -10.4797    8.3305 H   0  0  0  0  0  0  0  0  0  0  0  0
    6.7392  -10.7150    7.4394 H   0  0  0  0  0  0  0  0  0  0  0  0
    6.8932   -8.5641    8.5398 H   0  0  0  0  0  0  0  0  0  0  0  0
    4.9929   -7.0359    8.8735 H   0  0  0  0  0  0  0  0  0  0  0  0
    4.6993   -8.6688    9.3674 H   0  0  0  0  0  0  0  0  0  0  0  0
    5.9387   -6.6309    6.7822 H   0  0  0  0  0  0  0  0  0  0  0  0
    7.1025   -4.6547    7.6758 H   0  0  0  0  0  0  0  0  0  0  0  0
   11.2421   -3.3770    9.6024 H   0  0  0  0  0  0  0  0  0  0  0  0
    8.2919   -7.0809    3.5415 H   0  0  0  0  0  0  0  0  0  0  0  0
    8.9878   -7.5886    5.0064 H   0  0  0  0  0  0  0  0  0  0  0  0
    8.2362   -6.0416    4.9227 H   0  0  0  0  0  0  0  0  0  0  0  0
    7.7463  -10.6700    3.1700 H   0  0  0  0  0  0  0  0  0  0  0  0
    8.8578   -9.3844    3.4554 H   0  0  0  0  0  0  0  0  0  0  0  0
    7.5927   -9.0473    2.5256 H   0  0  0  0  0  0  0  0  0  0  0  0
    7.9823  -11.0413    5.6727 H   0  0  0  0  0  0  0  0  0  0  0  0
    8.1435   -9.5724    6.6200 H   0  0  0  0  0  0  0  0  0  0  0  0
    9.1204   -9.7891    5.3442 H   0  0  0  0  0  0  0  0  0  0  0  0
    5.9031  -11.0632    4.6555 H   0  0  0  0  0  0  0  0  0  0  0  0
    4.2351  -11.0901    3.3414 H   0  0  0  0  0  0  0  0  0  0  0  0
    6.0332  -10.3218    1.9918 H   0  0  0  0  0  0  0  0  0  0  0  0
    4.5447   -9.9581    1.3724 H   0  0  0  0  0  0  0  0  0  0  0  0
    5.3745   -5.1566    5.4661 H   0  0  0  0  0  0  0  0  0  0  0  0
    4.9434   -4.8996    3.8168 H   0  0  0  0  0  0  0  0  0  0  0  0
    6.6060   -4.9960    4.2447 H   0  0  0  0  0  0  0  0  0  0  0  0
    3.5232   -6.7033    3.5038 H   0  0  0  0  0  0  0  0  0  0  0  0
    2.4934   -9.2403    1.3114 H   0  0  0  0  0  0  0  0  0  0  0  0
    3.3171   -7.7893    1.7210 H   0  0  0  0  0  0  0  0  0  0  0  0
    1.7324   -7.9955    2.2791 H   0  0  0  0  0  0  0  0  0  0  0  0
    1.4124  -11.2917    5.4071 H   0  0  0  0  0  0  0  0  0  0  0  0
    1.1140  -10.6354    2.0581 H   0  0  0  0  0  0  0  0  0  0  0  0
    0.2579  -11.3710    3.4074 H   0  0  0  0  0  0  0  0  0  0  0  0
   -2.2442  -10.0723    2.3270 H   0  0  0  0  0  0  0  0  0  0  0  0
   -1.3594   -9.0296    1.1999 H   0  0  0  0  0  0  0  0  0  0  0  0
  2  1  1  1
  1 47  1  0
  1 48  1  0
  1 49  1  0
  2 38  1  0
  2  3  1  0
  2 46  1  0
  3  4  1  0
  3 50  1  0
  3 51  1  0
  4 34  1  0
  4  5  1  0
  4 52  1  6
  5  6  1  0
  6 11  1  0
  6  7  1  0
  6 53  1  1
  7  8  1  0
  7 54  1  0
  7 55  1  0
  8 26  1  0
  8  9  1  0
  8 56  1  6
  9 10  1  0
  9 57  1  0
  9 58  1  0
 10 11  1  0
 10 12  1  0
 10 59  1  1
 11 60  1  0
 11 61  1  0
 12 13  1  0
 12 21  1  0
 12 62  1  6
 13 20  1  0
 13 14  2  0
 14 15  1  0
 14 63  1  0
 15 19  1  0
 15 16  1  0
 16 17  2  0
 17 18  1  0
 17 64  1  0
 18 19  2  0
 19 20  1  0
 21 32  1  0
 21 22  1  6
 21 23  1  0
 22 65  1  0
 22 66  1  0
 22 67  1  0
 23 24  1  0
 23 25  1  0
 23 26  1  0
 24 68  1  0
 24 69  1  0
 24 70  1  0
 25 71  1  0
 25 72  1  0
 25 73  1  0
 26 27  1  0
 26 74  1  6
 27 36  1  0
 27 28  1  0
 27 75  1  6
 28 29  1  0
 28 76  1  0
 28 77  1  0
 29 30  1  0
 30 31  2  0
 30 32  1  0
 32 33  1  1
 32 34  1  0
 33 78  1  0
 33 79  1  0
 33 80  1  0
 34 35  1  0
 34 81  1  6
 35 36  1  0
 36 37  1  6
 36 38  1  0
 37 82  1  0
 37 83  1  0
 37 84  1  0
 38 39  1  1
 38 40  1  0
 39 85  1  0
 40 86  1  0
 40 87  1  0
 40 41  1  0
 41 46  2  0
 41 42  1  0
 42 43  1  0
 42 88  1  0
 42 89  1  0
 43 44  1  0
 44 46  1  0
 44 45  2  0
M  END
>  <i_m_ct_stereo_status>  (17) 
1

>  <s_m_source_file>  (17) 
/var/tmp/pbs.5076255.sched01/tmppfua8s0c/0korcpw03.sdf

>  <i_m_source_file_index>  (17) 
8

>  <i_lp_mmshare_version>  (17) 
48012

>  <i_f3d_flags>  (17) 
2

>  <s_epik_input>  (17) 
W2NIXTFvYyhbT0hdKWMyYzFbQ0gyXVtDQEBdKFtPSF0pKFtDQEBdMjNbQ0gzXSlbQ0BdNChbQ0gzXSlbQ0BIXTVbQ0BIXTZbQ0BIXTdbQ0gyXVtDQEhdOE9bQ0BASF0oW0NIMl0zKVtDSF0oTzQpW0NAQF0oW0NIM10pKEMoPU8pT1tDSDJdNSlbQ0BAXShbQ0gzXSkoQzYoW0NIM10pW0NIM10pW0NAQEhdKFtDQEBIXShbQ0gyXTcpW0NIMl04KWMoW2NIXTkpc2MobjE5KW5bY0hdbjE=

>  <s_epik_cmdline>  (17) 
J2VwaWtfcHl0aG9uJywgJy1waHQnLCAnMi4wJywgJy1waCcsICc3LjAnLCAnLXRuJywgJzgnLCAnLW1hJywgJzIwMCcsICctaW1hZScsICc8aW5maWxlLm1hZT4nLCAnLW9tYWUnLCAnPG91dGZpbGUubWFlPic=

>  <r_lp_tautomer_probability>  (17) 
0.999841

>  <r_epik_Ionization_Penalty>  (17) 
0.000819473

>  <r_epik_Ionization_Penalty_Charging>  (17) 
0

>  <r_epik_Ionization_Penalty_Neutral>  (17) 
0.000819473

>  <r_epik_State_Penalty>  (17) 
0.000525821

>  <r_epik_Charging_Adjusted_Penalty>  (17) 
0.000525821

>  <i_epik_Tot_Q>  (17) 
0

>  <i_epik_Tot_abs_Q>  (17) 
0

>  <s_epik_Chemistry_Notes>  (17) 
This compound has an ester and may undergo hydrolysis at high or low pH.

>  <s_lp_Force_Field>  (17) 
OPLS3e

>  <r_lp_Energy>  (17) 
272.039

>  <b_lp_Chiralities_Consistent>  (17) 
0

>  <s_lp_Variant>  (17) 
6:0-1

>  <s_i_glide_gridfile>  (17) 
pfpi4k_grid

>  <i_i_glide_lignum>  (17) 
8

>  <i_i_glide_rotatable_bonds>  (17) 
2

>  <r_i_docking_score>  (17) 
-2.64896

>  <r_i_glide_ligand_efficiency>  (17) 
-0.0575862

>  <r_i_glide_ligand_efficiency_sa>  (17) 
-0.206334

>  <r_i_glide_ligand_efficiency_ln>  (17) 
-0.548594

>  <r_i_glide_gscore>  (17) 
-2.64896

>  <r_i_glide_lipo>  (17) 
-0.389405

>  <r_i_glide_hbond>  (17) 
0

>  <r_i_glide_metal>  (17) 
-0

>  <r_i_glide_rewards>  (17) 
-0.0372259

>  <r_i_glide_evdw>  (17) 
-34.1219

>  <r_i_glide_ecoul>  (17) 
-3.3136

>  <r_i_glide_erotb>  (17) 
0.0502856

>  <r_i_glide_esite>  (17) 
-0.069482

>  <r_i_glide_emodel>  (17) 
-44.2408

>  <r_i_glide_energy>  (17) 
-37.4355

>  <r_i_glide_einternal>  (17) 
0.319018

>  <r_i_glide_intrahb_reward>  (17) 
-0

>  <i_i_glide_confnum>  (17) 
1

>  <i_i_glide_posenum>  (17) 
13

>  <r_i_glide_eff_state_penalty>  (17) 
0

>  <ligand_id>  (17) 
6

>  <original_smiles>  (17) 
CC12CC3OC4CC5CC(C4)C(c4cn6ncnc6s4)C4(C)C(C)(C)C5C5COC(=O)C4(C)C3OC5(C)C1(O)Cc1coc(O)c12

>  <smiles>  (17) 
[H]OC12C([H])([H])C3=C(C(=O)OC3([H])[H])C1(C([H])([H])[H])C([H])([H])C1([H])OC3([H])C([H])([H])C4([H])C([H])([H])C([H])(C3([H])[H])C3([H])C5([H])C([H])([H])OC(=O)C(C([H])([H])[H])(C1([H])OC52C([H])([H])[H])C(C([H])([H])[H])(C4([H])c1sc2nc([H])nn2c1[H])C3(C([H])([H])[H])C([H])([H])[H]

$$$$
6:0:2
     RDKit          3D

 89 98  0  0  1  0  0  0  0  0999 V2000
    0.3491   -9.3489    6.2292 C   0  0  0  0  0  0  0  0  0  0  0  0
    0.9751   -8.6680    4.9795 C   0  0  1  0  0  0  0  0  0  0  0  0
    1.5262   -7.2070    5.3748 C   0  0  0  0  0  0  0  0  0  0  0  0
    3.0391   -6.7775    5.6286 C   0  0  1  0  0  0  0  0  0  0  0  0
    3.6452   -6.9850    6.8977 O   0  0  0  0  0  0  0  0  0  0  0  0
    3.7094   -8.2294    7.5850 C   0  0  1  0  0  0  0  0  0  0  0  0
    3.7161   -9.5838    6.8331 C   0  0  0  0  0  0  0  0  0  0  0  0
    5.0049  -10.1572    6.1608 C   0  0  2  0  0  0  0  0  0  0  0  0
    5.9792  -10.0210    7.3199 C   0  0  0  0  0  0  0  0  0  0  0  0
    6.1802   -8.5339    7.7377 C   0  0  2  0  0  0  0  0  0  0  0  0
    4.9168   -8.1365    8.5103 C   0  0  0  0  0  0  0  0  0  0  0  0
    6.6458   -7.3772    6.7373 C   0  0  1  0  0  0  0  0  0  0  0  0
    7.8948   -6.7506    7.4136 C   0  0  0  0  0  0  0  0  0  0  0  0
    7.8402   -5.3936    7.8855 C   0  0  0  0  0  0  0  0  0  0  0  0
    9.0084   -5.0501    8.4509 N   0  0  0  0  0  0  0  0  0  0  0  0
    9.2672   -3.8496    8.9809 N   0  0  0  0  0  0  0  0  0  0  0  0
   10.5312   -4.1024    9.3710 C   0  0  0  0  0  0  0  0  0  0  0  0
   11.0039   -5.3739    9.0993 N   0  0  0  0  0  0  0  0  0  0  0  0
   10.0036   -5.9611    8.5171 C   0  0  0  0  0  0  0  0  0  0  0  0
    9.4858   -7.4851    7.8151 S   0  0  0  0  0  0  0  0  0  0  0  0
    6.7479   -7.5302    5.1108 C   0  0  1  0  0  0  0  0  0  0  0  0
    8.0911   -6.7997    4.6922 C   0  0  0  0  0  0  0  0  0  0  0  0
    6.9892   -9.0435    4.6501 C   0  0  0  0  0  0  0  0  0  0  0  0
    7.8121   -9.2442    3.3118 C   0  0  0  0  0  0  0  0  0  0  0  0
    8.1422   -9.7434    5.4836 C   0  0  0  0  0  0  0  0  0  0  0  0
    5.5810   -9.8505    4.6794 C   0  0  2  0  0  0  0  0  0  0  0  0
    4.5475   -9.7798    3.3842 C   0  0  2  0  0  0  0  0  0  0  0  0
    5.2252   -9.2802    2.1024 C   0  0  0  0  0  0  0  0  0  0  0  0
    5.5354   -7.8763    1.8934 O   0  0  0  0  0  0  0  0  0  0  0  0
    5.8079   -6.7844    2.7336 C   0  0  0  0  0  0  0  0  0  0  0  0
    6.2619   -5.7726    2.1972 O   0  0  0  0  0  0  0  0  0  0  0  0
    5.5389   -6.7523    4.2935 C   0  0  2  0  0  0  0  0  0  0  0  0
    5.5693   -5.2272    4.6693 C   0  0  0  0  0  0  0  0  0  0  0  0
    3.9743   -7.0439    4.4336 C   0  0  1  0  0  0  0  0  0  0  0  0
    3.5997   -8.3416    4.4642 O   0  0  0  0  0  0  0  0  0  0  0  0
    3.1340   -9.0578    3.4051 C   0  0  1  0  0  0  0  0  0  0  0  0
    2.6559   -8.2360    2.1472 C   0  0  0  0  0  0  0  0  0  0  0  0
    1.8194   -9.7094    4.0176 C   0  0  1  0  0  0  0  0  0  0  0  0
    2.1415  -10.9614    4.6098 O   0  0  0  0  0  0  0  0  0  0  0  0
    0.7932  -10.2577    2.9376 C   0  0  0  0  0  0  0  0  0  0  0  0
   -0.3112   -9.2755    3.0452 C   0  0  0  0  0  0  0  0  0  0  0  0
   -1.5526   -9.0498    2.2532 C   0  0  0  0  0  0  0  0  0  0  0  0
   -2.1070   -7.9435    2.9753 O   0  0  0  0  0  0  0  0  0  0  0  0
   -1.3504   -7.5900    4.0677 C   0  0  0  0  0  0  0  0  0  0  0  0
   -1.5503   -6.6640    4.8383 O   0  0  0  0  0  0  0  0  0  0  0  0
   -0.2236   -8.5097    4.0781 C   0  0  0  0  0  0  0  0  0  0  0  0
    1.0221   -9.4776    7.0714 H   0  0  0  0  0  0  0  0  0  0  0  0
   -0.0433  -10.3337    5.9738 H   0  0  0  0  0  0  0  0  0  0  0  0
   -0.5041   -8.7800    6.6045 H   0  0  0  0  0  0  0  0  0  0  0  0
    1.2146   -6.5383    4.5713 H   0  0  0  0  0  0  0  0  0  0  0  0
    0.9692   -6.8656    6.2445 H   0  0  0  0  0  0  0  0  0  0  0  0
    2.9787   -5.6948    5.6615 H   0  0  0  0  0  0  0  0  0  0  0  0
    2.8067   -8.2117    8.1877 H   0  0  0  0  0  0  0  0  0  0  0  0
    3.3898  -10.3307    7.5667 H   0  0  0  0  0  0  0  0  0  0  0  0
    2.9069   -9.5555    6.1863 H   0  0  0  0  0  0  0  0  0  0  0  0
    4.7637  -11.2155    6.0828 H   0  0  0  0  0  0  0  0  0  0  0  0
    5.5312  -10.5309    8.1694 H   0  0  0  0  0  0  0  0  0  0  0  0
    6.8437  -10.6666    7.2555 H   0  0  0  0  0  0  0  0  0  0  0  0
    6.9480   -8.5955    8.5068 H   0  0  0  0  0  0  0  0  0  0  0  0
    5.0114   -7.1503    8.9622 H   0  0  0  0  0  0  0  0  0  0  0  0
    4.7697   -8.8232    9.3413 H   0  0  0  0  0  0  0  0  0  0  0  0
    5.9344   -6.5657    6.9083 H   0  0  0  0  0  0  0  0  0  0  0  0
    7.0787   -4.6279    7.8842 H   0  0  0  0  0  0  0  0  0  0  0  0
   11.1479   -3.3657    9.8827 H   0  0  0  0  0  0  0  0  0  0  0  0
    8.2577   -6.7247    3.6206 H   0  0  0  0  0  0  0  0  0  0  0  0
    8.9804   -7.3131    5.0469 H   0  0  0  0  0  0  0  0  0  0  0  0
    8.1836   -5.7844    5.0705 H   0  0  0  0  0  0  0  0  0  0  0  0
    7.7842  -10.2876    2.9967 H   0  0  0  0  0  0  0  0  0  0  0  0
    8.8721   -9.0020    3.3563 H   0  0  0  0  0  0  0  0  0  0  0  0
    7.5992   -8.6234    2.4621 H   0  0  0  0  0  0  0  0  0  0  0  0
    8.0775  -10.8318    5.4552 H   0  0  0  0  0  0  0  0  0  0  0  0
    8.2068   -9.4318    6.5063 H   0  0  0  0  0  0  0  0  0  0  0  0
    9.1742   -9.5245    5.2079 H   0  0  0  0  0  0  0  0  0  0  0  0
    5.9905  -10.8366    4.4627 H   0  0  0  0  0  0  0  0  0  0  0  0
    4.3206  -10.8204    3.1563 H   0  0  0  0  0  0  0  0  0  0  0  0
    6.0734   -9.9076    1.8540 H   0  0  0  0  0  0  0  0  0  0  0  0
    4.5679   -9.5482    1.2750 H   0  0  0  0  0  0  0  0  0  0  0  0
    5.3039   -5.0223    5.6992 H   0  0  0  0  0  0  0  0  0  0  0  0
    4.8492   -4.6635    4.0744 H   0  0  0  0  0  0  0  0  0  0  0  0
    6.5165   -4.7291    4.4863 H   0  0  0  0  0  0  0  0  0  0  0  0
    3.4838   -6.4793    3.6458 H   0  0  0  0  0  0  0  0  0  0  0  0
    2.4974   -8.8809    1.2850 H   0  0  0  0  0  0  0  0  0  0  0  0
    3.2878   -7.4366    1.7869 H   0  0  0  0  0  0  0  0  0  0  0  0
    1.7160   -7.7298    2.3485 H   0  0  0  0  0  0  0  0  0  0  0  0
    2.4936  -11.5299    3.9434 H   0  0  0  0  0  0  0  0  0  0  0  0
    1.1588  -10.3703    1.9196 H   0  0  0  0  0  0  0  0  0  0  0  0
    0.3361  -11.2025    3.2383 H   0  0  0  0  0  0  0  0  0  0  0  0
   -2.2124   -9.9145    2.2860 H   0  0  0  0  0  0  0  0  0  0  0  0
   -1.3409   -8.7908    1.2180 H   0  0  0  0  0  0  0  0  0  0  0  0
  2  1  1  1
  1 47  1  0
  1 48  1  0
  1 49  1  0
  2 38  1  0
  2  3  1  0
  2 46  1  0
  3  4  1  0
  3 50  1  0
  3 51  1  0
  4 34  1  0
  4  5  1  0
  4 52  1  1
  5  6  1  0
  6 11  1  0
  6  7  1  0
  6 53  1  1
  7  8  1  0
  7 54  1  0
  7 55  1  0
  8 26  1  0
  8  9  1  0
  8 56  1  6
  9 10  1  0
  9 57  1  0
  9 58  1  0
 10 11  1  0
 10 12  1  0
 10 59  1  1
 11 60  1  0
 11 61  1  0
 12 13  1  0
 12 21  1  0
 12 62  1  6
 13 20  1  0
 13 14  2  0
 14 15  1  0
 14 63  1  0
 15 19  1  0
 15 16  1  0
 16 17  2  0
 17 18  1  0
 17 64  1  0
 18 19  2  0
 19 20  1  0
 21 32  1  0
 21 22  1  6
 21 23  1  0
 22 65  1  0
 22 66  1  0
 22 67  1  0
 23 24  1  0
 23 25  1  0
 23 26  1  0
 24 68  1  0
 24 69  1  0
 24 70  1  0
 25 71  1  0
 25 72  1  0
 25 73  1  0
 26 27  1  0
 26 74  1  6
 27 36  1  0
 27 28  1  0
 27 75  1  6
 28 29  1  0
 28 76  1  0
 28 77  1  0
 29 30  1  0
 30 31  2  0
 30 32  1  0
 32 33  1  1
 32 34  1  0
 33 78  1  0
 33 79  1  0
 33 80  1  0
 34 35  1  0
 34 81  1  6
 35 36  1  0
 36 37  1  6
 36 38  1  0
 37 82  1  0
 37 83  1  0
 37 84  1  0
 38 39  1  1
 38 40  1  0
 39 85  1  0
 40 86  1  0
 40 87  1  0
 40 41  1  0
 41 46  2  0
 41 42  1  0
 42 43  1  0
 42 88  1  0
 42 89  1  0
 43 44  1  0
 44 46  1  0
 44 45  2  0
M  END
>  <i_m_ct_stereo_status>  (18) 
1

>  <s_m_source_file>  (18) 
/var/tmp/pbs.5076255.sched01/tmppfua8s0c/0korcpw03.sdf

>  <i_m_source_file_index>  (18) 
8

>  <i_lp_mmshare_version>  (18) 
48012

>  <i_f3d_flags>  (18) 
2

>  <s_epik_input>  (18) 
W2NIXTFvYyhbT0hdKWMyYzFbQ0gyXVtDQEBdKFtPSF0pKFtDQEBdMjNbQ0gzXSlbQ0BdNChbQ0gzXSlbQ0BIXTVbQ0BIXTZbQ0BIXTdbQ0gyXVtDQEhdOE9bQ0BASF0oW0NIMl0zKVtDSF0oTzQpW0NAQF0oW0NIM10pKEMoPU8pT1tDSDJdNSlbQ0BAXShbQ0gzXSkoQzYoW0NIM10pW0NIM10pW0NAQEhdKFtDQEBIXShbQ0gyXTcpW0NIMl04KWMoW2NIXTkpc2MobjE5KW5bY0hdbjE=

>  <s_epik_cmdline>  (18) 
J2VwaWtfcHl0aG9uJywgJy1waHQnLCAnMi4wJywgJy1waCcsICc3LjAnLCAnLXRuJywgJzgnLCAnLW1hJywgJzIwMCcsICctaW1hZScsICc8aW5maWxlLm1hZT4nLCAnLW9tYWUnLCAnPG91dGZpbGUubWFlPic=

>  <r_lp_tautomer_probability>  (18) 
0.999841

>  <r_epik_Ionization_Penalty>  (18) 
0.000819473

>  <r_epik_Ionization_Penalty_Charging>  (18) 
0

>  <r_epik_Ionization_Penalty_Neutral>  (18) 
0.000819473

>  <r_epik_State_Penalty>  (18) 
0.000525821

>  <r_epik_Charging_Adjusted_Penalty>  (18) 
0.000525821

>  <i_epik_Tot_Q>  (18) 
0

>  <i_epik_Tot_abs_Q>  (18) 
0

>  <s_epik_Chemistry_Notes>  (18) 
This compound has an ester and may undergo hydrolysis at high or low pH.

>  <s_lp_Force_Field>  (18) 
OPLS3e

>  <r_lp_Energy>  (18) 
272.039

>  <b_lp_Chiralities_Consistent>  (18) 
0

>  <s_lp_Variant>  (18) 
6:0-1

>  <s_i_glide_gridfile>  (18) 
pfpi4k_grid

>  <i_i_glide_lignum>  (18) 
8

>  <i_i_glide_rotatable_bonds>  (18) 
2

>  <r_i_docking_score>  (18) 
-2.50283

>  <r_i_glide_ligand_efficiency>  (18) 
-0.0544094

>  <r_i_glide_ligand_efficiency_sa>  (18) 
-0.194951

>  <r_i_glide_ligand_efficiency_ln>  (18) 
-0.51833

>  <r_i_glide_gscore>  (18) 
-2.50283

>  <r_i_glide_lipo>  (18) 
-0.37513

>  <r_i_glide_hbond>  (18) 
0

>  <r_i_glide_metal>  (18) 
-0

>  <r_i_glide_rewards>  (18) 
-0.0275399

>  <r_i_glide_evdw>  (18) 
-34.3187

>  <r_i_glide_ecoul>  (18) 
-2.44947

>  <r_i_glide_erotb>  (18) 
0.0502856

>  <r_i_glide_esite>  (18) 
-0.0670889

>  <r_i_glide_emodel>  (18) 
-43.5077

>  <r_i_glide_energy>  (18) 
-36.7682

>  <r_i_glide_einternal>  (18) 
0.0625899

>  <r_i_glide_intrahb_reward>  (18) 
-0

>  <i_i_glide_confnum>  (18) 
1

>  <i_i_glide_posenum>  (18) 
5

>  <r_i_glide_eff_state_penalty>  (18) 
0

>  <ligand_id>  (18) 
6

>  <original_smiles>  (18) 
CC12CC3OC4CC5CC(C4)C(c4cn6ncnc6s4)C4(C)C(C)(C)C5C5COC(=O)C4(C)C3OC5(C)C1(O)Cc1coc(O)c12

>  <smiles>  (18) 
[H]OC12C([H])([H])C3=C(C(=O)OC3([H])[H])C1(C([H])([H])[H])C([H])([H])C1([H])OC3([H])C([H])([H])C4([H])C([H])([H])C([H])(C3([H])[H])C3([H])C5([H])C([H])([H])OC(=O)C(C([H])([H])[H])(C1([H])OC52C([H])([H])[H])C(C([H])([H])[H])(C4([H])c1sc2nc([H])nn2c1[H])C3(C([H])([H])[H])C([H])([H])[H]

$$$$
7:0:0
     RDKit          3D

 49 52  0  0  1  0  0  0  0  0999 V2000
    2.3283   -3.4549   -1.5616 C   0  0  0  0  0  0  0  0  0  0  0  0
    3.3987   -3.1712   -0.7921 C   0  0  0  0  0  0  0  0  0  0  0  0
    4.3763   -2.1808   -1.3383 C   0  0  0  0  0  0  0  0  0  0  0  0
    4.4456   -1.8466   -2.5203 O   0  0  0  0  0  0  0  0  0  0  0  0
    5.3606   -1.5392   -0.3532 C   0  0  0  0  0  0  0  0  0  0  0  0
    5.1640   -2.0401    1.1045 C   0  0  1  0  0  0  0  0  0  0  0  0
    6.2764   -1.5115    1.7875 O   0  0  0  0  0  0  0  0  0  0  0  0
    3.7862   -1.5353    1.7234 C   0  0  0  0  0  0  0  0  0  0  0  0
    3.8803   -0.8062    3.0969 C   0  0  0  0  0  0  0  0  0  0  0  0
    3.0417   -0.4255    0.9169 C   0  0  0  0  0  0  0  0  0  0  0  0
    2.9434   -2.8570    1.6647 C   0  0  2  0  0  0  0  0  0  0  0  0
    2.5627   -3.5346    3.0175 C   0  0  1  0  0  0  0  0  0  0  0  0
    1.8707   -4.8540    2.7686 C   0  0  0  0  0  0  0  0  0  0  0  0
    2.1142   -5.6399    1.7083 C   0  0  0  0  0  0  0  0  0  0  0  0
    1.3930   -6.9624    1.5206 C   0  0  0  0  0  0  0  0  0  0  0  0
    3.1574   -5.2935    0.6545 C   0  0  0  0  0  0  0  0  0  0  0  0
    3.6577   -3.7957    0.6256 C   0  0  1  0  0  0  0  0  0  0  0  0
    5.1537   -3.6301    1.0702 C   0  0  1  0  0  0  0  0  0  0  0  0
    6.2003   -4.2654    0.0788 C   0  0  0  0  0  0  0  0  0  0  0  0
    5.4236   -4.3823    2.4243 C   0  0  0  0  0  0  0  0  0  0  0  0
    5.8950   -5.5186    2.4391 O   0  0  0  0  0  0  0  0  0  0  0  0
    5.1115   -3.7673    3.7723 C   0  0  0  0  0  0  0  0  0  0  0  0
    3.6221   -3.7101    4.1416 C   0  0  0  0  0  0  0  0  0  0  0  0
    1.5568   -4.1399   -1.2535 H   0  0  0  0  0  0  0  0  0  0  0  0
    2.1935   -2.9932   -2.5298 H   0  0  0  0  0  0  0  0  0  0  0  0
    6.3680   -1.7811   -0.6967 H   0  0  0  0  0  0  0  0  0  0  0  0
    5.2865   -0.4517   -0.4233 H   0  0  0  0  0  0  0  0  0  0  0  0
    6.2929   -0.5766    1.6632 H   0  0  0  0  0  0  0  0  0  0  0  0
    2.8984   -0.7298    3.5615 H   0  0  0  0  0  0  0  0  0  0  0  0
    4.2408    0.2128    2.9669 H   0  0  0  0  0  0  0  0  0  0  0  0
    4.5472   -1.2300    3.8254 H   0  0  0  0  0  0  0  0  0  0  0  0
    2.1525   -0.0780    1.4462 H   0  0  0  0  0  0  0  0  0  0  0  0
    2.6526   -0.7528   -0.0385 H   0  0  0  0  0  0  0  0  0  0  0  0
    3.6668    0.4481    0.7364 H   0  0  0  0  0  0  0  0  0  0  0  0
    1.9724   -2.6104    1.2329 H   0  0  0  0  0  0  0  0  0  0  0  0
    1.7804   -2.9089    3.4482 H   0  0  0  0  0  0  0  0  0  0  0  0
    1.1422   -5.1490    3.5114 H   0  0  0  0  0  0  0  0  0  0  0  0
    0.7822   -6.9509    0.6162 H   0  0  0  0  0  0  0  0  0  0  0  0
    0.7404   -7.1788    2.3680 H   0  0  0  0  0  0  0  0  0  0  0  0
    2.1121   -7.7783    1.4366 H   0  0  0  0  0  0  0  0  0  0  0  0
    3.9848   -5.9833    0.8020 H   0  0  0  0  0  0  0  0  0  0  0  0
    2.7692   -5.6140   -0.3089 H   0  0  0  0  0  0  0  0  0  0  0  0
    6.0980   -4.0104   -0.9704 H   0  0  0  0  0  0  0  0  0  0  0  0
    6.1597   -5.3554    0.0695 H   0  0  0  0  0  0  0  0  0  0  0  0
    7.2154   -3.9920    0.3716 H   0  0  0  0  0  0  0  0  0  0  0  0
    5.6126   -4.3714    4.5270 H   0  0  0  0  0  0  0  0  0  0  0  0
    5.6266   -2.8181    3.8321 H   0  0  0  0  0  0  0  0  0  0  0  0
    3.4937   -2.9133    4.8738 H   0  0  0  0  0  0  0  0  0  0  0  0
    3.3848   -4.6122    4.7064 H   0  0  0  0  0  0  0  0  0  0  0  0
  1  2  2  0
  1 24  1  0
  1 25  1  0
  2 17  1  0
  2  3  1  0
  3  4  2  0
  3  5  1  0
  5  6  1  0
  5 26  1  0
  5 27  1  0
  6 18  1  0
  6  7  1  1
  6  8  1  0
  7 28  1  0
  8  9  1  0
  8 10  1  0
  8 11  1  0
  9 29  1  0
  9 30  1  0
  9 31  1  0
 10 32  1  0
 10 33  1  0
 10 34  1  0
 11 17  1  0
 11 12  1  0
 11 35  1  6
 12 23  1  0
 12 13  1  0
 12 36  1  1
 13 14  2  0
 13 37  1  0
 14 15  1  0
 14 16  1  0
 15 38  1  0
 15 39  1  0
 15 40  1  0
 17 16  1  6
 16 41  1  0
 16 42  1  0
 17 18  1  0
 18 19  1  6
 18 20  1  0
 19 43  1  0
 19 44  1  0
 19 45  1  0
 20 21  2  0
 20 22  1  0
 22 23  1  0
 22 46  1  0
 22 47  1  0
 23 48  1  0
 23 49  1  0
M  END
>  <i_m_ct_stereo_status>  (19) 
1

>  <s_m_source_file>  (19) 
/var/tmp/pbs.5076255.sched01/tmppfua8s0c/0korcpw03.sdf

>  <i_m_source_file_index>  (19) 
9

>  <i_lp_mmshare_version>  (19) 
48012

>  <i_f3d_flags>  (19) 
0

>  <s_epik_input>  (19) 
W0NIMl09QzFDKD1PKVtDSDJdW0NAQF0oW09IXSkoQzIoW0NIM10pW0NIM10pW0NAQF0zKFtDSDNdKUMoPU8pW0NIMl1bQ0gyXVtDQEBIXShbQ0BASF0yW0NAQF0xMzQpW0NIXT1DKFtDSDNdKVtDSDJdNA==

>  <s_epik_cmdline>  (19) 
J2VwaWtfcHl0aG9uJywgJy1waHQnLCAnMi4wJywgJy1waCcsICc3LjAnLCAnLXRuJywgJzgnLCAnLW1hJywgJzIwMCcsICctaW1hZScsICc8aW5maWxlLm1hZT4nLCAnLW9tYWUnLCAnPG91dGZpbGUubWFlPic=

>  <r_lp_tautomer_probability>  (19) 
1

>  <r_epik_Ionization_Penalty>  (19) 
7.97431e-08

>  <r_epik_Ionization_Penalty_Charging>  (19) 
0

>  <r_epik_Ionization_Penalty_Neutral>  (19) 
7.97431e-08

>  <r_epik_State_Penalty>  (19) 
-0

>  <r_epik_Charging_Adjusted_Penalty>  (19) 
0

>  <i_epik_Tot_Q>  (19) 
0

>  <i_epik_Tot_abs_Q>  (19) 
0

>  <s_lp_Force_Field>  (19) 
OPLS3e

>  <r_lp_Energy>  (19) 
75.2786

>  <b_lp_Chiralities_Consistent>  (19) 
1

>  <s_lp_Variant>  (19) 
7:0-1

>  <s_i_glide_gridfile>  (19) 
pfpi4k_grid

>  <i_i_glide_lignum>  (19) 
9

>  <i_i_glide_rotatable_bonds>  (19) 
1

>  <r_i_docking_score>  (19) 
-3.13335

>  <r_i_glide_ligand_efficiency>  (19) 
-0.136233

>  <r_i_glide_ligand_efficiency_sa>  (19) 
-0.387428

>  <r_i_glide_ligand_efficiency_ln>  (19) 
-0.757673

>  <r_i_glide_gscore>  (19) 
-3.13335

>  <r_i_glide_lipo>  (19) 
-0.348493

>  <r_i_glide_hbond>  (19) 
0

>  <r_i_glide_metal>  (19) 
-0

>  <r_i_glide_rewards>  (19) 
-1.29843

>  <r_i_glide_evdw>  (19) 
-24.001

>  <r_i_glide_ecoul>  (19) 
-1.73192

>  <r_i_glide_erotb>  (19) 
0

>  <r_i_glide_esite>  (19) 
-0.0265955

>  <r_i_glide_emodel>  (19) 
-30.39

>  <r_i_glide_energy>  (19) 
-25.7329

>  <r_i_glide_einternal>  (19) 
0.0171857

>  <r_i_glide_intrahb_reward>  (19) 
-0

>  <i_i_glide_confnum>  (19) 
1

>  <i_i_glide_posenum>  (19) 
23

>  <r_i_glide_eff_state_penalty>  (19) 
0

>  <ligand_id>  (19) 
7

>  <original_smiles>  (19) 
C=C1C(=O)CC2(O)C(C)(C)C3C4C=C(C)CC13C2(C)C(=O)CC4

>  <smiles>  (19) 
[H]OC12C([H])([H])C(=O)C(=C([H])[H])C34C([H])([H])C(C([H])([H])[H])=C([H])C([H])(C([H])([H])C([H])([H])C(=O)C13C([H])([H])[H])C4([H])C2(C([H])([H])[H])C([H])([H])[H]

$$$$
7:0:1
     RDKit          3D

 49 52  0  0  1  0  0  0  0  0999 V2000
    2.5022   -3.4449   -1.5258 C   0  0  0  0  0  0  0  0  0  0  0  0
    3.5078   -3.1409   -0.6779 C   0  0  0  0  0  0  0  0  0  0  0  0
    4.4824   -2.1011   -1.1349 C   0  0  0  0  0  0  0  0  0  0  0  0
    4.6086   -1.7232   -2.3004 O   0  0  0  0  0  0  0  0  0  0  0  0
    5.3890   -1.4605   -0.0735 C   0  0  0  0  0  0  0  0  0  0  0  0
    5.1283   -2.0126    1.3547 C   0  0  1  0  0  0  0  0  0  0  0  0
    6.1902   -1.4576    2.1054 O   0  0  0  0  0  0  0  0  0  0  0  0
    3.6993   -1.5700    1.9028 C   0  0  0  0  0  0  0  0  0  0  0  0
    3.6852   -0.8862    3.3019 C   0  0  0  0  0  0  0  0  0  0  0  0
    2.9757   -0.4538    1.0857 C   0  0  0  0  0  0  0  0  0  0  0  0
    2.8975   -2.9087    1.7511 C   0  0  2  0  0  0  0  0  0  0  0  0
    2.4573   -3.6414    3.0559 C   0  0  1  0  0  0  0  0  0  0  0  0
    1.8173   -4.9705    2.7264 C   0  0  0  0  0  0  0  0  0  0  0  0
    2.1524   -5.7189    1.6620 C   0  0  0  0  0  0  0  0  0  0  0  0
    1.4836   -7.0522    1.3896 C   0  0  0  0  0  0  0  0  0  0  0  0
    3.2462   -5.3088    0.6868 C   0  0  0  0  0  0  0  0  0  0  0  0
    3.7028   -3.7960    0.7316 C   0  0  1  0  0  0  0  0  0  0  0  0
    5.1690   -3.6030    1.2698 C   0  0  1  0  0  0  0  0  0  0  0  0
    6.2857   -4.1790    0.3226 C   0  0  0  0  0  0  0  0  0  0  0  0
    5.3806   -4.3913    2.6165 C   0  0  0  0  0  0  0  0  0  0  0  0
    5.8837   -5.5169    2.6238 O   0  0  0  0  0  0  0  0  0  0  0  0
    4.9662   -3.8276    3.9590 C   0  0  0  0  0  0  0  0  0  0  0  0
    3.4517   -3.8249    4.2361 C   0  0  0  0  0  0  0  0  0  0  0  0
    1.7311   -4.1571   -1.2835 H   0  0  0  0  0  0  0  0  0  0  0  0
    2.4055   -2.9519   -2.4814 H   0  0  0  0  0  0  0  0  0  0  0  0
    6.4188   -1.6573   -0.3699 H   0  0  0  0  0  0  0  0  0  0  0  0
    5.2832   -0.3752   -0.1047 H   0  0  0  0  0  0  0  0  0  0  0  0
    7.0006   -1.6538    1.6703 H   0  0  0  0  0  0  0  0  0  0  0  0
    2.6748   -0.8504    3.7096 H   0  0  0  0  0  0  0  0  0  0  0  0
    4.0263    0.1478    3.2264 H   0  0  0  0  0  0  0  0  0  0  0  0
    4.3201   -1.3111    4.0605 H   0  0  0  0  0  0  0  0  0  0  0  0
    2.0488   -0.1500    1.5741 H   0  0  0  0  0  0  0  0  0  0  0  0
    2.6474   -0.7553    0.0956 H   0  0  0  0  0  0  0  0  0  0  0  0
    3.5802    0.4475    0.9712 H   0  0  0  0  0  0  0  0  0  0  0  0
    1.9464   -2.6742    1.2705 H   0  0  0  0  0  0  0  0  0  0  0  0
    1.6301   -3.0563    3.4589 H   0  0  0  0  0  0  0  0  0  0  0  0
    1.0583   -5.3149    3.4163 H   0  0  0  0  0  0  0  0  0  0  0  0
    0.9254   -7.0256    0.4546 H   0  0  0  0  0  0  0  0  0  0  0  0
    0.7891   -7.3193    2.1895 H   0  0  0  0  0  0  0  0  0  0  0  0
    2.2306   -7.8437    1.3187 H   0  0  0  0  0  0  0  0  0  0  0  0
    4.0848   -5.9801    0.8601 H   0  0  0  0  0  0  0  0  0  0  0  0
    2.9216   -5.6123   -0.3052 H   0  0  0  0  0  0  0  0  0  0  0  0
    6.2387   -3.8868   -0.7222 H   0  0  0  0  0  0  0  0  0  0  0  0
    6.2727   -5.2682    0.2693 H   0  0  0  0  0  0  0  0  0  0  0  0
    7.2730   -3.8921    0.6853 H   0  0  0  0  0  0  0  0  0  0  0  0
    5.4376   -4.4435    4.7260 H   0  0  0  0  0  0  0  0  0  0  0  0
    5.4477   -2.8652    4.0814 H   0  0  0  0  0  0  0  0  0  0  0  0
    3.2555   -3.0577    4.9854 H   0  0  0  0  0  0  0  0  0  0  0  0
    3.2098   -4.7529    4.7616 H   0  0  0  0  0  0  0  0  0  0  0  0
  1  2  2  0
  1 24  1  0
  1 25  1  0
  2 17  1  0
  2  3  1  0
  3  4  2  0
  3  5  1  0
  5  6  1  0
  5 26  1  0
  5 27  1  0
  6 18  1  0
  6  7  1  1
  6  8  1  0
  7 28  1  0
  8  9  1  0
  8 10  1  0
  8 11  1  0
  9 29  1  0
  9 30  1  0
  9 31  1  0
 10 32  1  0
 10 33  1  0
 10 34  1  0
 11 17  1  0
 11 12  1  0
 11 35  1  6
 12 23  1  0
 12 13  1  0
 12 36  1  1
 13 14  2  0
 13 37  1  0
 14 15  1  0
 14 16  1  0
 15 38  1  0
 15 39  1  0
 15 40  1  0
 17 16  1  6
 16 41  1  0
 16 42  1  0
 17 18  1  0
 18 19  1  6
 18 20  1  0
 19 43  1  0
 19 44  1  0
 19 45  1  0
 20 21  2  0
 20 22  1  0
 22 23  1  0
 22 46  1  0
 22 47  1  0
 23 48  1  0
 23 49  1  0
M  END
>  <i_m_ct_stereo_status>  (20) 
1

>  <s_m_source_file>  (20) 
/var/tmp/pbs.5076255.sched01/tmppfua8s0c/0korcpw03.sdf

>  <i_m_source_file_index>  (20) 
9

>  <i_lp_mmshare_version>  (20) 
48012

>  <i_f3d_flags>  (20) 
0

>  <s_epik_input>  (20) 
W0NIMl09QzFDKD1PKVtDSDJdW0NAQF0oW09IXSkoQzIoW0NIM10pW0NIM10pW0NAQF0zKFtDSDNdKUMoPU8pW0NIMl1bQ0gyXVtDQEBIXShbQ0BASF0yW0NAQF0xMzQpW0NIXT1DKFtDSDNdKVtDSDJdNA==

>  <s_epik_cmdline>  (20) 
J2VwaWtfcHl0aG9uJywgJy1waHQnLCAnMi4wJywgJy1waCcsICc3LjAnLCAnLXRuJywgJzgnLCAnLW1hJywgJzIwMCcsICctaW1hZScsICc8aW5maWxlLm1hZT4nLCAnLW9tYWUnLCAnPG91dGZpbGUubWFlPic=

>  <r_lp_tautomer_probability>  (20) 
1

>  <r_epik_Ionization_Penalty>  (20) 
7.97431e-08

>  <r_epik_Ionization_Penalty_Charging>  (20) 
0

>  <r_epik_Ionization_Penalty_Neutral>  (20) 
7.97431e-08

>  <r_epik_State_Penalty>  (20) 
-0

>  <r_epik_Charging_Adjusted_Penalty>  (20) 
0

>  <i_epik_Tot_Q>  (20) 
0

>  <i_epik_Tot_abs_Q>  (20) 
0

>  <s_lp_Force_Field>  (20) 
OPLS3e

>  <r_lp_Energy>  (20) 
75.2786

>  <b_lp_Chiralities_Consistent>  (20) 
1

>  <s_lp_Variant>  (20) 
7:0-1

>  <s_i_glide_gridfile>  (20) 
pfpi4k_grid

>  <i_i_glide_lignum>  (20) 
9

>  <i_i_glide_rotatable_bonds>  (20) 
1

>  <r_i_docking_score>  (20) 
-3.03267

>  <r_i_glide_ligand_efficiency>  (20) 
-0.131855

>  <r_i_glide_ligand_efficiency_sa>  (20) 
-0.374978

>  <r_i_glide_ligand_efficiency_ln>  (20) 
-0.733326

>  <r_i_glide_gscore>  (20) 
-3.03267

>  <r_i_glide_lipo>  (20) 
-0.3471

>  <r_i_glide_hbond>  (20) 
0

>  <r_i_glide_metal>  (20) 
-0

>  <r_i_glide_rewards>  (20) 
-1.29429

>  <r_i_glide_evdw>  (20) 
-23.9974

>  <r_i_glide_ecoul>  (20) 
-1.09708

>  <r_i_glide_erotb>  (20) 
0

>  <r_i_glide_esite>  (20) 
-0.0268437

>  <r_i_glide_emodel>  (20) 
-29.5678

>  <r_i_glide_energy>  (20) 
-25.0945

>  <r_i_glide_einternal>  (20) 
0.0556391

>  <r_i_glide_intrahb_reward>  (20) 
-0

>  <i_i_glide_confnum>  (20) 
2

>  <i_i_glide_posenum>  (20) 
28

>  <r_i_glide_eff_state_penalty>  (20) 
0

>  <ligand_id>  (20) 
7

>  <original_smiles>  (20) 
C=C1C(=O)CC2(O)C(C)(C)C3C4C=C(C)CC13C2(C)C(=O)CC4

>  <smiles>  (20) 
[H]OC12C([H])([H])C(=O)C(=C([H])[H])C34C([H])([H])C(C([H])([H])[H])=C([H])C([H])(C([H])([H])C([H])([H])C(=O)C13C([H])([H])[H])C4([H])C2(C([H])([H])[H])C([H])([H])[H]

$$$$
7:0:2
     RDKit          3D

 49 52  0  0  1  0  0  0  0  0999 V2000
    2.3050   -3.4537   -1.5496 C   0  0  0  0  0  0  0  0  0  0  0  0
    3.3799   -3.1758   -0.7806 C   0  0  0  0  0  0  0  0  0  0  0  0
    4.3606   -2.1926   -1.3354 C   0  0  0  0  0  0  0  0  0  0  0  0
    4.4333   -1.8640   -2.5150 O   0  0  0  0  0  0  0  0  0  0  0  0
    5.3489   -1.5557   -0.3546 C   0  0  0  0  0  0  0  0  0  0  0  0
    5.1540   -2.0455    1.1025 C   0  0  1  0  0  0  0  0  0  0  0  0
    6.2739   -1.4934    1.7515 O   0  0  0  0  0  0  0  0  0  0  0  0
    3.7828   -1.5305    1.7253 C   0  0  0  0  0  0  0  0  0  0  0  0
    3.8834   -0.7965    3.0950 C   0  0  0  0  0  0  0  0  0  0  0  0
    3.0432   -0.4209    0.9155 C   0  0  0  0  0  0  0  0  0  0  0  0
    2.9307   -2.8477    1.6739 C   0  0  2  0  0  0  0  0  0  0  0  0
    2.5483   -3.5161    3.0308 C   0  0  1  0  0  0  0  0  0  0  0  0
    1.8474   -4.8321    2.7899 C   0  0  0  0  0  0  0  0  0  0  0  0
    2.0845   -5.6241    1.7323 C   0  0  0  0  0  0  0  0  0  0  0  0
    1.3555   -6.9423    1.5515 C   0  0  0  0  0  0  0  0  0  0  0  0
    3.1270   -5.2896    0.6742 C   0  0  0  0  0  0  0  0  0  0  0  0
    3.6382   -3.7952    0.6370 C   0  0  1  0  0  0  0  0  0  0  0  0
    5.1371   -3.6390    1.0789 C   0  0  1  0  0  0  0  0  0  0  0  0
    6.1762   -4.2842    0.0863 C   0  0  0  0  0  0  0  0  0  0  0  0
    5.4067   -4.3866    2.4357 C   0  0  0  0  0  0  0  0  0  0  0  0
    5.8767   -5.5257    2.4561 O   0  0  0  0  0  0  0  0  0  0  0  0
    5.0982   -3.7630    3.7807 C   0  0  0  0  0  0  0  0  0  0  0  0
    3.6088   -3.6923    4.1522 C   0  0  0  0  0  0  0  0  0  0  0  0
    1.5311   -4.1335   -1.2374 H   0  0  0  0  0  0  0  0  0  0  0  0
    2.1728   -2.9952   -2.5197 H   0  0  0  0  0  0  0  0  0  0  0  0
    6.3564   -1.8011   -0.6956 H   0  0  0  0  0  0  0  0  0  0  0  0
    5.2853   -0.4685   -0.4191 H   0  0  0  0  0  0  0  0  0  0  0  0
    6.2449   -1.7449    2.6600 H   0  0  0  0  0  0  0  0  0  0  0  0
    2.9017   -0.7075    3.5581 H   0  0  0  0  0  0  0  0  0  0  0  0
    4.2509    0.2191    2.9552 H   0  0  0  0  0  0  0  0  0  0  0  0
    4.5458   -1.2178    3.8293 H   0  0  0  0  0  0  0  0  0  0  0  0
    2.1577   -0.0636    1.4432 H   0  0  0  0  0  0  0  0  0  0  0  0
    2.6506   -0.7485   -0.0383 H   0  0  0  0  0  0  0  0  0  0  0  0
    3.6750    0.4471    0.7294 H   0  0  0  0  0  0  0  0  0  0  0  0
    1.9606   -2.5952    1.2420 H   0  0  0  0  0  0  0  0  0  0  0  0
    1.7703   -2.8821    3.4584 H   0  0  0  0  0  0  0  0  0  0  0  0
    1.1190   -5.1170    3.5345 H   0  0  0  0  0  0  0  0  0  0  0  0
    0.7433   -6.9311    0.6475 H   0  0  0  0  0  0  0  0  0  0  0  0
    0.7028   -7.1505    2.4011 H   0  0  0  0  0  0  0  0  0  0  0  0
    2.0695   -7.7634    1.4697 H   0  0  0  0  0  0  0  0  0  0  0  0
    3.9513   -5.9828    0.8228 H   0  0  0  0  0  0  0  0  0  0  0  0
    2.7347   -5.6105   -0.2872 H   0  0  0  0  0  0  0  0  0  0  0  0
    6.0722   -4.0302   -0.9647 H   0  0  0  0  0  0  0  0  0  0  0  0
    6.1303   -5.3739    0.0788 H   0  0  0  0  0  0  0  0  0  0  0  0
    7.1930   -4.0132    0.3757 H   0  0  0  0  0  0  0  0  0  0  0  0
    5.5933   -4.3676    4.5385 H   0  0  0  0  0  0  0  0  0  0  0  0
    5.6154   -2.8165    3.8461 H   0  0  0  0  0  0  0  0  0  0  0  0
    3.4864   -2.8904    4.8806 H   0  0  0  0  0  0  0  0  0  0  0  0
    3.3663   -4.5893    4.7217 H   0  0  0  0  0  0  0  0  0  0  0  0
  1  2  2  0
  1 24  1  0
  1 25  1  0
  2 17  1  0
  2  3  1  0
  3  4  2  0
  3  5  1  0
  5  6  1  0
  5 26  1  0
  5 27  1  0
  6 18  1  0
  6  7  1  1
  6  8  1  0
  7 28  1  0
  8  9  1  0
  8 10  1  0
  8 11  1  0
  9 29  1  0
  9 30  1  0
  9 31  1  0
 10 32  1  0
 10 33  1  0
 10 34  1  0
 11 17  1  0
 11 12  1  0
 11 35  1  6
 12 23  1  0
 12 13  1  0
 12 36  1  1
 13 14  2  0
 13 37  1  0
 14 15  1  0
 14 16  1  0
 15 38  1  0
 15 39  1  0
 15 40  1  0
 17 16  1  6
 16 41  1  0
 16 42  1  0
 17 18  1  0
 18 19  1  6
 18 20  1  0
 19 43  1  0
 19 44  1  0
 19 45  1  0
 20 21  2  0
 20 22  1  0
 22 23  1  0
 22 46  1  0
 22 47  1  0
 23 48  1  0
 23 49  1  0
M  END
>  <i_m_ct_stereo_status>  (21) 
1

>  <s_m_source_file>  (21) 
/var/tmp/pbs.5076255.sched01/tmppfua8s0c/0korcpw03.sdf

>  <i_m_source_file_index>  (21) 
9

>  <i_lp_mmshare_version>  (21) 
48012

>  <i_f3d_flags>  (21) 
0

>  <s_epik_input>  (21) 
W0NIMl09QzFDKD1PKVtDSDJdW0NAQF0oW09IXSkoQzIoW0NIM10pW0NIM10pW0NAQF0zKFtDSDNdKUMoPU8pW0NIMl1bQ0gyXVtDQEBIXShbQ0BASF0yW0NAQF0xMzQpW0NIXT1DKFtDSDNdKVtDSDJdNA==

>  <s_epik_cmdline>  (21) 
J2VwaWtfcHl0aG9uJywgJy1waHQnLCAnMi4wJywgJy1waCcsICc3LjAnLCAnLXRuJywgJzgnLCAnLW1hJywgJzIwMCcsICctaW1hZScsICc8aW5maWxlLm1hZT4nLCAnLW9tYWUnLCAnPG91dGZpbGUubWFlPic=

>  <r_lp_tautomer_probability>  (21) 
1

>  <r_epik_Ionization_Penalty>  (21) 
7.97431e-08

>  <r_epik_Ionization_Penalty_Charging>  (21) 
0

>  <r_epik_Ionization_Penalty_Neutral>  (21) 
7.97431e-08

>  <r_epik_State_Penalty>  (21) 
-0

>  <r_epik_Charging_Adjusted_Penalty>  (21) 
0

>  <i_epik_Tot_Q>  (21) 
0

>  <i_epik_Tot_abs_Q>  (21) 
0

>  <s_lp_Force_Field>  (21) 
OPLS3e

>  <r_lp_Energy>  (21) 
75.2786

>  <b_lp_Chiralities_Consistent>  (21) 
1

>  <s_lp_Variant>  (21) 
7:0-1

>  <s_i_glide_gridfile>  (21) 
pfpi4k_grid

>  <i_i_glide_lignum>  (21) 
9

>  <i_i_glide_rotatable_bonds>  (21) 
1

>  <r_i_docking_score>  (21) 
-2.99458

>  <r_i_glide_ligand_efficiency>  (21) 
-0.130199

>  <r_i_glide_ligand_efficiency_sa>  (21) 
-0.370269

>  <r_i_glide_ligand_efficiency_ln>  (21) 
-0.724117

>  <r_i_glide_gscore>  (21) 
-2.99458

>  <r_i_glide_lipo>  (21) 
-0.344641

>  <r_i_glide_hbond>  (21) 
0

>  <r_i_glide_metal>  (21) 
-0

>  <r_i_glide_rewards>  (21) 
-1.29821

>  <r_i_glide_evdw>  (21) 
-24.1365

>  <r_i_glide_ecoul>  (21) 
-0.790341

>  <r_i_glide_erotb>  (21) 
0

>  <r_i_glide_esite>  (21) 
-0.0263565

>  <r_i_glide_emodel>  (21) 
-29.3698

>  <r_i_glide_energy>  (21) 
-24.9269

>  <r_i_glide_einternal>  (21) 
0.00182908

>  <r_i_glide_intrahb_reward>  (21) 
-0

>  <i_i_glide_confnum>  (21) 
1

>  <i_i_glide_posenum>  (21) 
18

>  <r_i_glide_eff_state_penalty>  (21) 
0

>  <ligand_id>  (21) 
7

>  <original_smiles>  (21) 
C=C1C(=O)CC2(O)C(C)(C)C3C4C=C(C)CC13C2(C)C(=O)CC4

>  <smiles>  (21) 
[H]OC12C([H])([H])C(=O)C(=C([H])[H])C34C([H])([H])C(C([H])([H])[H])=C([H])C([H])(C([H])([H])C([H])([H])C(=O)C13C([H])([H])[H])C4([H])C2(C([H])([H])[H])C([H])([H])[H]

$$$$
9:0:0
     RDKit          3D

 55 59  0  0  1  0  0  0  0  0999 V2000
    4.5828   -2.3143    4.0866 C   0  0  0  0  0  0  0  0  0  0  0  0
    5.0946   -2.8787    2.7470 C   0  0  2  0  0  0  0  0  0  0  0  0
    5.2596   -1.7776    1.6749 C   0  0  0  0  0  0  0  0  0  0  0  0
    4.3010   -1.8291    0.4616 C   0  0  1  0  0  0  0  0  0  0  0  0
    3.0198   -1.4108    0.9187 O   0  0  0  0  0  0  0  0  0  0  0  0
    4.7098   -0.7394   -0.5563 C   0  0  0  0  0  0  0  0  0  0  0  0
    4.1520   -1.0283   -1.9080 C   0  0  0  0  0  0  0  0  0  0  0  0
    4.2272   -0.1283   -2.9196 O   0  0  0  0  0  0  0  0  0  0  0  0
    3.6415   -0.7173   -4.0504 N   0  0  0  0  0  0  0  0  0  0  0  0
    3.2107   -1.9077   -3.6647 C   0  0  0  0  0  0  0  0  0  0  0  0
    3.5428   -2.1544   -2.3008 C   0  0  0  0  0  0  0  0  0  0  0  0
    3.3042   -3.3191   -1.3944 C   0  0  0  0  0  0  0  0  0  0  0  0
    4.2389   -3.2787   -0.1488 C   0  0  1  0  0  0  0  0  0  0  0  0
    5.6734   -3.6652   -0.6165 C   0  0  0  0  0  0  0  0  0  0  0  0
    3.6864   -4.2562    0.9374 C   0  0  1  0  0  0  0  0  0  0  0  0
    3.2975   -5.7051    0.5261 C   0  0  1  0  0  0  0  0  0  0  0  0
    4.2304   -6.3850   -0.2918 O   0  0  0  0  0  0  0  0  0  0  0  0
    2.9344   -6.5652    1.7583 C   0  0  0  0  0  0  0  0  0  0  0  0
    4.0626   -6.7279    2.8100 C   0  0  1  0  0  0  0  0  0  0  0  0
    3.4151   -6.9982    4.1864 C   0  0  0  0  0  0  0  0  0  0  0  0
    5.0313   -7.8736    2.4859 C   0  0  0  0  0  0  0  0  0  0  0  0
    4.6931   -9.0488    2.4363 O   0  0  0  0  0  0  0  0  0  0  0  0
    6.4625   -7.4109    2.3155 C   0  0  0  0  0  0  0  0  0  0  0  0
    6.3186   -5.9025    2.1346 C   0  0  0  0  0  0  0  0  0  0  0  0
    5.0074   -5.4993    2.8542 C   0  0  1  0  0  0  0  0  0  0  0  0
    4.3332   -4.1809    2.3549 C   0  0  1  0  0  0  0  0  0  0  0  0
    3.5609   -1.9537    3.9960 H   0  0  0  0  0  0  0  0  0  0  0  0
    5.1999   -1.4869    4.4335 H   0  0  0  0  0  0  0  0  0  0  0  0
    4.5967   -3.0751    4.8642 H   0  0  0  0  0  0  0  0  0  0  0  0
    6.1133   -3.1896    2.9388 H   0  0  0  0  0  0  0  0  0  0  0  0
    5.1508   -0.8024    2.1474 H   0  0  0  0  0  0  0  0  0  0  0  0
    6.2989   -1.8013    1.3188 H   0  0  0  0  0  0  0  0  0  0  0  0
    2.4211   -1.3450    0.1727 H   0  0  0  0  0  0  0  0  0  0  0  0
    4.4114    0.2383   -0.2077 H   0  0  0  0  0  0  0  0  0  0  0  0
    5.7875   -0.7119   -0.6643 H   0  0  0  0  0  0  0  0  0  0  0  0
    2.7016   -2.5435   -4.3780 H   0  0  0  0  0  0  0  0  0  0  0  0
    2.2610   -3.3081   -1.0711 H   0  0  0  0  0  0  0  0  0  0  0  0
    3.4580   -4.2487   -1.9252 H   0  0  0  0  0  0  0  0  0  0  0  0
    5.7066   -4.6225   -1.1266 H   0  0  0  0  0  0  0  0  0  0  0  0
    6.3825   -3.7127    0.2068 H   0  0  0  0  0  0  0  0  0  0  0  0
    6.0795   -2.9466   -1.3247 H   0  0  0  0  0  0  0  0  0  0  0  0
    2.6932   -3.8501    1.1358 H   0  0  0  0  0  0  0  0  0  0  0  0
    2.4017   -5.6519   -0.0903 H   0  0  0  0  0  0  0  0  0  0  0  0
    3.9754   -6.2504   -1.2019 H   0  0  0  0  0  0  0  0  0  0  0  0
    2.0666   -6.0930    2.2428 H   0  0  0  0  0  0  0  0  0  0  0  0
    2.5923   -7.5395    1.4188 H   0  0  0  0  0  0  0  0  0  0  0  0
    2.8435   -6.1332    4.5318 H   0  0  0  0  0  0  0  0  0  0  0  0
    4.1542   -7.2295    4.9502 H   0  0  0  0  0  0  0  0  0  0  0  0
    2.7287   -7.8445    4.1387 H   0  0  0  0  0  0  0  0  0  0  0  0
    7.0207   -7.6469    3.2193 H   0  0  0  0  0  0  0  0  0  0  0  0
    6.9469   -7.8999    1.4701 H   0  0  0  0  0  0  0  0  0  0  0  0
    7.1878   -5.3602    2.5182 H   0  0  0  0  0  0  0  0  0  0  0  0
    6.2649   -5.7103    1.0660 H   0  0  0  0  0  0  0  0  0  0  0  0
    5.2807   -5.3466    3.9001 H   0  0  0  0  0  0  0  0  0  0  0  0
    3.4560   -4.1536    2.9970 H   0  0  0  0  0  0  0  0  0  0  0  0
  1  2  1  0
  1 27  1  0
  1 28  1  0
  1 29  1  0
  2 26  1  0
  2  3  1  0
  2 30  1  1
  3  4  1  0
  3 31  1  0
  3 32  1  0
  4 13  1  0
  4  5  1  1
  4  6  1  0
  5 33  1  0
  6  7  1  0
  6 34  1  0
  6 35  1  0
  7 11  2  0
  7  8  1  0
  8  9  1  0
  9 10  2  0
 10 11  1  0
 10 36  1  0
 11 12  1  0
 12 13  1  0
 12 37  1  0
 12 38  1  0
 13 14  1  6
 13 15  1  0
 14 39  1  0
 14 40  1  0
 14 41  1  0
 15 26  1  0
 15 16  1  0
 15 42  1  1
 16 17  1  0
 16 18  1  0
 16 43  1  6
 17 44  1  0
 18 19  1  0
 18 45  1  0
 18 46  1  0
 19 25  1  0
 19 20  1  1
 19 21  1  0
 20 47  1  0
 20 48  1  0
 20 49  1  0
 21 22  2  0
 21 23  1  0
 23 24  1  0
 23 50  1  0
 23 51  1  0
 24 25  1  0
 24 52  1  0
 24 53  1  0
 25 26  1  0
 25 54  1  1
 26 55  1  1
M  END
>  <i_m_ct_stereo_status>  (22) 
1

>  <s_m_source_file>  (22) 
/var/tmp/pbs.5076255.sched01/tmppfua8s0c/0korcpw03.sdf

>  <i_m_source_file_index>  (22) 
11

>  <i_lp_mmshare_version>  (22) 
48012

>  <i_f3d_flags>  (22) 
0

>  <s_epik_input>  (22) 
W09IXVtDQEhdMVtDSDJdW0NAQF0oW0NIM10pKEMoPU8pW0NIMl1bQ0gyXTIpW0NAQEhdMltDQEBIXShbQ0BIXShbQ0gzXSlbQ0gyXTMpW0NASF0xW0NAXShbQ0gzXSkoW0NAQF0zNFtPSF0pW0NIMl1jNWMoW0NIMl00KW9uW2NIXTU=

>  <s_epik_cmdline>  (22) 
J2VwaWtfcHl0aG9uJywgJy1waHQnLCAnMi4wJywgJy1waCcsICc3LjAnLCAnLXRuJywgJzgnLCAnLW1hJywgJzIwMCcsICctaW1hZScsICc8aW5maWxlLm1hZT4nLCAnLW9tYWUnLCAnPG91dGZpbGUubWFlPic=

>  <r_lp_tautomer_probability>  (22) 
1

>  <r_epik_Ionization_Penalty>  (22) 
6.08918e-07

>  <r_epik_Ionization_Penalty_Charging>  (22) 
0

>  <r_epik_Ionization_Penalty_Neutral>  (22) 
6.08918e-07

>  <r_epik_State_Penalty>  (22) 
-0

>  <r_epik_Charging_Adjusted_Penalty>  (22) 
0

>  <i_epik_Tot_Q>  (22) 
0

>  <i_epik_Tot_abs_Q>  (22) 
0

>  <s_lp_Force_Field>  (22) 
OPLS3e

>  <r_lp_Energy>  (22) 
43.8995

>  <b_lp_Chiralities_Consistent>  (22) 
1

>  <s_lp_Variant>  (22) 
9:0-1

>  <s_i_glide_gridfile>  (22) 
pfpi4k_grid

>  <i_i_glide_lignum>  (22) 
11

>  <i_i_glide_rotatable_bonds>  (22) 
2

>  <r_i_docking_score>  (22) 
-4.4353

>  <r_i_glide_ligand_efficiency>  (22) 
-0.170588

>  <r_i_glide_ligand_efficiency_sa>  (22) 
-0.505368

>  <r_i_glide_ligand_efficiency_ln>  (22) 
-1.04162

>  <r_i_glide_gscore>  (22) 
-4.4353

>  <r_i_glide_lipo>  (22) 
-0.661967

>  <r_i_glide_hbond>  (22) 
-0.456

>  <r_i_glide_metal>  (22) 
-0

>  <r_i_glide_rewards>  (22) 
-0.958232

>  <r_i_glide_evdw>  (22) 
-26.2211

>  <r_i_glide_ecoul>  (22) 
-6.9857

>  <r_i_glide_erotb>  (22) 
0

>  <r_i_glide_esite>  (22) 
-0.000192196

>  <r_i_glide_emodel>  (22) 
-41.8624

>  <r_i_glide_energy>  (22) 
-33.2068

>  <r_i_glide_einternal>  (22) 
1.11758

>  <r_i_glide_intrahb_reward>  (22) 
-0

>  <i_i_glide_confnum>  (22) 
2

>  <i_i_glide_posenum>  (22) 
2

>  <r_i_glide_eff_state_penalty>  (22) 
0

>  <ligand_id>  (22) 
9

>  <original_smiles>  (22) 
CC1CC2(O)Cc3oncc3CC2(C)C2C(O)CC3(C)C(=O)CCC3C12

>  <smiles>  (22) 
[H]OC1([H])C([H])([H])C2(C([H])([H])[H])C(=O)C([H])([H])C([H])([H])C2([H])C2([H])C([H])(C([H])([H])[H])C([H])([H])C3(O[H])C([H])([H])c4onc([H])c4C([H])([H])C3(C([H])([H])[H])C12[H]

$$$$
9:0:1
     RDKit          3D

 55 59  0  0  1  0  0  0  0  0999 V2000
    4.7630   -1.5822    3.9410 C   0  0  0  0  0  0  0  0  0  0  0  0
    5.0472   -2.4688    2.7128 C   0  0  2  0  0  0  0  0  0  0  0  0
    5.2798   -1.6356    1.4331 C   0  0  0  0  0  0  0  0  0  0  0  0
    4.2080   -1.7416    0.3181 C   0  0  1  0  0  0  0  0  0  0  0  0
    3.0536   -1.0349    0.7612 O   0  0  0  0  0  0  0  0  0  0  0  0
    4.6870   -0.9421   -0.9184 C   0  0  0  0  0  0  0  0  0  0  0  0
    3.9769   -1.3677   -2.1487 C   0  0  0  0  0  0  0  0  0  0  0  0
    4.1414   -0.7089   -3.3230 O   0  0  0  0  0  0  0  0  0  0  0  0
    3.3669   -1.3928   -4.2715 N   0  0  0  0  0  0  0  0  0  0  0  0
    2.7602   -2.3874   -3.6362 C   0  0  0  0  0  0  0  0  0  0  0  0
    3.1639   -2.4235   -2.2706 C   0  0  0  0  0  0  0  0  0  0  0  0
    2.8126   -3.3270   -1.1323 C   0  0  0  0  0  0  0  0  0  0  0  0
    3.8607   -3.2463    0.0153 C   0  0  1  0  0  0  0  0  0  0  0  0
    5.1635   -3.9620   -0.4587 C   0  0  0  0  0  0  0  0  0  0  0  0
    3.2701   -3.8926    1.3078 C   0  0  1  0  0  0  0  0  0  0  0  0
    2.6218   -5.2975    1.2184 C   0  0  1  0  0  0  0  0  0  0  0  0
    3.3600   -6.2604    0.4831 O   0  0  0  0  0  0  0  0  0  0  0  0
    2.2424   -5.8363    2.6216 C   0  0  0  0  0  0  0  0  0  0  0  0
    3.4231   -5.9955    3.6124 C   0  0  1  0  0  0  0  0  0  0  0  0
    2.8786   -5.8864    5.0543 C   0  0  0  0  0  0  0  0  0  0  0  0
    4.1608   -7.3348    3.4645 C   0  0  0  0  0  0  0  0  0  0  0  0
    3.6325   -8.4171    3.6795 O   0  0  0  0  0  0  0  0  0  0  0  0
    5.6258   -7.1721    3.1152 C   0  0  0  0  0  0  0  0  0  0  0  0
    5.7084   -5.7225    2.6461 C   0  0  0  0  0  0  0  0  0  0  0  0
    4.5535   -4.9683    3.3511 C   0  0  1  0  0  0  0  0  0  0  0  0
    4.0551   -3.6690    2.6380 C   0  0  1  0  0  0  0  0  0  0  0  0
    3.8082   -1.0729    3.8435 H   0  0  0  0  0  0  0  0  0  0  0  0
    5.5352   -0.8251    4.0729 H   0  0  0  0  0  0  0  0  0  0  0  0
    4.7319   -2.1755    4.8517 H   0  0  0  0  0  0  0  0  0  0  0  0
    6.0187   -2.9059    2.9039 H   0  0  0  0  0  0  0  0  0  0  0  0
    5.3704   -0.5843    1.7059 H   0  0  0  0  0  0  0  0  0  0  0  0
    6.2612   -1.9101    1.0189 H   0  0  0  0  0  0  0  0  0  0  0  0
    2.3764   -1.0558    0.0747 H   0  0  0  0  0  0  0  0  0  0  0  0
    4.5792    0.1251   -0.7847 H   0  0  0  0  0  0  0  0  0  0  0  0
    5.7350   -1.1322   -1.1011 H   0  0  0  0  0  0  0  0  0  0  0  0
    2.0894   -3.0449   -4.1798 H   0  0  0  0  0  0  0  0  0  0  0  0
    1.8251   -3.0712   -0.7467 H   0  0  0  0  0  0  0  0  0  0  0  0
    2.7218   -4.3316   -1.4904 H   0  0  0  0  0  0  0  0  0  0  0  0
    5.0051   -4.9869   -0.7795 H   0  0  0  0  0  0  0  0  0  0  0  0
    5.9325   -3.9817    0.3104 H   0  0  0  0  0  0  0  0  0  0  0  0
    5.6120   -3.4686   -1.3168 H   0  0  0  0  0  0  0  0  0  0  0  0
    2.3777   -3.2904    1.4872 H   0  0  0  0  0  0  0  0  0  0  0  0
    1.6997   -5.2106    0.6554 H   0  0  0  0  0  0  0  0  0  0  0  0
    3.4213   -5.9779   -0.4184 H   0  0  0  0  0  0  0  0  0  0  0  0
    1.5079   -5.1378    3.0592 H   0  0  0  0  0  0  0  0  0  0  0  0
    1.7257   -6.7836    2.5033 H   0  0  0  0  0  0  0  0  0  0  0  0
    2.4888   -4.8848    5.2540 H   0  0  0  0  0  0  0  0  0  0  0  0
    3.6423   -6.0969    5.7989 H   0  0  0  0  0  0  0  0  0  0  0  0
    2.0656   -6.5939    5.2208 H   0  0  0  0  0  0  0  0  0  0  0  0
    6.2220   -7.3308    4.0116 H   0  0  0  0  0  0  0  0  0  0  0  0
    5.9398   -7.8895    2.3561 H   0  0  0  0  0  0  0  0  0  0  0  0
    6.6861   -5.2792    2.8565 H   0  0  0  0  0  0  0  0  0  0  0  0
    5.5849   -5.7281    1.5665 H   0  0  0  0  0  0  0  0  0  0  0  0
    4.9471   -4.6728    4.3257 H   0  0  0  0  0  0  0  0  0  0  0  0
    3.2614   -3.3671    3.3154 H   0  0  0  0  0  0  0  0  0  0  0  0
  1  2  1  0
  1 27  1  0
  1 28  1  0
  1 29  1  0
  2 26  1  0
  2  3  1  0
  2 30  1  1
  3  4  1  0
  3 31  1  0
  3 32  1  0
  4 13  1  0
  4  5  1  1
  4  6  1  0
  5 33  1  0
  6  7  1  0
  6 34  1  0
  6 35  1  0
  7 11  2  0
  7  8  1  0
  8  9  1  0
  9 10  2  0
 10 11  1  0
 10 36  1  0
 11 12  1  0
 12 13  1  0
 12 37  1  0
 12 38  1  0
 13 14  1  6
 13 15  1  0
 14 39  1  0
 14 40  1  0
 14 41  1  0
 15 26  1  0
 15 16  1  0
 15 42  1  1
 16 17  1  0
 16 18  1  0
 16 43  1  6
 17 44  1  0
 18 19  1  0
 18 45  1  0
 18 46  1  0
 19 25  1  0
 19 20  1  1
 19 21  1  0
 20 47  1  0
 20 48  1  0
 20 49  1  0
 21 22  2  0
 21 23  1  0
 23 24  1  0
 23 50  1  0
 23 51  1  0
 24 25  1  0
 24 52  1  0
 24 53  1  0
 25 26  1  0
 25 54  1  1
 26 55  1  1
M  END
>  <i_m_ct_stereo_status>  (23) 
1

>  <s_m_source_file>  (23) 
/var/tmp/pbs.5076255.sched01/tmppfua8s0c/0korcpw03.sdf

>  <i_m_source_file_index>  (23) 
11

>  <i_lp_mmshare_version>  (23) 
48012

>  <i_f3d_flags>  (23) 
0

>  <s_epik_input>  (23) 
W09IXVtDQEhdMVtDSDJdW0NAQF0oW0NIM10pKEMoPU8pW0NIMl1bQ0gyXTIpW0NAQEhdMltDQEBIXShbQ0BIXShbQ0gzXSlbQ0gyXTMpW0NASF0xW0NAXShbQ0gzXSkoW0NAQF0zNFtPSF0pW0NIMl1jNWMoW0NIMl00KW9uW2NIXTU=

>  <s_epik_cmdline>  (23) 
J2VwaWtfcHl0aG9uJywgJy1waHQnLCAnMi4wJywgJy1waCcsICc3LjAnLCAnLXRuJywgJzgnLCAnLW1hJywgJzIwMCcsICctaW1hZScsICc8aW5maWxlLm1hZT4nLCAnLW9tYWUnLCAnPG91dGZpbGUubWFlPic=

>  <r_lp_tautomer_probability>  (23) 
1

>  <r_epik_Ionization_Penalty>  (23) 
6.08918e-07

>  <r_epik_Ionization_Penalty_Charging>  (23) 
0

>  <r_epik_Ionization_Penalty_Neutral>  (23) 
6.08918e-07

>  <r_epik_State_Penalty>  (23) 
-0

>  <r_epik_Charging_Adjusted_Penalty>  (23) 
0

>  <i_epik_Tot_Q>  (23) 
0

>  <i_epik_Tot_abs_Q>  (23) 
0

>  <s_lp_Force_Field>  (23) 
OPLS3e

>  <r_lp_Energy>  (23) 
43.8995

>  <b_lp_Chiralities_Consistent>  (23) 
1

>  <s_lp_Variant>  (23) 
9:0-1

>  <s_i_glide_gridfile>  (23) 
pfpi4k_grid

>  <i_i_glide_lignum>  (23) 
11

>  <i_i_glide_rotatable_bonds>  (23) 
2

>  <r_i_docking_score>  (23) 
-4.20682

>  <r_i_glide_ligand_efficiency>  (23) 
-0.161801

>  <r_i_glide_ligand_efficiency_sa>  (23) 
-0.479334

>  <r_i_glide_ligand_efficiency_ln>  (23) 
-0.987957

>  <r_i_glide_gscore>  (23) 
-4.20682

>  <r_i_glide_lipo>  (23) 
-0.619134

>  <r_i_glide_hbond>  (23) 
-0.323859

>  <r_i_glide_metal>  (23) 
-0

>  <r_i_glide_rewards>  (23) 
-0.958232

>  <r_i_glide_evdw>  (23) 
-26.8321

>  <r_i_glide_ecoul>  (23) 
-6.31206

>  <r_i_glide_erotb>  (23) 
0

>  <r_i_glide_esite>  (23) 
-0.0171771

>  <r_i_glide_emodel>  (23) 
-41.8951

>  <r_i_glide_energy>  (23) 
-33.1442

>  <r_i_glide_einternal>  (23) 
0.351377

>  <r_i_glide_intrahb_reward>  (23) 
-0

>  <i_i_glide_confnum>  (23) 
2

>  <i_i_glide_posenum>  (23) 
21

>  <r_i_glide_eff_state_penalty>  (23) 
0

>  <ligand_id>  (23) 
9

>  <original_smiles>  (23) 
CC1CC2(O)Cc3oncc3CC2(C)C2C(O)CC3(C)C(=O)CCC3C12

>  <smiles>  (23) 
[H]OC1([H])C([H])([H])C2(C([H])([H])[H])C(=O)C([H])([H])C([H])([H])C2([H])C2([H])C([H])(C([H])([H])[H])C([H])([H])C3(O[H])C([H])([H])c4onc([H])c4C([H])([H])C3(C([H])([H])[H])C12[H]

$$$$
9:0:2
     RDKit          3D

 55 59  0  0  1  0  0  0  0  0999 V2000
    6.7151   -5.1812    2.0551 C   0  0  0  0  0  0  0  0  0  0  0  0
    5.3364   -4.7634    1.5038 C   0  0  2  0  0  0  0  0  0  0  0  0
    5.3096   -4.7421   -0.0384 C   0  0  0  0  0  0  0  0  0  0  0  0
    5.2006   -3.3653   -0.7384 C   0  0  1  0  0  0  0  0  0  0  0  0
    6.4441   -2.7001   -0.5808 O   0  0  0  0  0  0  0  0  0  0  0  0
    5.0826   -3.5586   -2.2761 C   0  0  0  0  0  0  0  0  0  0  0  0
    4.4732   -2.3689   -2.9225 C   0  0  0  0  0  0  0  0  0  0  0  0
    4.3386   -2.2927   -4.2653 O   0  0  0  0  0  0  0  0  0  0  0  0
    3.8005   -1.0326   -4.5589 N   0  0  0  0  0  0  0  0  0  0  0  0
    3.5160   -0.4707   -3.3978 C   0  0  0  0  0  0  0  0  0  0  0  0
    3.9452   -1.2978   -2.3145 C   0  0  0  0  0  0  0  0  0  0  0  0
    3.8767   -1.1489   -0.8241 C   0  0  0  0  0  0  0  0  0  0  0  0
    4.0251   -2.5269   -0.1027 C   0  0  1  0  0  0  0  0  0  0  0  0
    2.7097   -3.3385   -0.3015 C   0  0  0  0  0  0  0  0  0  0  0  0
    4.3358   -2.2765    1.4090 C   0  0  1  0  0  0  0  0  0  0  0  0
    3.4573   -1.2701    2.2097 C   0  0  1  0  0  0  0  0  0  0  0  0
    2.0549   -1.4006    2.0437 O   0  0  0  0  0  0  0  0  0  0  0  0
    3.8251   -1.2894    3.7137 C   0  0  0  0  0  0  0  0  0  0  0  0
    3.6504   -2.6546    4.4304 C   0  0  1  0  0  0  0  0  0  0  0  0
    4.6165   -2.7082    5.6356 C   0  0  0  0  0  0  0  0  0  0  0  0
    2.2189   -2.8979    4.9320 C   0  0  0  0  0  0  0  0  0  0  0  0
    1.6731   -2.2106    5.7865 O   0  0  0  0  0  0  0  0  0  0  0  0
    1.5797   -4.1287    4.3237 C   0  0  0  0  0  0  0  0  0  0  0  0
    2.4772   -4.4306    3.1274 C   0  0  0  0  0  0  0  0  0  0  0  0
    3.8718   -3.8531    3.4732 C   0  0  1  0  0  0  0  0  0  0  0  0
    4.7855   -3.5124    2.2554 C   0  0  1  0  0  0  0  0  0  0  0  0
    7.4756   -4.4355    1.8395 H   0  0  0  0  0  0  0  0  0  0  0  0
    7.0503   -6.1256    1.6294 H   0  0  0  0  0  0  0  0  0  0  0  0
    6.6777   -5.3139    3.1341 H   0  0  0  0  0  0  0  0  0  0  0  0
    4.6821   -5.5893    1.7631 H   0  0  0  0  0  0  0  0  0  0  0  0
    6.2127   -5.2253   -0.3864 H   0  0  0  0  0  0  0  0  0  0  0  0
    4.4986   -5.3956   -0.3883 H   0  0  0  0  0  0  0  0  0  0  0  0
    6.5896   -2.5565    0.3473 H   0  0  0  0  0  0  0  0  0  0  0  0
    6.0214   -3.8178   -2.7561 H   0  0  0  0  0  0  0  0  0  0  0  0
    4.4082   -4.3685   -2.4862 H   0  0  0  0  0  0  0  0  0  0  0  0
    3.0307    0.4956   -3.3874 H   0  0  0  0  0  0  0  0  0  0  0  0
    4.6692   -0.4756   -0.4924 H   0  0  0  0  0  0  0  0  0  0  0  0
    2.9545   -0.6669   -0.5239 H   0  0  0  0  0  0  0  0  0  0  0  0
    1.8310   -2.8004    0.0400 H   0  0  0  0  0  0  0  0  0  0  0  0
    2.7161   -4.2956    0.2179 H   0  0  0  0  0  0  0  0  0  0  0  0
    2.5212   -3.5654   -1.3490 H   0  0  0  0  0  0  0  0  0  0  0  0
    5.2593   -1.6984    1.3686 H   0  0  0  0  0  0  0  0  0  0  0  0
    3.6780   -0.2665    1.8464 H   0  0  0  0  0  0  0  0  0  0  0  0
    1.8281   -1.1731    1.1453 H   0  0  0  0  0  0  0  0  0  0  0  0
    4.8802   -0.9809    3.7967 H   0  0  0  0  0  0  0  0  0  0  0  0
    3.2517   -0.5215    4.2229 H   0  0  0  0  0  0  0  0  0  0  0  0
    5.6592   -2.7040    5.3082 H   0  0  0  0  0  0  0  0  0  0  0  0
    4.4675   -3.5976    6.2427 H   0  0  0  0  0  0  0  0  0  0  0  0
    4.4765   -1.8460    6.2879 H   0  0  0  0  0  0  0  0  0  0  0  0
    1.6100   -4.9378    5.0501 H   0  0  0  0  0  0  0  0  0  0  0  0
    0.5420   -3.9459    4.0448 H   0  0  0  0  0  0  0  0  0  0  0  0
    2.5162   -5.5010    2.9028 H   0  0  0  0  0  0  0  0  0  0  0  0
    2.0430   -3.9345    2.2631 H   0  0  0  0  0  0  0  0  0  0  0  0
    4.3788   -4.6320    4.0471 H   0  0  0  0  0  0  0  0  0  0  0  0
    5.6615   -3.1239    2.7689 H   0  0  0  0  0  0  0  0  0  0  0  0
  1  2  1  0
  1 27  1  0
  1 28  1  0
  1 29  1  0
  2 26  1  0
  2  3  1  0
  2 30  1  1
  3  4  1  0
  3 31  1  0
  3 32  1  0
  4 13  1  0
  4  5  1  6
  4  6  1  0
  5 33  1  0
  6  7  1  0
  6 34  1  0
  6 35  1  0
  7 11  2  0
  7  8  1  0
  8  9  1  0
  9 10  2  0
 10 11  1  0
 10 36  1  0
 11 12  1  0
 12 13  1  0
 12 37  1  0
 12 38  1  0
 13 14  1  1
 13 15  1  0
 14 39  1  0
 14 40  1  0
 14 41  1  0
 15 26  1  0
 15 16  1  0
 15 42  1  6
 16 17  1  0
 16 18  1  0
 16 43  1  6
 17 44  1  0
 18 19  1  0
 18 45  1  0
 18 46  1  0
 19 25  1  0
 19 20  1  1
 19 21  1  0
 20 47  1  0
 20 48  1  0
 20 49  1  0
 21 22  2  0
 21 23  1  0
 23 24  1  0
 23 50  1  0
 23 51  1  0
 24 25  1  0
 24 52  1  0
 24 53  1  0
 25 26  1  0
 25 54  1  1
 26 55  1  1
M  END
>  <i_m_ct_stereo_status>  (24) 
1

>  <s_m_source_file>  (24) 
/var/tmp/pbs.5076255.sched01/tmppfua8s0c/0korcpw03.sdf

>  <i_m_source_file_index>  (24) 
11

>  <i_lp_mmshare_version>  (24) 
48012

>  <i_f3d_flags>  (24) 
0

>  <s_epik_input>  (24) 
W09IXVtDQEhdMVtDSDJdW0NAQF0oW0NIM10pKEMoPU8pW0NIMl1bQ0gyXTIpW0NAQEhdMltDQEBIXShbQ0BIXShbQ0gzXSlbQ0gyXTMpW0NASF0xW0NAXShbQ0gzXSkoW0NAQF0zNFtPSF0pW0NIMl1jNWMoW0NIMl00KW9uW2NIXTU=

>  <s_epik_cmdline>  (24) 
J2VwaWtfcHl0aG9uJywgJy1waHQnLCAnMi4wJywgJy1waCcsICc3LjAnLCAnLXRuJywgJzgnLCAnLW1hJywgJzIwMCcsICctaW1hZScsICc8aW5maWxlLm1hZT4nLCAnLW9tYWUnLCAnPG91dGZpbGUubWFlPic=

>  <r_lp_tautomer_probability>  (24) 
1

>  <r_epik_Ionization_Penalty>  (24) 
6.08918e-07

>  <r_epik_Ionization_Penalty_Charging>  (24) 
0

>  <r_epik_Ionization_Penalty_Neutral>  (24) 
6.08918e-07

>  <r_epik_State_Penalty>  (24) 
-0

>  <r_epik_Charging_Adjusted_Penalty>  (24) 
0

>  <i_epik_Tot_Q>  (24) 
0

>  <i_epik_Tot_abs_Q>  (24) 
0

>  <s_lp_Force_Field>  (24) 
OPLS3e

>  <r_lp_Energy>  (24) 
43.8995

>  <b_lp_Chiralities_Consistent>  (24) 
1

>  <s_lp_Variant>  (24) 
9:0-1

>  <s_i_glide_gridfile>  (24) 
pfpi4k_grid

>  <i_i_glide_lignum>  (24) 
11

>  <i_i_glide_rotatable_bonds>  (24) 
2

>  <r_i_docking_score>  (24) 
-4.09151

>  <r_i_glide_ligand_efficiency>  (24) 
-0.157366

>  <r_i_glide_ligand_efficiency_sa>  (24) 
-0.466196

>  <r_i_glide_ligand_efficiency_ln>  (24) 
-0.960878

>  <r_i_glide_gscore>  (24) 
-4.09151

>  <r_i_glide_lipo>  (24) 
-0.670376

>  <r_i_glide_hbond>  (24) 
-0.0810484

>  <r_i_glide_metal>  (24) 
-0

>  <r_i_glide_rewards>  (24) 
-0.958232

>  <r_i_glide_evdw>  (24) 
-26.795

>  <r_i_glide_ecoul>  (24) 
-6.56947

>  <r_i_glide_erotb>  (24) 
0

>  <r_i_glide_esite>  (24) 
-0.0566838

>  <r_i_glide_emodel>  (24) 
-41.8355

>  <r_i_glide_energy>  (24) 
-33.3645

>  <r_i_glide_einternal>  (24) 
0.397414

>  <r_i_glide_intrahb_reward>  (24) 
-0

>  <i_i_glide_confnum>  (24) 
2

>  <i_i_glide_posenum>  (24) 
11

>  <r_i_glide_eff_state_penalty>  (24) 
0

>  <ligand_id>  (24) 
9

>  <original_smiles>  (24) 
CC1CC2(O)Cc3oncc3CC2(C)C2C(O)CC3(C)C(=O)CCC3C12

>  <smiles>  (24) 
[H]OC1([H])C([H])([H])C2(C([H])([H])[H])C(=O)C([H])([H])C([H])([H])C2([H])C2([H])C([H])(C([H])([H])[H])C([H])([H])C3(O[H])C([H])([H])c4onc([H])c4C([H])([H])C3(C([H])([H])[H])C12[H]

$$$$
10:0:0
     RDKit          3D

 99107  0  0  1  0  0  0  0  0999 V2000
    2.9691   -8.2498    8.3929 C   0  0  0  0  0  0  0  0  0  0  0  0
    3.1931   -8.2650    6.8745 C   0  0  2  0  0  0  0  0  0  0  0  0
    3.0268   -6.8447    6.2894 C   0  0  0  0  0  0  0  0  0  0  0  0
    4.2147   -5.8580    6.5062 C   0  0  1  0  0  0  0  0  0  0  0  0
    5.3973   -6.4838    6.9544 O   0  0  0  0  0  0  0  0  0  0  0  0
    6.3866   -6.8515    6.1304 C   0  0  0  0  0  0  0  0  0  0  0  0
    7.5490   -7.0128    6.4945 O   0  0  0  0  0  0  0  0  0  0  0  0
    5.9837   -7.0478    4.6303 C   0  0  1  0  0  0  0  0  0  0  0  0
    6.1527   -8.6150    4.1808 C   0  0  0  0  0  0  0  0  0  0  0  0
    7.4522   -8.6838    3.3080 C   0  0  0  0  0  0  0  0  0  0  0  0
    6.6288   -9.5646    5.3466 C   0  0  0  0  0  0  0  0  0  0  0  0
    4.8901   -9.3504    3.5370 C   0  0  1  0  0  0  0  0  0  0  0  0
    5.3319  -10.5900    2.6930 C   0  0  0  0  0  0  0  0  0  0  0  0
    4.1346   -9.9503    4.6168 O   0  0  0  0  0  0  0  0  0  0  0  0
    2.6989   -9.7656    4.7678 C   0  0  2  0  0  0  0  0  0  0  0  0
    2.3182   -9.3465    6.1938 C   0  0  0  0  0  0  0  0  0  0  0  0
    1.9127  -10.8819    4.0877 C   0  0  1  0  0  0  0  0  0  0  0  0
    0.6548  -11.4425    4.6962 C   0  0  0  0  0  0  0  0  0  0  0  0
    1.9538   -9.5171    3.4497 C   0  0  1  0  0  0  0  0  0  0  0  0
    0.8150   -8.6975    3.7404 O   0  0  0  0  0  0  0  0  0  0  0  0
    2.7205   -9.1696    2.2003 C   0  0  1  0  0  0  0  0  0  0  0  0
    1.8830   -8.4653    1.3023 O   0  0  0  0  0  0  0  0  0  0  0  0
    3.9930   -8.4212    2.6890 C   0  0  2  0  0  0  0  0  0  0  0  0
    4.8270   -7.4433    1.7914 C   0  0  1  0  0  0  0  0  0  0  0  0
    4.2908   -7.2207    0.5089 O   0  0  0  0  0  0  0  0  0  0  0  0
    5.1788   -6.1073    2.5237 C   0  0  2  0  0  0  0  0  0  0  0  0
    6.4768   -5.4866    1.9950 C   0  0  0  0  0  0  0  0  0  0  0  0
    6.3261   -4.2338    1.1015 C   0  0  1  0  0  0  0  0  0  0  0  0
    7.7790   -3.8140    0.7363 C   0  0  0  0  0  0  0  0  0  0  0  0
    5.5372   -4.5228   -0.1887 C   0  0  0  0  0  0  0  0  0  0  0  0
    5.3944   -3.2953   -1.1015 C   0  0  0  0  0  0  0  0  0  0  0  0
    4.6890   -2.1405   -0.3748 C   0  0  1  0  0  0  0  0  0  0  0  0
    3.1695   -2.3653   -0.3670 C   0  0  0  0  0  0  0  0  0  0  0  0
    5.3348   -1.8605    1.0111 C   0  0  1  0  0  0  0  0  0  0  0  0
    4.7152   -0.6536    1.7380 C   0  0  0  0  0  0  0  0  0  0  0  0
    5.5768   -3.1381    1.8908 C   0  0  1  0  0  0  0  0  0  0  0  0
    4.3116   -3.6621    2.6699 C   0  0  2  0  0  0  0  0  0  0  0  0
    4.0959   -2.9209    4.0072 C   0  0  0  0  0  0  0  0  0  0  0  0
    3.5977   -3.8619    5.0990 C   0  0  0  0  0  0  0  0  0  0  0  0
    4.6025   -5.0301    5.2663 C   0  0  2  0  0  0  0  0  0  0  0  0
    4.8539   -6.0132    4.0755 C   0  0  1  0  0  0  0  0  0  0  0  0
    4.1504   -5.2131    2.8770 C   0  0  2  0  0  0  0  0  0  0  0  0
    2.6694   -5.4813    2.5286 C   0  0  0  0  0  0  0  0  0  0  0  0
    1.9419   -7.9798    8.6367 H   0  0  0  0  0  0  0  0  0  0  0  0
    3.6276   -7.5322    8.8843 H   0  0  0  0  0  0  0  0  0  0  0  0
    3.1706   -9.2270    8.8320 H   0  0  0  0  0  0  0  0  0  0  0  0
    4.2105   -8.5912    6.7233 H   0  0  0  0  0  0  0  0  0  0  0  0
    2.7928   -6.9379    5.2375 H   0  0  0  0  0  0  0  0  0  0  0  0
    2.1119   -6.4062    6.6916 H   0  0  0  0  0  0  0  0  0  0  0  0
    3.9169   -5.1777    7.3035 H   0  0  0  0  0  0  0  0  0  0  0  0
    6.8913   -6.6058    4.2405 H   0  0  0  0  0  0  0  0  0  0  0  0
    7.7214   -9.7035    3.0297 H   0  0  0  0  0  0  0  0  0  0  0  0
    8.3106   -8.2973    3.8663 H   0  0  0  0  0  0  0  0  0  0  0  0
    7.4659   -8.1039    2.3954 H   0  0  0  0  0  0  0  0  0  0  0  0
    6.7256  -10.5993    5.0271 H   0  0  0  0  0  0  0  0  0  0  0  0
    5.9740   -9.5910    6.2130 H   0  0  0  0  0  0  0  0  0  0  0  0
    7.6275   -9.3210    5.7125 H   0  0  0  0  0  0  0  0  0  0  0  0
    5.7307  -10.2966    1.7204 H   0  0  0  0  0  0  0  0  0  0  0  0
    4.5083  -11.2867    2.5020 H   0  0  0  0  0  0  0  0  0  0  0  0
    6.0842  -11.2125    3.1731 H   0  0  0  0  0  0  0  0  0  0  0  0
    2.3734  -10.2545    6.7965 H   0  0  0  0  0  0  0  0  0  0  0  0
    1.2744   -9.0262    6.2398 H   0  0  0  0  0  0  0  0  0  0  0  0
    2.4935  -11.6544    3.5819 H   0  0  0  0  0  0  0  0  0  0  0  0
    0.0782  -10.6937    5.2497 H   0  0  0  0  0  0  0  0  0  0  0  0
    0.9167  -12.2396    5.3791 H   0  0  0  0  0  0  0  0  0  0  0  0
    0.0218  -11.8892    3.9381 H   0  0  0  0  0  0  0  0  0  0  0  0
    0.1842   -9.2381    4.1766 H   0  0  0  0  0  0  0  0  0  0  0  0
    2.9860  -10.0800    1.6666 H   0  0  0  0  0  0  0  0  0  0  0  0
    1.1878   -9.0375    1.0217 H   0  0  0  0  0  0  0  0  0  0  0  0
    3.5447   -7.8173    3.4396 H   0  0  0  0  0  0  0  0  0  0  0  0
    5.7165   -7.9627    1.4900 H   0  0  0  0  0  0  0  0  0  0  0  0
    4.0532   -8.0452    0.1401 H   0  0  0  0  0  0  0  0  0  0  0  0
    7.0495   -5.1453    2.8621 H   0  0  0  0  0  0  0  0  0  0  0  0
    7.1031   -6.2150    1.4974 H   0  0  0  0  0  0  0  0  0  0  0  0
    7.8439   -2.9071    0.1356 H   0  0  0  0  0  0  0  0  0  0  0  0
    8.2773   -4.6001    0.1676 H   0  0  0  0  0  0  0  0  0  0  0  0
    8.3834   -3.6433    1.6273 H   0  0  0  0  0  0  0  0  0  0  0  0
    5.9675   -5.3616   -0.7088 H   0  0  0  0  0  0  0  0  0  0  0  0
    4.5262   -4.8262    0.0792 H   0  0  0  0  0  0  0  0  0  0  0  0
    6.3684   -2.9721   -1.4752 H   0  0  0  0  0  0  0  0  0  0  0  0
    4.8191   -3.5855   -1.9833 H   0  0  0  0  0  0  0  0  0  0  0  0
    4.8387   -1.2402   -0.9813 H   0  0  0  0  0  0  0  0  0  0  0  0
    2.8697   -3.3215    0.0583 H   0  0  0  0  0  0  0  0  0  0  0  0
    2.7857   -2.3516   -1.3884 H   0  0  0  0  0  0  0  0  0  0  0  0
    2.6530   -1.5696    0.1707 H   0  0  0  0  0  0  0  0  0  0  0  0
    6.3335   -1.4962    0.7752 H   0  0  0  0  0  0  0  0  0  0  0  0
    3.6770   -0.8237    2.0229 H   0  0  0  0  0  0  0  0  0  0  0  0
    4.7341    0.2286    1.0940 H   0  0  0  0  0  0  0  0  0  0  0  0
    5.2751   -0.4060    2.6406 H   0  0  0  0  0  0  0  0  0  0  0  0
    6.2409   -2.8005    2.6757 H   0  0  0  0  0  0  0  0  0  0  0  0
    3.4742   -3.3377    2.0725 H   0  0  0  0  0  0  0  0  0  0  0  0
    5.0221   -2.4525    4.3478 H   0  0  0  0  0  0  0  0  0  0  0  0
    3.3781   -2.1021    3.8866 H   0  0  0  0  0  0  0  0  0  0  0  0
    3.5259   -3.2988    6.0268 H   0  0  0  0  0  0  0  0  0  0  0  0
    2.5899   -4.2120    4.8936 H   0  0  0  0  0  0  0  0  0  0  0  0
    5.5401   -4.5036    5.4682 H   0  0  0  0  0  0  0  0  0  0  0  0
    2.0213   -4.6709    2.8492 H   0  0  0  0  0  0  0  0  0  0  0  0
    2.2657   -6.3549    3.0289 H   0  0  0  0  0  0  0  0  0  0  0  0
    2.5487   -5.5854    1.4479 H   0  0  0  0  0  0  0  0  0  0  0  0
  1  2  1  0
  1 44  1  0
  1 45  1  0
  1 46  1  0
  2 16  1  0
  2  3  1  0
  2 47  1  1
  3  4  1  0
  3 48  1  0
  3 49  1  0
  4 40  1  0
  4  5  1  0
  4 50  1  1
  5  6  1  0
  6  7  2  0
  6  8  1  0
  8 41  1  0
  8  9  1  0
  8 51  1  6
  9 10  1  0
  9 11  1  0
  9 12  1  0
 10 52  1  0
 10 53  1  0
 10 54  1  0
 11 55  1  0
 11 56  1  0
 11 57  1  0
 12 23  1  0
 12 13  1  6
 12 14  1  0
 13 58  1  0
 13 59  1  0
 13 60  1  0
 14 15  1  0
 15 19  1  0
 15 16  1  1
 15 17  1  0
 16 61  1  0
 16 62  1  0
 17 18  1  0
 17 19  1  0
 17 63  1  6
 18 64  1  0
 18 65  1  0
 18 66  1  0
 19 20  1  1
 19 21  1  0
 20 67  1  0
 21 22  1  0
 21 23  1  0
 21 68  1  6
 22 69  1  0
 23 24  1  0
 23 70  1  1
 24 25  1  0
 24 26  1  0
 24 71  1  6
 25 72  1  0
 41 26  1  6
 26 42  1  0
 26 27  1  1
 27 28  1  0
 27 73  1  0
 27 74  1  0
 28 36  1  0
 28 29  1  6
 28 30  1  0
 29 75  1  0
 29 76  1  0
 29 77  1  0
 30 31  1  0
 30 78  1  0
 30 79  1  0
 31 32  1  0
 31 80  1  0
 31 81  1  0
 32 33  1  0
 32 34  1  0
 32 82  1  6
 33 83  1  0
 33 84  1  0
 33 85  1  0
 34 35  1  0
 34 36  1  0
 34 86  1  6
 35 87  1  0
 35 88  1  0
 35 89  1  0
 36 37  1  0
 36 90  1  1
 37 42  1  0
 37 38  1  0
 37 91  1  6
 38 39  1  0
 38 92  1  0
 38 93  1  0
 39 40  1  0
 39 94  1  0
 39 95  1  0
 40 41  1  0
 40 96  1  1
 41 42  1  0
 42 43  1  6
 43 97  1  0
 43 98  1  0
 43 99  1  0
M  END
>  <i_m_ct_stereo_status>  (25) 
1

>  <s_m_source_file>  (25) 
/var/tmp/pbs.5076255.sched01/tmppfua8s0c/0korcpw03.sdf

>  <i_m_source_file_index>  (25) 
12

>  <i_lp_mmshare_version>  (25) 
48012

>  <i_f3d_flags>  (25) 
0

>  <s_epik_input>  (25) 
W0NIM11bQ0BASF0oW0NIMl0xKVtDSDJdW0NAQEhdKE9DMj1PKVtDQEBIXTNbQ0gyXVtDSDJdW0NAQEhdKFtDQEhdNFtDQF0oW0NIMl01KShbQ0gzXSlbQ0gyXVtDSDJdW0NAQEhdKFtDSDNdKVtDQEhdNFtDSDNdKVtDQEBdNihbQ0gzXSlbQ0BdNShbQ0BASF03W09IXSlDMzZbQ0BASF0yQyhbQ0gzXSkoW0NIM10pW0NAXShPOCkoW0NIM10pW0NAQEhdN1tDQEhdKFtPSF0pW0NAQF0oW0NAXTE4OSkoW09IXSlbQ0BASF05W0NIM10=

>  <s_epik_cmdline>  (25) 
J2VwaWtfcHl0aG9uJywgJy1waHQnLCAnMi4wJywgJy1waCcsICc3LjAnLCAnLXRuJywgJzgnLCAnLW1hJywgJzIwMCcsICctaW1hZScsICc8aW5maWxlLm1hZT4nLCAnLW9tYWUnLCAnPG91dGZpbGUubWFlPic=

>  <r_lp_tautomer_probability>  (25) 
1

>  <r_epik_Ionization_Penalty>  (25) 
2.08129e-07

>  <r_epik_Ionization_Penalty_Charging>  (25) 
0

>  <r_epik_Ionization_Penalty_Neutral>  (25) 
2.08129e-07

>  <r_epik_State_Penalty>  (25) 
-0

>  <r_epik_Charging_Adjusted_Penalty>  (25) 
0

>  <i_epik_Tot_Q>  (25) 
0

>  <i_epik_Tot_abs_Q>  (25) 
0

>  <s_epik_Chemistry_Notes>  (25) 
This compound has an ester and may undergo hydrolysis at high or low pH.

>  <s_lp_Force_Field>  (25) 
OPLS3e

>  <r_lp_Energy>  (25) 
217.984

>  <b_lp_Chiralities_Consistent>  (25) 
1

>  <s_lp_Variant>  (25) 
10:0-1

>  <s_i_glide_gridfile>  (25) 
pfpi4k_grid

>  <i_i_glide_lignum>  (25) 
12

>  <i_i_glide_rotatable_bonds>  (25) 
3

>  <r_i_docking_score>  (25) 
-2.72675

>  <r_i_glide_ligand_efficiency>  (25) 
-0.0634127

>  <r_i_glide_ligand_efficiency_sa>  (25) 
-0.22216

>  <r_i_glide_ligand_efficiency_ln>  (25) 
-0.572702

>  <r_i_glide_gscore>  (25) 
-2.72675

>  <r_i_glide_lipo>  (25) 
-0.737657

>  <r_i_glide_hbond>  (25) 
0

>  <r_i_glide_metal>  (25) 
-0

>  <r_i_glide_rewards>  (25) 
0

>  <r_i_glide_evdw>  (25) 
-29.294

>  <r_i_glide_ecoul>  (25) 
-3.49595

>  <r_i_glide_erotb>  (25) 
0

>  <r_i_glide_esite>  (25) 
0

>  <r_i_glide_emodel>  (25) 
-38.0086

>  <r_i_glide_energy>  (25) 
-32.7899

>  <r_i_glide_einternal>  (25) 
1.11284

>  <r_i_glide_intrahb_reward>  (25) 
-0

>  <i_i_glide_confnum>  (25) 
1

>  <i_i_glide_posenum>  (25) 
30

>  <r_i_glide_eff_state_penalty>  (25) 
0

>  <ligand_id>  (25) 
10

>  <original_smiles>  (25) 
CC1CC2OC(=O)C3C(C)(C)C4(C)OC5(C1)C(C)C5(O)C(O)C4C(O)C14CC5(C)CCC(C)C(C)C5C5CCC2C31C54C

>  <smiles>  (25) 
[H]OC1([H])C2([H])C([H])(O[H])C34C([H])([H])C5(C([H])([H])[H])C([H])([H])C([H])([H])C([H])(C([H])([H])[H])C([H])(C([H])([H])[H])C5([H])C5([H])C([H])([H])C([H])([H])C6([H])C7([H])OC(=O)C([H])(C(C([H])([H])[H])(C([H])([H])[H])C2(C([H])([H])[H])OC2(C([H])([H])C([H])(C([H])([H])[H])C7([H])[H])C([H])(C([H])([H])[H])C12O[H])C63C54C([H])([H])[H]

$$$$
10:0:1
     RDKit          3D

 99107  0  0  1  0  0  0  0  0999 V2000
    2.0760    5.3327    3.1199 C   0  0  0  0  0  0  0  0  0  0  0  0
    1.4014    4.4652    4.1984 C   0  0  2  0  0  0  0  0  0  0  0  0
    2.3212    3.2880    4.5894 C   0  0  0  0  0  0  0  0  0  0  0  0
    3.5214    3.6296    5.5305 C   0  0  1  0  0  0  0  0  0  0  0  0
    3.4412    4.9138    6.1256 O   0  0  0  0  0  0  0  0  0  0  0  0
    2.9242    5.1108    7.3476 C   0  0  0  0  0  0  0  0  0  0  0  0
    3.1951    6.1014    8.0292 O   0  0  0  0  0  0  0  0  0  0  0  0
    1.9791    3.9925    7.8949 C   0  0  1  0  0  0  0  0  0  0  0  0
    0.4572    4.5596    8.0948 C   0  0  0  0  0  0  0  0  0  0  0  0
    0.2596    4.7602    9.6407 C   0  0  0  0  0  0  0  0  0  0  0  0
    0.2718    6.0669    7.6628 C   0  0  0  0  0  0  0  0  0  0  0  0
   -0.7436    3.7789    7.3815 C   0  0  1  0  0  0  0  0  0  0  0  0
   -2.1136    4.0640    8.0782 C   0  0  0  0  0  0  0  0  0  0  0  0
   -0.9374    4.3419    6.0548 O   0  0  0  0  0  0  0  0  0  0  0  0
   -0.9707    3.5236    4.8599 C   0  0  2  0  0  0  0  0  0  0  0  0
   -0.0230    4.0444    3.7632 C   0  0  0  0  0  0  0  0  0  0  0  0
   -2.4027    3.1767    4.4671 C   0  0  1  0  0  0  0  0  0  0  0  0
   -2.8596    3.1750    3.0148 C   0  0  0  0  0  0  0  0  0  0  0  0
   -1.5229    2.1002    5.0597 C   0  0  1  0  0  0  0  0  0  0  0  0
   -0.8831    1.2192    4.1424 O   0  0  0  0  0  0  0  0  0  0  0  0
   -1.6478    1.5689    6.4765 C   0  0  1  0  0  0  0  0  0  0  0  0
   -1.6307    0.1515    6.4401 O   0  0  0  0  0  0  0  0  0  0  0  0
   -0.5048    2.2524    7.2908 C   0  0  2  0  0  0  0  0  0  0  0  0
    0.0927    1.6454    8.6083 C   0  0  1  0  0  0  0  0  0  0  0  0
   -0.4034    0.3676    8.9340 O   0  0  0  0  0  0  0  0  0  0  0  0
    1.6589    1.6875    8.6374 C   0  0  2  0  0  0  0  0  0  0  0  0
    2.2288    1.7843   10.0599 C   0  0  0  0  0  0  0  0  0  0  0  0
    2.8643    0.4973   10.6397 C   0  0  1  0  0  0  0  0  0  0  0  0
    3.3693    0.8797   12.0573 C   0  0  0  0  0  0  0  0  0  0  0  0
    1.8489   -0.6586   10.7530 C   0  0  0  0  0  0  0  0  0  0  0  0
    2.4558   -1.9520   11.3166 C   0  0  0  0  0  0  0  0  0  0  0  0
    3.6421   -2.4420   10.4668 C   0  0  1  0  0  0  0  0  0  0  0  0
    3.1525   -3.2187    9.2285 C   0  0  0  0  0  0  0  0  0  0  0  0
    4.6623   -1.2928   10.2060 C   0  0  1  0  0  0  0  0  0  0  0  0
    5.9144   -1.7600    9.4402 C   0  0  0  0  0  0  0  0  0  0  0  0
    4.0292    0.0609    9.7183 C   0  0  1  0  0  0  0  0  0  0  0  0
    3.6682    0.1009    8.1870 C   0  0  2  0  0  0  0  0  0  0  0  0
    4.8809    0.4836    7.3071 C   0  0  0  0  0  0  0  0  0  0  0  0
    4.4665    1.3718    6.1354 C   0  0  0  0  0  0  0  0  0  0  0  0
    3.7446    2.6253    6.6817 C   0  0  2  0  0  0  0  0  0  0  0  0
    2.3908    2.4769    7.4538 C   0  0  1  0  0  0  0  0  0  0  0  0
    2.3855    0.8870    7.7257 C   0  0  2  0  0  0  0  0  0  0  0  0
    1.6904   -0.0527    6.7182 C   0  0  0  0  0  0  0  0  0  0  0  0
    2.2101    4.7761    2.1929 H   0  0  0  0  0  0  0  0  0  0  0  0
    3.0583    5.6821    3.4415 H   0  0  0  0  0  0  0  0  0  0  0  0
    1.4750    6.2118    2.8915 H   0  0  0  0  0  0  0  0  0  0  0  0
    1.2612    5.1076    5.0536 H   0  0  0  0  0  0  0  0  0  0  0  0
    1.7101    2.5063    5.0170 H   0  0  0  0  0  0  0  0  0  0  0  0
    2.7043    2.8208    3.6823 H   0  0  0  0  0  0  0  0  0  0  0  0
    4.4162    3.6461    4.9080 H   0  0  0  0  0  0  0  0  0  0  0  0
    2.3684    4.0402    8.9015 H   0  0  0  0  0  0  0  0  0  0  0  0
   -0.6944    5.2268    9.9000 H   0  0  0  0  0  0  0  0  0  0  0  0
    1.0221    5.4265   10.0441 H   0  0  0  0  0  0  0  0  0  0  0  0
    0.3391    3.8792   10.2618 H   0  0  0  0  0  0  0  0  0  0  0  0
   -0.7472    6.4201    7.7993 H   0  0  0  0  0  0  0  0  0  0  0  0
    0.5192    6.2747    6.6257 H   0  0  0  0  0  0  0  0  0  0  0  0
    0.8589    6.7576    8.2700 H   0  0  0  0  0  0  0  0  0  0  0  0
   -2.2220    3.5147    9.0130 H   0  0  0  0  0  0  0  0  0  0  0  0
   -2.9691    3.8047    7.4517 H   0  0  0  0  0  0  0  0  0  0  0  0
   -2.2801    5.1132    8.3120 H   0  0  0  0  0  0  0  0  0  0  0  0
   -0.5095    4.9175    3.3218 H   0  0  0  0  0  0  0  0  0  0  0  0
    0.0605    3.3234    2.9465 H   0  0  0  0  0  0  0  0  0  0  0  0
   -3.1883    3.5040    5.1408 H   0  0  0  0  0  0  0  0  0  0  0  0
   -2.1013    2.7873    2.3346 H   0  0  0  0  0  0  0  0  0  0  0  0
   -3.1175    4.1875    2.6913 H   0  0  0  0  0  0  0  0  0  0  0  0
   -3.7529    2.5630    2.9077 H   0  0  0  0  0  0  0  0  0  0  0  0
   -0.8548    1.6459    3.3072 H   0  0  0  0  0  0  0  0  0  0  0  0
   -2.6265    1.8177    6.8729 H   0  0  0  0  0  0  0  0  0  0  0  0
   -0.8641   -0.0957    5.9467 H   0  0  0  0  0  0  0  0  0  0  0  0
    0.2751    2.1993    6.5708 H   0  0  0  0  0  0  0  0  0  0  0  0
   -0.3127    2.1961    9.4448 H   0  0  0  0  0  0  0  0  0  0  0  0
   -0.1312    0.1710    9.8115 H   0  0  0  0  0  0  0  0  0  0  0  0
    3.0443    2.5119   10.0395 H   0  0  0  0  0  0  0  0  0  0  0  0
    1.5009    2.1789   10.7609 H   0  0  0  0  0  0  0  0  0  0  0  0
    3.8696    0.0667   12.5850 H   0  0  0  0  0  0  0  0  0  0  0  0
    2.5327    1.1836   12.6937 H   0  0  0  0  0  0  0  0  0  0  0  0
    4.0732    1.7127   12.0314 H   0  0  0  0  0  0  0  0  0  0  0  0
    0.9860   -0.3516   11.3481 H   0  0  0  0  0  0  0  0  0  0  0  0
    1.4881   -0.9091    9.7591 H   0  0  0  0  0  0  0  0  0  0  0  0
    2.7691   -1.8037   12.3531 H   0  0  0  0  0  0  0  0  0  0  0  0
    1.6820   -2.7208   11.3547 H   0  0  0  0  0  0  0  0  0  0  0  0
    4.1625   -3.1856   11.0733 H   0  0  0  0  0  0  0  0  0  0  0  0
    2.4696   -2.6404    8.6120 H   0  0  0  0  0  0  0  0  0  0  0  0
    2.6052   -4.1098    9.5368 H   0  0  0  0  0  0  0  0  0  0  0  0
    3.9810   -3.5588    8.6058 H   0  0  0  0  0  0  0  0  0  0  0  0
    5.0661   -1.0697   11.1925 H   0  0  0  0  0  0  0  0  0  0  0  0
    5.6837   -2.0867    8.4282 H   0  0  0  0  0  0  0  0  0  0  0  0
    6.3837   -2.6043    9.9514 H   0  0  0  0  0  0  0  0  0  0  0  0
    6.6586   -0.9667    9.3785 H   0  0  0  0  0  0  0  0  0  0  0  0
    4.8023    0.8150    9.8570 H   0  0  0  0  0  0  0  0  0  0  0  0
    3.4978   -0.9351    7.9257 H   0  0  0  0  0  0  0  0  0  0  0  0
    5.6324    1.0170    7.8920 H   0  0  0  0  0  0  0  0  0  0  0  0
    5.3874   -0.4053    6.9214 H   0  0  0  0  0  0  0  0  0  0  0  0
    5.3676    1.6676    5.6000 H   0  0  0  0  0  0  0  0  0  0  0  0
    3.8660    0.8271    5.4090 H   0  0  0  0  0  0  0  0  0  0  0  0
    4.4768    3.0391    7.3767 H   0  0  0  0  0  0  0  0  0  0  0  0
    2.4000   -0.6099    6.1136 H   0  0  0  0  0  0  0  0  0  0  0  0
    1.0841    0.4753    5.9920 H   0  0  0  0  0  0  0  0  0  0  0  0
    1.0759   -0.7877    7.2393 H   0  0  0  0  0  0  0  0  0  0  0  0
  1  2  1  0
  1 44  1  0
  1 45  1  0
  1 46  1  0
  2 16  1  0
  2  3  1  0
  2 47  1  1
  3  4  1  0
  3 48  1  0
  3 49  1  0
  4 40  1  0
  4  5  1  0
  4 50  1  6
  5  6  1  0
  6  7  2  0
  6  8  1  0
  8 41  1  0
  8  9  1  0
  8 51  1  1
  9 10  1  0
  9 11  1  0
  9 12  1  0
 10 52  1  0
 10 53  1  0
 10 54  1  0
 11 55  1  0
 11 56  1  0
 11 57  1  0
 12 23  1  0
 12 13  1  1
 12 14  1  0
 13 58  1  0
 13 59  1  0
 13 60  1  0
 14 15  1  0
 15 19  1  0
 15 16  1  6
 15 17  1  0
 16 61  1  0
 16 62  1  0
 17 18  1  0
 17 19  1  0
 17 63  1  1
 18 64  1  0
 18 65  1  0
 18 66  1  0
 19 20  1  6
 19 21  1  0
 20 67  1  0
 21 22  1  0
 21 23  1  0
 21 68  1  1
 22 69  1  0
 23 24  1  0
 23 70  1  6
 24 25  1  0
 24 26  1  0
 24 71  1  1
 25 72  1  0
 41 26  1  1
 26 42  1  0
 26 27  1  1
 27 28  1  0
 27 73  1  0
 27 74  1  0
 28 36  1  0
 28 29  1  1
 28 30  1  0
 29 75  1  0
 29 76  1  0
 29 77  1  0
 30 31  1  0
 30 78  1  0
 30 79  1  0
 31 32  1  0
 31 80  1  0
 31 81  1  0
 32 33  1  0
 32 34  1  0
 32 82  1  1
 33 83  1  0
 33 84  1  0
 33 85  1  0
 34 35  1  0
 34 36  1  0
 34 86  1  1
 35 87  1  0
 35 88  1  0
 35 89  1  0
 36 37  1  0
 36 90  1  6
 37 42  1  0
 37 38  1  0
 37 91  1  6
 38 39  1  0
 38 92  1  0
 38 93  1  0
 39 40  1  0
 39 94  1  0
 39 95  1  0
 40 41  1  0
 40 96  1  1
 41 42  1  0
 42 43  1  6
 43 97  1  0
 43 98  1  0
 43 99  1  0
M  END
>  <i_m_ct_stereo_status>  (26) 
1

>  <s_m_source_file>  (26) 
/var/tmp/pbs.5076255.sched01/tmppfua8s0c/0korcpw03.sdf

>  <i_m_source_file_index>  (26) 
12

>  <i_lp_mmshare_version>  (26) 
48012

>  <i_f3d_flags>  (26) 
0

>  <s_epik_input>  (26) 
W0NIM11bQ0BASF0oW0NIMl0xKVtDSDJdW0NAQEhdKE9DMj1PKVtDQEBIXTNbQ0gyXVtDSDJdW0NAQEhdKFtDQEhdNFtDQF0oW0NIMl01KShbQ0gzXSlbQ0gyXVtDSDJdW0NAQEhdKFtDSDNdKVtDQEhdNFtDSDNdKVtDQEBdNihbQ0gzXSlbQ0BdNShbQ0BASF03W09IXSlDMzZbQ0BASF0yQyhbQ0gzXSkoW0NIM10pW0NAXShPOCkoW0NIM10pW0NAQEhdN1tDQEhdKFtPSF0pW0NAQF0oW0NAXTE4OSkoW09IXSlbQ0BASF05W0NIM10=

>  <s_epik_cmdline>  (26) 
J2VwaWtfcHl0aG9uJywgJy1waHQnLCAnMi4wJywgJy1waCcsICc3LjAnLCAnLXRuJywgJzgnLCAnLW1hJywgJzIwMCcsICctaW1hZScsICc8aW5maWxlLm1hZT4nLCAnLW9tYWUnLCAnPG91dGZpbGUubWFlPic=

>  <r_lp_tautomer_probability>  (26) 
1

>  <r_epik_Ionization_Penalty>  (26) 
2.08129e-07

>  <r_epik_Ionization_Penalty_Charging>  (26) 
0

>  <r_epik_Ionization_Penalty_Neutral>  (26) 
2.08129e-07

>  <r_epik_State_Penalty>  (26) 
-0

>  <r_epik_Charging_Adjusted_Penalty>  (26) 
0

>  <i_epik_Tot_Q>  (26) 
0

>  <i_epik_Tot_abs_Q>  (26) 
0

>  <s_epik_Chemistry_Notes>  (26) 
This compound has an ester and may undergo hydrolysis at high or low pH.

>  <s_lp_Force_Field>  (26) 
OPLS3e

>  <r_lp_Energy>  (26) 
217.984

>  <b_lp_Chiralities_Consistent>  (26) 
1

>  <s_lp_Variant>  (26) 
10:0-1

>  <s_i_glide_gridfile>  (26) 
pfpi4k_grid

>  <i_i_glide_lignum>  (26) 
12

>  <i_i_glide_rotatable_bonds>  (26) 
3

>  <r_i_docking_score>  (26) 
-2.24452

>  <r_i_glide_ligand_efficiency>  (26) 
-0.0521981

>  <r_i_glide_ligand_efficiency_sa>  (26) 
-0.182871

>  <r_i_glide_ligand_efficiency_ln>  (26) 
-0.471419

>  <r_i_glide_gscore>  (26) 
-2.24452

>  <r_i_glide_lipo>  (26) 
-0.0188297

>  <r_i_glide_hbond>  (26) 
0

>  <r_i_glide_metal>  (26) 
-0

>  <r_i_glide_rewards>  (26) 
0

>  <r_i_glide_evdw>  (26) 
-25.0443

>  <r_i_glide_ecoul>  (26) 
-6.48982

>  <r_i_glide_erotb>  (26) 
0

>  <r_i_glide_esite>  (26) 
0

>  <r_i_glide_emodel>  (26) 
-35.9206

>  <r_i_glide_energy>  (26) 
-31.5341

>  <r_i_glide_einternal>  (26) 
0.570904

>  <r_i_glide_intrahb_reward>  (26) 
-0

>  <i_i_glide_confnum>  (26) 
2

>  <i_i_glide_posenum>  (26) 
36

>  <r_i_glide_eff_state_penalty>  (26) 
0

>  <ligand_id>  (26) 
10

>  <original_smiles>  (26) 
CC1CC2OC(=O)C3C(C)(C)C4(C)OC5(C1)C(C)C5(O)C(O)C4C(O)C14CC5(C)CCC(C)C(C)C5C5CCC2C31C54C

>  <smiles>  (26) 
[H]OC1([H])C2([H])C([H])(O[H])C34C([H])([H])C5(C([H])([H])[H])C([H])([H])C([H])([H])C([H])(C([H])([H])[H])C([H])(C([H])([H])[H])C5([H])C5([H])C([H])([H])C([H])([H])C6([H])C7([H])OC(=O)C([H])(C(C([H])([H])[H])(C([H])([H])[H])C2(C([H])([H])[H])OC2(C([H])([H])C([H])(C([H])([H])[H])C7([H])[H])C([H])(C([H])([H])[H])C12O[H])C63C54C([H])([H])[H]

$$$$
10:0:2
     RDKit          3D

 99107  0  0  1  0  0  0  0  0999 V2000
    2.2849    5.0072    3.3269 C   0  0  0  0  0  0  0  0  0  0  0  0
    1.6302    3.8539    4.1107 C   0  0  2  0  0  0  0  0  0  0  0  0
    2.4655    2.5629    3.9632 C   0  0  0  0  0  0  0  0  0  0  0  0
    3.7491    2.4745    4.8339 C   0  0  1  0  0  0  0  0  0  0  0  0
    3.8322    3.4585    5.8373 O   0  0  0  0  0  0  0  0  0  0  0  0
    3.4659    3.2440    7.0986 C   0  0  0  0  0  0  0  0  0  0  0  0
    3.8574    3.8940    8.0658 O   0  0  0  0  0  0  0  0  0  0  0  0
    2.4707    2.0537    7.3134 C   0  0  1  0  0  0  0  0  0  0  0  0
    1.0193    2.5887    7.8602 C   0  0  0  0  0  0  0  0  0  0  0  0
    0.9628    2.2354    9.3896 C   0  0  0  0  0  0  0  0  0  0  0  0
    0.9342    4.1569    8.0088 C   0  0  0  0  0  0  0  0  0  0  0  0
   -0.3004    2.1808    7.0506 C   0  0  1  0  0  0  0  0  0  0  0  0
   -1.5766    2.2789    7.9497 C   0  0  0  0  0  0  0  0  0  0  0  0
   -0.5486    3.2000    6.0338 O   0  0  0  0  0  0  0  0  0  0  0  0
   -0.7480    2.8582    4.6489 C   0  0  2  0  0  0  0  0  0  0  0  0
    0.1462    3.6950    3.7122 C   0  0  0  0  0  0  0  0  0  0  0  0
   -2.2325    2.7735    4.3147 C   0  0  1  0  0  0  0  0  0  0  0  0
   -2.8065    3.3067    3.0043 C   0  0  0  0  0  0  0  0  0  0  0  0
   -1.4186    1.5011    4.3997 C   0  0  1  0  0  0  0  0  0  0  0  0
   -0.9237    0.9785    3.1909 O   0  0  0  0  0  0  0  0  0  0  0  0
   -1.4609    0.4925    5.5433 C   0  0  1  0  0  0  0  0  0  0  0  0
   -1.5413   -0.8169    5.0191 O   0  0  0  0  0  0  0  0  0  0  0  0
   -0.2057    0.7780    6.4046 C   0  0  2  0  0  0  0  0  0  0  0  0
    0.4457   -0.2826    7.3631 C   0  0  1  0  0  0  0  0  0  0  0  0
   -0.1460   -1.5586    7.2897 O   0  0  0  0  0  0  0  0  0  0  0  0
    1.9958   -0.3568    7.2340 C   0  0  2  0  0  0  0  0  0  0  0  0
    2.6741   -0.7984    8.5205 C   0  0  0  0  0  0  0  0  0  0  0  0
    3.2424   -2.2360    8.5408 C   0  0  1  0  0  0  0  0  0  0  0  0
    3.8977   -2.4162    9.9366 C   0  0  0  0  0  0  0  0  0  0  0  0
    2.1471   -3.3015    8.3556 C   0  0  0  0  0  0  0  0  0  0  0  0
    2.6783   -4.7410    8.3540 C   0  0  0  0  0  0  0  0  0  0  0  0
    3.7396   -4.9531    7.2609 C   0  0  1  0  0  0  0  0  0  0  0  0
    3.0835   -5.2128    5.8907 C   0  0  0  0  0  0  0  0  0  0  0  0
    4.8310   -3.8450    7.3110 C   0  0  1  0  0  0  0  0  0  0  0  0
    5.9721   -4.0779    6.2991 C   0  0  0  0  0  0  0  0  0  0  0  0
    4.2805   -2.3757    7.3999 C   0  0  1  0  0  0  0  0  0  0  0  0
    3.7997   -1.7751    6.0281 C   0  0  2  0  0  0  0  0  0  0  0  0
    4.9665   -1.1627    5.2200 C   0  0  0  0  0  0  0  0  0  0  0  0
    4.5423    0.1159    4.4958 C   0  0  0  0  0  0  0  0  0  0  0  0
    3.9766    1.1181    5.5267 C   0  0  2  0  0  0  0  0  0  0  0  0
    2.7053    0.7774    6.3456 C   0  0  1  0  0  0  0  0  0  0  0  0
    2.5737   -0.8091    6.0183 C   0  0  2  0  0  0  0  0  0  0  0  0
    1.7191   -1.2796    4.8303 C   0  0  0  0  0  0  0  0  0  0  0  0
    2.2880    4.8092    2.2539 H   0  0  0  0  0  0  0  0  0  0  0  0
    3.3188    5.1632    3.6388 H   0  0  0  0  0  0  0  0  0  0  0  0
    1.7539    5.9471    3.4850 H   0  0  0  0  0  0  0  0  0  0  0  0
    1.6206    4.1570    5.1441 H   0  0  0  0  0  0  0  0  0  0  0  0
    1.8195    1.7157    4.1430 H   0  0  0  0  0  0  0  0  0  0  0  0
    2.7351    2.4362    2.9135 H   0  0  0  0  0  0  0  0  0  0  0  0
    4.5924    2.6526    4.1714 H   0  0  0  0  0  0  0  0  0  0  0  0
    2.9319    1.7150    8.2316 H   0  0  0  0  0  0  0  0  0  0  0  0
    0.0818    2.6323    9.8946 H   0  0  0  0  0  0  0  0  0  0  0  0
    1.8165    2.6725    9.9152 H   0  0  0  0  0  0  0  0  0  0  0  0
    1.0175    1.1893    9.6535 H   0  0  0  0  0  0  0  0  0  0  0  0
   -0.0341    4.4945    8.3699 H   0  0  0  0  0  0  0  0  0  0  0  0
    1.1129    4.7123    7.0918 H   0  0  0  0  0  0  0  0  0  0  0  0
    1.6266    4.5526    8.7544 H   0  0  0  0  0  0  0  0  0  0  0  0
   -1.6543    1.4402    8.6425 H   0  0  0  0  0  0  0  0  0  0  0  0
   -2.5016    2.3119    7.3712 H   0  0  0  0  0  0  0  0  0  0  0  0
   -1.6261    3.1860    8.5520 H   0  0  0  0  0  0  0  0  0  0  0  0
   -0.2994    4.6894    3.6555 H   0  0  0  0  0  0  0  0  0  0  0  0
    0.1006    3.2860    2.7122 H   0  0  0  0  0  0  0  0  0  0  0  0
   -2.9194    2.9216    5.1384 H   0  0  0  0  0  0  0  0  0  0  0  0
   -2.1385    3.1446    2.1613 H   0  0  0  0  0  0  0  0  0  0  0  0
   -2.9905    4.3789    3.0818 H   0  0  0  0  0  0  0  0  0  0  0  0
   -3.7520    2.8127    2.7919 H   0  0  0  0  0  0  0  0  0  0  0  0
   -0.9253    1.6673    2.5247 H   0  0  0  0  0  0  0  0  0  0  0  0
   -2.3748    0.6398    6.0965 H   0  0  0  0  0  0  0  0  0  0  0  0
   -0.8847   -0.8861    4.3417 H   0  0  0  0  0  0  0  0  0  0  0  0
    0.5058    0.9510    5.6344 H   0  0  0  0  0  0  0  0  0  0  0  0
    0.1584   -0.0394    8.3746 H   0  0  0  0  0  0  0  0  0  0  0  0
    0.0834   -1.9339    6.4506 H   0  0  0  0  0  0  0  0  0  0  0  0
    3.5486   -0.1591    8.6713 H   0  0  0  0  0  0  0  0  0  0  0  0
    2.0448   -0.6452    9.3948 H   0  0  0  0  0  0  0  0  0  0  0  0
    4.3621   -3.3911   10.0878 H   0  0  0  0  0  0  0  0  0  0  0  0
    3.1467   -2.3120   10.7244 H   0  0  0  0  0  0  0  0  0  0  0  0
    4.6717   -1.6707   10.1270 H   0  0  0  0  0  0  0  0  0  0  0  0
    1.3595   -3.1756    9.1029 H   0  0  0  0  0  0  0  0  0  0  0  0
    1.6869   -3.1603    7.3809 H   0  0  0  0  0  0  0  0  0  0  0  0
    3.0871   -4.9947    9.3329 H   0  0  0  0  0  0  0  0  0  0  0  0
    1.8439   -5.4264    8.1974 H   0  0  0  0  0  0  0  0  0  0  0  0
    4.2385   -5.8944    7.5034 H   0  0  0  0  0  0  0  0  0  0  0  0
    2.4050   -4.4160    5.5922 H   0  0  0  0  0  0  0  0  0  0  0  0
    2.4855   -6.1239    5.9251 H   0  0  0  0  0  0  0  0  0  0  0  0
    3.8246   -5.3516    5.1034 H   0  0  0  0  0  0  0  0  0  0  0  0
    5.3361   -4.0144    8.2596 H   0  0  0  0  0  0  0  0  0  0  0  0
    5.6328   -4.0066    5.2678 H   0  0  0  0  0  0  0  0  0  0  0  0
    6.4033   -5.0728    6.4303 H   0  0  0  0  0  0  0  0  0  0  0  0
    6.7785   -3.3578    6.4406 H   0  0  0  0  0  0  0  0  0  0  0  0
    5.1278   -1.7648    7.7115 H   0  0  0  0  0  0  0  0  0  0  0  0
    3.5184   -2.6388    5.4378 H   0  0  0  0  0  0  0  0  0  0  0  0
    5.8154   -0.9334    5.8711 H   0  0  0  0  0  0  0  0  0  0  0  0
    5.3524   -1.8782    4.4885 H   0  0  0  0  0  0  0  0  0  0  0  0
    5.4243    0.5254    4.0031 H   0  0  0  0  0  0  0  0  0  0  0  0
    3.8408   -0.1041    3.6898 H   0  0  0  0  0  0  0  0  0  0  0  0
    4.8078    1.2164    6.2314 H   0  0  0  0  0  0  0  0  0  0  0  0
    2.3307   -1.6148    3.9924 H   0  0  0  0  0  0  0  0  0  0  0  0
    1.1094   -0.4935    4.4036 H   0  0  0  0  0  0  0  0  0  0  0  0
    1.0918   -2.1285    5.1113 H   0  0  0  0  0  0  0  0  0  0  0  0
  1  2  1  0
  1 44  1  0
  1 45  1  0
  1 46  1  0
  2 16  1  0
  2  3  1  0
  2 47  1  1
  3  4  1  0
  3 48  1  0
  3 49  1  0
  4 40  1  0
  4  5  1  0
  4 50  1  6
  5  6  1  0
  6  7  2  0
  6  8  1  0
  8 41  1  0
  8  9  1  0
  8 51  1  1
  9 10  1  0
  9 11  1  0
  9 12  1  0
 10 52  1  0
 10 53  1  0
 10 54  1  0
 11 55  1  0
 11 56  1  0
 11 57  1  0
 12 23  1  0
 12 13  1  1
 12 14  1  0
 13 58  1  0
 13 59  1  0
 13 60  1  0
 14 15  1  0
 15 19  1  0
 15 16  1  6
 15 17  1  0
 16 61  1  0
 16 62  1  0
 17 18  1  0
 17 19  1  0
 17 63  1  1
 18 64  1  0
 18 65  1  0
 18 66  1  0
 19 20  1  6
 19 21  1  0
 20 67  1  0
 21 22  1  0
 21 23  1  0
 21 68  1  1
 22 69  1  0
 23 24  1  0
 23 70  1  6
 24 25  1  0
 24 26  1  0
 24 71  1  1
 25 72  1  0
 41 26  1  1
 26 42  1  0
 26 27  1  1
 27 28  1  0
 27 73  1  0
 27 74  1  0
 28 36  1  0
 28 29  1  1
 28 30  1  0
 29 75  1  0
 29 76  1  0
 29 77  1  0
 30 31  1  0
 30 78  1  0
 30 79  1  0
 31 32  1  0
 31 80  1  0
 31 81  1  0
 32 33  1  0
 32 34  1  0
 32 82  1  1
 33 83  1  0
 33 84  1  0
 33 85  1  0
 34 35  1  0
 34 36  1  0
 34 86  1  1
 35 87  1  0
 35 88  1  0
 35 89  1  0
 36 37  1  0
 36 90  1  1
 37 42  1  0
 37 38  1  0
 37 91  1  6
 38 39  1  0
 38 92  1  0
 38 93  1  0
 39 40  1  0
 39 94  1  0
 39 95  1  0
 40 41  1  0
 40 96  1  1
 41 42  1  0
 42 43  1  6
 43 97  1  0
 43 98  1  0
 43 99  1  0
M  END
>  <i_m_ct_stereo_status>  (27) 
1

>  <s_m_source_file>  (27) 
/var/tmp/pbs.5076255.sched01/tmppfua8s0c/0korcpw03.sdf

>  <i_m_source_file_index>  (27) 
12

>  <i_lp_mmshare_version>  (27) 
48012

>  <i_f3d_flags>  (27) 
0

>  <s_epik_input>  (27) 
W0NIM11bQ0BASF0oW0NIMl0xKVtDSDJdW0NAQEhdKE9DMj1PKVtDQEBIXTNbQ0gyXVtDSDJdW0NAQEhdKFtDQEhdNFtDQF0oW0NIMl01KShbQ0gzXSlbQ0gyXVtDSDJdW0NAQEhdKFtDSDNdKVtDQEhdNFtDSDNdKVtDQEBdNihbQ0gzXSlbQ0BdNShbQ0BASF03W09IXSlDMzZbQ0BASF0yQyhbQ0gzXSkoW0NIM10pW0NAXShPOCkoW0NIM10pW0NAQEhdN1tDQEhdKFtPSF0pW0NAQF0oW0NAXTE4OSkoW09IXSlbQ0BASF05W0NIM10=

>  <s_epik_cmdline>  (27) 
J2VwaWtfcHl0aG9uJywgJy1waHQnLCAnMi4wJywgJy1waCcsICc3LjAnLCAnLXRuJywgJzgnLCAnLW1hJywgJzIwMCcsICctaW1hZScsICc8aW5maWxlLm1hZT4nLCAnLW9tYWUnLCAnPG91dGZpbGUubWFlPic=

>  <r_lp_tautomer_probability>  (27) 
1

>  <r_epik_Ionization_Penalty>  (27) 
2.08129e-07

>  <r_epik_Ionization_Penalty_Charging>  (27) 
0

>  <r_epik_Ionization_Penalty_Neutral>  (27) 
2.08129e-07

>  <r_epik_State_Penalty>  (27) 
-0

>  <r_epik_Charging_Adjusted_Penalty>  (27) 
0

>  <i_epik_Tot_Q>  (27) 
0

>  <i_epik_Tot_abs_Q>  (27) 
0

>  <s_epik_Chemistry_Notes>  (27) 
This compound has an ester and may undergo hydrolysis at high or low pH.

>  <s_lp_Force_Field>  (27) 
OPLS3e

>  <r_lp_Energy>  (27) 
217.984

>  <b_lp_Chiralities_Consistent>  (27) 
1

>  <s_lp_Variant>  (27) 
10:0-1

>  <s_i_glide_gridfile>  (27) 
pfpi4k_grid

>  <i_i_glide_lignum>  (27) 
12

>  <i_i_glide_rotatable_bonds>  (27) 
3

>  <r_i_docking_score>  (27) 
-2.01123

>  <r_i_glide_ligand_efficiency>  (27) 
-0.0467728

>  <r_i_glide_ligand_efficiency_sa>  (27) 
-0.163864

>  <r_i_glide_ligand_efficiency_ln>  (27) 
-0.422421

>  <r_i_glide_gscore>  (27) 
-2.01123

>  <r_i_glide_lipo>  (27) 
-0.0803875

>  <r_i_glide_hbond>  (27) 
0

>  <r_i_glide_metal>  (27) 
-0

>  <r_i_glide_rewards>  (27) 
0

>  <r_i_glide_evdw>  (27) 
-28.2574

>  <r_i_glide_ecoul>  (27) 
-3.45315

>  <r_i_glide_erotb>  (27) 
0

>  <r_i_glide_esite>  (27) 
0

>  <r_i_glide_emodel>  (27) 
-35.556

>  <r_i_glide_energy>  (27) 
-31.7106

>  <r_i_glide_einternal>  (27) 
0.310096

>  <r_i_glide_intrahb_reward>  (27) 
-0

>  <i_i_glide_confnum>  (27) 
1

>  <i_i_glide_posenum>  (27) 
26

>  <r_i_glide_eff_state_penalty>  (27) 
0

>  <ligand_id>  (27) 
10

>  <original_smiles>  (27) 
CC1CC2OC(=O)C3C(C)(C)C4(C)OC5(C1)C(C)C5(O)C(O)C4C(O)C14CC5(C)CCC(C)C(C)C5C5CCC2C31C54C

>  <smiles>  (27) 
[H]OC1([H])C2([H])C([H])(O[H])C34C([H])([H])C5(C([H])([H])[H])C([H])([H])C([H])([H])C([H])(C([H])([H])[H])C([H])(C([H])([H])[H])C5([H])C5([H])C([H])([H])C([H])([H])C6([H])C7([H])OC(=O)C([H])(C(C([H])([H])[H])(C([H])([H])[H])C2(C([H])([H])[H])OC2(C([H])([H])C([H])(C([H])([H])[H])C7([H])[H])C([H])(C([H])([H])[H])C12O[H])C63C54C([H])([H])[H]

$$$$
11:0:0
     RDKit          3D

 51 56  0  0  1  0  0  0  0  0999 V2000
    3.4401   -1.9984    4.8314 C   0  0  0  0  0  0  0  0  0  0  0  0
    3.2080   -2.6646    3.5625 N   0  0  0  0  0  0  0  0  0  0  0  0
    2.4090   -3.8941    3.6010 C   0  0  0  0  0  0  0  0  0  0  0  0
    2.8724   -4.9700    2.5917 C   0  0  0  0  0  0  0  0  0  0  0  0
    4.0624   -4.6216    1.6513 C   0  0  2  0  0  0  0  0  0  0  0  0
    5.3255   -4.3173    2.4994 C   0  0  0  0  0  0  0  0  0  0  0  0
    5.9789   -3.1062    1.8767 C   0  0  1  0  0  0  0  0  0  0  0  0
    6.4790   -3.6868    0.5076 C   0  0  0  0  0  0  0  0  0  0  0  0
    5.2297   -4.1893   -0.3087 C   0  0  2  0  0  0  0  0  0  0  0  0
    5.3047   -4.2059   -1.7517 O   0  0  0  0  0  0  0  0  0  0  0  0
    4.5702   -3.2496   -2.4035 C   0  0  0  0  0  0  0  0  0  0  0  0
    4.2296   -3.3783   -3.7481 C   0  0  0  0  0  0  0  0  0  0  0  0
    4.6136   -4.4496   -4.4807 O   0  0  0  0  0  0  0  0  0  0  0  0
    3.4704   -2.3841   -4.3200 C   0  0  0  0  0  0  0  0  0  0  0  0
    3.0376   -1.2360   -3.6753 C   0  0  0  0  0  0  0  0  0  0  0  0
    3.3376   -1.1134   -2.3159 C   0  0  0  0  0  0  0  0  0  0  0  0
    4.0871   -2.1296   -1.7057 C   0  0  0  0  0  0  0  0  0  0  0  0
    4.4361   -2.2521   -0.2687 C   0  0  1  0  0  0  0  0  0  0  0  0
    4.9463   -1.1068    0.6492 C   0  0  0  0  0  0  0  0  0  0  0  0
    5.0595   -1.7969    1.9891 C   0  0  2  0  0  0  0  0  0  0  0  0
    5.6420   -0.8452    2.9598 N   0  0  0  0  0  0  0  0  0  0  0  0
    3.5383   -1.9914    2.3009 C   0  0  1  0  0  0  0  0  0  0  0  0
    2.8881   -2.6662    1.0480 C   0  0  0  0  0  0  0  0  0  0  0  0
    3.8359   -3.7130    0.3154 C   0  0  1  0  0  0  0  0  0  0  0  0
    2.6770   -2.2597    5.5720 H   0  0  0  0  0  0  0  0  0  0  0  0
    3.4502   -0.9091    4.7308 H   0  0  0  0  0  0  0  0  0  0  0  0
    4.4051   -2.3231    5.2310 H   0  0  0  0  0  0  0  0  0  0  0  0
    2.4629   -4.3209    4.6112 H   0  0  0  0  0  0  0  0  0  0  0  0
    1.3589   -3.6556    3.4211 H   0  0  0  0  0  0  0  0  0  0  0  0
    3.1722   -5.8338    3.1784 H   0  0  0  0  0  0  0  0  0  0  0  0
    2.0266   -5.3282    2.0019 H   0  0  0  0  0  0  0  0  0  0  0  0
    4.2217   -5.6361    1.3017 H   0  0  0  0  0  0  0  0  0  0  0  0
    5.1299   -4.1784    3.5605 H   0  0  0  0  0  0  0  0  0  0  0  0
    5.9929   -5.1765    2.4854 H   0  0  0  0  0  0  0  0  0  0  0  0
    6.8811   -2.8836    2.3760 H   0  0  0  0  0  0  0  0  0  0  0  0
    7.1157   -2.9777   -0.0247 H   0  0  0  0  0  0  0  0  0  0  0  0
    7.1272   -4.5460    0.6618 H   0  0  0  0  0  0  0  0  0  0  0  0
    5.2987   -5.2681   -0.2789 H   0  0  0  0  0  0  0  0  0  0  0  0
    5.0535   -5.0994   -3.9359 H   0  0  0  0  0  0  0  0  0  0  0  0
    3.1996   -2.5470   -5.3108 H   0  0  0  0  0  0  0  0  0  0  0  0
    2.4244   -0.5106   -4.1986 H   0  0  0  0  0  0  0  0  0  0  0  0
    2.8625   -0.2874   -1.8351 H   0  0  0  0  0  0  0  0  0  0  0  0
    5.4142   -2.1138   -0.7274 H   0  0  0  0  0  0  0  0  0  0  0  0
    5.9083   -0.6840    0.3427 H   0  0  0  0  0  0  0  0  0  0  0  0
    4.2465   -0.2673    0.6567 H   0  0  0  0  0  0  0  0  0  0  0  0
    5.0689   -0.0225    2.9909 H   0  0  0  0  0  0  0  0  0  0  0  0
    6.5813   -0.6105    2.6933 H   0  0  0  0  0  0  0  0  0  0  0  0
    3.0695   -1.0101    2.3827 H   0  0  0  0  0  0  0  0  0  0  0  0
    1.9381   -3.1380    1.2846 H   0  0  0  0  0  0  0  0  0  0  0  0
    2.4367   -1.8858    0.4270 H   0  0  0  0  0  0  0  0  0  0  0  0
    5.6357   -1.2873    3.8575 H   0  0  0  0  0  0  0  0  0  0  0  0
  1  2  1  0
  1 25  1  0
  1 26  1  0
  1 27  1  0
  2 22  1  0
  2  3  1  0
  3  4  1  0
  3 28  1  0
  3 29  1  0
  4  5  1  0
  4 30  1  0
  4 31  1  0
  5 24  1  0
  5  6  1  0
  5 32  1  6
  6  7  1  0
  6 33  1  0
  6 34  1  0
  7 20  1  0
  7  8  1  0
  7 35  1  1
  8  9  1  0
  8 36  1  0
  8 37  1  0
  9 24  1  0
  9 10  1  0
  9 38  1  1
 10 11  1  0
 11 17  2  0
 11 12  1  0
 12 13  1  0
 12 14  2  0
 13 39  1  0
 14 15  1  0
 14 40  1  0
 15 16  2  0
 15 41  1  0
 16 17  1  0
 16 42  1  0
 17 18  1  0
 18 24  1  0
 18 19  1  0
 18 43  1  6
 19 20  1  0
 19 44  1  0
 19 45  1  0
 20 21  1  1
 20 22  1  0
 21 46  1  0
 21 47  1  0
 21 51  1  0
 22 23  1  0
 22 48  1  1
 24 23  1  6
 23 49  1  0
 23 50  1  0
M  CHG  1  21   1
M  END
>  <i_m_ct_stereo_status>  (28) 
1

>  <s_m_source_file>  (28) 
/var/tmp/pbs.5076255.sched01/tmppfua8s0c/0korcpw03.sdf

>  <i_m_source_file_index>  (28) 
13

>  <i_lp_mmshare_version>  (28) 
48012

>  <i_f3d_flags>  (28) 
0

>  <s_epik_input>  (28) 
W0NAQF0xMjNbQ0BASF00W0NIMl1bQ0gyXU4oW0NIM10pW0NASF0oW0NIMl0zKVtDQEBdNShbTkgyXSlbQ0BASF0oW0NIMl00KVtDSDJdW0NAQEhdMU9jNmMoW0NASF0yW0NIMl01KVtjSF1bY0hdW2NIXWM2W09IXQ==

>  <s_epik_cmdline>  (28) 
J2VwaWtfcHl0aG9uJywgJy1waHQnLCAnMi4wJywgJy1waCcsICc3LjAnLCAnLXRuJywgJzgnLCAnLW1hJywgJzIwMCcsICctaW1hZScsICc8aW5maWxlLm1hZT4nLCAnLW9tYWUnLCAnPG91dGZpbGUubWFlPic=

>  <r_lp_tautomer_probability>  (28) 
1

>  <r_epik_Ionization_Penalty>  (28) 
0.036787

>  <r_epik_Ionization_Penalty_Charging>  (28) 
0.00142523

>  <r_epik_Ionization_Penalty_Neutral>  (28) 
0.0353618

>  <r_epik_State_Penalty>  (28) 
0.138453

>  <r_epik_Charging_Adjusted_Penalty>  (28) 
0.139878

>  <i_epik_Tot_Q>  (28) 
1

>  <i_epik_Tot_abs_Q>  (28) 
1

>  <s_lp_Force_Field>  (28) 
OPLS3e

>  <r_lp_Energy>  (28) 
286.183

>  <b_lp_Chiralities_Consistent>  (28) 
1

>  <s_lp_Variant>  (28) 
11:0-1

>  <s_i_glide_gridfile>  (28) 
pfpi4k_grid

>  <i_i_glide_lignum>  (28) 
13

>  <i_i_glide_rotatable_bonds>  (28) 
1

>  <r_i_docking_score>  (28) 
-2.85358

>  <r_i_glide_ligand_efficiency>  (28) 
-0.118899

>  <r_i_glide_ligand_efficiency_sa>  (28) 
-0.342965

>  <r_i_glide_ligand_efficiency_ln>  (28) 
-0.682994

>  <r_i_glide_gscore>  (28) 
-2.85358

>  <r_i_glide_lipo>  (28) 
-0.802465

>  <r_i_glide_hbond>  (28) 
0

>  <r_i_glide_metal>  (28) 
-0

>  <r_i_glide_rewards>  (28) 
-1.17654

>  <r_i_glide_evdw>  (28) 
-7.41114

>  <r_i_glide_ecoul>  (28) 
-3.36014

>  <r_i_glide_erotb>  (28) 
0

>  <r_i_glide_esite>  (28) 
0

>  <r_i_glide_emodel>  (28) 
-14.0922

>  <r_i_glide_energy>  (28) 
-10.7713

>  <r_i_glide_einternal>  (28) 
0.148705

>  <r_i_glide_intrahb_reward>  (28) 
-0

>  <i_i_glide_confnum>  (28) 
1

>  <i_i_glide_posenum>  (28) 
3

>  <r_i_glide_eff_state_penalty>  (28) 
0

>  <ligand_id>  (28) 
11

>  <original_smiles>  (28) 
CN1CCC2CC3CC4Oc5c(O)cccc5C5CC3(N)C1CC245

>  <smiles>  (28) 
[H]Oc1c([H])c([H])c([H])c2c1OC1([H])C([H])([H])C3([H])C([H])([H])C4([H])C([H])([H])C([H])([H])N(C([H])([H])[H])C5([H])C([H])([H])C14C2([H])C([H])([H])C53[N+]([H])([H])[H]

$$$$
11:0:1
     RDKit          3D

 51 56  0  0  1  0  0  0  0  0999 V2000
    5.8410   -2.9366   -1.2478 C   0  0  0  0  0  0  0  0  0  0  0  0
    4.6380   -2.9699   -0.4301 N   0  0  0  0  0  0  0  0  0  0  0  0
    3.8897   -1.7146   -0.2915 C   0  0  0  0  0  0  0  0  0  0  0  0
    3.2687   -1.5078    1.1139 C   0  0  0  0  0  0  0  0  0  0  0  0
    3.4495   -2.6404    2.1666 C   0  0  2  0  0  0  0  0  0  0  0  0
    4.9645   -2.8477    2.4552 C   0  0  0  0  0  0  0  0  0  0  0  0
    5.2265   -4.3373    2.5287 C   0  0  1  0  0  0  0  0  0  0  0  0
    4.4097   -4.7272    3.8212 C   0  0  0  0  0  0  0  0  0  0  0  0
    2.8688   -4.3698    3.6447 C   0  0  2  0  0  0  0  0  0  0  0  0
    1.8442   -5.1229    4.3700 O   0  0  0  0  0  0  0  0  0  0  0  0
    1.0370   -5.9894    3.6450 C   0  0  0  0  0  0  0  0  0  0  0  0
   -0.1606   -6.5061    4.1632 C   0  0  0  0  0  0  0  0  0  0  0  0
   -0.5734   -6.1484    5.4084 O   0  0  0  0  0  0  0  0  0  0  0  0
   -0.9500   -7.3594    3.3656 C   0  0  0  0  0  0  0  0  0  0  0  0
   -0.5222   -7.7134    2.0676 C   0  0  0  0  0  0  0  0  0  0  0  0
    0.6880   -7.2102    1.5461 C   0  0  0  0  0  0  0  0  0  0  0  0
    1.4534   -6.3420    2.3506 C   0  0  0  0  0  0  0  0  0  0  0  0
    2.7426   -5.6462    1.9975 C   0  0  1  0  0  0  0  0  0  0  0  0
    3.9895   -6.2524    1.2710 C   0  0  0  0  0  0  0  0  0  0  0  0
    4.9195   -5.0460    1.1055 C   0  0  2  0  0  0  0  0  0  0  0  0
    6.1822   -5.4924    0.4976 N   0  0  0  0  0  0  0  0  0  0  0  0
    4.0823   -4.2514    0.0285 C   0  0  1  0  0  0  0  0  0  0  0  0
    2.6106   -4.1528    0.5472 C   0  0  0  0  0  0  0  0  0  0  0  0
    2.5031   -3.9827    2.1306 C   0  0  1  0  0  0  0  0  0  0  0  0
    5.8086   -2.1154   -1.9660 H   0  0  0  0  0  0  0  0  0  0  0  0
    5.9785   -3.8658   -1.8051 H   0  0  0  0  0  0  0  0  0  0  0  0
    6.7046   -2.7848   -0.5961 H   0  0  0  0  0  0  0  0  0  0  0  0
    4.5609   -0.8779   -0.4967 H   0  0  0  0  0  0  0  0  0  0  0  0
    3.1072   -1.6640   -1.0529 H   0  0  0  0  0  0  0  0  0  0  0  0
    3.7211   -0.6013    1.5198 H   0  0  0  0  0  0  0  0  0  0  0  0
    2.2130   -1.2576    1.0126 H   0  0  0  0  0  0  0  0  0  0  0  0
    3.0982   -2.0484    3.0080 H   0  0  0  0  0  0  0  0  0  0  0  0
    5.6227   -2.3660    1.7306 H   0  0  0  0  0  0  0  0  0  0  0  0
    5.2310   -2.3592    3.3930 H   0  0  0  0  0  0  0  0  0  0  0  0
    6.2768   -4.4902    2.7726 H   0  0  0  0  0  0  0  0  0  0  0  0
    4.5916   -5.7668    4.1065 H   0  0  0  0  0  0  0  0  0  0  0  0
    4.7845   -4.1660    4.6789 H   0  0  0  0  0  0  0  0  0  0  0  0
    2.7387   -3.4968    4.2830 H   0  0  0  0  0  0  0  0  0  0  0  0
    0.0975   -5.6554    5.8601 H   0  0  0  0  0  0  0  0  0  0  0  0
   -1.8872   -7.7362    3.7464 H   0  0  0  0  0  0  0  0  0  0  0  0
   -1.1289   -8.3785    1.4683 H   0  0  0  0  0  0  0  0  0  0  0  0
    1.0153   -7.4871    0.5554 H   0  0  0  0  0  0  0  0  0  0  0  0
    3.0922   -6.3024    2.7996 H   0  0  0  0  0  0  0  0  0  0  0  0
    4.5023   -7.0496    1.8199 H   0  0  0  0  0  0  0  0  0  0  0  0
    3.7096   -6.6901    0.3099 H   0  0  0  0  0  0  0  0  0  0  0  0
    5.9795   -5.9717   -0.3683 H   0  0  0  0  0  0  0  0  0  0  0  0
    6.6720   -6.1094    1.1257 H   0  0  0  0  0  0  0  0  0  0  0  0
    4.0280   -4.8507   -0.8844 H   0  0  0  0  0  0  0  0  0  0  0  0
    2.0624   -3.3493    0.0581 H   0  0  0  0  0  0  0  0  0  0  0  0
    2.0006   -4.9459    0.0880 H   0  0  0  0  0  0  0  0  0  0  0  0
    6.7511   -4.6838    0.3058 H   0  0  0  0  0  0  0  0  0  0  0  0
  1  2  1  0
  1 25  1  0
  1 26  1  0
  1 27  1  0
  2 22  1  0
  2  3  1  0
  3  4  1  0
  3 28  1  0
  3 29  1  0
  4  5  1  0
  4 30  1  0
  4 31  1  0
  5 24  1  0
  5  6  1  0
  5 32  1  1
  6  7  1  0
  6 33  1  0
  6 34  1  0
  7 20  1  0
  7  8  1  0
  7 35  1  1
  8  9  1  0
  8 36  1  0
  8 37  1  0
  9 24  1  0
  9 10  1  0
  9 38  1  1
 10 11  1  0
 11 17  2  0
 11 12  1  0
 12 13  1  0
 12 14  2  0
 13 39  1  0
 14 15  1  0
 14 40  1  0
 15 16  2  0
 15 41  1  0
 16 17  1  0
 16 42  1  0
 17 18  1  0
 18 24  1  0
 18 19  1  0
 18 43  1  1
 19 20  1  0
 19 44  1  0
 19 45  1  0
 20 21  1  6
 20 22  1  0
 21 46  1  0
 21 47  1  0
 21 51  1  0
 22 23  1  0
 22 48  1  6
 24 23  1  1
 23 49  1  0
 23 50  1  0
M  CHG  1  21   1
M  END
>  <i_m_ct_stereo_status>  (29) 
1

>  <s_m_source_file>  (29) 
/var/tmp/pbs.5076255.sched01/tmppfua8s0c/0korcpw03.sdf

>  <i_m_source_file_index>  (29) 
13

>  <i_lp_mmshare_version>  (29) 
48012

>  <i_f3d_flags>  (29) 
0

>  <s_epik_input>  (29) 
W0NAQF0xMjNbQ0BASF00W0NIMl1bQ0gyXU4oW0NIM10pW0NASF0oW0NIMl0zKVtDQEBdNShbTkgyXSlbQ0BASF0oW0NIMl00KVtDSDJdW0NAQEhdMU9jNmMoW0NASF0yW0NIMl01KVtjSF1bY0hdW2NIXWM2W09IXQ==

>  <s_epik_cmdline>  (29) 
J2VwaWtfcHl0aG9uJywgJy1waHQnLCAnMi4wJywgJy1waCcsICc3LjAnLCAnLXRuJywgJzgnLCAnLW1hJywgJzIwMCcsICctaW1hZScsICc8aW5maWxlLm1hZT4nLCAnLW9tYWUnLCAnPG91dGZpbGUubWFlPic=

>  <r_lp_tautomer_probability>  (29) 
1

>  <r_epik_Ionization_Penalty>  (29) 
0.036787

>  <r_epik_Ionization_Penalty_Charging>  (29) 
0.00142523

>  <r_epik_Ionization_Penalty_Neutral>  (29) 
0.0353618

>  <r_epik_State_Penalty>  (29) 
0.138453

>  <r_epik_Charging_Adjusted_Penalty>  (29) 
0.139878

>  <i_epik_Tot_Q>  (29) 
1

>  <i_epik_Tot_abs_Q>  (29) 
1

>  <s_lp_Force_Field>  (29) 
OPLS3e

>  <r_lp_Energy>  (29) 
286.183

>  <b_lp_Chiralities_Consistent>  (29) 
1

>  <s_lp_Variant>  (29) 
11:0-1

>  <s_i_glide_gridfile>  (29) 
pfpi4k_grid

>  <i_i_glide_lignum>  (29) 
13

>  <i_i_glide_rotatable_bonds>  (29) 
1

>  <r_i_docking_score>  (29) 
-2.74911

>  <r_i_glide_ligand_efficiency>  (29) 
-0.114546

>  <r_i_glide_ligand_efficiency_sa>  (29) 
-0.330408

>  <r_i_glide_ligand_efficiency_ln>  (29) 
-0.657988

>  <r_i_glide_gscore>  (29) 
-2.74911

>  <r_i_glide_lipo>  (29) 
-0.217967

>  <r_i_glide_hbond>  (29) 
0

>  <r_i_glide_metal>  (29) 
-0

>  <r_i_glide_rewards>  (29) 
-1.17654

>  <r_i_glide_evdw>  (29) 
-20.0362

>  <r_i_glide_ecoul>  (29) 
-2.35193

>  <r_i_glide_erotb>  (29) 
0

>  <r_i_glide_esite>  (29) 
0

>  <r_i_glide_emodel>  (29) 
-26.1115

>  <r_i_glide_energy>  (29) 
-22.3881

>  <r_i_glide_einternal>  (29) 
0.0731263

>  <r_i_glide_intrahb_reward>  (29) 
-0

>  <i_i_glide_confnum>  (29) 
2

>  <i_i_glide_posenum>  (29) 
19

>  <r_i_glide_eff_state_penalty>  (29) 
0

>  <ligand_id>  (29) 
11

>  <original_smiles>  (29) 
CN1CCC2CC3CC4Oc5c(O)cccc5C5CC3(N)C1CC245

>  <smiles>  (29) 
[H]Oc1c([H])c([H])c([H])c2c1OC1([H])C([H])([H])C3([H])C([H])([H])C4([H])C([H])([H])C([H])([H])N(C([H])([H])[H])C5([H])C([H])([H])C14C2([H])C([H])([H])C53[N+]([H])([H])[H]

$$$$
11:0:2
     RDKit          3D

 51 56  0  0  1  0  0  0  0  0999 V2000
    1.7418   -1.1698    4.8595 C   0  0  0  0  0  0  0  0  0  0  0  0
    1.2995   -0.1501    3.9210 N   0  0  0  0  0  0  0  0  0  0  0  0
    2.0378   -0.0434    2.6625 C   0  0  0  0  0  0  0  0  0  0  0  0
    2.2238    1.4077    2.1692 C   0  0  0  0  0  0  0  0  0  0  0  0
    1.5943    2.5636    3.0022 C   0  0  2  0  0  0  0  0  0  0  0  0
    2.2240    2.5734    4.4172 C   0  0  0  0  0  0  0  0  0  0  0  0
    1.1165    2.8089    5.4208 C   0  0  1  0  0  0  0  0  0  0  0  0
    0.6816    4.2841    5.0561 C   0  0  0  0  0  0  0  0  0  0  0  0
    0.1811    4.3634    3.5571 C   0  0  2  0  0  0  0  0  0  0  0  0
   -0.8095    5.3826    3.2070 O   0  0  0  0  0  0  0  0  0  0  0  0
   -2.0613    4.9408    2.8241 C   0  0  0  0  0  0  0  0  0  0  0  0
   -2.9632    5.7475    2.0898 C   0  0  0  0  0  0  0  0  0  0  0  0
   -2.5847    6.9820    1.6483 O   0  0  0  0  0  0  0  0  0  0  0  0
   -4.2540    5.2647    1.7712 C   0  0  0  0  0  0  0  0  0  0  0  0
   -4.6345    3.9726    2.1811 C   0  0  0  0  0  0  0  0  0  0  0  0
   -3.7272    3.1682    2.9198 C   0  0  0  0  0  0  0  0  0  0  0  0
   -2.4573    3.6699    3.2280 C   0  0  0  0  0  0  0  0  0  0  0  0
   -1.3170    2.9709    3.9364 C   0  0  1  0  0  0  0  0  0  0  0  0
   -1.3829    2.1102    5.2372 C   0  0  0  0  0  0  0  0  0  0  0  0
    0.0523    1.5886    5.3910 C   0  0  2  0  0  0  0  0  0  0  0  0
    0.1556    0.8208    6.6439 N   0  0  0  0  0  0  0  0  0  0  0  0
    0.0596    0.6009    4.1598 C   0  0  1  0  0  0  0  0  0  0  0  0
   -0.4568    1.3857    2.9054 C   0  0  0  0  0  0  0  0  0  0  0  0
   -0.0020    2.9092    2.8973 C   0  0  1  0  0  0  0  0  0  0  0  0
    2.2641   -1.9801    4.3506 H   0  0  0  0  0  0  0  0  0  0  0  0
    0.9094   -1.6043    5.4130 H   0  0  0  0  0  0  0  0  0  0  0  0
    2.4394   -0.7245    5.5682 H   0  0  0  0  0  0  0  0  0  0  0  0
    3.0244   -0.4929    2.7862 H   0  0  0  0  0  0  0  0  0  0  0  0
    1.5376   -0.6249    1.8885 H   0  0  0  0  0  0  0  0  0  0  0  0
    3.2975    1.5868    2.1153 H   0  0  0  0  0  0  0  0  0  0  0  0
    1.8981    1.4755    1.1359 H   0  0  0  0  0  0  0  0  0  0  0  0
    2.1003    3.3694    2.4712 H   0  0  0  0  0  0  0  0  0  0  0  0
    2.7801    1.6691    4.6571 H   0  0  0  0  0  0  0  0  0  0  0  0
    2.9832    3.3527    4.4785 H   0  0  0  0  0  0  0  0  0  0  0  0
    1.5632    2.8675    6.4141 H   0  0  0  0  0  0  0  0  0  0  0  0
   -0.0411    4.6815    5.7685 H   0  0  0  0  0  0  0  0  0  0  0  0
    1.5314    4.9606    5.1537 H   0  0  0  0  0  0  0  0  0  0  0  0
    0.9804    4.8834    3.0308 H   0  0  0  0  0  0  0  0  0  0  0  0
   -1.6458    7.1543    1.6883 H   0  0  0  0  0  0  0  0  0  0  0  0
   -4.9491    5.8917    1.2276 H   0  0  0  0  0  0  0  0  0  0  0  0
   -5.6369    3.6163    1.9831 H   0  0  0  0  0  0  0  0  0  0  0  0
   -4.0260    2.1956    3.2801 H   0  0  0  0  0  0  0  0  0  0  0  0
   -1.5119    3.7660    4.6599 H   0  0  0  0  0  0  0  0  0  0  0  0
   -1.6827    2.6566    6.1392 H   0  0  0  0  0  0  0  0  0  0  0  0
   -2.1138    1.3039    5.1414 H   0  0  0  0  0  0  0  0  0  0  0  0
   -0.5360    0.0915    6.6295 H   0  0  0  0  0  0  0  0  0  0  0  0
    0.0182    1.4292    7.4370 H   0  0  0  0  0  0  0  0  0  0  0  0
   -0.6831   -0.1778    4.3344 H   0  0  0  0  0  0  0  0  0  0  0  0
   -0.1572    0.9180    1.9707 H   0  0  0  0  0  0  0  0  0  0  0  0
   -1.5244    1.1901    2.7476 H   0  0  0  0  0  0  0  0  0  0  0  0
    1.0746    0.4084    6.6856 H   0  0  0  0  0  0  0  0  0  0  0  0
  1  2  1  0
  1 25  1  0
  1 26  1  0
  1 27  1  0
  2 22  1  0
  2  3  1  0
  3  4  1  0
  3 28  1  0
  3 29  1  0
  4  5  1  0
  4 30  1  0
  4 31  1  0
  5 24  1  0
  5  6  1  0
  5 32  1  6
  6  7  1  0
  6 33  1  0
  6 34  1  0
  7 20  1  0
  7  8  1  0
  7 35  1  1
  8  9  1  0
  8 36  1  0
  8 37  1  0
  9 24  1  0
  9 10  1  0
  9 38  1  6
 10 11  1  0
 11 17  2  0
 11 12  1  0
 12 13  1  0
 12 14  2  0
 13 39  1  0
 14 15  1  0
 14 40  1  0
 15 16  2  0
 15 41  1  0
 16 17  1  0
 16 42  1  0
 17 18  1  0
 18 24  1  0
 18 19  1  0
 18 43  1  1
 19 20  1  0
 19 44  1  0
 19 45  1  0
 20 21  1  1
 20 22  1  0
 21 46  1  0
 21 47  1  0
 21 51  1  0
 22 23  1  0
 22 48  1  1
 24 23  1  6
 23 49  1  0
 23 50  1  0
M  CHG  1  21   1
M  END
>  <i_m_ct_stereo_status>  (30) 
1

>  <s_m_source_file>  (30) 
/var/tmp/pbs.5076255.sched01/tmppfua8s0c/0korcpw03.sdf

>  <i_m_source_file_index>  (30) 
13

>  <i_lp_mmshare_version>  (30) 
48012

>  <i_f3d_flags>  (30) 
0

>  <s_epik_input>  (30) 
W0NAQF0xMjNbQ0BASF00W0NIMl1bQ0gyXU4oW0NIM10pW0NASF0oW0NIMl0zKVtDQEBdNShbTkgyXSlbQ0BASF0oW0NIMl00KVtDSDJdW0NAQEhdMU9jNmMoW0NASF0yW0NIMl01KVtjSF1bY0hdW2NIXWM2W09IXQ==

>  <s_epik_cmdline>  (30) 
J2VwaWtfcHl0aG9uJywgJy1waHQnLCAnMi4wJywgJy1waCcsICc3LjAnLCAnLXRuJywgJzgnLCAnLW1hJywgJzIwMCcsICctaW1hZScsICc8aW5maWxlLm1hZT4nLCAnLW9tYWUnLCAnPG91dGZpbGUubWFlPic=

>  <r_lp_tautomer_probability>  (30) 
1

>  <r_epik_Ionization_Penalty>  (30) 
0.036787

>  <r_epik_Ionization_Penalty_Charging>  (30) 
0.00142523

>  <r_epik_Ionization_Penalty_Neutral>  (30) 
0.0353618

>  <r_epik_State_Penalty>  (30) 
0.138453

>  <r_epik_Charging_Adjusted_Penalty>  (30) 
0.139878

>  <i_epik_Tot_Q>  (30) 
1

>  <i_epik_Tot_abs_Q>  (30) 
1

>  <s_lp_Force_Field>  (30) 
OPLS3e

>  <r_lp_Energy>  (30) 
286.183

>  <b_lp_Chiralities_Consistent>  (30) 
1

>  <s_lp_Variant>  (30) 
11:0-1

>  <s_i_glide_gridfile>  (30) 
pfpi4k_grid

>  <i_i_glide_lignum>  (30) 
13

>  <i_i_glide_rotatable_bonds>  (30) 
1

>  <r_i_docking_score>  (30) 
-2.56819

>  <r_i_glide_ligand_efficiency>  (30) 
-0.107008

>  <r_i_glide_ligand_efficiency_sa>  (30) 
-0.308665

>  <r_i_glide_ligand_efficiency_ln>  (30) 
-0.614687

>  <r_i_glide_gscore>  (30) 
-2.56819

>  <r_i_glide_lipo>  (30) 
-0.22823

>  <r_i_glide_hbond>  (30) 
-0.140561

>  <r_i_glide_metal>  (30) 
-0

>  <r_i_glide_rewards>  (30) 
-1.17654

>  <r_i_glide_evdw>  (30) 
-7.39042

>  <r_i_glide_ecoul>  (30) 
-4.2831

>  <r_i_glide_erotb>  (30) 
0

>  <r_i_glide_esite>  (30) 
-0.0108751

>  <r_i_glide_emodel>  (30) 
-14.8711

>  <r_i_glide_energy>  (30) 
-11.6735

>  <r_i_glide_einternal>  (30) 
0.292136

>  <r_i_glide_intrahb_reward>  (30) 
-0

>  <i_i_glide_confnum>  (30) 
2

>  <i_i_glide_posenum>  (30) 
2

>  <r_i_glide_eff_state_penalty>  (30) 
0

>  <ligand_id>  (30) 
11

>  <original_smiles>  (30) 
CN1CCC2CC3CC4Oc5c(O)cccc5C5CC3(N)C1CC245

>  <smiles>  (30) 
[H]Oc1c([H])c([H])c([H])c2c1OC1([H])C([H])([H])C3([H])C([H])([H])C4([H])C([H])([H])C([H])([H])N(C([H])([H])[H])C5([H])C([H])([H])C14C2([H])C([H])([H])C53[N+]([H])([H])[H]

$$$$
11:1:0
     RDKit          3D

 51 56  0  0  1  0  0  0  0  0999 V2000
    1.5162    3.9978    3.4444 C   0  0  0  0  0  0  0  0  0  0  0  0
    0.9564    2.7477    2.8792 N   0  0  2  0  0  0  0  0  0  0  0  0
   -0.3809    2.4370    3.4230 C   0  0  0  0  0  0  0  0  0  0  0  0
   -0.8540    0.9980    3.2013 C   0  0  0  0  0  0  0  0  0  0  0  0
    0.1702   -0.0935    3.6034 C   0  0  2  0  0  0  0  0  0  0  0  0
    0.6347    0.1232    5.0450 C   0  0  0  0  0  0  0  0  0  0  0  0
    2.0408   -0.3096    4.9223 C   0  0  1  0  0  0  0  0  0  0  0  0
    1.8161   -1.9082    4.4484 C   0  0  0  0  0  0  0  0  0  0  0  0
    1.2723   -2.1181    2.9097 C   0  0  2  0  0  0  0  0  0  0  0  0
    1.9073   -3.1292    2.0885 O   0  0  0  0  0  0  0  0  0  0  0  0
    2.7972   -2.7464    1.1043 C   0  0  0  0  0  0  0  0  0  0  0  0
    3.0418   -3.5645   -0.0162 C   0  0  0  0  0  0  0  0  0  0  0  0
    2.3579   -4.7370   -0.1900 O   0  0  0  0  0  0  0  0  0  0  0  0
    3.9772   -3.1520   -0.9808 C   0  0  0  0  0  0  0  0  0  0  0  0
    4.6696   -1.9319   -0.8246 C   0  0  0  0  0  0  0  0  0  0  0  0
    4.4243   -1.1041    0.2915 C   0  0  0  0  0  0  0  0  0  0  0  0
    3.4737   -1.5220    1.2445 C   0  0  0  0  0  0  0  0  0  0  0  0
    3.0259   -0.7839    2.4867 C   0  0  1  0  0  0  0  0  0  0  0  0
    3.8400    0.2672    3.2056 C   0  0  0  0  0  0  0  0  0  0  0  0
    2.7121    0.9146    3.9753 C   0  0  2  0  0  0  0  0  0  0  0  0
    3.3057    1.9139    4.8457 N   0  0  0  0  0  0  0  0  0  0  0  0
    1.9333    1.6191    2.6661 C   0  0  1  0  0  0  0  0  0  0  0  0
    1.3899    0.5476    1.5884 C   0  0  0  0  0  0  0  0  0  0  0  0
    1.3602   -0.6341    2.5466 C   0  0  2  0  0  0  0  0  0  0  0  0
    1.6432    3.9283    4.5262 H   0  0  0  0  0  0  0  0  0  0  0  0
    0.8223    4.8190    3.2473 H   0  0  0  0  0  0  0  0  0  0  0  0
    2.4709    4.2647    2.9850 H   0  0  0  0  0  0  0  0  0  0  0  0
   -0.4237    2.6945    4.4809 H   0  0  0  0  0  0  0  0  0  0  0  0
   -1.0918    3.1140    2.9491 H   0  0  0  0  0  0  0  0  0  0  0  0
   -1.7276    0.8884    3.8417 H   0  0  0  0  0  0  0  0  0  0  0  0
   -1.2620    0.8502    2.2016 H   0  0  0  0  0  0  0  0  0  0  0  0
   -0.5638   -0.8887    3.7104 H   0  0  0  0  0  0  0  0  0  0  0  0
    0.6014    1.1450    5.4184 H   0  0  0  0  0  0  0  0  0  0  0  0
    0.0726   -0.4887    5.7505 H   0  0  0  0  0  0  0  0  0  0  0  0
    2.5194   -0.3211    5.9020 H   0  0  0  0  0  0  0  0  0  0  0  0
    2.7196   -2.4932    4.6301 H   0  0  0  0  0  0  0  0  0  0  0  0
    1.1035   -2.3919    5.1171 H   0  0  0  0  0  0  0  0  0  0  0  0
    0.2513   -2.4901    2.9210 H   0  0  0  0  0  0  0  0  0  0  0  0
    2.6155   -5.2086   -0.9771 H   0  0  0  0  0  0  0  0  0  0  0  0
    4.1582   -3.7694   -1.8493 H   0  0  0  0  0  0  0  0  0  0  0  0
    5.3899   -1.6399   -1.5721 H   0  0  0  0  0  0  0  0  0  0  0  0
    4.9526   -0.1671    0.4072 H   0  0  0  0  0  0  0  0  0  0  0  0
    3.5296   -1.5741    3.0339 H   0  0  0  0  0  0  0  0  0  0  0  0
    4.6145   -0.1440    3.8624 H   0  0  0  0  0  0  0  0  0  0  0  0
    4.3250    0.9314    2.5065 H   0  0  0  0  0  0  0  0  0  0  0  0
    3.8649    1.4550    5.5528 H   0  0  0  0  0  0  0  0  0  0  0  0
    3.9262    2.5147    4.3173 H   0  0  0  0  0  0  0  0  0  0  0  0
    2.6963    2.1657    2.1163 H   0  0  0  0  0  0  0  0  0  0  0  0
    0.4540    0.8134    1.1050 H   0  0  0  0  0  0  0  0  0  0  0  0
    2.0837    0.4657    0.7568 H   0  0  0  0  0  0  0  0  0  0  0  0
    0.7330    3.0577    1.9323 H   0  0  0  0  0  0  0  0  0  0  0  0
  1  2  1  0
  1 25  1  0
  1 26  1  0
  1 27  1  0
  2 22  1  0
  2  3  1  0
  2 51  1  6
  3  4  1  0
  3 28  1  0
  3 29  1  0
  4  5  1  0
  4 30  1  0
  4 31  1  0
  5 24  1  0
  5  6  1  0
  5 32  1  1
  6  7  1  0
  6 33  1  0
  6 34  1  0
  7 20  1  0
  7  8  1  0
  7 35  1  1
  8  9  1  0
  8 36  1  0
  8 37  1  0
  9 24  1  0
  9 10  1  0
  9 38  1  1
 10 11  1  0
 11 17  2  0
 11 12  1  0
 12 13  1  0
 12 14  2  0
 13 39  1  0
 14 15  1  0
 14 40  1  0
 15 16  2  0
 15 41  1  0
 16 17  1  0
 16 42  1  0
 17 18  1  0
 18 24  1  0
 18 19  1  0
 18 43  1  1
 19 20  1  0
 19 44  1  0
 19 45  1  0
 20 21  1  1
 20 22  1  0
 21 46  1  0
 21 47  1  0
 22 23  1  0
 22 48  1  6
 24 23  1  6
 23 49  1  0
 23 50  1  0
M  CHG  1   2   1
M  END
>  <i_m_ct_stereo_status>  (31) 
1

>  <s_m_source_file>  (31) 
/var/tmp/pbs.5076255.sched01/tmppfua8s0c/0korcpw03.sdf

>  <i_m_source_file_index>  (31) 
14

>  <i_lp_mmshare_version>  (31) 
48012

>  <i_f3d_flags>  (31) 
0

>  <s_epik_input>  (31) 
W0NAQF0xMjNbQ0BASF00W0NIMl1bQ0gyXU4oW0NIM10pW0NASF0oW0NIMl0zKVtDQEBdNShbTkgyXSlbQ0BASF0oW0NIMl00KVtDSDJdW0NAQEhdMU9jNmMoW0NASF0yW0NIMl01KVtjSF1bY0hdW2NIXWM2W09IXQ==

>  <s_epik_cmdline>  (31) 
J2VwaWtfcHl0aG9uJywgJy1waHQnLCAnMi4wJywgJy1waCcsICc3LjAnLCAnLXRuJywgJzgnLCAnLW1hJywgJzIwMCcsICctaW1hZScsICc8aW5maWxlLm1hZT4nLCAnLW9tYWUnLCAnPG91dGZpbGUubWFlPic=

>  <r_epik_Ionization_Penalty>  (31) 
0.14044

>  <r_epik_Ionization_Penalty_Charging>  (31) 
0.00338349

>  <r_epik_Ionization_Penalty_Neutral>  (31) 
0.137056

>  <r_epik_State_Penalty>  (31) 
1.05515

>  <r_epik_Charging_Adjusted_Penalty>  (31) 
1.05853

>  <i_epik_Tot_Q>  (31) 
1

>  <i_epik_Tot_abs_Q>  (31) 
1

>  <s_lp_Force_Field>  (31) 
OPLS3e

>  <r_lp_Energy>  (31) 
300.022

>  <b_lp_Chiralities_Consistent>  (31) 
1

>  <s_lp_Variant>  (31) 
11:0-2

>  <s_i_glide_gridfile>  (31) 
pfpi4k_grid

>  <i_i_glide_lignum>  (31) 
14

>  <i_i_glide_rotatable_bonds>  (31) 
1

>  <r_i_docking_score>  (31) 
-3.75626

>  <r_i_glide_ligand_efficiency>  (31) 
-0.156511

>  <r_i_glide_ligand_efficiency_sa>  (31) 
-0.451455

>  <r_i_glide_ligand_efficiency_ln>  (31) 
-0.899045

>  <r_i_glide_gscore>  (31) 
-3.75626

>  <r_i_glide_lipo>  (31) 
-0.0262868

>  <r_i_glide_hbond>  (31) 
-0.2

>  <r_i_glide_metal>  (31) 
-0

>  <r_i_glide_rewards>  (31) 
-1.17654

>  <r_i_glide_evdw>  (31) 
-18.3155

>  <r_i_glide_ecoul>  (31) 
-8.96735

>  <r_i_glide_erotb>  (31) 
0

>  <r_i_glide_esite>  (31) 
-0.0925538

>  <r_i_glide_emodel>  (31) 
-35.4144

>  <r_i_glide_energy>  (31) 
-27.2828

>  <r_i_glide_einternal>  (31) 
0.0015255

>  <r_i_glide_intrahb_reward>  (31) 
-0

>  <i_i_glide_confnum>  (31) 
1

>  <i_i_glide_posenum>  (31) 
14

>  <r_i_glide_eff_state_penalty>  (31) 
0

>  <ligand_id>  (31) 
11

>  <original_smiles>  (31) 
CN1CCC2CC3CC4Oc5c(O)cccc5C5CC3(N)C1CC245

>  <smiles>  (31) 
[H]Oc1c([H])c([H])c([H])c2c1OC1([H])C([H])([H])C3([H])C([H])([H])C4([H])C([H])([H])C([H])([H])[N+]([H])(C([H])([H])[H])C5([H])C([H])([H])C14C2([H])C([H])([H])C35N([H])[H]

$$$$
11:1:1
     RDKit          3D

 51 56  0  0  1  0  0  0  0  0999 V2000
    3.5907    0.9306    4.3727 C   0  0  0  0  0  0  0  0  0  0  0  0
    2.8042    0.0934    3.4316 N   0  0  2  0  0  0  0  0  0  0  0  0
    1.8781   -0.8059    4.1572 C   0  0  0  0  0  0  0  0  0  0  0  0
    1.3203   -1.9585    3.3300 C   0  0  0  0  0  0  0  0  0  0  0  0
    2.3768   -2.7720    2.5450 C   0  0  2  0  0  0  0  0  0  0  0  0
    3.4741   -3.2559    3.4922 C   0  0  0  0  0  0  0  0  0  0  0  0
    4.6433   -3.1588    2.5912 C   0  0  1  0  0  0  0  0  0  0  0  0
    4.1780   -4.2387    1.3879 C   0  0  0  0  0  0  0  0  0  0  0  0
    2.9584   -3.7068    0.4150 C   0  0  2  0  0  0  0  0  0  0  0  0
    3.0450   -3.8796   -1.0172 O   0  0  0  0  0  0  0  0  0  0  0  0
    3.4269   -2.8242   -1.8130 C   0  0  0  0  0  0  0  0  0  0  0  0
    3.1157   -2.8104   -3.1890 C   0  0  0  0  0  0  0  0  0  0  0  0
    2.4788   -3.8450   -3.7904 O   0  0  0  0  0  0  0  0  0  0  0  0
    3.4816   -1.7019   -3.9766 C   0  0  0  0  0  0  0  0  0  0  0  0
    4.2084   -0.6461   -3.3996 C   0  0  0  0  0  0  0  0  0  0  0  0
    4.5544   -0.6734   -2.0384 C   0  0  0  0  0  0  0  0  0  0  0  0
    4.1419   -1.7594   -1.2446 C   0  0  0  0  0  0  0  0  0  0  0  0
    4.3540   -1.9516    0.2343 C   0  0  1  0  0  0  0  0  0  0  0  0
    5.4476   -1.2725    1.0396 C   0  0  0  0  0  0  0  0  0  0  0  0
    4.8241   -1.4887    2.3964 C   0  0  2  0  0  0  0  0  0  0  0  0
    5.7661   -0.9805    3.3682 N   0  0  0  0  0  0  0  0  0  0  0  0
    3.5477   -0.4314    2.2316 C   0  0  1  0  0  0  0  0  0  0  0  0
    2.5386   -0.8410    1.0645 C   0  0  0  0  0  0  0  0  0  0  0  0
    2.9083   -2.3078    1.0281 C   0  0  2  0  0  0  0  0  0  0  0  0
    4.2148    0.3311    5.0396 H   0  0  0  0  0  0  0  0  0  0  0  0
    2.9241    1.5101    5.0100 H   0  0  0  0  0  0  0  0  0  0  0  0
    4.2271    1.6472    3.8577 H   0  0  0  0  0  0  0  0  0  0  0  0
    2.3416   -1.1786    5.0693 H   0  0  0  0  0  0  0  0  0  0  0  0
    1.0542   -0.1985    4.5236 H   0  0  0  0  0  0  0  0  0  0  0  0
    0.8402   -2.6232    4.0427 H   0  0  0  0  0  0  0  0  0  0  0  0
    0.4858   -1.6408    2.7121 H   0  0  0  0  0  0  0  0  0  0  0  0
    1.7606   -3.6544    2.4187 H   0  0  0  0  0  0  0  0  0  0  0  0
    3.6484   -2.6479    4.3779 H   0  0  0  0  0  0  0  0  0  0  0  0
    3.2884   -4.2713    3.8428 H   0  0  0  0  0  0  0  0  0  0  0  0
    5.5172   -3.5760    3.0849 H   0  0  0  0  0  0  0  0  0  0  0  0
    5.0423   -4.5685    0.8067 H   0  0  0  0  0  0  0  0  0  0  0  0
    3.8546   -5.1767    1.8388 H   0  0  0  0  0  0  0  0  0  0  0  0
    2.0642   -4.2909    0.5940 H   0  0  0  0  0  0  0  0  0  0  0  0
    2.3812   -4.5810   -3.1823 H   0  0  0  0  0  0  0  0  0  0  0  0
    3.2113   -1.6810   -5.0186 H   0  0  0  0  0  0  0  0  0  0  0  0
    4.4836    0.1780   -4.0329 H   0  0  0  0  0  0  0  0  0  0  0  0
    5.1002    0.1415   -1.6138 H   0  0  0  0  0  0  0  0  0  0  0  0
    5.0297   -2.7533   -0.0540 H   0  0  0  0  0  0  0  0  0  0  0  0
    6.4175   -1.7684    0.9572 H   0  0  0  0  0  0  0  0  0  0  0  0
    5.5967   -0.2254    0.7760 H   0  0  0  0  0  0  0  0  0  0  0  0
    6.5621   -1.6025    3.3946 H   0  0  0  0  0  0  0  0  0  0  0  0
    6.1143   -0.0598    3.1471 H   0  0  0  0  0  0  0  0  0  0  0  0
    3.9720    0.5041    1.8853 H   0  0  0  0  0  0  0  0  0  0  0  0
    1.5057   -0.6054    1.2820 H   0  0  0  0  0  0  0  0  0  0  0  0
    2.7275   -0.2658    0.1633 H   0  0  0  0  0  0  0  0  0  0  0  0
    2.1834    0.7689    3.0026 H   0  0  0  0  0  0  0  0  0  0  0  0
  1  2  1  0
  1 25  1  0
  1 26  1  0
  1 27  1  0
  2 22  1  0
  2  3  1  0
  2 51  1  6
  3  4  1  0
  3 28  1  0
  3 29  1  0
  4  5  1  0
  4 30  1  0
  4 31  1  0
  5 24  1  0
  5  6  1  0
  5 32  1  6
  6  7  1  0
  6 33  1  0
  6 34  1  0
  7 20  1  0
  7  8  1  0
  7 35  1  1
  8  9  1  0
  8 36  1  0
  8 37  1  0
  9 24  1  0
  9 10  1  0
  9 38  1  1
 10 11  1  0
 11 17  2  0
 11 12  1  0
 12 13  1  0
 12 14  2  0
 13 39  1  0
 14 15  1  0
 14 40  1  0
 15 16  2  0
 15 41  1  0
 16 17  1  0
 16 42  1  0
 17 18  1  0
 18 24  1  0
 18 19  1  0
 18 43  1  6
 19 20  1  0
 19 44  1  0
 19 45  1  0
 20 21  1  1
 20 22  1  0
 21 46  1  0
 21 47  1  0
 22 23  1  0
 22 48  1  6
 24 23  1  6
 23 49  1  0
 23 50  1  0
M  CHG  1   2   1
M  END
>  <i_m_ct_stereo_status>  (32) 
1

>  <s_m_source_file>  (32) 
/var/tmp/pbs.5076255.sched01/tmppfua8s0c/0korcpw03.sdf

>  <i_m_source_file_index>  (32) 
14

>  <i_lp_mmshare_version>  (32) 
48012

>  <i_f3d_flags>  (32) 
0

>  <s_epik_input>  (32) 
W0NAQF0xMjNbQ0BASF00W0NIMl1bQ0gyXU4oW0NIM10pW0NASF0oW0NIMl0zKVtDQEBdNShbTkgyXSlbQ0BASF0oW0NIMl00KVtDSDJdW0NAQEhdMU9jNmMoW0NASF0yW0NIMl01KVtjSF1bY0hdW2NIXWM2W09IXQ==

>  <s_epik_cmdline>  (32) 
J2VwaWtfcHl0aG9uJywgJy1waHQnLCAnMi4wJywgJy1waCcsICc3LjAnLCAnLXRuJywgJzgnLCAnLW1hJywgJzIwMCcsICctaW1hZScsICc8aW5maWxlLm1hZT4nLCAnLW9tYWUnLCAnPG91dGZpbGUubWFlPic=

>  <r_epik_Ionization_Penalty>  (32) 
0.14044

>  <r_epik_Ionization_Penalty_Charging>  (32) 
0.00338349

>  <r_epik_Ionization_Penalty_Neutral>  (32) 
0.137056

>  <r_epik_State_Penalty>  (32) 
1.05515

>  <r_epik_Charging_Adjusted_Penalty>  (32) 
1.05853

>  <i_epik_Tot_Q>  (32) 
1

>  <i_epik_Tot_abs_Q>  (32) 
1

>  <s_lp_Force_Field>  (32) 
OPLS3e

>  <r_lp_Energy>  (32) 
300.022

>  <b_lp_Chiralities_Consistent>  (32) 
1

>  <s_lp_Variant>  (32) 
11:0-2

>  <s_i_glide_gridfile>  (32) 
pfpi4k_grid

>  <i_i_glide_lignum>  (32) 
14

>  <i_i_glide_rotatable_bonds>  (32) 
1

>  <r_i_docking_score>  (32) 
-3.50007

>  <r_i_glide_ligand_efficiency>  (32) 
-0.145836

>  <r_i_glide_ligand_efficiency_sa>  (32) 
-0.420665

>  <r_i_glide_ligand_efficiency_ln>  (32) 
-0.837728

>  <r_i_glide_gscore>  (32) 
-3.50007

>  <r_i_glide_lipo>  (32) 
-0.604024

>  <r_i_glide_hbond>  (32) 
0

>  <r_i_glide_metal>  (32) 
-0

>  <r_i_glide_rewards>  (32) 
-1.17654

>  <r_i_glide_evdw>  (32) 
-15.2529

>  <r_i_glide_ecoul>  (32) 
-6.36922

>  <r_i_glide_erotb>  (32) 
0

>  <r_i_glide_esite>  (32) 
-0.00147859

>  <r_i_glide_emodel>  (32) 
-29.0082

>  <r_i_glide_energy>  (32) 
-21.6221

>  <r_i_glide_einternal>  (32) 
0.16003

>  <r_i_glide_intrahb_reward>  (32) 
-0

>  <i_i_glide_confnum>  (32) 
2

>  <i_i_glide_posenum>  (32) 
6

>  <r_i_glide_eff_state_penalty>  (32) 
0

>  <ligand_id>  (32) 
11

>  <original_smiles>  (32) 
CN1CCC2CC3CC4Oc5c(O)cccc5C5CC3(N)C1CC245

>  <smiles>  (32) 
[H]Oc1c([H])c([H])c([H])c2c1OC1([H])C([H])([H])C3([H])C([H])([H])C4([H])C([H])([H])C([H])([H])[N+]([H])(C([H])([H])[H])C5([H])C([H])([H])C14C2([H])C([H])([H])C35N([H])[H]

$$$$
11:1:2
     RDKit          3D

 51 56  0  0  1  0  0  0  0  0999 V2000
    0.8973    5.4325    3.6264 C   0  0  0  0  0  0  0  0  0  0  0  0
    0.3965    4.0829    3.2837 N   0  0  2  0  0  0  0  0  0  0  0  0
   -1.0572    3.9608    3.5044 C   0  0  0  0  0  0  0  0  0  0  0  0
   -1.5931    2.5273    3.5444 C   0  0  0  0  0  0  0  0  0  0  0  0
   -0.8045    1.5669    4.4741 C   0  0  2  0  0  0  0  0  0  0  0  0
   -0.7018    2.1566    5.8813 C   0  0  0  0  0  0  0  0  0  0  0  0
    0.6457    1.6803    6.2516 C   0  0  1  0  0  0  0  0  0  0  0  0
    0.4037    0.0170    6.1617 C   0  0  0  0  0  0  0  0  0  0  0  0
    0.2416   -0.5901    4.6376 C   0  0  2  0  0  0  0  0  0  0  0  0
    0.9460   -1.8022    4.2709 O   0  0  0  0  0  0  0  0  0  0  0  0
    2.1120   -1.7085    3.5358 C   0  0  0  0  0  0  0  0  0  0  0  0
    2.5730   -2.8095    2.7906 C   0  0  0  0  0  0  0  0  0  0  0  0
    1.8704   -3.9766    2.7968 O   0  0  0  0  0  0  0  0  0  0  0  0
    3.7549   -2.6891    2.0324 C   0  0  0  0  0  0  0  0  0  0  0  0
    4.4872   -1.4865    2.0501 C   0  0  0  0  0  0  0  0  0  0  0  0
    4.0395   -0.3820    2.8111 C   0  0  0  0  0  0  0  0  0  0  0  0
    2.8369   -0.5083    3.5396 C   0  0  0  0  0  0  0  0  0  0  0  0
    2.1722    0.5550    4.3805 C   0  0  1  0  0  0  0  0  0  0  0  0
    2.8790    1.7553    4.9874 C   0  0  0  0  0  0  0  0  0  0  0  0
    1.6442    2.5926    5.2324 C   0  0  2  0  0  0  0  0  0  0  0  0
    2.0749    3.7799    5.9527 N   0  0  0  0  0  0  0  0  0  0  0  0
    1.2900    2.9281    3.6258 C   0  0  1  0  0  0  0  0  0  0  0  0
    0.9445    1.6124    2.7558 C   0  0  0  0  0  0  0  0  0  0  0  0
    0.5645    0.7416    3.9489 C   0  0  2  0  0  0  0  0  0  0  0  0
    0.7375    5.6596    4.6811 H   0  0  0  0  0  0  0  0  0  0  0  0
    0.3529    6.1796    3.0492 H   0  0  0  0  0  0  0  0  0  0  0  0
    1.9546    5.5568    3.3958 H   0  0  0  0  0  0  0  0  0  0  0  0
   -1.3420    4.4950    4.4091 H   0  0  0  0  0  0  0  0  0  0  0  0
   -1.5650    4.4946    2.7026 H   0  0  0  0  0  0  0  0  0  0  0  0
   -2.6090    2.6056    3.9334 H   0  0  0  0  0  0  0  0  0  0  0  0
   -1.7468    2.1151    2.5453 H   0  0  0  0  0  0  0  0  0  0  0  0
   -1.6138    0.8445    4.5753 H   0  0  0  0  0  0  0  0  0  0  0  0
   -0.7366    3.2413    5.9545 H   0  0  0  0  0  0  0  0  0  0  0  0
   -1.4821    1.7774    6.5402 H   0  0  0  0  0  0  0  0  0  0  0  0
    0.8515    1.9317    7.2932 H   0  0  0  0  0  0  0  0  0  0  0  0
    1.1746   -0.5092    6.7276 H   0  0  0  0  0  0  0  0  0  0  0  0
   -0.4922   -0.2494    6.7216 H   0  0  0  0  0  0  0  0  0  0  0  0
   -0.7791   -0.9250    4.4680 H   0  0  0  0  0  0  0  0  0  0  0  0
    1.1365   -3.9319    3.3907 H   0  0  0  0  0  0  0  0  0  0  0  0
    4.0927   -3.5274    1.4405 H   0  0  0  0  0  0  0  0  0  0  0  0
    5.4030   -1.4165    1.4791 H   0  0  0  0  0  0  0  0  0  0  0  0
    4.6020    0.5379    2.8252 H   0  0  0  0  0  0  0  0  0  0  0  0
    2.4425   -0.0685    5.2271 H   0  0  0  0  0  0  0  0  0  0  0  0
    3.4091    1.5185    5.9158 H   0  0  0  0  0  0  0  0  0  0  0  0
    3.6078    2.2123    4.3156 H   0  0  0  0  0  0  0  0  0  0  0  0
    2.3892    3.5282    6.8801 H   0  0  0  0  0  0  0  0  0  0  0  0
    2.8574    4.2208    5.4910 H   0  0  0  0  0  0  0  0  0  0  0  0
    2.2134    3.2918    3.1829 H   0  0  0  0  0  0  0  0  0  0  0  0
    0.1846    1.7532    1.9896 H   0  0  0  0  0  0  0  0  0  0  0  0
    1.8130    1.2943    2.1824 H   0  0  0  0  0  0  0  0  0  0  0  0
    0.4219    4.1157    2.2509 H   0  0  0  0  0  0  0  0  0  0  0  0
  1  2  1  0
  1 25  1  0
  1 26  1  0
  1 27  1  0
  2 22  1  0
  2  3  1  0
  2 51  1  6
  3  4  1  0
  3 28  1  0
  3 29  1  0
  4  5  1  0
  4 30  1  0
  4 31  1  0
  5 24  1  0
  5  6  1  0
  5 32  1  1
  6  7  1  0
  6 33  1  0
  6 34  1  0
  7 20  1  0
  7  8  1  0
  7 35  1  1
  8  9  1  0
  8 36  1  0
  8 37  1  0
  9 24  1  0
  9 10  1  0
  9 38  1  1
 10 11  1  0
 11 17  2  0
 11 12  1  0
 12 13  1  0
 12 14  2  0
 13 39  1  0
 14 15  1  0
 14 40  1  0
 15 16  2  0
 15 41  1  0
 16 17  1  0
 16 42  1  0
 17 18  1  0
 18 24  1  0
 18 19  1  0
 18 43  1  1
 19 20  1  0
 19 44  1  0
 19 45  1  0
 20 21  1  1
 20 22  1  0
 21 46  1  0
 21 47  1  0
 22 23  1  0
 22 48  1  6
 24 23  1  6
 23 49  1  0
 23 50  1  0
M  CHG  1   2   1
M  END
>  <i_m_ct_stereo_status>  (33) 
1

>  <s_m_source_file>  (33) 
/var/tmp/pbs.5076255.sched01/tmppfua8s0c/0korcpw03.sdf

>  <i_m_source_file_index>  (33) 
14

>  <i_lp_mmshare_version>  (33) 
48012

>  <i_f3d_flags>  (33) 
0

>  <s_epik_input>  (33) 
W0NAQF0xMjNbQ0BASF00W0NIMl1bQ0gyXU4oW0NIM10pW0NASF0oW0NIMl0zKVtDQEBdNShbTkgyXSlbQ0BASF0oW0NIMl00KVtDSDJdW0NAQEhdMU9jNmMoW0NASF0yW0NIMl01KVtjSF1bY0hdW2NIXWM2W09IXQ==

>  <s_epik_cmdline>  (33) 
J2VwaWtfcHl0aG9uJywgJy1waHQnLCAnMi4wJywgJy1waCcsICc3LjAnLCAnLXRuJywgJzgnLCAnLW1hJywgJzIwMCcsICctaW1hZScsICc8aW5maWxlLm1hZT4nLCAnLW9tYWUnLCAnPG91dGZpbGUubWFlPic=

>  <r_epik_Ionization_Penalty>  (33) 
0.14044

>  <r_epik_Ionization_Penalty_Charging>  (33) 
0.00338349

>  <r_epik_Ionization_Penalty_Neutral>  (33) 
0.137056

>  <r_epik_State_Penalty>  (33) 
1.05515

>  <r_epik_Charging_Adjusted_Penalty>  (33) 
1.05853

>  <i_epik_Tot_Q>  (33) 
1

>  <i_epik_Tot_abs_Q>  (33) 
1

>  <s_lp_Force_Field>  (33) 
OPLS3e

>  <r_lp_Energy>  (33) 
300.022

>  <b_lp_Chiralities_Consistent>  (33) 
1

>  <s_lp_Variant>  (33) 
11:0-2

>  <s_i_glide_gridfile>  (33) 
pfpi4k_grid

>  <i_i_glide_lignum>  (33) 
14

>  <i_i_glide_rotatable_bonds>  (33) 
1

>  <r_i_docking_score>  (33) 
-3.14839

>  <r_i_glide_ligand_efficiency>  (33) 
-0.131183

>  <r_i_glide_ligand_efficiency_sa>  (33) 
-0.378397

>  <r_i_glide_ligand_efficiency_ln>  (33) 
-0.753554

>  <r_i_glide_gscore>  (33) 
-3.14839

>  <r_i_glide_lipo>  (33) 
-0.0722173

>  <r_i_glide_hbond>  (33) 
-0.2

>  <r_i_glide_metal>  (33) 
-0

>  <r_i_glide_rewards>  (33) 
-1.17654

>  <r_i_glide_evdw>  (33) 
-15.6099

>  <r_i_glide_ecoul>  (33) 
-5.46092

>  <r_i_glide_erotb>  (33) 
0

>  <r_i_glide_esite>  (33) 
-0.1

>  <r_i_glide_emodel>  (33) 
-27.8118

>  <r_i_glide_energy>  (33) 
-21.0708

>  <r_i_glide_einternal>  (33) 
0.052038

>  <r_i_glide_intrahb_reward>  (33) 
-0

>  <i_i_glide_confnum>  (33) 
1

>  <i_i_glide_posenum>  (33) 
30

>  <r_i_glide_eff_state_penalty>  (33) 
0

>  <ligand_id>  (33) 
11

>  <original_smiles>  (33) 
CN1CCC2CC3CC4Oc5c(O)cccc5C5CC3(N)C1CC245

>  <smiles>  (33) 
[H]Oc1c([H])c([H])c([H])c2c1OC1([H])C([H])([H])C3([H])C([H])([H])C4([H])C([H])([H])C([H])([H])[N+]([H])(C([H])([H])[H])C5([H])C([H])([H])C14C2([H])C([H])([H])C35N([H])[H]

$$$$
11:2:0
     RDKit          3D

 52 57  0  0  1  0  0  0  0  0999 V2000
    2.7172   -2.8295   -3.3467 C   0  0  0  0  0  0  0  0  0  0  0  0
    2.7411   -2.4422   -1.9216 N   0  0  2  0  0  0  0  0  0  0  0  0
    3.2741   -1.0778   -1.7416 C   0  0  0  0  0  0  0  0  0  0  0  0
    3.6701   -0.7292   -0.2934 C   0  0  0  0  0  0  0  0  0  0  0  0
    4.5923   -1.7626    0.3845 C   0  0  2  0  0  0  0  0  0  0  0  0
    5.8009   -2.0502   -0.5039 C   0  0  0  0  0  0  0  0  0  0  0  0
    5.9894   -3.4850   -0.2053 C   0  0  1  0  0  0  0  0  0  0  0  0
    6.2644   -3.4036    1.4520 C   0  0  0  0  0  0  0  0  0  0  0  0
    4.9523   -3.0408    2.3779 C   0  0  2  0  0  0  0  0  0  0  0  0
    4.7000   -3.8046    3.5799 O   0  0  0  0  0  0  0  0  0  0  0  0
    3.7407   -4.7946    3.5725 C   0  0  0  0  0  0  0  0  0  0  0  0
    3.1439   -5.2315    4.7698 C   0  0  0  0  0  0  0  0  0  0  0  0
    3.4989   -4.6626    5.9603 O   0  0  0  0  0  0  0  0  0  0  0  0
    2.1658   -6.2441    4.7324 C   0  0  0  0  0  0  0  0  0  0  0  0
    1.8019   -6.8324    3.5013 C   0  0  0  0  0  0  0  0  0  0  0  0
    2.4042   -6.4065    2.2951 C   0  0  0  0  0  0  0  0  0  0  0  0
    3.3663   -5.3750    2.3487 C   0  0  0  0  0  0  0  0  0  0  0  0
    4.1131   -4.7608    1.1878 C   0  0  1  0  0  0  0  0  0  0  0  0
    4.3253   -5.4277   -0.1456 C   0  0  0  0  0  0  0  0  0  0  0  0
    4.6376   -4.1847   -0.9565 C   0  0  2  0  0  0  0  0  0  0  0  0
    5.0255   -4.5725   -2.3152 N   0  0  0  0  0  0  0  0  0  0  0  0
    3.1189   -3.4887   -0.9167 C   0  0  1  0  0  0  0  0  0  0  0  0
    2.6009   -3.1530    0.5696 C   0  0  0  0  0  0  0  0  0  0  0  0
    3.9809   -3.0954    1.2007 C   0  0  2  0  0  0  0  0  0  0  0  0
    3.7182   -2.8255   -3.7804 H   0  0  0  0  0  0  0  0  0  0  0  0
    2.1447   -2.1014   -3.9204 H   0  0  0  0  0  0  0  0  0  0  0  0
    2.2614   -3.8073   -3.5168 H   0  0  0  0  0  0  0  0  0  0  0  0
    4.0953   -0.8660   -2.4237 H   0  0  0  0  0  0  0  0  0  0  0  0
    2.4934   -0.4081   -2.1094 H   0  0  0  0  0  0  0  0  0  0  0  0
    4.2444    0.1904   -0.3366 H   0  0  0  0  0  0  0  0  0  0  0  0
    2.8168   -0.4469    0.3297 H   0  0  0  0  0  0  0  0  0  0  0  0
    4.9914   -1.0712    1.1232 H   0  0  0  0  0  0  0  0  0  0  0  0
    5.6644   -1.9029   -1.5731 H   0  0  0  0  0  0  0  0  0  0  0  0
    6.6572   -1.4441   -0.2138 H   0  0  0  0  0  0  0  0  0  0  0  0
    6.9049   -3.8426   -0.6802 H   0  0  0  0  0  0  0  0  0  0  0  0
    6.7668   -4.3083    1.7988 H   0  0  0  0  0  0  0  0  0  0  0  0
    7.0148   -2.6398    1.6527 H   0  0  0  0  0  0  0  0  0  0  0  0
    5.0528   -2.0512    2.8139 H   0  0  0  0  0  0  0  0  0  0  0  0
    3.1041   -5.0736    6.7108 H   0  0  0  0  0  0  0  0  0  0  0  0
    1.6941   -6.5724    5.6440 H   0  0  0  0  0  0  0  0  0  0  0  0
    1.0676   -7.6252    3.4949 H   0  0  0  0  0  0  0  0  0  0  0  0
    2.1297   -6.8740    1.3601 H   0  0  0  0  0  0  0  0  0  0  0  0
    4.9888   -5.2450    1.6052 H   0  0  0  0  0  0  0  0  0  0  0  0
    5.1543   -6.1430   -0.1496 H   0  0  0  0  0  0  0  0  0  0  0  0
    3.4378   -5.9737   -0.4537 H   0  0  0  0  0  0  0  0  0  0  0  0
    4.2353   -5.1582   -2.6830 H   0  0  0  0  0  0  0  0  0  0  0  0
    5.8124   -5.1732   -2.2948 H   0  0  0  0  0  0  0  0  0  0  0  0
    2.4261   -4.2583   -1.2427 H   0  0  0  0  0  0  0  0  0  0  0  0
    1.9831   -2.2642    0.6585 H   0  0  0  0  0  0  0  0  0  0  0  0
    1.9462   -3.9414    0.9396 H   0  0  0  0  0  0  0  0  0  0  0  0
    5.1742   -3.7917   -2.9198 H   0  0  0  0  0  0  0  0  0  0  0  0
    1.7650   -2.2737   -1.6834 H   0  0  0  0  0  0  0  0  0  0  0  0
  1  2  1  0
  1 25  1  0
  1 26  1  0
  1 27  1  0
  2 22  1  0
  2  3  1  0
  2 52  1  1
  3  4  1  0
  3 28  1  0
  3 29  1  0
  4  5  1  0
  4 30  1  0
  4 31  1  0
  5 24  1  0
  5  6  1  0
  5 32  1  1
  6  7  1  0
  6 33  1  0
  6 34  1  0
  7 20  1  0
  7  8  1  0
  7 35  1  6
  8  9  1  0
  8 36  1  0
  8 37  1  0
  9 24  1  0
  9 10  1  0
  9 38  1  1
 10 11  1  0
 11 17  2  0
 11 12  1  0
 12 13  1  0
 12 14  2  0
 13 39  1  0
 14 15  1  0
 14 40  1  0
 15 16  2  0
 15 41  1  0
 16 17  1  0
 16 42  1  0
 17 18  1  0
 18 24  1  0
 18 19  1  0
 18 43  1  1
 19 20  1  0
 19 44  1  0
 19 45  1  0
 20 21  1  6
 20 22  1  0
 21 46  1  0
 21 47  1  0
 21 51  1  0
 22 23  1  0
 22 48  1  6
 24 23  1  1
 23 49  1  0
 23 50  1  0
M  CHG  2   2   1  21   1
M  END
>  <i_m_ct_stereo_status>  (34) 
1

>  <s_m_source_file>  (34) 
/var/tmp/pbs.5076255.sched01/tmppfua8s0c/0korcpw03.sdf

>  <i_m_source_file_index>  (34) 
15

>  <i_lp_mmshare_version>  (34) 
48012

>  <i_f3d_flags>  (34) 
0

>  <s_epik_input>  (34) 
W0NAQF0xMjNbQ0BASF00W0NIMl1bQ0gyXU4oW0NIM10pW0NASF0oW0NIMl0zKVtDQEBdNShbTkgyXSlbQ0BASF0oW0NIMl00KVtDSDJdW0NAQEhdMU9jNmMoW0NASF0yW0NIMl01KVtjSF1bY0hdW2NIXWM2W09IXQ==

>  <s_epik_cmdline>  (34) 
J2VwaWtfcHl0aG9uJywgJy1waHQnLCAnMi4wJywgJy1waCcsICc3LjAnLCAnLXRuJywgJzgnLCAnLW1hJywgJzIwMCcsICctaW1hZScsICc8aW5maWxlLm1hZT4nLCAnLW9tYWUnLCAnPG91dGZpbGUubWFlPic=

>  <r_lp_tautomer_probability>  (34) 
1

>  <r_epik_Ionization_Penalty>  (34) 
2.631

>  <r_epik_Ionization_Penalty_Charging>  (34) 
2.63035

>  <r_epik_Ionization_Penalty_Neutral>  (34) 
0.000646905

>  <r_epik_State_Penalty>  (34) 
1.90867

>  <r_epik_Charging_Adjusted_Penalty>  (34) 
4.53902

>  <i_epik_Tot_Q>  (34) 
2

>  <i_epik_Tot_abs_Q>  (34) 
2

>  <s_lp_Force_Field>  (34) 
OPLS3e

>  <r_lp_Energy>  (34) 
307.649

>  <b_lp_Chiralities_Consistent>  (34) 
1

>  <s_lp_Variant>  (34) 
11:0-3

>  <s_i_glide_gridfile>  (34) 
pfpi4k_grid

>  <i_i_glide_lignum>  (34) 
15

>  <i_i_glide_rotatable_bonds>  (34) 
1

>  <r_i_docking_score>  (34) 
-4.25888

>  <r_i_glide_ligand_efficiency>  (34) 
-0.177453

>  <r_i_glide_ligand_efficiency_sa>  (34) 
-0.511864

>  <r_i_glide_ligand_efficiency_ln>  (34) 
-1.01934

>  <r_i_glide_gscore>  (34) 
-4.25888

>  <r_i_glide_lipo>  (34) 
-0.454424

>  <r_i_glide_hbond>  (34) 
-0.162224

>  <r_i_glide_metal>  (34) 
-0

>  <r_i_glide_rewards>  (34) 
-1.16967

>  <r_i_glide_evdw>  (34) 
-12.3885

>  <r_i_glide_ecoul>  (34) 
-11.6518

>  <r_i_glide_erotb>  (34) 
0

>  <r_i_glide_esite>  (34) 
-0.105359

>  <r_i_glide_emodel>  (34) 
-37.0432

>  <r_i_glide_energy>  (34) 
-24.0403

>  <r_i_glide_einternal>  (34) 
0.0481624

>  <r_i_glide_intrahb_reward>  (34) 
-0

>  <i_i_glide_confnum>  (34) 
1

>  <i_i_glide_posenum>  (34) 
6

>  <r_i_glide_eff_state_penalty>  (34) 
0

>  <ligand_id>  (34) 
11

>  <original_smiles>  (34) 
CN1CCC2CC3CC4Oc5c(O)cccc5C5CC3(N)C1CC245

>  <smiles>  (34) 
[H]Oc1c([H])c([H])c([H])c2c1OC1([H])C([H])([H])C3([H])C([H])([H])C4([H])C([H])([H])C([H])([H])[N+]([H])(C([H])([H])[H])C5([H])C([H])([H])C14C2([H])C([H])([H])C35[N+]([H])([H])[H]

$$$$
11:2:1
     RDKit          3D

 52 57  0  0  1  0  0  0  0  0999 V2000
    0.6583  -12.0818    4.6679 C   0  0  0  0  0  0  0  0  0  0  0  0
    0.5263  -10.7267    4.0910 N   0  0  2  0  0  0  0  0  0  0  0  0
    0.9927  -10.6822    2.6888 C   0  0  0  0  0  0  0  0  0  0  0  0
    1.2759   -9.2828    2.1362 C   0  0  0  0  0  0  0  0  0  0  0  0
    2.1429   -8.3896    3.0604 C   0  0  2  0  0  0  0  0  0  0  0  0
    3.4348   -9.1091    3.4481 C   0  0  0  0  0  0  0  0  0  0  0  0
    3.6093   -8.5976    4.8260 C   0  0  1  0  0  0  0  0  0  0  0  0
    3.7244   -6.9455    4.5048 C   0  0  0  0  0  0  0  0  0  0  0  0
    2.3237   -6.2083    4.0425 C   0  0  2  0  0  0  0  0  0  0  0  0
    1.9570   -4.9342    4.6246 O   0  0  0  0  0  0  0  0  0  0  0  0
    1.0185   -4.8987    5.6352 C   0  0  0  0  0  0  0  0  0  0  0  0
    0.3146   -3.7130    5.9094 C   0  0  0  0  0  0  0  0  0  0  0  0
    0.5339   -2.5950    5.1629 O   0  0  0  0  0  0  0  0  0  0  0  0
   -0.6399   -3.6945    6.9396 C   0  0  0  0  0  0  0  0  0  0  0  0
   -0.8788   -4.8520    7.7092 C   0  0  0  0  0  0  0  0  0  0  0  0
   -0.1637   -6.0401    7.4481 C   0  0  0  0  0  0  0  0  0  0  0  0
    0.7740   -6.0518    6.3930 C   0  0  0  0  0  0  0  0  0  0  0  0
    1.6105   -7.2230    5.9323 C   0  0  1  0  0  0  0  0  0  0  0  0
    1.9546   -8.4298    6.7820 C   0  0  0  0  0  0  0  0  0  0  0  0
    2.3501   -9.3681    5.6619 C   0  0  2  0  0  0  0  0  0  0  0  0
    2.8574  -10.6248    6.2653 N   0  0  0  0  0  0  0  0  0  0  0  0
    0.8209   -9.5690    5.0005 C   0  0  1  0  0  0  0  0  0  0  0  0
    0.1475   -8.1998    4.4645 C   0  0  0  0  0  0  0  0  0  0  0  0
    1.4648   -7.4554    4.2832 C   0  0  2  0  0  0  0  0  0  0  0  0
    1.6961  -12.4077    4.7306 H   0  0  0  0  0  0  0  0  0  0  0  0
    0.1419  -12.8086    4.0403 H   0  0  0  0  0  0  0  0  0  0  0  0
    0.1911  -12.1225    5.6501 H   0  0  0  0  0  0  0  0  0  0  0  0
    1.8753  -11.3109    2.5617 H   0  0  0  0  0  0  0  0  0  0  0  0
    0.2206  -11.1515    2.0781 H   0  0  0  0  0  0  0  0  0  0  0  0
    1.8316   -9.4424    1.2103 H   0  0  0  0  0  0  0  0  0  0  0  0
    0.3693   -8.7804    1.7949 H   0  0  0  0  0  0  0  0  0  0  0  0
    2.4703   -7.7225    2.2625 H   0  0  0  0  0  0  0  0  0  0  0  0
    3.3966  -10.1970    3.4533 H   0  0  0  0  0  0  0  0  0  0  0  0
    4.2574   -8.8359    2.7873 H   0  0  0  0  0  0  0  0  0  0  0  0
    4.5732   -8.9274    5.2220 H   0  0  0  0  0  0  0  0  0  0  0  0
    4.1948   -6.4275    5.3420 H   0  0  0  0  0  0  0  0  0  0  0  0
    4.4573   -6.7825    3.7141 H   0  0  0  0  0  0  0  0  0  0  0  0
    2.3764   -5.9096    2.9970 H   0  0  0  0  0  0  0  0  0  0  0  0
    1.2157   -2.7238    4.5196 H   0  0  0  0  0  0  0  0  0  0  0  0
   -1.1888   -2.7877    7.1259 H   0  0  0  0  0  0  0  0  0  0  0  0
   -1.6132   -4.8231    8.5023 H   0  0  0  0  0  0  0  0  0  0  0  0
   -0.3462   -6.9250    8.0386 H   0  0  0  0  0  0  0  0  0  0  0  0
    2.4492   -6.6617    6.3314 H   0  0  0  0  0  0  0  0  0  0  0  0
    2.7865   -8.2431    7.4670 H   0  0  0  0  0  0  0  0  0  0  0  0
    1.1188   -8.7837    7.3869 H   0  0  0  0  0  0  0  0  0  0  0  0
    2.1612  -11.0506    6.8820 H   0  0  0  0  0  0  0  0  0  0  0  0
    3.6826  -10.4365    6.8170 H   0  0  0  0  0  0  0  0  0  0  0  0
    0.1730   -9.8539    5.8271 H   0  0  0  0  0  0  0  0  0  0  0  0
   -0.4824   -8.3081    3.5856 H   0  0  0  0  0  0  0  0  0  0  0  0
   -0.5402   -7.7918    5.2039 H   0  0  0  0  0  0  0  0  0  0  0  0
    3.0855  -11.3073    5.5556 H   0  0  0  0  0  0  0  0  0  0  0  0
   -0.4813  -10.6446    4.0085 H   0  0  0  0  0  0  0  0  0  0  0  0
  1  2  1  0
  1 25  1  0
  1 26  1  0
  1 27  1  0
  2 22  1  0
  2  3  1  0
  2 52  1  6
  3  4  1  0
  3 28  1  0
  3 29  1  0
  4  5  1  0
  4 30  1  0
  4 31  1  0
  5 24  1  0
  5  6  1  0
  5 32  1  6
  6  7  1  0
  6 33  1  0
  6 34  1  0
  7 20  1  0
  7  8  1  0
  7 35  1  1
  8  9  1  0
  8 36  1  0
  8 37  1  0
  9 24  1  0
  9 10  1  0
  9 38  1  6
 10 11  1  0
 11 17  2  0
 11 12  1  0
 12 13  1  0
 12 14  2  0
 13 39  1  0
 14 15  1  0
 14 40  1  0
 15 16  2  0
 15 41  1  0
 16 17  1  0
 16 42  1  0
 17 18  1  0
 18 24  1  0
 18 19  1  0
 18 43  1  6
 19 20  1  0
 19 44  1  0
 19 45  1  0
 20 21  1  1
 20 22  1  0
 21 46  1  0
 21 47  1  0
 21 51  1  0
 22 23  1  0
 22 48  1  1
 24 23  1  6
 23 49  1  0
 23 50  1  0
M  CHG  2   2   1  21   1
M  END
>  <i_m_ct_stereo_status>  (35) 
1

>  <s_m_source_file>  (35) 
/var/tmp/pbs.5076255.sched01/tmppfua8s0c/0korcpw03.sdf

>  <i_m_source_file_index>  (35) 
15

>  <i_lp_mmshare_version>  (35) 
48012

>  <i_f3d_flags>  (35) 
0

>  <s_epik_input>  (35) 
W0NAQF0xMjNbQ0BASF00W0NIMl1bQ0gyXU4oW0NIM10pW0NASF0oW0NIMl0zKVtDQEBdNShbTkgyXSlbQ0BASF0oW0NIMl00KVtDSDJdW0NAQEhdMU9jNmMoW0NASF0yW0NIMl01KVtjSF1bY0hdW2NIXWM2W09IXQ==

>  <s_epik_cmdline>  (35) 
J2VwaWtfcHl0aG9uJywgJy1waHQnLCAnMi4wJywgJy1waCcsICc3LjAnLCAnLXRuJywgJzgnLCAnLW1hJywgJzIwMCcsICctaW1hZScsICc8aW5maWxlLm1hZT4nLCAnLW9tYWUnLCAnPG91dGZpbGUubWFlPic=

>  <r_lp_tautomer_probability>  (35) 
1

>  <r_epik_Ionization_Penalty>  (35) 
2.631

>  <r_epik_Ionization_Penalty_Charging>  (35) 
2.63035

>  <r_epik_Ionization_Penalty_Neutral>  (35) 
0.000646905

>  <r_epik_State_Penalty>  (35) 
1.90867

>  <r_epik_Charging_Adjusted_Penalty>  (35) 
4.53902

>  <i_epik_Tot_Q>  (35) 
2

>  <i_epik_Tot_abs_Q>  (35) 
2

>  <s_lp_Force_Field>  (35) 
OPLS3e

>  <r_lp_Energy>  (35) 
307.649

>  <b_lp_Chiralities_Consistent>  (35) 
1

>  <s_lp_Variant>  (35) 
11:0-3

>  <s_i_glide_gridfile>  (35) 
pfpi4k_grid

>  <i_i_glide_lignum>  (35) 
15

>  <i_i_glide_rotatable_bonds>  (35) 
1

>  <r_i_docking_score>  (35) 
-3.97977

>  <r_i_glide_ligand_efficiency>  (35) 
-0.165824

>  <r_i_glide_ligand_efficiency_sa>  (35) 
-0.478319

>  <r_i_glide_ligand_efficiency_ln>  (35) 
-0.952542

>  <r_i_glide_gscore>  (35) 
-3.97977

>  <r_i_glide_lipo>  (35) 
-0.223992

>  <r_i_glide_hbond>  (35) 
-0.340485

>  <r_i_glide_metal>  (35) 
-0

>  <r_i_glide_rewards>  (35) 
-1.16967

>  <r_i_glide_evdw>  (35) 
-14.9201

>  <r_i_glide_ecoul>  (35) 
-9.12922

>  <r_i_glide_erotb>  (35) 
0

>  <r_i_glide_esite>  (35) 
-0.130238

>  <r_i_glide_emodel>  (35) 
-36.2304

>  <r_i_glide_energy>  (35) 
-24.0493

>  <r_i_glide_einternal>  (35) 
0.000163228

>  <r_i_glide_intrahb_reward>  (35) 
-0

>  <i_i_glide_confnum>  (35) 
2

>  <i_i_glide_posenum>  (35) 
8

>  <r_i_glide_eff_state_penalty>  (35) 
0

>  <ligand_id>  (35) 
11

>  <original_smiles>  (35) 
CN1CCC2CC3CC4Oc5c(O)cccc5C5CC3(N)C1CC245

>  <smiles>  (35) 
[H]Oc1c([H])c([H])c([H])c2c1OC1([H])C([H])([H])C3([H])C([H])([H])C4([H])C([H])([H])C([H])([H])[N+]([H])(C([H])([H])[H])C5([H])C([H])([H])C14C2([H])C([H])([H])C35[N+]([H])([H])[H]

$$$$
11:2:2
     RDKit          3D

 52 57  0  0  1  0  0  0  0  0999 V2000
    1.5781    4.0503    3.4591 C   0  0  0  0  0  0  0  0  0  0  0  0
    1.0235    2.8024    2.8754 N   0  0  2  0  0  0  0  0  0  0  0  0
   -0.3367    2.5104    3.3931 C   0  0  0  0  0  0  0  0  0  0  0  0
   -0.8213    1.0737    3.1722 C   0  0  0  0  0  0  0  0  0  0  0  0
    0.1980   -0.0242    3.5902 C   0  0  2  0  0  0  0  0  0  0  0  0
    0.6693    0.1975    5.0278 C   0  0  0  0  0  0  0  0  0  0  0  0
    2.0694   -0.2644    4.9141 C   0  0  1  0  0  0  0  0  0  0  0  0
    1.8093   -1.8577    4.4409 C   0  0  0  0  0  0  0  0  0  0  0  0
    1.2674   -2.0668    2.9004 C   0  0  2  0  0  0  0  0  0  0  0  0
    1.8933   -3.0904    2.0892 O   0  0  0  0  0  0  0  0  0  0  0  0
    2.7904   -2.7260    1.1056 C   0  0  0  0  0  0  0  0  0  0  0  0
    3.0279   -3.5550   -0.0106 C   0  0  0  0  0  0  0  0  0  0  0  0
    2.3341   -4.7204   -0.1822 O   0  0  0  0  0  0  0  0  0  0  0  0
    3.9783   -3.1621   -0.9726 C   0  0  0  0  0  0  0  0  0  0  0  0
    4.6889   -1.9530   -0.8161 C   0  0  0  0  0  0  0  0  0  0  0  0
    4.4485   -1.1145    0.2969 C   0  0  0  0  0  0  0  0  0  0  0  0
    3.4827   -1.5128    1.2441 C   0  0  0  0  0  0  0  0  0  0  0  0
    3.0493   -0.7603    2.4827 C   0  0  1  0  0  0  0  0  0  0  0  0
    3.8827    0.2775    3.1967 C   0  0  0  0  0  0  0  0  0  0  0  0
    2.7763    0.9526    3.9677 C   0  0  2  0  0  0  0  0  0  0  0  0
    3.3967    1.9657    4.8470 N   0  0  0  0  0  0  0  0  0  0  0  0
    1.9889    1.6622    2.6649 C   0  0  1  0  0  0  0  0  0  0  0  0
    1.4407    0.6007    1.5810 C   0  0  0  0  0  0  0  0  0  0  0  0
    1.3878   -0.5805    2.5414 C   0  0  2  0  0  0  0  0  0  0  0  0
    1.6886    3.9723    4.5392 H   0  0  0  0  0  0  0  0  0  0  0  0
    0.8892    4.8739    3.2637 H   0  0  0  0  0  0  0  0  0  0  0  0
    2.5363    4.3148    3.0119 H   0  0  0  0  0  0  0  0  0  0  0  0
   -0.4017    2.7673    4.4483 H   0  0  0  0  0  0  0  0  0  0  0  0
   -1.0315    3.1915    2.9001 H   0  0  0  0  0  0  0  0  0  0  0  0
   -1.7063    0.9625    3.7999 H   0  0  0  0  0  0  0  0  0  0  0  0
   -1.2184    0.9208    2.1673 H   0  0  0  0  0  0  0  0  0  0  0  0
   -0.5464   -0.8129    3.7000 H   0  0  0  0  0  0  0  0  0  0  0  0
    0.6445    1.2237    5.3892 H   0  0  0  0  0  0  0  0  0  0  0  0
    0.0877   -0.3944    5.7344 H   0  0  0  0  0  0  0  0  0  0  0  0
    2.5365   -0.2841    5.9026 H   0  0  0  0  0  0  0  0  0  0  0  0
    2.6964   -2.4660    4.6312 H   0  0  0  0  0  0  0  0  0  0  0  0
    1.0844   -2.3262    5.1084 H   0  0  0  0  0  0  0  0  0  0  0  0
    0.2435   -2.4280    2.9043 H   0  0  0  0  0  0  0  0  0  0  0  0
    2.5923   -5.1903   -0.9672 H   0  0  0  0  0  0  0  0  0  0  0  0
    4.1573   -3.7871   -1.8330 H   0  0  0  0  0  0  0  0  0  0  0  0
    5.4177   -1.6745   -1.5618 H   0  0  0  0  0  0  0  0  0  0  0  0
    4.9934   -0.1896    0.4052 H   0  0  0  0  0  0  0  0  0  0  0  0
    3.5347   -1.5615    3.0317 H   0  0  0  0  0  0  0  0  0  0  0  0
    4.6474   -0.1530    3.8507 H   0  0  0  0  0  0  0  0  0  0  0  0
    4.3865    0.9343    2.4996 H   0  0  0  0  0  0  0  0  0  0  0  0
    3.9465    2.6036    4.2864 H   0  0  0  0  0  0  0  0  0  0  0  0
    4.0098    1.5127    5.5118 H   0  0  0  0  0  0  0  0  0  0  0  0
    2.7527    2.2023    2.1111 H   0  0  0  0  0  0  0  0  0  0  0  0
    0.5123    0.8809    1.0880 H   0  0  0  0  0  0  0  0  0  0  0  0
    2.1300    0.5033    0.7484 H   0  0  0  0  0  0  0  0  0  0  0  0
    2.6886    2.4767    5.3543 H   0  0  0  0  0  0  0  0  0  0  0  0
    0.8080    3.1106    1.9293 H   0  0  0  0  0  0  0  0  0  0  0  0
  1  2  1  0
  1 25  1  0
  1 26  1  0
  1 27  1  0
  2 22  1  0
  2  3  1  0
  2 52  1  6
  3  4  1  0
  3 28  1  0
  3 29  1  0
  4  5  1  0
  4 30  1  0
  4 31  1  0
  5 24  1  0
  5  6  1  0
  5 32  1  1
  6  7  1  0
  6 33  1  0
  6 34  1  0
  7 20  1  0
  7  8  1  0
  7 35  1  1
  8  9  1  0
  8 36  1  0
  8 37  1  0
  9 24  1  0
  9 10  1  0
  9 38  1  1
 10 11  1  0
 11 17  2  0
 11 12  1  0
 12 13  1  0
 12 14  2  0
 13 39  1  0
 14 15  1  0
 14 40  1  0
 15 16  2  0
 15 41  1  0
 16 17  1  0
 16 42  1  0
 17 18  1  0
 18 24  1  0
 18 19  1  0
 18 43  1  1
 19 20  1  0
 19 44  1  0
 19 45  1  0
 20 21  1  1
 20 22  1  0
 21 46  1  0
 21 47  1  0
 21 51  1  0
 22 23  1  0
 22 48  1  6
 24 23  1  6
 23 49  1  0
 23 50  1  0
M  CHG  2   2   1  21   1
M  END
>  <i_m_ct_stereo_status>  (36) 
1

>  <s_m_source_file>  (36) 
/var/tmp/pbs.5076255.sched01/tmppfua8s0c/0korcpw03.sdf

>  <i_m_source_file_index>  (36) 
15

>  <i_lp_mmshare_version>  (36) 
48012

>  <i_f3d_flags>  (36) 
0

>  <s_epik_input>  (36) 
W0NAQF0xMjNbQ0BASF00W0NIMl1bQ0gyXU4oW0NIM10pW0NASF0oW0NIMl0zKVtDQEBdNShbTkgyXSlbQ0BASF0oW0NIMl00KVtDSDJdW0NAQEhdMU9jNmMoW0NASF0yW0NIMl01KVtjSF1bY0hdW2NIXWM2W09IXQ==

>  <s_epik_cmdline>  (36) 
J2VwaWtfcHl0aG9uJywgJy1waHQnLCAnMi4wJywgJy1waCcsICc3LjAnLCAnLXRuJywgJzgnLCAnLW1hJywgJzIwMCcsICctaW1hZScsICc8aW5maWxlLm1hZT4nLCAnLW9tYWUnLCAnPG91dGZpbGUubWFlPic=

>  <r_lp_tautomer_probability>  (36) 
1

>  <r_epik_Ionization_Penalty>  (36) 
2.631

>  <r_epik_Ionization_Penalty_Charging>  (36) 
2.63035

>  <r_epik_Ionization_Penalty_Neutral>  (36) 
0.000646905

>  <r_epik_State_Penalty>  (36) 
1.90867

>  <r_epik_Charging_Adjusted_Penalty>  (36) 
4.53902

>  <i_epik_Tot_Q>  (36) 
2

>  <i_epik_Tot_abs_Q>  (36) 
2

>  <s_lp_Force_Field>  (36) 
OPLS3e

>  <r_lp_Energy>  (36) 
307.649

>  <b_lp_Chiralities_Consistent>  (36) 
1

>  <s_lp_Variant>  (36) 
11:0-3

>  <s_i_glide_gridfile>  (36) 
pfpi4k_grid

>  <i_i_glide_lignum>  (36) 
15

>  <i_i_glide_rotatable_bonds>  (36) 
1

>  <r_i_docking_score>  (36) 
-3.90486

>  <r_i_glide_ligand_efficiency>  (36) 
-0.162703

>  <r_i_glide_ligand_efficiency_sa>  (36) 
-0.469315

>  <r_i_glide_ligand_efficiency_ln>  (36) 
-0.934612

>  <r_i_glide_gscore>  (36) 
-3.90486

>  <r_i_glide_lipo>  (36) 
-0.035775

>  <r_i_glide_hbond>  (36) 
-0.2

>  <r_i_glide_metal>  (36) 
-0

>  <r_i_glide_rewards>  (36) 
-1.16967

>  <r_i_glide_evdw>  (36) 
-17.4862

>  <r_i_glide_ecoul>  (36) 
-10.1829

>  <r_i_glide_erotb>  (36) 
0

>  <r_i_glide_esite>  (36) 
-0.0976775

>  <r_i_glide_emodel>  (36) 
-39.6518

>  <r_i_glide_energy>  (36) 
-27.6691

>  <r_i_glide_einternal>  (36) 
0.00366544

>  <r_i_glide_intrahb_reward>  (36) 
-0

>  <i_i_glide_confnum>  (36) 
1

>  <i_i_glide_posenum>  (36) 
31

>  <r_i_glide_eff_state_penalty>  (36) 
0

>  <ligand_id>  (36) 
11

>  <original_smiles>  (36) 
CN1CCC2CC3CC4Oc5c(O)cccc5C5CC3(N)C1CC245

>  <smiles>  (36) 
[H]Oc1c([H])c([H])c([H])c2c1OC1([H])C([H])([H])C3([H])C([H])([H])C4([H])C([H])([H])C([H])([H])[N+]([H])(C([H])([H])[H])C5([H])C([H])([H])C14C2([H])C([H])([H])C35[N+]([H])([H])[H]

$$$$
12:0:0
     RDKit          3D

 42 43  0  0  1  0  0  0  0  0999 V2000
   -4.9640    3.7618    1.6783 C   0  0  0  0  0  0  0  0  0  0  0  0
   -3.7522    4.1243    2.3144 O   0  0  0  0  0  0  0  0  0  0  0  0
   -3.1018    3.0042    2.8778 C   0  0  0  0  0  0  0  0  0  0  0  0
   -1.7696    3.4285    3.5470 C   0  0  0  0  0  0  0  0  0  0  0  0
   -1.7077    4.5500    4.0446 O   0  0  0  0  0  0  0  0  0  0  0  0
   -0.7578    2.5342    3.6618 N   0  0  0  0  0  0  0  0  0  0  0  0
   -0.8013    1.1596    3.1610 C   0  0  0  0  0  0  0  0  0  0  0  0
    0.3057    0.9761    2.1476 C   0  0  0  0  0  0  0  0  0  0  0  0
    1.7048    1.1273    2.7946 C   0  0  0  0  0  0  0  0  0  0  0  0
    1.7450    2.5463    3.3822 C   0  0  0  0  0  0  0  0  0  0  0  0
    0.5413    2.8332    4.3214 C   0  0  0  0  0  0  0  0  0  0  0  0
    2.9139    0.7363    1.9382 C   0  0  0  0  0  0  0  0  0  0  0  0
    2.9347   -0.5752    2.5950 N   0  0  0  0  0  0  0  0  0  0  0  0
    2.2367   -1.6750    1.8788 C   0  0  0  0  0  0  0  0  0  0  0  0
    2.0383   -2.8941    2.8102 C   0  0  0  0  0  0  0  0  0  0  0  0
    2.9775   -2.0388    0.5771 C   0  0  0  0  0  0  0  0  0  0  0  0
    2.2233    0.0233    3.7317 C   0  0  0  0  0  0  0  0  0  0  0  0
   -5.3914    4.6329    1.1908 H   0  0  0  0  0  0  0  0  0  0  0  0
   -5.6728    3.4170    2.4208 H   0  0  0  0  0  0  0  0  0  0  0  0
   -4.8583    2.9803    0.9227 H   0  0  0  0  0  0  0  0  0  0  0  0
   -3.7368    2.5488    3.6424 H   0  0  0  0  0  0  0  0  0  0  0  0
   -2.9741    2.3001    2.0562 H   0  0  0  0  0  0  0  0  0  0  0  0
   -0.7149    0.4777    4.0106 H   0  0  0  0  0  0  0  0  0  0  0  0
   -1.7114    0.8712    2.6530 H   0  0  0  0  0  0  0  0  0  0  0  0
    0.0575   -0.0025    1.7894 H   0  0  0  0  0  0  0  0  0  0  0  0
    0.2105    1.6501    1.2881 H   0  0  0  0  0  0  0  0  0  0  0  0
    2.6706    2.6929    3.9479 H   0  0  0  0  0  0  0  0  0  0  0  0
    1.7782    3.2932    2.5831 H   0  0  0  0  0  0  0  0  0  0  0  0
    0.6222    3.8701    4.6813 H   0  0  0  0  0  0  0  0  0  0  0  0
    0.6287    2.2021    5.2091 H   0  0  0  0  0  0  0  0  0  0  0  0
    2.6694    0.7593    0.8748 H   0  0  0  0  0  0  0  0  0  0  0  0
    3.8128    1.3166    2.1419 H   0  0  0  0  0  0  0  0  0  0  0  0
    1.2337   -1.4306    1.5209 H   0  0  0  0  0  0  0  0  0  0  0  0
    1.4450   -3.6628    2.3045 H   0  0  0  0  0  0  0  0  0  0  0  0
    1.4505   -2.6319    3.7000 H   0  0  0  0  0  0  0  0  0  0  0  0
    2.9948   -3.3152    3.1654 H   0  0  0  0  0  0  0  0  0  0  0  0
    2.3796   -2.7646    0.0156 H   0  0  0  0  0  0  0  0  0  0  0  0
    4.0007   -2.4145    0.7397 H   0  0  0  0  0  0  0  0  0  0  0  0
    3.0388   -1.1662   -0.0858 H   0  0  0  0  0  0  0  0  0  0  0  0
    2.9147    0.3646    4.5110 H   0  0  0  0  0  0  0  0  0  0  0  0
    1.4038   -0.5373    4.1866 H   0  0  0  0  0  0  0  0  0  0  0  0
    3.9073   -0.8191    2.8632 H   0  0  0  0  0  0  0  0  0  0  0  0
  1  2  1  0
  1 18  1  0
  1 19  1  0
  1 20  1  0
  2  3  1  0
  3  4  1  0
  3 21  1  0
  3 22  1  0
  4  5  2  0
  4  6  1  0
  6 11  1  0
  6  7  1  0
  7  8  1  0
  7 23  1  0
  7 24  1  0
  8  9  1  0
  8 25  1  0
  8 26  1  0
  9 17  1  0
  9 10  1  0
  9 12  1  0
 10 11  1  0
 10 27  1  0
 10 28  1  0
 11 29  1  0
 11 30  1  0
 12 13  1  0
 12 31  1  0
 12 32  1  0
 13 14  1  0
 13 17  1  0
 13 42  1  0
 14 15  1  0
 14 16  1  0
 14 33  1  0
 15 34  1  0
 15 35  1  0
 15 36  1  0
 16 37  1  0
 16 38  1  0
 16 39  1  0
 17 40  1  0
 17 41  1  0
M  CHG  1  13   1
M  END
>  <i_m_ct_stereo_status>  (37) 
1

>  <s_m_source_file>  (37) 
/var/tmp/pbs.5076255.sched01/tmppfua8s0c/0korcpw03.sdf

>  <i_m_source_file_index>  (37) 
16

>  <i_lp_mmshare_version>  (37) 
48012

>  <i_f3d_flags>  (37) 
0

>  <s_epik_input>  (37) 
W0NIM11PW0NIMl1DKD1PKU4oW0NIMl1bQ0gyXTEpW0NIMl1bQ0gyXUMxMltDSDJdTihbQ0gyXTIpW0NIXShbQ0gzXSlbQ0gzXQ==

>  <s_epik_cmdline>  (37) 
J2VwaWtfcHl0aG9uJywgJy1waHQnLCAnMi4wJywgJy1waCcsICc3LjAnLCAnLXRuJywgJzgnLCAnLW1hJywgJzIwMCcsICctaW1hZScsICc8aW5maWxlLm1hZT4nLCAnLW9tYWUnLCAnPG91dGZpbGUubWFlPic=

>  <r_epik_Ionization_Penalty>  (37) 
0.000600153

>  <r_epik_Ionization_Penalty_Charging>  (37) 
0.000600152

>  <r_epik_Ionization_Penalty_Neutral>  (37) 
7.06813e-10

>  <r_epik_State_Penalty>  (37) 
0.000378

>  <r_epik_Charging_Adjusted_Penalty>  (37) 
0.000978152

>  <i_epik_Tot_Q>  (37) 
1

>  <i_epik_Tot_abs_Q>  (37) 
1

>  <s_lp_Force_Field>  (37) 
OPLS3e

>  <r_lp_Energy>  (37) 
24.5078

>  <b_lp_Chiralities_Consistent>  (37) 
1

>  <s_lp_Variant>  (37) 
12:0-1

>  <s_i_glide_gridfile>  (37) 
pfpi4k_grid

>  <i_i_glide_lignum>  (37) 
16

>  <i_i_glide_rotatable_bonds>  (37) 
4

>  <r_i_docking_score>  (37) 
-4.02755

>  <r_i_glide_ligand_efficiency>  (37) 
-0.236915

>  <r_i_glide_ligand_efficiency_sa>  (37) 
-0.609175

>  <r_i_glide_ligand_efficiency_ln>  (37) 
-1.0507

>  <r_i_glide_gscore>  (37) 
-4.02755

>  <r_i_glide_lipo>  (37) 
-0.380812

>  <r_i_glide_hbond>  (37) 
-0.137495

>  <r_i_glide_metal>  (37) 
-0

>  <r_i_glide_rewards>  (37) 
-1.76352

>  <r_i_glide_evdw>  (37) 
-18.3532

>  <r_i_glide_ecoul>  (37) 
-8.71352

>  <r_i_glide_erotb>  (37) 
0.594771

>  <r_i_glide_esite>  (37) 
-0.115805

>  <r_i_glide_emodel>  (37) 
-32.4809

>  <r_i_glide_energy>  (37) 
-27.0667

>  <r_i_glide_einternal>  (37) 
0.690475

>  <r_i_glide_intrahb_reward>  (37) 
-0

>  <i_i_glide_confnum>  (37) 
2

>  <i_i_glide_posenum>  (37) 
17

>  <r_i_glide_eff_state_penalty>  (37) 
0

>  <ligand_id>  (37) 
12

>  <original_smiles>  (37) 
COCC(=O)N1CCC2(CC1)CN(C(C)C)C2

>  <smiles>  (37) 
[H]C([H])([H])OC([H])([H])C(=O)N1C([H])([H])C([H])([H])C2(C([H])([H])C1([H])[H])C([H])([H])[N+]([H])(C([H])(C([H])([H])[H])C([H])([H])[H])C2([H])[H]

$$$$
12:0:1
     RDKit          3D

 42 43  0  0  1  0  0  0  0  0999 V2000
   -5.1956    5.0482    2.0453 C   0  0  0  0  0  0  0  0  0  0  0  0
   -4.5562    4.0074    1.3264 O   0  0  0  0  0  0  0  0  0  0  0  0
   -3.8086    3.0374    2.0445 C   0  0  0  0  0  0  0  0  0  0  0  0
   -2.5170    3.6220    2.7067 C   0  0  0  0  0  0  0  0  0  0  0  0
   -2.4433    4.8476    2.9234 O   0  0  0  0  0  0  0  0  0  0  0  0
   -1.5410    2.8028    3.0746 N   0  0  0  0  0  0  0  0  0  0  0  0
   -1.3624    1.4234    2.5729 C   0  0  0  0  0  0  0  0  0  0  0  0
   -0.0411    1.3354    1.8311 C   0  0  0  0  0  0  0  0  0  0  0  0
    1.1597    1.6271    2.7617 C   0  0  0  0  0  0  0  0  0  0  0  0
    0.9572    3.0540    3.2808 C   0  0  0  0  0  0  0  0  0  0  0  0
   -0.4175    3.2428    3.9475 C   0  0  0  0  0  0  0  0  0  0  0  0
    2.5494    1.3420    2.2141 C   0  0  0  0  0  0  0  0  0  0  0  0
    2.5334    0.0485    2.9057 N   0  0  0  0  0  0  0  0  0  0  0  0
    2.0984   -1.1260    2.1069 C   0  0  0  0  0  0  0  0  0  0  0  0
    1.8513   -2.3422    3.0247 C   0  0  0  0  0  0  0  0  0  0  0  0
    3.1048   -1.4231    0.9776 C   0  0  0  0  0  0  0  0  0  0  0  0
    1.5418    0.6026    3.8358 C   0  0  0  0  0  0  0  0  0  0  0  0
   -5.8107    5.6346    1.3525 H   0  0  0  0  0  0  0  0  0  0  0  0
   -4.4745    5.7539    2.4458 H   0  0  0  0  0  0  0  0  0  0  0  0
   -5.8109    4.6370    2.8536 H   0  0  0  0  0  0  0  0  0  0  0  0
   -4.4107    2.5639    2.8113 H   0  0  0  0  0  0  0  0  0  0  0  0
   -3.6331    2.2820    1.2776 H   0  0  0  0  0  0  0  0  0  0  0  0
   -1.4421    0.7429    3.4329 H   0  0  0  0  0  0  0  0  0  0  0  0
   -2.0936    1.0977    1.8280 H   0  0  0  0  0  0  0  0  0  0  0  0
   -0.1387    0.3306    1.4626 H   0  0  0  0  0  0  0  0  0  0  0  0
   -0.0088    1.9764    0.9414 H   0  0  0  0  0  0  0  0  0  0  0  0
    1.7106    3.3074    4.0308 H   0  0  0  0  0  0  0  0  0  0  0  0
    1.1082    3.7837    2.4828 H   0  0  0  0  0  0  0  0  0  0  0  0
   -0.5081    4.2895    4.2575 H   0  0  0  0  0  0  0  0  0  0  0  0
   -0.4952    2.6563    4.8611 H   0  0  0  0  0  0  0  0  0  0  0  0
    2.5380    1.3318    1.1233 H   0  0  0  0  0  0  0  0  0  0  0  0
    3.3323    2.0129    2.5777 H   0  0  0  0  0  0  0  0  0  0  0  0
    1.1494   -1.0017    1.5733 H   0  0  0  0  0  0  0  0  0  0  0  0
    1.4443   -3.1703    2.4374 H   0  0  0  0  0  0  0  0  0  0  0  0
    1.0812   -2.1276    3.7783 H   0  0  0  0  0  0  0  0  0  0  0  0
    2.7617   -2.6598    3.5680 H   0  0  0  0  0  0  0  0  0  0  0  0
    2.7030   -2.2178    0.3393 H   0  0  0  0  0  0  0  0  0  0  0  0
    4.1141   -1.6800    1.3533 H   0  0  0  0  0  0  0  0  0  0  0  0
    3.2108   -0.5603    0.3061 H   0  0  0  0  0  0  0  0  0  0  0  0
    2.0004    1.0264    4.7357 H   0  0  0  0  0  0  0  0  0  0  0  0
    0.6931   -0.0241    4.1204 H   0  0  0  0  0  0  0  0  0  0  0  0
    3.4414   -0.0960    3.3957 H   0  0  0  0  0  0  0  0  0  0  0  0
  1  2  1  0
  1 18  1  0
  1 19  1  0
  1 20  1  0
  2  3  1  0
  3  4  1  0
  3 21  1  0
  3 22  1  0
  4  5  2  0
  4  6  1  0
  6 11  1  0
  6  7  1  0
  7  8  1  0
  7 23  1  0
  7 24  1  0
  8  9  1  0
  8 25  1  0
  8 26  1  0
  9 17  1  0
  9 10  1  0
  9 12  1  0
 10 11  1  0
 10 27  1  0
 10 28  1  0
 11 29  1  0
 11 30  1  0
 12 13  1  0
 12 31  1  0
 12 32  1  0
 13 14  1  0
 13 17  1  0
 13 42  1  0
 14 15  1  0
 14 16  1  0
 14 33  1  0
 15 34  1  0
 15 35  1  0
 15 36  1  0
 16 37  1  0
 16 38  1  0
 16 39  1  0
 17 40  1  0
 17 41  1  0
M  CHG  1  13   1
M  END
>  <i_m_ct_stereo_status>  (38) 
1

>  <s_m_source_file>  (38) 
/var/tmp/pbs.5076255.sched01/tmppfua8s0c/0korcpw03.sdf

>  <i_m_source_file_index>  (38) 
16

>  <i_lp_mmshare_version>  (38) 
48012

>  <i_f3d_flags>  (38) 
0

>  <s_epik_input>  (38) 
W0NIM11PW0NIMl1DKD1PKU4oW0NIMl1bQ0gyXTEpW0NIMl1bQ0gyXUMxMltDSDJdTihbQ0gyXTIpW0NIXShbQ0gzXSlbQ0gzXQ==

>  <s_epik_cmdline>  (38) 
J2VwaWtfcHl0aG9uJywgJy1waHQnLCAnMi4wJywgJy1waCcsICc3LjAnLCAnLXRuJywgJzgnLCAnLW1hJywgJzIwMCcsICctaW1hZScsICc8aW5maWxlLm1hZT4nLCAnLW9tYWUnLCAnPG91dGZpbGUubWFlPic=

>  <r_epik_Ionization_Penalty>  (38) 
0.000600153

>  <r_epik_Ionization_Penalty_Charging>  (38) 
0.000600152

>  <r_epik_Ionization_Penalty_Neutral>  (38) 
7.06813e-10

>  <r_epik_State_Penalty>  (38) 
0.000378

>  <r_epik_Charging_Adjusted_Penalty>  (38) 
0.000978152

>  <i_epik_Tot_Q>  (38) 
1

>  <i_epik_Tot_abs_Q>  (38) 
1

>  <s_lp_Force_Field>  (38) 
OPLS3e

>  <r_lp_Energy>  (38) 
24.5078

>  <b_lp_Chiralities_Consistent>  (38) 
1

>  <s_lp_Variant>  (38) 
12:0-1

>  <s_i_glide_gridfile>  (38) 
pfpi4k_grid

>  <i_i_glide_lignum>  (38) 
16

>  <i_i_glide_rotatable_bonds>  (38) 
4

>  <r_i_docking_score>  (38) 
-3.49519

>  <r_i_glide_ligand_efficiency>  (38) 
-0.205599

>  <r_i_glide_ligand_efficiency_sa>  (38) 
-0.528654

>  <r_i_glide_ligand_efficiency_ln>  (38) 
-0.911817

>  <r_i_glide_gscore>  (38) 
-3.49519

>  <r_i_glide_lipo>  (38) 
-0.0123708

>  <r_i_glide_hbond>  (38) 
-0.16

>  <r_i_glide_metal>  (38) 
-0

>  <r_i_glide_rewards>  (38) 
-1.76352

>  <r_i_glide_evdw>  (38) 
-15.6772

>  <r_i_glide_ecoul>  (38) 
-8.2414

>  <r_i_glide_erotb>  (38) 
0.594771

>  <r_i_glide_esite>  (38) 
-0.133994

>  <r_i_glide_emodel>  (38) 
-26.1964

>  <r_i_glide_energy>  (38) 
-23.9186

>  <r_i_glide_einternal>  (38) 
1.50272

>  <r_i_glide_intrahb_reward>  (38) 
-0

>  <i_i_glide_confnum>  (38) 
2

>  <i_i_glide_posenum>  (38) 
13

>  <r_i_glide_eff_state_penalty>  (38) 
0

>  <ligand_id>  (38) 
12

>  <original_smiles>  (38) 
COCC(=O)N1CCC2(CC1)CN(C(C)C)C2

>  <smiles>  (38) 
[H]C([H])([H])OC([H])([H])C(=O)N1C([H])([H])C([H])([H])C2(C([H])([H])C1([H])[H])C([H])([H])[N+]([H])(C([H])(C([H])([H])[H])C([H])([H])[H])C2([H])[H]

$$$$
12:0:2
     RDKit          3D

 42 43  0  0  1  0  0  0  0  0999 V2000
   -4.5095    3.5752    2.1711 C   0  0  0  0  0  0  0  0  0  0  0  0
   -3.5701    3.2926    3.1929 O   0  0  0  0  0  0  0  0  0  0  0  0
   -2.3398    2.8242    2.6796 C   0  0  0  0  0  0  0  0  0  0  0  0
   -1.4093    2.4127    3.8285 C   0  0  0  0  0  0  0  0  0  0  0  0
   -1.8347    2.4195    4.9885 O   0  0  0  0  0  0  0  0  0  0  0  0
   -0.1480    2.0414    3.5251 N   0  0  0  0  0  0  0  0  0  0  0  0
    0.8267    1.6855    4.5789 C   0  0  0  0  0  0  0  0  0  0  0  0
    1.2995    0.2538    4.3764 C   0  0  0  0  0  0  0  0  0  0  0  0
    2.0007    0.0676    3.0047 C   0  0  0  0  0  0  0  0  0  0  0  0
    0.9826    0.4979    1.9374 C   0  0  0  0  0  0  0  0  0  0  0  0
    0.4388    1.9177    2.1729 C   0  0  0  0  0  0  0  0  0  0  0  0
    2.6653   -1.2801    2.7309 C   0  0  0  0  0  0  0  0  0  0  0  0
    3.9666   -0.6992    3.1088 N   0  0  0  0  0  0  0  0  0  0  0  0
    4.3559   -0.8895    4.5394 C   0  0  0  0  0  0  0  0  0  0  0  0
    5.5615    0.0147    4.8777 C   0  0  0  0  0  0  0  0  0  0  0  0
    4.6465   -2.3804    4.8124 C   0  0  0  0  0  0  0  0  0  0  0  0
    3.4129    0.6276    2.7860 C   0  0  0  0  0  0  0  0  0  0  0  0
   -5.4468    3.8928    2.6201 H   0  0  0  0  0  0  0  0  0  0  0  0
   -4.7232    2.7048    1.5519 H   0  0  0  0  0  0  0  0  0  0  0  0
   -4.1719    4.3844    1.5301 H   0  0  0  0  0  0  0  0  0  0  0  0
   -2.4805    1.9500    2.0431 H   0  0  0  0  0  0  0  0  0  0  0  0
   -1.8538    3.6181    2.1145 H   0  0  0  0  0  0  0  0  0  0  0  0
    1.6669    2.3879    4.5696 H   0  0  0  0  0  0  0  0  0  0  0  0
    0.4166    1.7535    5.5877 H   0  0  0  0  0  0  0  0  0  0  0  0
    1.9040    0.1472    5.2365 H   0  0  0  0  0  0  0  0  0  0  0  0
    0.4771   -0.4613    4.4749 H   0  0  0  0  0  0  0  0  0  0  0  0
    1.4361    0.4943    0.9369 H   0  0  0  0  0  0  0  0  0  0  0  0
    0.1652   -0.2232    1.8700 H   0  0  0  0  0  0  0  0  0  0  0  0
   -0.2746    2.1297    1.3795 H   0  0  0  0  0  0  0  0  0  0  0  0
    1.2414    2.6552    2.0718 H   0  0  0  0  0  0  0  0  0  0  0  0
    2.2612   -2.0626    3.3719 H   0  0  0  0  0  0  0  0  0  0  0  0
    2.6513   -1.6139    1.6826 H   0  0  0  0  0  0  0  0  0  0  0  0
    3.6262   -0.6477    5.2697 H   0  0  0  0  0  0  0  0  0  0  0  0
    5.8006   -0.0758    5.9493 H   0  0  0  0  0  0  0  0  0  0  0  0
    5.3233    1.0789    4.7299 H   0  0  0  0  0  0  0  0  0  0  0  0
    6.4679   -0.1992    4.2533 H   0  0  0  0  0  0  0  0  0  0  0  0
    4.8473   -2.5183    5.8864 H   0  0  0  0  0  0  0  0  0  0  0  0
    5.4883   -2.7970    4.1994 H   0  0  0  0  0  0  0  0  0  0  0  0
    3.7605   -3.0017    4.6096 H   0  0  0  0  0  0  0  0  0  0  0  0
    3.6483    0.9252    1.7526 H   0  0  0  0  0  0  0  0  0  0  0  0
    3.6332    1.4533    3.4598 H   0  0  0  0  0  0  0  0  0  0  0  0
    4.7073   -0.9725    2.4291 H   0  0  0  0  0  0  0  0  0  0  0  0
  1  2  1  0
  1 18  1  0
  1 19  1  0
  1 20  1  0
  2  3  1  0
  3  4  1  0
  3 21  1  0
  3 22  1  0
  4  5  2  0
  4  6  1  0
  6 11  1  0
  6  7  1  0
  7  8  1  0
  7 23  1  0
  7 24  1  0
  8  9  1  0
  8 25  1  0
  8 26  1  0
  9 17  1  0
  9 10  1  0
  9 12  1  0
 10 11  1  0
 10 27  1  0
 10 28  1  0
 11 29  1  0
 11 30  1  0
 12 13  1  0
 12 31  1  0
 12 32  1  0
 13 14  1  0
 13 17  1  0
 13 42  1  0
 14 15  1  0
 14 16  1  0
 14 33  1  0
 15 34  1  0
 15 35  1  0
 15 36  1  0
 16 37  1  0
 16 38  1  0
 16 39  1  0
 17 40  1  0
 17 41  1  0
M  CHG  1  13   1
M  END
>  <i_m_ct_stereo_status>  (39) 
1

>  <s_m_source_file>  (39) 
/var/tmp/pbs.5076255.sched01/tmppfua8s0c/0korcpw03.sdf

>  <i_m_source_file_index>  (39) 
16

>  <i_lp_mmshare_version>  (39) 
48012

>  <i_f3d_flags>  (39) 
0

>  <s_epik_input>  (39) 
W0NIM11PW0NIMl1DKD1PKU4oW0NIMl1bQ0gyXTEpW0NIMl1bQ0gyXUMxMltDSDJdTihbQ0gyXTIpW0NIXShbQ0gzXSlbQ0gzXQ==

>  <s_epik_cmdline>  (39) 
J2VwaWtfcHl0aG9uJywgJy1waHQnLCAnMi4wJywgJy1waCcsICc3LjAnLCAnLXRuJywgJzgnLCAnLW1hJywgJzIwMCcsICctaW1hZScsICc8aW5maWxlLm1hZT4nLCAnLW9tYWUnLCAnPG91dGZpbGUubWFlPic=

>  <r_epik_Ionization_Penalty>  (39) 
0.000600153

>  <r_epik_Ionization_Penalty_Charging>  (39) 
0.000600152

>  <r_epik_Ionization_Penalty_Neutral>  (39) 
7.06813e-10

>  <r_epik_State_Penalty>  (39) 
0.000378

>  <r_epik_Charging_Adjusted_Penalty>  (39) 
0.000978152

>  <i_epik_Tot_Q>  (39) 
1

>  <i_epik_Tot_abs_Q>  (39) 
1

>  <s_lp_Force_Field>  (39) 
OPLS3e

>  <r_lp_Energy>  (39) 
24.5078

>  <b_lp_Chiralities_Consistent>  (39) 
1

>  <s_lp_Variant>  (39) 
12:0-1

>  <s_i_glide_gridfile>  (39) 
pfpi4k_grid

>  <i_i_glide_lignum>  (39) 
16

>  <i_i_glide_rotatable_bonds>  (39) 
4

>  <r_i_docking_score>  (39) 
-3.22788

>  <r_i_glide_ligand_efficiency>  (39) 
-0.189875

>  <r_i_glide_ligand_efficiency_sa>  (39) 
-0.488223

>  <r_i_glide_ligand_efficiency_ln>  (39) 
-0.842082

>  <r_i_glide_gscore>  (39) 
-3.22788

>  <r_i_glide_lipo>  (39) 
-0.427377

>  <r_i_glide_hbond>  (39) 
0

>  <r_i_glide_metal>  (39) 
-0

>  <r_i_glide_rewards>  (39) 
-1.76352

>  <r_i_glide_evdw>  (39) 
-17.7613

>  <r_i_glide_ecoul>  (39) 
-4.45863

>  <r_i_glide_erotb>  (39) 
0.594771

>  <r_i_glide_esite>  (39) 
-0.0748917

>  <r_i_glide_emodel>  (39) 
-26.207

>  <r_i_glide_energy>  (39) 
-22.2199

>  <r_i_glide_einternal>  (39) 
0.212007

>  <r_i_glide_intrahb_reward>  (39) 
-0

>  <i_i_glide_confnum>  (39) 
3

>  <i_i_glide_posenum>  (39) 
8

>  <r_i_glide_eff_state_penalty>  (39) 
0

>  <ligand_id>  (39) 
12

>  <original_smiles>  (39) 
COCC(=O)N1CCC2(CC1)CN(C(C)C)C2

>  <smiles>  (39) 
[H]C([H])([H])OC([H])([H])C(=O)N1C([H])([H])C([H])([H])C2(C([H])([H])C1([H])[H])C([H])([H])[N+]([H])(C([H])(C([H])([H])[H])C([H])([H])[H])C2([H])[H]

$$$$
13:0:0
     RDKit          3D

 48 52  0  0  1  0  0  0  0  0999 V2000
    6.6741   -4.6019    1.6238 C   0  0  0  0  0  0  0  0  0  0  0  0
    6.0640   -3.6782    0.7336 O   0  0  0  0  0  0  0  0  0  0  0  0
    4.7856   -3.1093    1.0713 C   0  0  1  0  0  0  0  0  0  0  0  0
    3.9171   -3.9523    2.0809 C   0  0  1  0  0  0  0  0  0  0  0  0
    2.7364   -3.1456    2.7401 C   0  0  0  0  0  0  0  0  0  0  0  0
    3.2160   -1.8573    3.3897 C   0  0  0  0  0  0  0  0  0  0  0  0
    3.2386   -1.4902    4.7584 C   0  0  0  0  0  0  0  0  0  0  0  0
    4.2864   -0.6699    5.2798 C   0  0  0  0  0  0  0  0  0  0  0  0
    5.4311   -0.3224    4.5049 C   0  0  0  0  0  0  0  0  0  0  0  0
    5.3927   -0.7006    3.1546 C   0  0  0  0  0  0  0  0  0  0  0  0
    4.1910   -1.2448    2.6162 C   0  0  0  0  0  0  0  0  0  0  0  0
    4.9708   -1.5954    1.3867 C   0  0  2  0  0  0  0  0  0  0  0  0
    4.8828   -0.6168    0.1865 C   0  0  0  0  0  0  0  0  0  0  0  0
    4.0382   -1.0452   -1.0248 C   0  0  0  0  0  0  0  0  0  0  0  0
    4.2120   -2.5195   -1.4387 C   0  0  0  0  0  0  0  0  0  0  0  0
    3.2106   -2.8327   -2.5712 C   0  0  0  0  0  0  0  0  0  0  0  0
    5.6364   -2.7662   -1.9742 C   0  0  0  0  0  0  0  0  0  0  0  0
    3.8673   -3.3087   -0.1541 C   0  0  1  0  0  0  0  0  0  0  0  0
    3.5870   -4.8062   -0.1584 C   0  0  0  0  0  0  0  0  0  0  0  0
    3.4885   -5.1539    1.2867 N   0  0  2  0  0  0  0  0  0  0  0  0
    2.2182   -5.8024    1.6846 C   0  0  0  0  0  0  0  0  0  0  0  0
    6.1948   -1.0723    2.1059 O   0  0  0  0  0  0  0  0  0  0  0  0
    7.7231   -4.7407    1.3521 H   0  0  0  0  0  0  0  0  0  0  0  0
    6.1903   -5.5782    1.5837 H   0  0  0  0  0  0  0  0  0  0  0  0
    6.6075   -4.2499    2.6488 H   0  0  0  0  0  0  0  0  0  0  0  0
    4.4940   -4.3074    2.9330 H   0  0  0  0  0  0  0  0  0  0  0  0
    1.9427   -2.8894    2.0356 H   0  0  0  0  0  0  0  0  0  0  0  0
    2.2925   -3.7571    3.5293 H   0  0  0  0  0  0  0  0  0  0  0  0
    2.5340   -1.9323    5.4483 H   0  0  0  0  0  0  0  0  0  0  0  0
    4.2856   -0.4248    6.3282 H   0  0  0  0  0  0  0  0  0  0  0  0
    6.3148    0.1038    4.9516 H   0  0  0  0  0  0  0  0  0  0  0  0
    4.5870    0.3769    0.5236 H   0  0  0  0  0  0  0  0  0  0  0  0
    5.8862   -0.4753   -0.2062 H   0  0  0  0  0  0  0  0  0  0  0  0
    3.0092   -0.8717   -0.7398 H   0  0  0  0  0  0  0  0  0  0  0  0
    4.2203   -0.3809   -1.8693 H   0  0  0  0  0  0  0  0  0  0  0  0
    3.3153   -3.8546   -2.9228 H   0  0  0  0  0  0  0  0  0  0  0  0
    3.3813   -2.1849   -3.4302 H   0  0  0  0  0  0  0  0  0  0  0  0
    2.1733   -2.6863   -2.2669 H   0  0  0  0  0  0  0  0  0  0  0  0
    5.8166   -3.8233   -2.1697 H   0  0  0  0  0  0  0  0  0  0  0  0
    6.4064   -2.4138   -1.2893 H   0  0  0  0  0  0  0  0  0  0  0  0
    5.7850   -2.2283   -2.9068 H   0  0  0  0  0  0  0  0  0  0  0  0
    2.8907   -2.8982    0.1066 H   0  0  0  0  0  0  0  0  0  0  0  0
    2.6730   -5.0396   -0.7053 H   0  0  0  0  0  0  0  0  0  0  0  0
    4.4145   -5.3604   -0.6098 H   0  0  0  0  0  0  0  0  0  0  0  0
    1.3789   -5.1410    1.4888 H   0  0  0  0  0  0  0  0  0  0  0  0
    2.2207   -6.0594    2.7470 H   0  0  0  0  0  0  0  0  0  0  0  0
    2.0671   -6.7254    1.1183 H   0  0  0  0  0  0  0  0  0  0  0  0
    4.2024   -5.8512    1.4216 H   0  0  0  0  0  0  0  0  0  0  0  0
  1  2  1  0
  1 23  1  0
  1 24  1  0
  1 25  1  0
  3  2  1  6
  3 12  1  0
  3 18  1  0
  3  4  1  0
  4 20  1  0
  4  5  1  0
  4 26  1  1
  5  6  1  0
  5 27  1  0
  5 28  1  0
  6 11  2  0
  6  7  1  0
  7  8  2  0
  7 29  1  0
  8  9  1  0
  8 30  1  0
  9 10  2  0
  9 31  1  0
 10 22  1  0
 10 11  1  0
 11 12  1  0
 12 13  1  0
 12 22  1  1
 13 14  1  0
 13 32  1  0
 13 33  1  0
 14 15  1  0
 14 34  1  0
 14 35  1  0
 15 16  1  0
 15 17  1  0
 15 18  1  0
 16 36  1  0
 16 37  1  0
 16 38  1  0
 17 39  1  0
 17 40  1  0
 17 41  1  0
 18 19  1  0
 18 42  1  1
 19 20  1  0
 19 43  1  0
 19 44  1  0
 20 21  1  0
 20 48  1  6
 21 45  1  0
 21 46  1  0
 21 47  1  0
M  CHG  1  20   1
M  END
>  <i_m_ct_stereo_status>  (40) 
1

>  <s_m_source_file>  (40) 
/var/tmp/pbs.5076255.sched01/tmppfua8s0c/0korcpw03.sdf

>  <i_m_source_file_index>  (40) 
17

>  <i_lp_mmshare_version>  (40) 
48012

>  <i_f3d_flags>  (40) 
0

>  <s_epik_input>  (40) 
W0NIMl0xW0NIMl1DKFtDSDNdKShbQ0gzXSlbQ0BIXTJbQ0gyXU4oW0NIM10pW0NAQEhdKFtDQEBdMihbQ0BAXTEzNClPW0NIM10pW0NIMl1jNWMzYyhPNClbY0hdW2NIXVtjSF01

>  <s_epik_cmdline>  (40) 
J2VwaWtfcHl0aG9uJywgJy1waHQnLCAnMi4wJywgJy1waCcsICc3LjAnLCAnLXRuJywgJzgnLCAnLW1hJywgJzIwMCcsICctaW1hZScsICc8aW5maWxlLm1hZT4nLCAnLW9tYWUnLCAnPG91dGZpbGUubWFlPic=

>  <r_epik_Ionization_Penalty>  (40) 
0.0229131

>  <r_epik_Ionization_Penalty_Charging>  (40) 
0.0229131

>  <r_epik_Ionization_Penalty_Neutral>  (40) 
4.47298e-15

>  <r_epik_State_Penalty>  (40) 
0.0185145

>  <r_epik_Charging_Adjusted_Penalty>  (40) 
0.0414276

>  <i_epik_Tot_Q>  (40) 
1

>  <i_epik_Tot_abs_Q>  (40) 
1

>  <s_lp_Force_Field>  (40) 
OPLS3e

>  <r_lp_Energy>  (40) 
80.2828

>  <b_lp_Chiralities_Consistent>  (40) 
1

>  <s_lp_Variant>  (40) 
13:0-1

>  <s_i_glide_gridfile>  (40) 
pfpi4k_grid

>  <i_i_glide_lignum>  (40) 
17

>  <i_i_glide_rotatable_bonds>  (40) 
1

>  <r_i_docking_score>  (40) 
-3.18005

>  <r_i_glide_ligand_efficiency>  (40) 
-0.144548

>  <r_i_glide_ligand_efficiency_sa>  (40) 
-0.405029

>  <r_i_glide_ligand_efficiency_ln>  (40) 
-0.777321

>  <r_i_glide_gscore>  (40) 
-3.18005

>  <r_i_glide_lipo>  (40) 
-0.529611

>  <r_i_glide_hbond>  (40) 
0

>  <r_i_glide_metal>  (40) 
-0

>  <r_i_glide_rewards>  (40) 
-1.36081

>  <r_i_glide_evdw>  (40) 
-17.691

>  <r_i_glide_ecoul>  (40) 
-2.70061

>  <r_i_glide_erotb>  (40) 
0

>  <r_i_glide_esite>  (40) 
0

>  <r_i_glide_emodel>  (40) 
-22.9762

>  <r_i_glide_energy>  (40) 
-20.3916

>  <r_i_glide_einternal>  (40) 
2.63768

>  <r_i_glide_intrahb_reward>  (40) 
-0

>  <i_i_glide_confnum>  (40) 
2

>  <i_i_glide_posenum>  (40) 
28

>  <r_i_glide_eff_state_penalty>  (40) 
0

>  <ligand_id>  (40) 
13

>  <original_smiles>  (40) 
COC12C3Cc4cccc5c4C1(CCC(C)(C)C2CN3C)O5

>  <smiles>  (40) 
[H]c1c([H])c2c3c(c1[H])C([H])([H])C1([H])C4(OC([H])([H])[H])C3(O2)C([H])([H])C([H])([H])C(C([H])([H])[H])(C([H])([H])[H])C4([H])C([H])([H])[N+]1([H])C([H])([H])[H]

$$$$
13:0:1
     RDKit          3D

 48 52  0  0  1  0  0  0  0  0999 V2000
    3.9993   -3.5488    3.5824 C   0  0  0  0  0  0  0  0  0  0  0  0
    4.2965   -3.1341    2.2587 O   0  0  0  0  0  0  0  0  0  0  0  0
    4.5588   -4.1383    1.2733 C   0  0  1  0  0  0  0  0  0  0  0  0
    5.7218   -5.1048    1.6978 C   0  0  1  0  0  0  0  0  0  0  0  0
    5.7991   -6.4151    0.8368 C   0  0  0  0  0  0  0  0  0  0  0  0
    4.4780   -7.1521    0.7928 C   0  0  0  0  0  0  0  0  0  0  0  0
    4.1420   -8.4338    1.2968 C   0  0  0  0  0  0  0  0  0  0  0  0
    2.8377   -8.6892    1.8246 C   0  0  0  0  0  0  0  0  0  0  0  0
    1.8797   -7.6471    2.0140 C   0  0  0  0  0  0  0  0  0  0  0  0
    2.2307   -6.3948    1.4871 C   0  0  0  0  0  0  0  0  0  0  0  0
    3.4155   -6.2641    0.7091 C   0  0  0  0  0  0  0  0  0  0  0  0
    3.2316   -4.7806    0.7555 C   0  0  2  0  0  0  0  0  0  0  0  0
    2.5630   -4.0907   -0.4683 C   0  0  0  0  0  0  0  0  0  0  0  0
    3.4714   -3.3075   -1.4371 C   0  0  0  0  0  0  0  0  0  0  0  0
    4.5259   -2.4311   -0.7277 C   0  0  0  0  0  0  0  0  0  0  0  0
    5.4210   -1.7759   -1.8013 C   0  0  0  0  0  0  0  0  0  0  0  0
    3.8479   -1.3067    0.0789 C   0  0  0  0  0  0  0  0  0  0  0  0
    5.3261   -3.4310    0.1330 C   0  0  1  0  0  0  0  0  0  0  0  0
    6.6728   -3.0879    0.7592 C   0  0  0  0  0  0  0  0  0  0  0  0
    6.9604   -4.2638    1.6207 N   0  0  2  0  0  0  0  0  0  0  0  0
    8.2437   -4.9483    1.3186 C   0  0  0  0  0  0  0  0  0  0  0  0
    2.0286   -5.0483    1.6440 O   0  0  0  0  0  0  0  0  0  0  0  0
    3.5272   -2.7164    4.1058 H   0  0  0  0  0  0  0  0  0  0  0  0
    4.9134   -3.7985    4.1223 H   0  0  0  0  0  0  0  0  0  0  0  0
    3.3235   -4.4021    3.6211 H   0  0  0  0  0  0  0  0  0  0  0  0
    5.5981   -5.4302    2.7301 H   0  0  0  0  0  0  0  0  0  0  0  0
    6.0902   -6.2146   -0.1918 H   0  0  0  0  0  0  0  0  0  0  0  0
    6.5427   -7.0967    1.2564 H   0  0  0  0  0  0  0  0  0  0  0  0
    4.9059   -9.1912    1.4040 H   0  0  0  0  0  0  0  0  0  0  0  0
    2.6242   -9.6708    2.2176 H   0  0  0  0  0  0  0  0  0  0  0  0
    0.9866   -7.8024    2.5969 H   0  0  0  0  0  0  0  0  0  0  0  0
    1.9286   -4.7856   -1.0176 H   0  0  0  0  0  0  0  0  0  0  0  0
    1.8621   -3.3495   -0.0888 H   0  0  0  0  0  0  0  0  0  0  0  0
    3.9736   -4.0251   -2.0842 H   0  0  0  0  0  0  0  0  0  0  0  0
    2.8576   -2.6994   -2.1012 H   0  0  0  0  0  0  0  0  0  0  0  0
    6.1681   -1.1276   -1.3477 H   0  0  0  0  0  0  0  0  0  0  0  0
    4.8286   -1.1559   -2.4751 H   0  0  0  0  0  0  0  0  0  0  0  0
    5.9372   -2.5141   -2.4164 H   0  0  0  0  0  0  0  0  0  0  0  0
    4.5629   -0.7138    0.6530 H   0  0  0  0  0  0  0  0  0  0  0  0
    3.0840   -1.6656    0.7656 H   0  0  0  0  0  0  0  0  0  0  0  0
    3.3194   -0.6581   -0.6142 H   0  0  0  0  0  0  0  0  0  0  0  0
    5.5974   -4.1911   -0.6001 H   0  0  0  0  0  0  0  0  0  0  0  0
    7.4484   -2.9231    0.0109 H   0  0  0  0  0  0  0  0  0  0  0  0
    6.6028   -2.1900    1.3765 H   0  0  0  0  0  0  0  0  0  0  0  0
    8.2709   -5.3310    0.2967 H   0  0  0  0  0  0  0  0  0  0  0  0
    8.4242   -5.7742    2.0096 H   0  0  0  0  0  0  0  0  0  0  0  0
    9.0742   -4.2487    1.4349 H   0  0  0  0  0  0  0  0  0  0  0  0
    7.0748   -3.8703    2.5424 H   0  0  0  0  0  0  0  0  0  0  0  0
  1  2  1  0
  1 23  1  0
  1 24  1  0
  1 25  1  0
  3  2  1  1
  3 12  1  0
  3 18  1  0
  3  4  1  0
  4 20  1  0
  4  5  1  0
  4 26  1  1
  5  6  1  0
  5 27  1  0
  5 28  1  0
  6 11  2  0
  6  7  1  0
  7  8  2  0
  7 29  1  0
  8  9  1  0
  8 30  1  0
  9 10  2  0
  9 31  1  0
 10 22  1  0
 10 11  1  0
 11 12  1  0
 12 13  1  0
 12 22  1  1
 13 14  1  0
 13 32  1  0
 13 33  1  0
 14 15  1  0
 14 34  1  0
 14 35  1  0
 15 16  1  0
 15 17  1  0
 15 18  1  0
 16 36  1  0
 16 37  1  0
 16 38  1  0
 17 39  1  0
 17 40  1  0
 17 41  1  0
 18 19  1  0
 18 42  1  6
 19 20  1  0
 19 43  1  0
 19 44  1  0
 20 21  1  0
 20 48  1  1
 21 45  1  0
 21 46  1  0
 21 47  1  0
M  CHG  1  20   1
M  END
>  <i_m_ct_stereo_status>  (41) 
1

>  <s_m_source_file>  (41) 
/var/tmp/pbs.5076255.sched01/tmppfua8s0c/0korcpw03.sdf

>  <i_m_source_file_index>  (41) 
17

>  <i_lp_mmshare_version>  (41) 
48012

>  <i_f3d_flags>  (41) 
0

>  <s_epik_input>  (41) 
W0NIMl0xW0NIMl1DKFtDSDNdKShbQ0gzXSlbQ0BIXTJbQ0gyXU4oW0NIM10pW0NAQEhdKFtDQEBdMihbQ0BAXTEzNClPW0NIM10pW0NIMl1jNWMzYyhPNClbY0hdW2NIXVtjSF01

>  <s_epik_cmdline>  (41) 
J2VwaWtfcHl0aG9uJywgJy1waHQnLCAnMi4wJywgJy1waCcsICc3LjAnLCAnLXRuJywgJzgnLCAnLW1hJywgJzIwMCcsICctaW1hZScsICc8aW5maWxlLm1hZT4nLCAnLW9tYWUnLCAnPG91dGZpbGUubWFlPic=

>  <r_epik_Ionization_Penalty>  (41) 
0.0229131

>  <r_epik_Ionization_Penalty_Charging>  (41) 
0.0229131

>  <r_epik_Ionization_Penalty_Neutral>  (41) 
4.47298e-15

>  <r_epik_State_Penalty>  (41) 
0.0185145

>  <r_epik_Charging_Adjusted_Penalty>  (41) 
0.0414276

>  <i_epik_Tot_Q>  (41) 
1

>  <i_epik_Tot_abs_Q>  (41) 
1

>  <s_lp_Force_Field>  (41) 
OPLS3e

>  <r_lp_Energy>  (41) 
80.2828

>  <b_lp_Chiralities_Consistent>  (41) 
1

>  <s_lp_Variant>  (41) 
13:0-1

>  <s_i_glide_gridfile>  (41) 
pfpi4k_grid

>  <i_i_glide_lignum>  (41) 
17

>  <i_i_glide_rotatable_bonds>  (41) 
1

>  <r_i_docking_score>  (41) 
-3.1294

>  <r_i_glide_ligand_efficiency>  (41) 
-0.142245

>  <r_i_glide_ligand_efficiency_sa>  (41) 
-0.398577

>  <r_i_glide_ligand_efficiency_ln>  (41) 
-0.764939

>  <r_i_glide_gscore>  (41) 
-3.1294

>  <r_i_glide_lipo>  (41) 
-0.547779

>  <r_i_glide_hbond>  (41) 
-0.0172418

>  <r_i_glide_metal>  (41) 
-0

>  <r_i_glide_rewards>  (41) 
-1.36081

>  <r_i_glide_evdw>  (41) 
-18.8877

>  <r_i_glide_ecoul>  (41) 
-1.72793

>  <r_i_glide_erotb>  (41) 
0

>  <r_i_glide_esite>  (41) 
0

>  <r_i_glide_emodel>  (41) 
-24.7224

>  <r_i_glide_energy>  (41) 
-20.6156

>  <r_i_glide_einternal>  (41) 
0.000730663

>  <r_i_glide_intrahb_reward>  (41) 
-0

>  <i_i_glide_confnum>  (41) 
2

>  <i_i_glide_posenum>  (41) 
9

>  <r_i_glide_eff_state_penalty>  (41) 
0

>  <ligand_id>  (41) 
13

>  <original_smiles>  (41) 
COC12C3Cc4cccc5c4C1(CCC(C)(C)C2CN3C)O5

>  <smiles>  (41) 
[H]c1c([H])c2c3c(c1[H])C([H])([H])C1([H])C4(OC([H])([H])[H])C3(O2)C([H])([H])C([H])([H])C(C([H])([H])[H])(C([H])([H])[H])C4([H])C([H])([H])[N+]1([H])C([H])([H])[H]

$$$$
13:0:2
     RDKit          3D

 48 52  0  0  1  0  0  0  0  0999 V2000
    4.6894   -3.9773    3.9692 C   0  0  0  0  0  0  0  0  0  0  0  0
    5.0806   -3.7051    2.6326 O   0  0  0  0  0  0  0  0  0  0  0  0
    4.8862   -4.7245    1.6459 C   0  0  1  0  0  0  0  0  0  0  0  0
    5.5768   -6.0808    2.0404 C   0  0  1  0  0  0  0  0  0  0  0  0
    5.0868   -7.3047    1.1863 C   0  0  0  0  0  0  0  0  0  0  0  0
    3.5821   -7.4460    1.2171 C   0  0  0  0  0  0  0  0  0  0  0  0
    2.7715   -8.4888    1.7275 C   0  0  0  0  0  0  0  0  0  0  0  0
    1.4902   -8.1983    2.2902 C   0  0  0  0  0  0  0  0  0  0  0  0
    1.0431   -6.8572    2.5017 C   0  0  0  0  0  0  0  0  0  0  0  0
    1.8515   -5.8525    1.9506 C   0  0  0  0  0  0  0  0  0  0  0  0
    2.9612   -6.2100    1.1335 C   0  0  0  0  0  0  0  0  0  0  0  0
    3.3956   -4.7770    1.1745 C   0  0  2  0  0  0  0  0  0  0  0  0
    3.0187   -3.8701   -0.0313 C   0  0  0  0  0  0  0  0  0  0  0  0
    4.1343   -3.5020   -1.0322 C   0  0  0  0  0  0  0  0  0  0  0  0
    5.4781   -3.1260   -0.3662 C   0  0  0  0  0  0  0  0  0  0  0  0
    6.5271   -2.8870   -1.4724 C   0  0  0  0  0  0  0  0  0  0  0  0
    5.3396   -1.8181    0.4474 C   0  0  0  0  0  0  0  0  0  0  0  0
    5.8341   -4.3743    0.4763 C   0  0  1  0  0  0  0  0  0  0  0  0
    7.2240   -4.6130    1.0570 C   0  0  0  0  0  0  0  0  0  0  0  0
    7.0486   -5.8080    1.9246 N   0  0  2  0  0  0  0  0  0  0  0  0
    7.9351   -6.9489    1.5804 C   0  0  0  0  0  0  0  0  0  0  0  0
    2.2196   -4.5396    2.1030 O   0  0  0  0  0  0  0  0  0  0  0  0
    4.6082   -3.0304    4.5042 H   0  0  0  0  0  0  0  0  0  0  0  0
    5.4440   -4.5777    4.4791 H   0  0  0  0  0  0  0  0  0  0  0  0
    3.7293   -4.4872    4.0377 H   0  0  0  0  0  0  0  0  0  0  0  0
    5.3597   -6.3378    3.0767 H   0  0  0  0  0  0  0  0  0  0  0  0
    5.3799   -7.2320    0.1406 H   0  0  0  0  0  0  0  0  0  0  0  0
    5.5061   -8.2329    1.5814 H   0  0  0  0  0  0  0  0  0  0  0  0
    3.1679   -9.4924    1.8046 H   0  0  0  0  0  0  0  0  0  0  0  0
    0.9085   -9.0116    2.6940 H   0  0  0  0  0  0  0  0  0  0  0  0
    0.1913   -6.6408    3.1216 H   0  0  0  0  0  0  0  0  0  0  0  0
    2.1544   -4.2673   -0.5626 H   0  0  0  0  0  0  0  0  0  0  0  0
    2.6708   -2.9167    0.3662 H   0  0  0  0  0  0  0  0  0  0  0  0
    4.2819   -4.3579   -1.6901 H   0  0  0  0  0  0  0  0  0  0  0  0
    3.7933   -2.6968   -1.6836 H   0  0  0  0  0  0  0  0  0  0  0  0
    7.4957   -2.6084   -1.0571 H   0  0  0  0  0  0  0  0  0  0  0  0
    6.2109   -2.0802   -2.1328 H   0  0  0  0  0  0  0  0  0  0  0  0
    6.6720   -3.7654   -2.1003 H   0  0  0  0  0  0  0  0  0  0  0  0
    6.2475   -1.5921    1.0078 H   0  0  0  0  0  0  0  0  0  0  0  0
    4.5154   -1.8548    1.1584 H   0  0  0  0  0  0  0  0  0  0  0  0
    5.1294   -0.9735   -0.2107 H   0  0  0  0  0  0  0  0  0  0  0  0
    5.7482   -5.1765   -0.2570 H   0  0  0  0  0  0  0  0  0  0  0  0
    7.9730   -4.7721    0.2814 H   0  0  0  0  0  0  0  0  0  0  0  0
    7.5425   -3.7676    1.6689 H   0  0  0  0  0  0  0  0  0  0  0  0
    7.7803   -7.3009    0.5598 H   0  0  0  0  0  0  0  0  0  0  0  0
    7.7860   -7.7861    2.2654 H   0  0  0  0  0  0  0  0  0  0  0  0
    8.9791   -6.6413    1.6642 H   0  0  0  0  0  0  0  0  0  0  0  0
    7.3448   -5.5022    2.8415 H   0  0  0  0  0  0  0  0  0  0  0  0
  1  2  1  0
  1 23  1  0
  1 24  1  0
  1 25  1  0
  3  2  1  1
  3 12  1  0
  3 18  1  0
  3  4  1  0
  4 20  1  0
  4  5  1  0
  4 26  1  1
  5  6  1  0
  5 27  1  0
  5 28  1  0
  6 11  2  0
  6  7  1  0
  7  8  2  0
  7 29  1  0
  8  9  1  0
  8 30  1  0
  9 10  2  0
  9 31  1  0
 10 22  1  0
 10 11  1  0
 11 12  1  0
 12 13  1  0
 12 22  1  1
 13 14  1  0
 13 32  1  0
 13 33  1  0
 14 15  1  0
 14 34  1  0
 14 35  1  0
 15 16  1  0
 15 17  1  0
 15 18  1  0
 16 36  1  0
 16 37  1  0
 16 38  1  0
 17 39  1  0
 17 40  1  0
 17 41  1  0
 18 19  1  0
 18 42  1  6
 19 20  1  0
 19 43  1  0
 19 44  1  0
 20 21  1  0
 20 48  1  1
 21 45  1  0
 21 46  1  0
 21 47  1  0
M  CHG  1  20   1
M  END
>  <i_m_ct_stereo_status>  (42) 
1

>  <s_m_source_file>  (42) 
/var/tmp/pbs.5076255.sched01/tmppfua8s0c/0korcpw03.sdf

>  <i_m_source_file_index>  (42) 
17

>  <i_lp_mmshare_version>  (42) 
48012

>  <i_f3d_flags>  (42) 
0

>  <s_epik_input>  (42) 
W0NIMl0xW0NIMl1DKFtDSDNdKShbQ0gzXSlbQ0BIXTJbQ0gyXU4oW0NIM10pW0NAQEhdKFtDQEBdMihbQ0BAXTEzNClPW0NIM10pW0NIMl1jNWMzYyhPNClbY0hdW2NIXVtjSF01

>  <s_epik_cmdline>  (42) 
J2VwaWtfcHl0aG9uJywgJy1waHQnLCAnMi4wJywgJy1waCcsICc3LjAnLCAnLXRuJywgJzgnLCAnLW1hJywgJzIwMCcsICctaW1hZScsICc8aW5maWxlLm1hZT4nLCAnLW9tYWUnLCAnPG91dGZpbGUubWFlPic=

>  <r_epik_Ionization_Penalty>  (42) 
0.0229131

>  <r_epik_Ionization_Penalty_Charging>  (42) 
0.0229131

>  <r_epik_Ionization_Penalty_Neutral>  (42) 
4.47298e-15

>  <r_epik_State_Penalty>  (42) 
0.0185145

>  <r_epik_Charging_Adjusted_Penalty>  (42) 
0.0414276

>  <i_epik_Tot_Q>  (42) 
1

>  <i_epik_Tot_abs_Q>  (42) 
1

>  <s_lp_Force_Field>  (42) 
OPLS3e

>  <r_lp_Energy>  (42) 
80.2828

>  <b_lp_Chiralities_Consistent>  (42) 
1

>  <s_lp_Variant>  (42) 
13:0-1

>  <s_i_glide_gridfile>  (42) 
pfpi4k_grid

>  <i_i_glide_lignum>  (42) 
17

>  <i_i_glide_rotatable_bonds>  (42) 
1

>  <r_i_docking_score>  (42) 
-3.02749

>  <r_i_glide_ligand_efficiency>  (42) 
-0.137613

>  <r_i_glide_ligand_efficiency_sa>  (42) 
-0.385598

>  <r_i_glide_ligand_efficiency_ln>  (42) 
-0.740029

>  <r_i_glide_gscore>  (42) 
-3.02749

>  <r_i_glide_lipo>  (42) 
-0.529556

>  <r_i_glide_hbond>  (42) 
0

>  <r_i_glide_metal>  (42) 
-0

>  <r_i_glide_rewards>  (42) 
-1.36081

>  <r_i_glide_evdw>  (42) 
-18.012

>  <r_i_glide_ecoul>  (42) 
-1.57687

>  <r_i_glide_erotb>  (42) 
0

>  <r_i_glide_esite>  (42) 
0

>  <r_i_glide_emodel>  (42) 
-23.5906

>  <r_i_glide_energy>  (42) 
-19.5889

>  <r_i_glide_einternal>  (42) 
0.00139944

>  <r_i_glide_intrahb_reward>  (42) 
-0

>  <i_i_glide_confnum>  (42) 
1

>  <i_i_glide_posenum>  (42) 
1

>  <r_i_glide_eff_state_penalty>  (42) 
0

>  <ligand_id>  (42) 
13

>  <original_smiles>  (42) 
COC12C3Cc4cccc5c4C1(CCC(C)(C)C2CN3C)O5

>  <smiles>  (42) 
[H]c1c([H])c2c3c(c1[H])C([H])([H])C1([H])C4(OC([H])([H])[H])C3(O2)C([H])([H])C([H])([H])C(C([H])([H])[H])(C([H])([H])[H])C4([H])C([H])([H])[N+]1([H])C([H])([H])[H]

$$$$
13:1:0
     RDKit          3D

 47 51  0  0  1  0  0  0  0  0999 V2000
    6.4763   -0.6383    0.8377 C   0  0  0  0  0  0  0  0  0  0  0  0
    6.0110   -1.3559   -0.2589 O   0  0  0  0  0  0  0  0  0  0  0  0
    5.5292   -2.6626   -0.0196 C   0  0  1  0  0  0  0  0  0  0  0  0
    6.6686   -3.5748    0.5250 C   0  0  1  0  0  0  0  0  0  0  0  0
    6.1323   -4.9150    1.0968 C   0  0  0  0  0  0  0  0  0  0  0  0
    5.0534   -4.7603    2.1500 C   0  0  0  0  0  0  0  0  0  0  0  0
    5.0892   -5.0106    3.5561 C   0  0  0  0  0  0  0  0  0  0  0  0
    4.4030   -4.1382    4.4665 C   0  0  0  0  0  0  0  0  0  0  0  0
    3.7974   -2.8986    4.0489 C   0  0  0  0  0  0  0  0  0  0  0  0
    3.7634   -2.6988    2.6748 C   0  0  0  0  0  0  0  0  0  0  0  0
    4.1999   -3.7249    1.7708 C   0  0  0  0  0  0  0  0  0  0  0  0
    4.1638   -2.6896    0.7014 C   0  0  2  0  0  0  0  0  0  0  0  0
    2.9281   -2.6307   -0.1997 C   0  0  0  0  0  0  0  0  0  0  0  0
    3.0477   -3.1228   -1.6572 C   0  0  0  0  0  0  0  0  0  0  0  0
    4.3584   -2.7378   -2.3634 C   0  0  0  0  0  0  0  0  0  0  0  0
    4.4308   -3.4718   -3.7184 C   0  0  0  0  0  0  0  0  0  0  0  0
    4.4055   -1.2131   -2.6041 C   0  0  0  0  0  0  0  0  0  0  0  0
    5.4609   -3.2603   -1.4344 C   0  0  1  0  0  0  0  0  0  0  0  0
    6.9205   -3.3283   -1.8288 C   0  0  0  0  0  0  0  0  0  0  0  0
    7.5711   -3.8045   -0.5924 N   0  0  0  0  0  0  0  0  0  0  0  0
    8.8769   -3.2531   -0.4315 C   0  0  0  0  0  0  0  0  0  0  0  0
    3.7528   -1.6897    1.7525 O   0  0  0  0  0  0  0  0  0  0  0  0
    6.4325    0.3715    0.4340 H   0  0  0  0  0  0  0  0  0  0  0  0
    7.5012   -0.8944    1.1080 H   0  0  0  0  0  0  0  0  0  0  0  0
    5.8511   -0.6465    1.7205 H   0  0  0  0  0  0  0  0  0  0  0  0
    7.1882   -3.0538    1.3362 H   0  0  0  0  0  0  0  0  0  0  0  0
    5.7953   -5.5824    0.3000 H   0  0  0  0  0  0  0  0  0  0  0  0
    6.9857   -5.4177    1.5720 H   0  0  0  0  0  0  0  0  0  0  0  0
    5.7362   -5.7609    3.9520 H   0  0  0  0  0  0  0  0  0  0  0  0
    4.4603   -4.3445    5.5289 H   0  0  0  0  0  0  0  0  0  0  0  0
    3.4605   -2.1561    4.7326 H   0  0  0  0  0  0  0  0  0  0  0  0
    2.0796   -3.0856    0.3033 H   0  0  0  0  0  0  0  0  0  0  0  0
    2.7103   -1.5748   -0.2990 H   0  0  0  0  0  0  0  0  0  0  0  0
    2.9771   -4.2151   -1.5927 H   0  0  0  0  0  0  0  0  0  0  0  0
    2.1927   -2.7773   -2.2305 H   0  0  0  0  0  0  0  0  0  0  0  0
    5.3775   -3.2811   -4.1862 H   0  0  0  0  0  0  0  0  0  0  0  0
    3.6242   -3.1465   -4.3742 H   0  0  0  0  0  0  0  0  0  0  0  0
    4.3777   -4.5558   -3.6124 H   0  0  0  0  0  0  0  0  0  0  0  0
    5.3911   -0.9155   -2.9253 H   0  0  0  0  0  0  0  0  0  0  0  0
    4.2084   -0.6416   -1.7025 H   0  0  0  0  0  0  0  0  0  0  0  0
    3.7001   -0.8975   -3.3616 H   0  0  0  0  0  0  0  0  0  0  0  0
    5.1568   -4.2947   -1.2776 H   0  0  0  0  0  0  0  0  0  0  0  0
    7.0666   -3.9438   -2.7233 H   0  0  0  0  0  0  0  0  0  0  0  0
    7.3272   -2.3547   -2.1326 H   0  0  0  0  0  0  0  0  0  0  0  0
    9.4168   -3.6587   -1.2737 H   0  0  0  0  0  0  0  0  0  0  0  0
    9.3586   -3.5671    0.4960 H   0  0  0  0  0  0  0  0  0  0  0  0
    8.8986   -2.1571   -0.4690 H   0  0  0  0  0  0  0  0  0  0  0  0
  1  2  1  0
  1 23  1  0
  1 24  1  0
  1 25  1  0
  3  2  1  6
  3 12  1  0
  3 18  1  0
  3  4  1  0
  4 20  1  0
  4  5  1  0
  4 26  1  1
  5  6  1  0
  5 27  1  0
  5 28  1  0
  6 11  2  0
  6  7  1  0
  7  8  2  0
  7 29  1  0
  8  9  1  0
  8 30  1  0
  9 10  2  0
  9 31  1  0
 10 22  1  0
 10 11  1  0
 11 12  1  0
 12 13  1  0
 12 22  1  1
 13 14  1  0
 13 32  1  0
 13 33  1  0
 14 15  1  0
 14 34  1  0
 14 35  1  0
 15 16  1  0
 15 17  1  0
 15 18  1  0
 16 36  1  0
 16 37  1  0
 16 38  1  0
 17 39  1  0
 17 40  1  0
 17 41  1  0
 18 19  1  0
 18 42  1  1
 19 20  1  0
 19 43  1  0
 19 44  1  0
 20 21  1  0
 21 45  1  0
 21 46  1  0
 21 47  1  0
M  END
>  <i_m_ct_stereo_status>  (43) 
1

>  <s_m_source_file>  (43) 
/var/tmp/pbs.5076255.sched01/tmppfua8s0c/0korcpw03.sdf

>  <i_m_source_file_index>  (43) 
18

>  <i_lp_mmshare_version>  (43) 
48012

>  <i_f3d_flags>  (43) 
0

>  <s_epik_input>  (43) 
W0NIMl0xW0NIMl1DKFtDSDNdKShbQ0gzXSlbQ0BIXTJbQ0gyXU4oW0NIM10pW0NAQEhdKFtDQEBdMihbQ0BAXTEzNClPW0NIM10pW0NIMl1jNWMzYyhPNClbY0hdW2NIXVtjSF01

>  <s_epik_cmdline>  (43) 
J2VwaWtfcHl0aG9uJywgJy1waHQnLCAnMi4wJywgJy1waCcsICc3LjAnLCAnLXRuJywgJzgnLCAnLW1hJywgJzIwMCcsICctaW1hZScsICc8aW5maWxlLm1hZT4nLCAnLW9tYWUnLCAnPG91dGZpbGUubWFlPic=

>  <r_epik_Ionization_Penalty>  (43) 
1.93855

>  <r_epik_Ionization_Penalty_Charging>  (43) 
0

>  <r_epik_Ionization_Penalty_Neutral>  (43) 
1.93855

>  <r_epik_State_Penalty>  (43) 
2.06265

>  <r_epik_Charging_Adjusted_Penalty>  (43) 
2.06265

>  <i_epik_Tot_Q>  (43) 
0

>  <i_epik_Tot_abs_Q>  (43) 
0

>  <s_lp_Force_Field>  (43) 
OPLS3e

>  <r_lp_Energy>  (43) 
76.1087

>  <b_lp_Chiralities_Consistent>  (43) 
1

>  <s_lp_Variant>  (43) 
13:0-2

>  <s_i_glide_gridfile>  (43) 
pfpi4k_grid

>  <i_i_glide_lignum>  (43) 
18

>  <i_i_glide_rotatable_bonds>  (43) 
1

>  <r_i_docking_score>  (43) 
-3.11523

>  <r_i_glide_ligand_efficiency>  (43) 
-0.141601

>  <r_i_glide_ligand_efficiency_sa>  (43) 
-0.396772

>  <r_i_glide_ligand_efficiency_ln>  (43) 
-0.761475

>  <r_i_glide_gscore>  (43) 
-3.11523

>  <r_i_glide_lipo>  (43) 
-0.663421

>  <r_i_glide_hbond>  (43) 
-0.0152982

>  <r_i_glide_metal>  (43) 
-0

>  <r_i_glide_rewards>  (43) 
-1.36768

>  <r_i_glide_evdw>  (43) 
-15.1721

>  <r_i_glide_ecoul>  (43) 
-2.06816

>  <r_i_glide_erotb>  (43) 
0

>  <r_i_glide_esite>  (43) 
0

>  <r_i_glide_emodel>  (43) 
-19.8033

>  <r_i_glide_energy>  (43) 
-17.2403

>  <r_i_glide_einternal>  (43) 
0.407412

>  <r_i_glide_intrahb_reward>  (43) 
-0

>  <i_i_glide_confnum>  (43) 
1

>  <i_i_glide_posenum>  (43) 
21

>  <r_i_glide_eff_state_penalty>  (43) 
0

>  <ligand_id>  (43) 
13

>  <original_smiles>  (43) 
COC12C3Cc4cccc5c4C1(CCC(C)(C)C2CN3C)O5

>  <smiles>  (43) 
[H]c1c([H])c2c3c(c1[H])C([H])([H])C1([H])N(C([H])([H])[H])C([H])([H])C4([H])C1(OC([H])([H])[H])C3(O2)C([H])([H])C([H])([H])C4(C([H])([H])[H])C([H])([H])[H]

$$$$
13:1:1
     RDKit          3D

 47 51  0  0  1  0  0  0  0  0999 V2000
    5.9607   -0.9205    1.8899 C   0  0  0  0  0  0  0  0  0  0  0  0
    5.5739   -1.3726    0.6019 O   0  0  0  0  0  0  0  0  0  0  0  0
    5.2921   -2.7678    0.4354 C   0  0  1  0  0  0  0  0  0  0  0  0
    6.5263   -3.6612    0.8139 C   0  0  1  0  0  0  0  0  0  0  0  0
    6.1579   -5.1642    1.0241 C   0  0  0  0  0  0  0  0  0  0  0  0
    5.0257   -5.3816    2.0058 C   0  0  0  0  0  0  0  0  0  0  0  0
    5.0325   -5.9863    3.2839 C   0  0  0  0  0  0  0  0  0  0  0  0
    4.1806   -5.5056    4.3320 C   0  0  0  0  0  0  0  0  0  0  0  0
    3.4231   -4.2941    4.1988 C   0  0  0  0  0  0  0  0  0  0  0  0
    3.4286   -3.7163    2.9141 C   0  0  0  0  0  0  0  0  0  0  0  0
    4.0533   -4.4105    1.8186 C   0  0  0  0  0  0  0  0  0  0  0  0
    3.9029   -3.1521    1.0291 C   0  0  2  0  0  0  0  0  0  0  0  0
    2.6981   -3.0556    0.0613 C   0  0  0  0  0  0  0  0  0  0  0  0
    2.9595   -3.1637   -1.4608 C   0  0  0  0  0  0  0  0  0  0  0  0
    4.2332   -2.4461   -1.9499 C   0  0  0  0  0  0  0  0  0  0  0  0
    4.4575   -2.7624   -3.4399 C   0  0  0  0  0  0  0  0  0  0  0  0
    4.0787   -0.9156   -1.8117 C   0  0  0  0  0  0  0  0  0  0  0  0
    5.3514   -3.0536   -1.0825 C   0  0  1  0  0  0  0  0  0  0  0  0
    6.8283   -2.9191   -1.4071 C   0  0  0  0  0  0  0  0  0  0  0  0
    7.5178   -3.5173   -0.2640 N   0  0  0  0  0  0  0  0  0  0  0  0
    8.7155   -2.7895    0.1105 C   0  0  0  0  0  0  0  0  0  0  0  0
    3.3198   -2.5140    2.2740 O   0  0  0  0  0  0  0  0  0  0  0  0
    5.8162    0.1570    1.9223 H   0  0  0  0  0  0  0  0  0  0  0  0
    7.0101   -1.1156    2.0790 H   0  0  0  0  0  0  0  0  0  0  0  0
    5.3724   -1.3458    2.6987 H   0  0  0  0  0  0  0  0  0  0  0  0
    6.9492   -3.3132    1.7563 H   0  0  0  0  0  0  0  0  0  0  0  0
    5.9044   -5.6675    0.0918 H   0  0  0  0  0  0  0  0  0  0  0  0
    7.0392   -5.6845    1.4162 H   0  0  0  0  0  0  0  0  0  0  0  0
    5.7679   -6.7368    3.5152 H   0  0  0  0  0  0  0  0  0  0  0  0
    4.2223   -5.9860    5.2973 H   0  0  0  0  0  0  0  0  0  0  0  0
    2.9540   -3.8243    5.0384 H   0  0  0  0  0  0  0  0  0  0  0  0
    1.9061   -3.7417    0.3537 H   0  0  0  0  0  0  0  0  0  0  0  0
    2.2715   -2.0655    0.2076 H   0  0  0  0  0  0  0  0  0  0  0  0
    3.0505   -4.2295   -1.6730 H   0  0  0  0  0  0  0  0  0  0  0  0
    2.0880   -2.8237   -2.0184 H   0  0  0  0  0  0  0  0  0  0  0  0
    5.3461   -2.2596   -3.8040 H   0  0  0  0  0  0  0  0  0  0  0  0
    3.6157   -2.4202   -4.0443 H   0  0  0  0  0  0  0  0  0  0  0  0
    4.5796   -3.8305   -3.6165 H   0  0  0  0  0  0  0  0  0  0  0  0
    5.0085   -0.3842   -2.0111 H   0  0  0  0  0  0  0  0  0  0  0  0
    3.7486   -0.6516   -0.8067 H   0  0  0  0  0  0  0  0  0  0  0  0
    3.3149   -0.5362   -2.4950 H   0  0  0  0  0  0  0  0  0  0  0  0
    5.1795   -4.1238   -1.2055 H   0  0  0  0  0  0  0  0  0  0  0  0
    7.0977   -3.4354   -2.3312 H   0  0  0  0  0  0  0  0  0  0  0  0
    7.0847   -1.8637   -1.5193 H   0  0  0  0  0  0  0  0  0  0  0  0
    9.4131   -2.7699   -0.7213 H   0  0  0  0  0  0  0  0  0  0  0  0
    9.2150   -3.2764    0.9484 H   0  0  0  0  0  0  0  0  0  0  0  0
    8.5013   -1.7562    0.3920 H   0  0  0  0  0  0  0  0  0  0  0  0
  1  2  1  0
  1 23  1  0
  1 24  1  0
  1 25  1  0
  3  2  1  6
  3 12  1  0
  3 18  1  0
  3  4  1  0
  4 20  1  0
  4  5  1  0
  4 26  1  1
  5  6  1  0
  5 27  1  0
  5 28  1  0
  6 11  2  0
  6  7  1  0
  7  8  2  0
  7 29  1  0
  8  9  1  0
  8 30  1  0
  9 10  2  0
  9 31  1  0
 10 22  1  0
 10 11  1  0
 11 12  1  0
 12 13  1  0
 12 22  1  1
 13 14  1  0
 13 32  1  0
 13 33  1  0
 14 15  1  0
 14 34  1  0
 14 35  1  0
 15 16  1  0
 15 17  1  0
 15 18  1  0
 16 36  1  0
 16 37  1  0
 16 38  1  0
 17 39  1  0
 17 40  1  0
 17 41  1  0
 18 19  1  0
 18 42  1  1
 19 20  1  0
 19 43  1  0
 19 44  1  0
 20 21  1  0
 21 45  1  0
 21 46  1  0
 21 47  1  0
M  END
>  <i_m_ct_stereo_status>  (44) 
1

>  <s_m_source_file>  (44) 
/var/tmp/pbs.5076255.sched01/tmppfua8s0c/0korcpw03.sdf

>  <i_m_source_file_index>  (44) 
18

>  <i_lp_mmshare_version>  (44) 
48012

>  <i_f3d_flags>  (44) 
0

>  <s_epik_input>  (44) 
W0NIMl0xW0NIMl1DKFtDSDNdKShbQ0gzXSlbQ0BIXTJbQ0gyXU4oW0NIM10pW0NAQEhdKFtDQEBdMihbQ0BAXTEzNClPW0NIM10pW0NIMl1jNWMzYyhPNClbY0hdW2NIXVtjSF01

>  <s_epik_cmdline>  (44) 
J2VwaWtfcHl0aG9uJywgJy1waHQnLCAnMi4wJywgJy1waCcsICc3LjAnLCAnLXRuJywgJzgnLCAnLW1hJywgJzIwMCcsICctaW1hZScsICc8aW5maWxlLm1hZT4nLCAnLW9tYWUnLCAnPG91dGZpbGUubWFlPic=

>  <r_epik_Ionization_Penalty>  (44) 
1.93855

>  <r_epik_Ionization_Penalty_Charging>  (44) 
0

>  <r_epik_Ionization_Penalty_Neutral>  (44) 
1.93855

>  <r_epik_State_Penalty>  (44) 
2.06265

>  <r_epik_Charging_Adjusted_Penalty>  (44) 
2.06265

>  <i_epik_Tot_Q>  (44) 
0

>  <i_epik_Tot_abs_Q>  (44) 
0

>  <s_lp_Force_Field>  (44) 
OPLS3e

>  <r_lp_Energy>  (44) 
76.1087

>  <b_lp_Chiralities_Consistent>  (44) 
1

>  <s_lp_Variant>  (44) 
13:0-2

>  <s_i_glide_gridfile>  (44) 
pfpi4k_grid

>  <i_i_glide_lignum>  (44) 
18

>  <i_i_glide_rotatable_bonds>  (44) 
1

>  <r_i_docking_score>  (44) 
-2.96613

>  <r_i_glide_ligand_efficiency>  (44) 
-0.134824

>  <r_i_glide_ligand_efficiency_sa>  (44) 
-0.377782

>  <r_i_glide_ligand_efficiency_ln>  (44) 
-0.72503

>  <r_i_glide_gscore>  (44) 
-2.96613

>  <r_i_glide_lipo>  (44) 
-0.583536

>  <r_i_glide_hbond>  (44) 
0

>  <r_i_glide_metal>  (44) 
-0

>  <r_i_glide_rewards>  (44) 
-1.36768

>  <r_i_glide_evdw>  (44) 
-19.4531

>  <r_i_glide_ecoul>  (44) 
-0.281734

>  <r_i_glide_erotb>  (44) 
0

>  <r_i_glide_esite>  (44) 
0

>  <r_i_glide_emodel>  (44) 
-22.9151

>  <r_i_glide_energy>  (44) 
-19.7349

>  <r_i_glide_einternal>  (44) 
0.0125335

>  <r_i_glide_intrahb_reward>  (44) 
-0

>  <i_i_glide_confnum>  (44) 
1

>  <i_i_glide_posenum>  (44) 
5

>  <r_i_glide_eff_state_penalty>  (44) 
0

>  <ligand_id>  (44) 
13

>  <original_smiles>  (44) 
COC12C3Cc4cccc5c4C1(CCC(C)(C)C2CN3C)O5

>  <smiles>  (44) 
[H]c1c([H])c2c3c(c1[H])C([H])([H])C1([H])N(C([H])([H])[H])C([H])([H])C4([H])C1(OC([H])([H])[H])C3(O2)C([H])([H])C([H])([H])C4(C([H])([H])[H])C([H])([H])[H]

$$$$
13:1:2
     RDKit          3D

 47 51  0  0  1  0  0  0  0  0999 V2000
   -1.6436   -1.0428    5.4464 C   0  0  0  0  0  0  0  0  0  0  0  0
   -1.4414    0.0639    6.3158 O   0  0  0  0  0  0  0  0  0  0  0  0
   -0.2316    0.8235    6.1558 C   0  0  1  0  0  0  0  0  0  0  0  0
    1.0536   -0.0663    6.3326 C   0  0  1  0  0  0  0  0  0  0  0  0
    2.3582    0.6089    5.7930 C   0  0  0  0  0  0  0  0  0  0  0  0
    2.2352    1.0966    4.3666 C   0  0  0  0  0  0  0  0  0  0  0  0
    2.8969    0.6482    3.1970 C   0  0  0  0  0  0  0  0  0  0  0  0
    2.2248    0.6500    1.9309 C   0  0  0  0  0  0  0  0  0  0  0  0
    0.8262    0.9377    1.8164 C   0  0  0  0  0  0  0  0  0  0  0  0
    0.1999    1.3902    2.9900 C   0  0  0  0  0  0  0  0  0  0  0  0
    0.9841    1.6621    4.1589 C   0  0  0  0  0  0  0  0  0  0  0  0
   -0.3023    1.7714    4.9174 C   0  0  2  0  0  0  0  0  0  0  0  0
   -0.8690    3.1973    5.1682 C   0  0  0  0  0  0  0  0  0  0  0  0
   -0.7503    3.7870    6.5961 C   0  0  0  0  0  0  0  0  0  0  0  0
   -1.0447    2.7728    7.7230 C   0  0  0  0  0  0  0  0  0  0  0  0
   -0.7713    3.4362    9.0881 C   0  0  0  0  0  0  0  0  0  0  0  0
   -2.5290    2.3374    7.7000 C   0  0  0  0  0  0  0  0  0  0  0  0
   -0.0398    1.6340    7.4561 C   0  0  1  0  0  0  0  0  0  0  0  0
    0.3142    0.5713    8.4858 C   0  0  0  0  0  0  0  0  0  0  0  0
    1.1853   -0.3618    7.7703 N   0  0  0  0  0  0  0  0  0  0  0  0
    0.9462   -1.7499    8.1313 C   0  0  0  0  0  0  0  0  0  0  0  0
   -1.0130    1.4012    3.6312 O   0  0  0  0  0  0  0  0  0  0  0  0
   -2.6948   -1.3300    5.4871 H   0  0  0  0  0  0  0  0  0  0  0  0
   -1.0604   -1.9071    5.7646 H   0  0  0  0  0  0  0  0  0  0  0  0
   -1.4039   -0.8283    4.4082 H   0  0  0  0  0  0  0  0  0  0  0  0
    0.9387   -0.9919    5.7667 H   0  0  0  0  0  0  0  0  0  0  0  0
    2.6818    1.4485    6.4054 H   0  0  0  0  0  0  0  0  0  0  0  0
    3.1714   -0.1201    5.8256 H   0  0  0  0  0  0  0  0  0  0  0  0
    3.8678    0.1846    3.2705 H   0  0  0  0  0  0  0  0  0  0  0  0
    2.7470    0.2842    1.0594 H   0  0  0  0  0  0  0  0  0  0  0  0
    0.2812    0.7420    0.9073 H   0  0  0  0  0  0  0  0  0  0  0  0
   -0.4815    3.9030    4.4311 H   0  0  0  0  0  0  0  0  0  0  0  0
   -1.9413    3.1624    4.9665 H   0  0  0  0  0  0  0  0  0  0  0  0
    0.2659    4.1734    6.7095 H   0  0  0  0  0  0  0  0  0  0  0  0
   -1.3880    4.6600    6.6960 H   0  0  0  0  0  0  0  0  0  0  0  0
   -0.9707    2.7526    9.9126 H   0  0  0  0  0  0  0  0  0  0  0  0
   -1.4112    4.3071    9.2366 H   0  0  0  0  0  0  0  0  0  0  0  0
    0.2608    3.7725    9.1786 H   0  0  0  0  0  0  0  0  0  0  0  0
   -2.6982    1.5271    8.4050 H   0  0  0  0  0  0  0  0  0  0  0  0
   -2.8547    2.0009    6.7149 H   0  0  0  0  0  0  0  0  0  0  0  0
   -3.1880    3.1642    7.9733 H   0  0  0  0  0  0  0  0  0  0  0  0
    0.9000    2.1776    7.3530 H   0  0  0  0  0  0  0  0  0  0  0  0
    0.8350    0.9940    9.3477 H   0  0  0  0  0  0  0  0  0  0  0  0
   -0.5910    0.0808    8.8453 H   0  0  0  0  0  0  0  0  0  0  0  0
    1.1197   -1.9063    9.1977 H   0  0  0  0  0  0  0  0  0  0  0  0
    1.6231   -2.4092    7.5902 H   0  0  0  0  0  0  0  0  0  0  0  0
   -0.0752   -2.0544    7.9056 H   0  0  0  0  0  0  0  0  0  0  0  0
  1  2  1  0
  1 23  1  0
  1 24  1  0
  1 25  1  0
  3  2  1  1
  3 12  1  0
  3 18  1  0
  3  4  1  0
  4 20  1  0
  4  5  1  0
  4 26  1  6
  5  6  1  0
  5 27  1  0
  5 28  1  0
  6 11  2  0
  6  7  1  0
  7  8  2  0
  7 29  1  0
  8  9  1  0
  8 30  1  0
  9 10  2  0
  9 31  1  0
 10 22  1  0
 10 11  1  0
 11 12  1  0
 12 13  1  0
 12 22  1  6
 13 14  1  0
 13 32  1  0
 13 33  1  0
 14 15  1  0
 14 34  1  0
 14 35  1  0
 15 16  1  0
 15 17  1  0
 15 18  1  0
 16 36  1  0
 16 37  1  0
 16 38  1  0
 17 39  1  0
 17 40  1  0
 17 41  1  0
 18 19  1  0
 18 42  1  6
 19 20  1  0
 19 43  1  0
 19 44  1  0
 20 21  1  0
 21 45  1  0
 21 46  1  0
 21 47  1  0
M  END
>  <i_m_ct_stereo_status>  (45) 
1

>  <s_m_source_file>  (45) 
/var/tmp/pbs.5076255.sched01/tmppfua8s0c/0korcpw03.sdf

>  <i_m_source_file_index>  (45) 
18

>  <i_lp_mmshare_version>  (45) 
48012

>  <i_f3d_flags>  (45) 
0

>  <s_epik_input>  (45) 
W0NIMl0xW0NIMl1DKFtDSDNdKShbQ0gzXSlbQ0BIXTJbQ0gyXU4oW0NIM10pW0NAQEhdKFtDQEBdMihbQ0BAXTEzNClPW0NIM10pW0NIMl1jNWMzYyhPNClbY0hdW2NIXVtjSF01

>  <s_epik_cmdline>  (45) 
J2VwaWtfcHl0aG9uJywgJy1waHQnLCAnMi4wJywgJy1waCcsICc3LjAnLCAnLXRuJywgJzgnLCAnLW1hJywgJzIwMCcsICctaW1hZScsICc8aW5maWxlLm1hZT4nLCAnLW9tYWUnLCAnPG91dGZpbGUubWFlPic=

>  <r_epik_Ionization_Penalty>  (45) 
1.93855

>  <r_epik_Ionization_Penalty_Charging>  (45) 
0

>  <r_epik_Ionization_Penalty_Neutral>  (45) 
1.93855

>  <r_epik_State_Penalty>  (45) 
2.06265

>  <r_epik_Charging_Adjusted_Penalty>  (45) 
2.06265

>  <i_epik_Tot_Q>  (45) 
0

>  <i_epik_Tot_abs_Q>  (45) 
0

>  <s_lp_Force_Field>  (45) 
OPLS3e

>  <r_lp_Energy>  (45) 
76.1087

>  <b_lp_Chiralities_Consistent>  (45) 
1

>  <s_lp_Variant>  (45) 
13:0-2

>  <s_i_glide_gridfile>  (45) 
pfpi4k_grid

>  <i_i_glide_lignum>  (45) 
18

>  <i_i_glide_rotatable_bonds>  (45) 
1

>  <r_i_docking_score>  (45) 
-2.46519

>  <r_i_glide_ligand_efficiency>  (45) 
-0.112054

>  <r_i_glide_ligand_efficiency_sa>  (45) 
-0.31398

>  <r_i_glide_ligand_efficiency_ln>  (45) 
-0.602582

>  <r_i_glide_gscore>  (45) 
-2.46519

>  <r_i_glide_lipo>  (45) 
-0.031144

>  <r_i_glide_hbond>  (45) 
-0.157388

>  <r_i_glide_metal>  (45) 
-0

>  <r_i_glide_rewards>  (45) 
-1.36768

>  <r_i_glide_evdw>  (45) 
-15.9132

>  <r_i_glide_ecoul>  (45) 
-0.755455

>  <r_i_glide_erotb>  (45) 
0

>  <r_i_glide_esite>  (45) 
0

>  <r_i_glide_emodel>  (45) 
-19.3112

>  <r_i_glide_energy>  (45) 
-16.6687

>  <r_i_glide_einternal>  (45) 
0.01886

>  <r_i_glide_intrahb_reward>  (45) 
-0

>  <i_i_glide_confnum>  (45) 
1

>  <i_i_glide_posenum>  (45) 
2

>  <r_i_glide_eff_state_penalty>  (45) 
0

>  <ligand_id>  (45) 
13

>  <original_smiles>  (45) 
COC12C3Cc4cccc5c4C1(CCC(C)(C)C2CN3C)O5

>  <smiles>  (45) 
[H]c1c([H])c2c3c(c1[H])C([H])([H])C1([H])N(C([H])([H])[H])C([H])([H])C4([H])C1(OC([H])([H])[H])C3(O2)C([H])([H])C([H])([H])C4(C([H])([H])[H])C([H])([H])[H]

$$$$
14:0:0
     RDKit          3D

 30 32  0  0  1  0  0  0  0  0999 V2000
    0.1240    0.9420    1.7182 C   0  0  0  0  0  0  0  0  0  0  0  0
   -0.0570    1.8138    2.8737 N   0  0  0  0  0  0  0  0  0  0  0  0
   -0.6455    1.3563    4.0636 C   0  0  0  0  0  0  0  0  0  0  0  0
   -1.0193    0.0572    4.1353 N   0  0  0  0  0  0  0  0  0  0  0  0
   -1.5682   -0.3585    5.2709 C   0  0  0  0  0  0  0  0  0  0  0  0
   -1.7852    0.3692    6.3668 N   0  0  0  0  0  0  0  0  0  0  0  0
   -1.4192    1.6720    6.3237 C   0  0  0  0  0  0  0  0  0  0  0  0
   -1.6027    2.5049    7.4461 C   0  0  0  0  0  0  0  0  0  0  0  0
   -1.2050    3.8644    7.4005 C   0  0  0  0  0  0  0  0  0  0  0  0
   -1.3709    4.7419    8.4527 O   0  0  0  0  0  0  0  0  0  0  0  0
   -1.9853    4.2807    9.6460 C   0  0  0  0  0  0  0  0  0  0  0  0
   -0.6135    4.3339    6.2025 C   0  0  0  0  0  0  0  0  0  0  0  0
   -0.1576    5.7164    6.0226 C   0  0  0  0  0  0  0  0  0  0  0  0
   -0.1849    6.8321    6.8246 C   0  0  0  0  0  0  0  0  0  0  0  0
    0.3405    7.9022    6.1151 N   0  0  0  0  0  0  0  0  0  0  0  0
    0.7187    7.3850    4.9503 C   0  0  0  0  0  0  0  0  0  0  0  0
    0.4113    6.0661    4.8207 O   0  0  0  0  0  0  0  0  0  0  0  0
   -0.4457    3.5417    5.1194 N   0  0  0  0  0  0  0  0  0  0  0  0
   -0.8267    2.2433    5.1595 C   0  0  0  0  0  0  0  0  0  0  0  0
    0.5720    1.5073    0.9030 H   0  0  0  0  0  0  0  0  0  0  0  0
   -0.8308    0.5549    1.3632 H   0  0  0  0  0  0  0  0  0  0  0  0
    0.7833    0.1038    1.9494 H   0  0  0  0  0  0  0  0  0  0  0  0
   -1.8659   -1.3952    5.3064 H   0  0  0  0  0  0  0  0  0  0  0  0
   -2.0485    2.0804    8.3333 H   0  0  0  0  0  0  0  0  0  0  0  0
   -2.0197    5.1025   10.3609 H   0  0  0  0  0  0  0  0  0  0  0  0
   -1.4186    3.4699   10.1047 H   0  0  0  0  0  0  0  0  0  0  0  0
   -3.0111    3.9583    9.4667 H   0  0  0  0  0  0  0  0  0  0  0  0
   -0.5729    6.9759    7.8234 H   0  0  0  0  0  0  0  0  0  0  0  0
    1.1943    7.9486    4.1617 H   0  0  0  0  0  0  0  0  0  0  0  0
    0.1876    2.7963    2.7871 H   0  0  0  0  0  0  0  0  0  0  0  0
  1  2  1  0
  1 20  1  0
  1 21  1  0
  1 22  1  0
  2  3  1  0
  2 30  1  0
  3 19  2  0
  3  4  1  0
  4  5  2  0
  5  6  1  0
  5 23  1  0
  6  7  2  0
  7 19  1  0
  7  8  1  0
  8  9  2  0
  8 24  1  0
  9 10  1  0
  9 12  1  0
 10 11  1  0
 11 25  1  0
 11 26  1  0
 11 27  1  0
 12 13  1  0
 12 18  2  0
 13 17  1  0
 13 14  2  0
 14 15  1  0
 14 28  1  0
 15 16  2  0
 16 17  1  0
 16 29  1  0
 18 19  1  0
M  END
>  <i_m_ct_stereo_status>  (46) 
1

>  <s_m_source_file>  (46) 
/var/tmp/pbs.5076255.sched01/tmppfua8s0c/0korcpw03.sdf

>  <i_m_source_file_index>  (46) 
19

>  <i_lp_mmshare_version>  (46) 
48012

>  <i_f3d_flags>  (46) 
0

>  <s_epik_input>  (46) 
bjFbY0hdW25IXVxjKD1OXFtDSDNdKWMoYzEyKW5jKGMoW2NIXTIpT1tDSDNdKS1jM1tjSF1uW2NIXW8z

>  <s_epik_cmdline>  (46) 
J2VwaWtfcHl0aG9uJywgJy1waHQnLCAnMi4wJywgJy1waCcsICc3LjAnLCAnLXRuJywgJzgnLCAnLW1hJywgJzIwMCcsICctaW1hZScsICc8aW5maWxlLm1hZT4nLCAnLW9tYWUnLCAnPG91dGZpbGUubWFlPic=

>  <r_epik_Ionization_Penalty>  (46) 
0.0232906

>  <r_epik_Ionization_Penalty_Charging>  (46) 
0

>  <r_epik_Ionization_Penalty_Neutral>  (46) 
0.0232906

>  <r_epik_State_Penalty>  (46) 
0.0188105

>  <r_epik_Charging_Adjusted_Penalty>  (46) 
0.0188105

>  <i_epik_Tot_Q>  (46) 
0

>  <i_epik_Tot_abs_Q>  (46) 
0

>  <s_lp_Force_Field>  (46) 
OPLS3e

>  <r_lp_Energy>  (46) 
28.6987

>  <b_lp_Chiralities_Consistent>  (46) 
1

>  <s_lp_Variant>  (46) 
14:0-1

>  <s_i_glide_gridfile>  (46) 
pfpi4k_grid

>  <i_i_glide_lignum>  (46) 
19

>  <i_i_glide_rotatable_bonds>  (46) 
3

>  <r_i_docking_score>  (46) 
-3.21821

>  <r_i_glide_ligand_efficiency>  (46) 
-0.169379

>  <r_i_glide_ligand_efficiency_sa>  (46) 
-0.451972

>  <r_i_glide_ligand_efficiency_ln>  (46) 
-0.815885

>  <r_i_glide_gscore>  (46) 
-3.21821

>  <r_i_glide_lipo>  (46) 
-0.0117563

>  <r_i_glide_hbond>  (46) 
-0.16

>  <r_i_glide_metal>  (46) 
-0

>  <r_i_glide_rewards>  (46) 
-1.65513

>  <r_i_glide_evdw>  (46) 
-18.1199

>  <r_i_glide_ecoul>  (46) 
-4.26159

>  <r_i_glide_erotb>  (46) 
0.26659

>  <r_i_glide_esite>  (46) 
-0.112684

>  <r_i_glide_emodel>  (46) 
-27.5186

>  <r_i_glide_energy>  (46) 
-22.3814

>  <r_i_glide_einternal>  (46) 
0.116536

>  <r_i_glide_intrahb_reward>  (46) 
-0

>  <i_i_glide_confnum>  (46) 
4

>  <i_i_glide_posenum>  (46) 
39

>  <r_i_glide_eff_state_penalty>  (46) 
0

>  <ligand_id>  (46) 
14

>  <original_smiles>  (46) 
CN=c1[nH]cnc2cc(OC)c(-c3cnco3)nc12

>  <smiles>  (46) 
[H]c1nc(N([H])C([H])([H])[H])c2nc(-c3oc([H])nc3[H])c(OC([H])([H])[H])c([H])c2n1

$$$$
14:0:1
     RDKit          3D

 30 32  0  0  1  0  0  0  0  0999 V2000
    2.3691   -2.8467   -4.1903 C   0  0  0  0  0  0  0  0  0  0  0  0
    2.4203   -3.2114   -2.7836 N   0  0  0  0  0  0  0  0  0  0  0  0
    3.3270   -2.6294   -1.8927 C   0  0  0  0  0  0  0  0  0  0  0  0
    4.1225   -1.6401   -2.3613 N   0  0  0  0  0  0  0  0  0  0  0  0
    4.9486   -1.0764   -1.4917 C   0  0  0  0  0  0  0  0  0  0  0  0
    5.1124   -1.4071   -0.2140 N   0  0  0  0  0  0  0  0  0  0  0  0
    4.3357   -2.4008    0.2755 C   0  0  0  0  0  0  0  0  0  0  0  0
    4.4410   -2.7959    1.6257 C   0  0  0  0  0  0  0  0  0  0  0  0
    3.6298   -3.8431    2.1309 C   0  0  0  0  0  0  0  0  0  0  0  0
    3.6756   -4.2858    3.4380 O   0  0  0  0  0  0  0  0  0  0  0  0
    4.5962   -3.6838    4.3344 C   0  0  0  0  0  0  0  0  0  0  0  0
    2.7302   -4.4613    1.2313 C   0  0  0  0  0  0  0  0  0  0  0  0
    1.8383   -5.5566    1.6224 C   0  0  0  0  0  0  0  0  0  0  0  0
    1.4683   -6.0742    2.8409 C   0  0  0  0  0  0  0  0  0  0  0  0
    0.5336   -7.0767    2.6178 N   0  0  0  0  0  0  0  0  0  0  0  0
    0.4506   -7.1754    1.2955 C   0  0  0  0  0  0  0  0  0  0  0  0
    1.1773   -6.2434    0.6296 O   0  0  0  0  0  0  0  0  0  0  0  0
    2.6137   -4.0763   -0.0622 N   0  0  0  0  0  0  0  0  0  0  0  0
    3.3906   -3.0771   -0.5440 C   0  0  0  0  0  0  0  0  0  0  0  0
    1.6163   -3.4533   -4.6928 H   0  0  0  0  0  0  0  0  0  0  0  0
    3.3225   -3.0165   -4.6902 H   0  0  0  0  0  0  0  0  0  0  0  0
    2.0923   -1.7991   -4.3089 H   0  0  0  0  0  0  0  0  0  0  0  0
    5.5649   -0.2779   -1.8699 H   0  0  0  0  0  0  0  0  0  0  0  0
    5.1525   -2.2772    2.2479 H   0  0  0  0  0  0  0  0  0  0  0  0
    4.4928   -4.1556    5.3109 H   0  0  0  0  0  0  0  0  0  0  0  0
    4.3988   -2.6187    4.4609 H   0  0  0  0  0  0  0  0  0  0  0  0
    5.6258   -3.8309    4.0082 H   0  0  0  0  0  0  0  0  0  0  0  0
    1.7574   -5.8037    3.8465 H   0  0  0  0  0  0  0  0  0  0  0  0
   -0.2293   -7.8403    0.7833 H   0  0  0  0  0  0  0  0  0  0  0  0
    1.8749   -3.9983   -2.4526 H   0  0  0  0  0  0  0  0  0  0  0  0
  1  2  1  0
  1 20  1  0
  1 21  1  0
  1 22  1  0
  2  3  1  0
  2 30  1  0
  3 19  2  0
  3  4  1  0
  4  5  2  0
  5  6  1  0
  5 23  1  0
  6  7  2  0
  7 19  1  0
  7  8  1  0
  8  9  2  0
  8 24  1  0
  9 10  1  0
  9 12  1  0
 10 11  1  0
 11 25  1  0
 11 26  1  0
 11 27  1  0
 12 13  1  0
 12 18  2  0
 13 17  1  0
 13 14  2  0
 14 15  1  0
 14 28  1  0
 15 16  2  0
 16 17  1  0
 16 29  1  0
 18 19  1  0
M  END
>  <i_m_ct_stereo_status>  (47) 
1

>  <s_m_source_file>  (47) 
/var/tmp/pbs.5076255.sched01/tmppfua8s0c/0korcpw03.sdf

>  <i_m_source_file_index>  (47) 
19

>  <i_lp_mmshare_version>  (47) 
48012

>  <i_f3d_flags>  (47) 
0

>  <s_epik_input>  (47) 
bjFbY0hdW25IXVxjKD1OXFtDSDNdKWMoYzEyKW5jKGMoW2NIXTIpT1tDSDNdKS1jM1tjSF1uW2NIXW8z

>  <s_epik_cmdline>  (47) 
J2VwaWtfcHl0aG9uJywgJy1waHQnLCAnMi4wJywgJy1waCcsICc3LjAnLCAnLXRuJywgJzgnLCAnLW1hJywgJzIwMCcsICctaW1hZScsICc8aW5maWxlLm1hZT4nLCAnLW9tYWUnLCAnPG91dGZpbGUubWFlPic=

>  <r_epik_Ionization_Penalty>  (47) 
0.0232906

>  <r_epik_Ionization_Penalty_Charging>  (47) 
0

>  <r_epik_Ionization_Penalty_Neutral>  (47) 
0.0232906

>  <r_epik_State_Penalty>  (47) 
0.0188105

>  <r_epik_Charging_Adjusted_Penalty>  (47) 
0.0188105

>  <i_epik_Tot_Q>  (47) 
0

>  <i_epik_Tot_abs_Q>  (47) 
0

>  <s_lp_Force_Field>  (47) 
OPLS3e

>  <r_lp_Energy>  (47) 
28.6987

>  <b_lp_Chiralities_Consistent>  (47) 
1

>  <s_lp_Variant>  (47) 
14:0-1

>  <s_i_glide_gridfile>  (47) 
pfpi4k_grid

>  <i_i_glide_lignum>  (47) 
19

>  <i_i_glide_rotatable_bonds>  (47) 
3

>  <r_i_docking_score>  (47) 
-3.195

>  <r_i_glide_ligand_efficiency>  (47) 
-0.168158

>  <r_i_glide_ligand_efficiency_sa>  (47) 
-0.448713

>  <r_i_glide_ligand_efficiency_ln>  (47) 
-0.810001

>  <r_i_glide_gscore>  (47) 
-3.195

>  <r_i_glide_lipo>  (47) 
-0.0910376

>  <r_i_glide_hbond>  (47) 
-0.179015

>  <r_i_glide_metal>  (47) 
-0

>  <r_i_glide_rewards>  (47) 
-1.65513

>  <r_i_glide_evdw>  (47) 
-23.0719

>  <r_i_glide_ecoul>  (47) 
-2.22888

>  <r_i_glide_erotb>  (47) 
0.26659

>  <r_i_glide_esite>  (47) 
-0.0484813

>  <r_i_glide_emodel>  (47) 
-30.3287

>  <r_i_glide_energy>  (47) 
-25.3008

>  <r_i_glide_einternal>  (47) 
0.216027

>  <r_i_glide_intrahb_reward>  (47) 
-0

>  <i_i_glide_confnum>  (47) 
4

>  <i_i_glide_posenum>  (47) 
2

>  <r_i_glide_eff_state_penalty>  (47) 
0

>  <ligand_id>  (47) 
14

>  <original_smiles>  (47) 
CN=c1[nH]cnc2cc(OC)c(-c3cnco3)nc12

>  <smiles>  (47) 
[H]c1nc(N([H])C([H])([H])[H])c2nc(-c3oc([H])nc3[H])c(OC([H])([H])[H])c([H])c2n1

$$$$
14:0:2
     RDKit          3D

 30 32  0  0  1  0  0  0  0  0999 V2000
   -1.4502   -7.3935    3.7724 C   0  0  0  0  0  0  0  0  0  0  0  0
   -0.6284   -7.3061    2.5619 N   0  0  0  0  0  0  0  0  0  0  0  0
    0.5856   -6.5961    2.5042 C   0  0  0  0  0  0  0  0  0  0  0  0
    1.2541   -6.8030    1.3498 N   0  0  0  0  0  0  0  0  0  0  0  0
    2.3857   -6.1339    1.1559 C   0  0  0  0  0  0  0  0  0  0  0  0
    2.9180   -5.2283    1.9724 N   0  0  0  0  0  0  0  0  0  0  0  0
    2.2708   -4.9721    3.1390 C   0  0  0  0  0  0  0  0  0  0  0  0
    2.7675   -3.9879    4.0379 C   0  0  0  0  0  0  0  0  0  0  0  0
    2.0481   -3.7307    5.2426 C   0  0  0  0  0  0  0  0  0  0  0  0
    2.4250   -2.8106    6.1967 O   0  0  0  0  0  0  0  0  0  0  0  0
    3.6064   -2.0850    5.9692 C   0  0  0  0  0  0  0  0  0  0  0  0
    0.8765   -4.4698    5.4715 C   0  0  0  0  0  0  0  0  0  0  0  0
    0.0044   -4.3339    6.6505 C   0  0  0  0  0  0  0  0  0  0  0  0
    0.1373   -3.6536    7.8359 C   0  0  0  0  0  0  0  0  0  0  0  0
   -1.0160   -3.8365    8.5655 N   0  0  0  0  0  0  0  0  0  0  0  0
   -1.7781   -4.6420    7.8415 C   0  0  0  0  0  0  0  0  0  0  0  0
   -1.2068   -4.9890    6.6572 O   0  0  0  0  0  0  0  0  0  0  0  0
    0.4087   -5.3951    4.6069 N   0  0  0  0  0  0  0  0  0  0  0  0
    1.0735   -5.6542    3.4653 C   0  0  0  0  0  0  0  0  0  0  0  0
   -2.2981   -8.0985    3.7089 H   0  0  0  0  0  0  0  0  0  0  0  0
   -1.8760   -6.4195    3.9606 H   0  0  0  0  0  0  0  0  0  0  0  0
   -0.8471   -7.6826    4.6261 H   0  0  0  0  0  0  0  0  0  0  0  0
    2.9109   -6.3307    0.2358 H   0  0  0  0  0  0  0  0  0  0  0  0
    3.6790   -3.4602    3.7688 H   0  0  0  0  0  0  0  0  0  0  0  0
    3.7447   -1.4232    6.8255 H   0  0  0  0  0  0  0  0  0  0  0  0
    3.5046   -1.4877    5.0585 H   0  0  0  0  0  0  0  0  0  0  0  0
    4.4574   -2.7687    5.8960 H   0  0  0  0  0  0  0  0  0  0  0  0
    0.9680   -3.0496    8.1840 H   0  0  0  0  0  0  0  0  0  0  0  0
   -2.7472   -5.0145    8.1858 H   0  0  0  0  0  0  0  0  0  0  0  0
   -0.7389   -8.0437    1.8654 H   0  0  0  0  0  0  0  0  0  0  0  0
  1  2  1  0
  1 20  1  0
  1 21  1  0
  1 22  1  0
  2  3  1  0
  2 30  1  0
  3 19  2  0
  3  4  1  0
  4  5  2  0
  5  6  1  0
  5 23  1  0
  6  7  2  0
  7 19  1  0
  7  8  1  0
  8  9  2  0
  8 24  1  0
  9 10  1  0
  9 12  1  0
 10 11  1  0
 11 25  1  0
 11 26  1  0
 11 27  1  0
 12 13  1  0
 12 18  2  0
 13 17  1  0
 13 14  2  0
 14 15  1  0
 14 28  1  0
 15 16  2  0
 16 17  1  0
 16 29  1  0
 18 19  1  0
M  END
>  <i_m_ct_stereo_status>  (48) 
1

>  <s_m_source_file>  (48) 
/var/tmp/pbs.5076255.sched01/tmppfua8s0c/0korcpw03.sdf

>  <i_m_source_file_index>  (48) 
19

>  <i_lp_mmshare_version>  (48) 
48012

>  <i_f3d_flags>  (48) 
0

>  <s_epik_input>  (48) 
bjFbY0hdW25IXVxjKD1OXFtDSDNdKWMoYzEyKW5jKGMoW2NIXTIpT1tDSDNdKS1jM1tjSF1uW2NIXW8z

>  <s_epik_cmdline>  (48) 
J2VwaWtfcHl0aG9uJywgJy1waHQnLCAnMi4wJywgJy1waCcsICc3LjAnLCAnLXRuJywgJzgnLCAnLW1hJywgJzIwMCcsICctaW1hZScsICc8aW5maWxlLm1hZT4nLCAnLW9tYWUnLCAnPG91dGZpbGUubWFlPic=

>  <r_epik_Ionization_Penalty>  (48) 
0.0232906

>  <r_epik_Ionization_Penalty_Charging>  (48) 
0

>  <r_epik_Ionization_Penalty_Neutral>  (48) 
0.0232906

>  <r_epik_State_Penalty>  (48) 
0.0188105

>  <r_epik_Charging_Adjusted_Penalty>  (48) 
0.0188105

>  <i_epik_Tot_Q>  (48) 
0

>  <i_epik_Tot_abs_Q>  (48) 
0

>  <s_lp_Force_Field>  (48) 
OPLS3e

>  <r_lp_Energy>  (48) 
28.6987

>  <b_lp_Chiralities_Consistent>  (48) 
1

>  <s_lp_Variant>  (48) 
14:0-1

>  <s_i_glide_gridfile>  (48) 
pfpi4k_grid

>  <i_i_glide_lignum>  (48) 
19

>  <i_i_glide_rotatable_bonds>  (48) 
3

>  <r_i_docking_score>  (48) 
-3.0269

>  <r_i_glide_ligand_efficiency>  (48) 
-0.159311

>  <r_i_glide_ligand_efficiency_sa>  (48) 
-0.425105

>  <r_i_glide_ligand_efficiency_ln>  (48) 
-0.767385

>  <r_i_glide_gscore>  (48) 
-3.0269

>  <r_i_glide_lipo>  (48) 
-0.000347764

>  <r_i_glide_hbond>  (48) 
-0.0639457

>  <r_i_glide_metal>  (48) 
-0

>  <r_i_glide_rewards>  (48) 
-1.65513

>  <r_i_glide_evdw>  (48) 
-17.4692

>  <r_i_glide_ecoul>  (48) 
-3.94715

>  <r_i_glide_erotb>  (48) 
0.26659

>  <r_i_glide_esite>  (48) 
-0.10854

>  <r_i_glide_emodel>  (48) 
-21.9921

>  <r_i_glide_energy>  (48) 
-21.4164

>  <r_i_glide_einternal>  (48) 
6.29702

>  <r_i_glide_intrahb_reward>  (48) 
-0

>  <i_i_glide_confnum>  (48) 
2

>  <i_i_glide_posenum>  (48) 
4

>  <r_i_glide_eff_state_penalty>  (48) 
0

>  <ligand_id>  (48) 
14

>  <original_smiles>  (48) 
CN=c1[nH]cnc2cc(OC)c(-c3cnco3)nc12

>  <smiles>  (48) 
[H]c1nc(N([H])C([H])([H])[H])c2nc(-c3oc([H])nc3[H])c(OC([H])([H])[H])c([H])c2n1

$$$$
14:1:0
     RDKit          3D

 31 33  0  0  1  0  0  0  0  0999 V2000
    2.6298    0.6503    6.3909 C   0  0  0  0  0  0  0  0  0  0  0  0
    2.3262   -0.3643    5.3779 N   0  0  0  0  0  0  0  0  0  0  0  0
    1.7503    0.0187    4.1546 C   0  0  0  0  0  0  0  0  0  0  0  0
    2.3505   -0.4338    3.0378 N   0  0  0  0  0  0  0  0  0  0  0  0
    1.8316   -0.1360    1.8402 C   0  0  0  0  0  0  0  0  0  0  0  0
    0.7040    0.5714    1.6832 N   0  0  0  0  0  0  0  0  0  0  0  0
    0.0616    1.0459    2.7897 C   0  0  0  0  0  0  0  0  0  0  0  0
   -1.1382    1.7684    2.6591 C   0  0  0  0  0  0  0  0  0  0  0  0
   -1.8041    2.2236    3.8324 C   0  0  0  0  0  0  0  0  0  0  0  0
   -2.9782    2.9507    3.8178 O   0  0  0  0  0  0  0  0  0  0  0  0
   -3.4994    3.3758    2.5723 C   0  0  0  0  0  0  0  0  0  0  0  0
   -1.2360    1.8852    5.0843 C   0  0  0  0  0  0  0  0  0  0  0  0
   -1.7893    2.2923    6.3706 C   0  0  0  0  0  0  0  0  0  0  0  0
   -2.9435    2.9360    6.7316 C   0  0  0  0  0  0  0  0  0  0  0  0
   -2.9644    3.0638    8.1125 N   0  0  0  0  0  0  0  0  0  0  0  0
   -1.8188    2.5350    8.5301 C   0  0  0  0  0  0  0  0  0  0  0  0
   -1.0724    2.0214    7.5120 O   0  0  0  0  0  0  0  0  0  0  0  0
   -0.1099    1.1666    5.1961 N   0  0  0  0  0  0  0  0  0  0  0  0
    0.5586    0.7721    4.0938 C   0  0  0  0  0  0  0  0  0  0  0  0
    3.1290    0.1843    7.2455 H   0  0  0  0  0  0  0  0  0  0  0  0
    1.7252    1.1117    6.7932 H   0  0  0  0  0  0  0  0  0  0  0  0
    3.2686    1.4500    5.9981 H   0  0  0  0  0  0  0  0  0  0  0  0
    2.3091   -0.4980    0.9473 H   0  0  0  0  0  0  0  0  0  0  0  0
   -1.5210    1.9325    1.6749 H   0  0  0  0  0  0  0  0  0  0  0  0
   -4.4251    3.9145    2.7682 H   0  0  0  0  0  0  0  0  0  0  0  0
   -3.7475    2.5377    1.9279 H   0  0  0  0  0  0  0  0  0  0  0  0
   -2.7988    4.0435    2.0726 H   0  0  0  0  0  0  0  0  0  0  0  0
   -3.7626    3.3004    6.1172 H   0  0  0  0  0  0  0  0  0  0  0  0
   -1.5351    2.4719    9.5727 H   0  0  0  0  0  0  0  0  0  0  0  0
    2.8169   -1.2541    5.4144 H   0  0  0  0  0  0  0  0  0  0  0  0
    0.3205    0.7035    0.7372 H   0  0  0  0  0  0  0  0  0  0  0  0
  1  2  1  0
  1 20  1  0
  1 21  1  0
  1 22  1  0
  2  3  1  0
  2 30  1  0
  3 19  2  0
  3  4  1  0
  4  5  2  0
  5  6  1  0
  5 23  1  0
  6  7  2  0
  6 31  1  0
  7 19  1  0
  7  8  1  0
  8  9  2  0
  8 24  1  0
  9 10  1  0
  9 12  1  0
 10 11  1  0
 11 25  1  0
 11 26  1  0
 11 27  1  0
 12 13  1  0
 12 18  2  0
 13 17  1  0
 13 14  2  0
 14 15  1  0
 14 28  1  0
 15 16  2  0
 16 17  1  0
 16 29  1  0
 18 19  1  0
M  CHG  1   6   1
M  END
>  <i_m_ct_stereo_status>  (49) 
1

>  <s_m_source_file>  (49) 
/var/tmp/pbs.5076255.sched01/tmppfua8s0c/0korcpw03.sdf

>  <i_m_source_file_index>  (49) 
20

>  <i_lp_mmshare_version>  (49) 
48012

>  <i_f3d_flags>  (49) 
0

>  <s_epik_input>  (49) 
bjFbY0hdW25IXVxjKD1OXFtDSDNdKWMoYzEyKW5jKGMoW2NIXTIpT1tDSDNdKS1jM1tjSF1uW2NIXW8z

>  <s_epik_cmdline>  (49) 
J2VwaWtfcHl0aG9uJywgJy1waHQnLCAnMi4wJywgJy1waCcsICc3LjAnLCAnLXRuJywgJzgnLCAnLW1hJywgJzIwMCcsICctaW1hZScsICc8aW5maWxlLm1hZT4nLCAnLW9tYWUnLCAnPG91dGZpbGUubWFlPic=

>  <r_epik_Ionization_Penalty>  (49) 
1.93007

>  <r_epik_Ionization_Penalty_Charging>  (49) 
1.92995

>  <r_epik_Ionization_Penalty_Neutral>  (49) 
0.00012215

>  <r_epik_State_Penalty>  (49) 
2.0534

>  <r_epik_Charging_Adjusted_Penalty>  (49) 
3.98335

>  <i_epik_Tot_Q>  (49) 
1

>  <i_epik_Tot_abs_Q>  (49) 
1

>  <s_lp_Force_Field>  (49) 
OPLS3e

>  <r_lp_Energy>  (49) 
34.6239

>  <b_lp_Chiralities_Consistent>  (49) 
1

>  <s_lp_Variant>  (49) 
14:0-2

>  <s_i_glide_gridfile>  (49) 
pfpi4k_grid

>  <i_i_glide_lignum>  (49) 
20

>  <i_i_glide_rotatable_bonds>  (49) 
3

>  <r_i_docking_score>  (49) 
-3.58268

>  <r_i_glide_ligand_efficiency>  (49) 
-0.188562

>  <r_i_glide_ligand_efficiency_sa>  (49) 
-0.503159

>  <r_i_glide_ligand_efficiency_ln>  (49) 
-0.908286

>  <r_i_glide_gscore>  (49) 
-3.58268

>  <r_i_glide_lipo>  (49) 
-0.238821

>  <r_i_glide_hbond>  (49) 
-0.188845

>  <r_i_glide_metal>  (49) 
-0

>  <r_i_glide_rewards>  (49) 
-1.64825

>  <r_i_glide_evdw>  (49) 
-18.9732

>  <r_i_glide_ecoul>  (49) 
-4.415

>  <r_i_glide_erotb>  (49) 
0.264803

>  <r_i_glide_esite>  (49) 
-0.160653

>  <r_i_glide_emodel>  (49) 
-25.7338

>  <r_i_glide_energy>  (49) 
-23.3882

>  <r_i_glide_einternal>  (49) 
7.32217

>  <r_i_glide_intrahb_reward>  (49) 
-0

>  <i_i_glide_confnum>  (49) 
3

>  <i_i_glide_posenum>  (49) 
17

>  <r_i_glide_eff_state_penalty>  (49) 
0

>  <ligand_id>  (49) 
14

>  <original_smiles>  (49) 
CN=c1[nH]cnc2cc(OC)c(-c3cnco3)nc12

>  <smiles>  (49) 
[H]c1nc([H])c(-c2nc3c(N([H])C([H])([H])[H])nc([H])[n+]([H])c3c([H])c2OC([H])([H])[H])o1

$$$$
14:1:1
     RDKit          3D

 31 33  0  0  1  0  0  0  0  0999 V2000
    2.9512    0.8709    6.3510 C   0  0  0  0  0  0  0  0  0  0  0  0
    2.6559   -0.1625    5.3424 N   0  0  0  0  0  0  0  0  0  0  0  0
    2.0249    0.2213    4.1389 C   0  0  0  0  0  0  0  0  0  0  0  0
    2.6260   -0.1807    3.0113 N   0  0  0  0  0  0  0  0  0  0  0  0
    2.0515    0.0784    1.8300 C   0  0  0  0  0  0  0  0  0  0  0  0
    0.8811    0.7095    1.7080 N   0  0  0  0  0  0  0  0  0  0  0  0
    0.2421    1.1415    2.8286 C   0  0  0  0  0  0  0  0  0  0  0  0
   -1.0035    1.7723    2.7191 C   0  0  0  0  0  0  0  0  0  0  0  0
   -1.6742    2.1758    3.9095 C   0  0  0  0  0  0  0  0  0  0  0  0
   -2.8757    2.8569    3.9066 O   0  0  0  0  0  0  0  0  0  0  0  0
   -3.4211    3.2892    2.6690 C   0  0  0  0  0  0  0  0  0  0  0  0
   -1.0621    1.8598    5.1485 C   0  0  0  0  0  0  0  0  0  0  0  0
   -1.6332    2.2192    6.4303 C   0  0  0  0  0  0  0  0  0  0  0  0
   -1.0969    2.1520    7.6896 C   0  0  0  0  0  0  0  0  0  0  0  0
   -2.0680    2.5745    8.5874 N   0  0  0  0  0  0  0  0  0  0  0  0
   -3.1105    2.9234    7.8399 C   0  0  0  0  0  0  0  0  0  0  0  0
   -2.9049    2.7332    6.5079 O   0  0  0  0  0  0  0  0  0  0  0  0
    0.1223    1.2251    5.2386 N   0  0  0  0  0  0  0  0  0  0  0  0
    0.7919    0.8930    4.1234 C   0  0  0  0  0  0  0  0  0  0  0  0
    3.5272    0.4245    7.1749 H   0  0  0  0  0  0  0  0  0  0  0  0
    2.0424    1.2659    6.8224 H   0  0  0  0  0  0  0  0  0  0  0  0
    3.5119    1.7239    5.9331 H   0  0  0  0  0  0  0  0  0  0  0  0
    2.5388   -0.2590    0.9367 H   0  0  0  0  0  0  0  0  0  0  0  0
   -1.4101    1.9022    1.7017 H   0  0  0  0  0  0  0  0  0  0  0  0
   -4.3856    3.7448    2.8912 H   0  0  0  0  0  0  0  0  0  0  0  0
   -3.6075    2.4815    1.9613 H   0  0  0  0  0  0  0  0  0  0  0  0
   -2.7585    4.0390    2.2407 H   0  0  0  0  0  0  0  0  0  0  0  0
   -0.1188    1.8354    8.0482 H   0  0  0  0  0  0  0  0  0  0  0  0
   -4.0459    3.2938    8.2403 H   0  0  0  0  0  0  0  0  0  0  0  0
    3.2913   -0.9534    5.2679 H   0  0  0  0  0  0  0  0  0  0  0  0
    0.4476    0.7936    0.7740 H   0  0  0  0  0  0  0  0  0  0  0  0
  1  2  1  0
  1 20  1  0
  1 21  1  0
  1 22  1  0
  2  3  1  0
  2 30  1  0
  3 19  2  0
  3  4  1  0
  4  5  2  0
  5  6  1  0
  5 23  1  0
  6  7  2  0
  6 31  1  0
  7 19  1  0
  7  8  1  0
  8  9  2  0
  8 24  1  0
  9 10  1  0
  9 12  1  0
 10 11  1  0
 11 25  1  0
 11 26  1  0
 11 27  1  0
 12 13  1  0
 12 18  2  0
 13 17  1  0
 13 14  2  0
 14 15  1  0
 14 28  1  0
 15 16  2  0
 16 17  1  0
 16 29  1  0
 18 19  1  0
M  CHG  1   6   1
M  END
>  <i_m_ct_stereo_status>  (50) 
1

>  <s_m_source_file>  (50) 
/var/tmp/pbs.5076255.sched01/tmppfua8s0c/0korcpw03.sdf

>  <i_m_source_file_index>  (50) 
20

>  <i_lp_mmshare_version>  (50) 
48012

>  <i_f3d_flags>  (50) 
0

>  <s_epik_input>  (50) 
bjFbY0hdW25IXVxjKD1OXFtDSDNdKWMoYzEyKW5jKGMoW2NIXTIpT1tDSDNdKS1jM1tjSF1uW2NIXW8z

>  <s_epik_cmdline>  (50) 
J2VwaWtfcHl0aG9uJywgJy1waHQnLCAnMi4wJywgJy1waCcsICc3LjAnLCAnLXRuJywgJzgnLCAnLW1hJywgJzIwMCcsICctaW1hZScsICc8aW5maWxlLm1hZT4nLCAnLW9tYWUnLCAnPG91dGZpbGUubWFlPic=

>  <r_epik_Ionization_Penalty>  (50) 
1.93007

>  <r_epik_Ionization_Penalty_Charging>  (50) 
1.92995

>  <r_epik_Ionization_Penalty_Neutral>  (50) 
0.00012215

>  <r_epik_State_Penalty>  (50) 
2.0534

>  <r_epik_Charging_Adjusted_Penalty>  (50) 
3.98335

>  <i_epik_Tot_Q>  (50) 
1

>  <i_epik_Tot_abs_Q>  (50) 
1

>  <s_lp_Force_Field>  (50) 
OPLS3e

>  <r_lp_Energy>  (50) 
34.6239

>  <b_lp_Chiralities_Consistent>  (50) 
1

>  <s_lp_Variant>  (50) 
14:0-2

>  <s_i_glide_gridfile>  (50) 
pfpi4k_grid

>  <i_i_glide_lignum>  (50) 
20

>  <i_i_glide_rotatable_bonds>  (50) 
3

>  <r_i_docking_score>  (50) 
-3.23752

>  <r_i_glide_ligand_efficiency>  (50) 
-0.170396

>  <r_i_glide_ligand_efficiency_sa>  (50) 
-0.454684

>  <r_i_glide_ligand_efficiency_ln>  (50) 
-0.82078

>  <r_i_glide_gscore>  (50) 
-3.23752

>  <r_i_glide_lipo>  (50) 
-0.121426

>  <r_i_glide_hbond>  (50) 
-0.113227

>  <r_i_glide_metal>  (50) 
-0

>  <r_i_glide_rewards>  (50) 
-1.64825

>  <r_i_glide_evdw>  (50) 
-19.4307

>  <r_i_glide_ecoul>  (50) 
-3.41416

>  <r_i_glide_erotb>  (50) 
0.264803

>  <r_i_glide_esite>  (50) 
-0.135754

>  <r_i_glide_emodel>  (50) 
-25.1094

>  <r_i_glide_energy>  (50) 
-22.8449

>  <r_i_glide_einternal>  (50) 
7.47003

>  <r_i_glide_intrahb_reward>  (50) 
-0

>  <i_i_glide_confnum>  (50) 
1

>  <i_i_glide_posenum>  (50) 
18

>  <r_i_glide_eff_state_penalty>  (50) 
0

>  <ligand_id>  (50) 
14

>  <original_smiles>  (50) 
CN=c1[nH]cnc2cc(OC)c(-c3cnco3)nc12

>  <smiles>  (50) 
[H]c1nc([H])c(-c2nc3c(N([H])C([H])([H])[H])nc([H])[n+]([H])c3c([H])c2OC([H])([H])[H])o1

$$$$
14:1:2
     RDKit          3D

 31 33  0  0  1  0  0  0  0  0999 V2000
   -0.3570   -2.1096    4.8267 C   0  0  0  0  0  0  0  0  0  0  0  0
   -0.4943   -0.6855    5.1185 N   0  0  0  0  0  0  0  0  0  0  0  0
   -0.0995    0.2994    4.1974 C   0  0  0  0  0  0  0  0  0  0  0  0
    0.3357   -0.0916    2.9807 N   0  0  0  0  0  0  0  0  0  0  0  0
    0.6885    0.8320    2.0816 C   0  0  0  0  0  0  0  0  0  0  0  0
    0.6318    2.1449    2.3510 N   0  0  0  0  0  0  0  0  0  0  0  0
    0.2275    2.5861    3.5676 C   0  0  0  0  0  0  0  0  0  0  0  0
    0.1752    3.9665    3.8489 C   0  0  0  0  0  0  0  0  0  0  0  0
   -0.2596    4.3963    5.1272 C   0  0  0  0  0  0  0  0  0  0  0  0
   -0.3468    5.7215    5.4959 O   0  0  0  0  0  0  0  0  0  0  0  0
    0.2340    6.7181    4.6663 C   0  0  0  0  0  0  0  0  0  0  0  0
   -0.6461    3.3999    6.0641 C   0  0  0  0  0  0  0  0  0  0  0  0
   -1.1150    3.7105    7.4177 C   0  0  0  0  0  0  0  0  0  0  0  0
   -1.1438    4.8633    8.1634 C   0  0  0  0  0  0  0  0  0  0  0  0
   -1.7229    4.5770    9.3918 N   0  0  0  0  0  0  0  0  0  0  0  0
   -2.0013    3.2776    9.3503 C   0  0  0  0  0  0  0  0  0  0  0  0
   -1.6666    2.6965    8.1666 O   0  0  0  0  0  0  0  0  0  0  0  0
   -0.6123    2.0788    5.7756 N   0  0  0  0  0  0  0  0  0  0  0  0
   -0.1726    1.6644    4.5644 C   0  0  0  0  0  0  0  0  0  0  0  0
   -0.6936   -2.7003    5.6781 H   0  0  0  0  0  0  0  0  0  0  0  0
    0.6742   -2.3937    4.6069 H   0  0  0  0  0  0  0  0  0  0  0  0
   -0.9781   -2.3821    3.9778 H   0  0  0  0  0  0  0  0  0  0  0  0
    0.9948    0.5443    1.0865 H   0  0  0  0  0  0  0  0  0  0  0  0
    0.4620    4.6614    3.0677 H   0  0  0  0  0  0  0  0  0  0  0  0
    0.0694    7.6948    5.1241 H   0  0  0  0  0  0  0  0  0  0  0  0
   -0.2229    6.7435    3.6795 H   0  0  0  0  0  0  0  0  0  0  0  0
    1.3086    6.5783    4.5699 H   0  0  0  0  0  0  0  0  0  0  0  0
   -0.8083    5.8667    7.9396 H   0  0  0  0  0  0  0  0  0  0  0  0
   -2.4571    2.7292   10.1630 H   0  0  0  0  0  0  0  0  0  0  0  0
   -0.7782   -0.3735    6.0352 H   0  0  0  0  0  0  0  0  0  0  0  0
    0.8296    2.8485    1.6279 H   0  0  0  0  0  0  0  0  0  0  0  0
  1  2  1  0
  1 20  1  0
  1 21  1  0
  1 22  1  0
  2  3  1  0
  2 30  1  0
  3 19  2  0
  3  4  1  0
  4  5  2  0
  5  6  1  0
  5 23  1  0
  6  7  2  0
  6 31  1  0
  7 19  1  0
  7  8  1  0
  8  9  2  0
  8 24  1  0
  9 10  1  0
  9 12  1  0
 10 11  1  0
 11 25  1  0
 11 26  1  0
 11 27  1  0
 12 13  1  0
 12 18  2  0
 13 17  1  0
 13 14  2  0
 14 15  1  0
 14 28  1  0
 15 16  2  0
 16 17  1  0
 16 29  1  0
 18 19  1  0
M  CHG  1   6   1
M  END
>  <i_m_ct_stereo_status>  (51) 
1

>  <s_m_source_file>  (51) 
/var/tmp/pbs.5076255.sched01/tmppfua8s0c/0korcpw03.sdf

>  <i_m_source_file_index>  (51) 
20

>  <i_lp_mmshare_version>  (51) 
48012

>  <i_f3d_flags>  (51) 
0

>  <s_epik_input>  (51) 
bjFbY0hdW25IXVxjKD1OXFtDSDNdKWMoYzEyKW5jKGMoW2NIXTIpT1tDSDNdKS1jM1tjSF1uW2NIXW8z

>  <s_epik_cmdline>  (51) 
J2VwaWtfcHl0aG9uJywgJy1waHQnLCAnMi4wJywgJy1waCcsICc3LjAnLCAnLXRuJywgJzgnLCAnLW1hJywgJzIwMCcsICctaW1hZScsICc8aW5maWxlLm1hZT4nLCAnLW9tYWUnLCAnPG91dGZpbGUubWFlPic=

>  <r_epik_Ionization_Penalty>  (51) 
1.93007

>  <r_epik_Ionization_Penalty_Charging>  (51) 
1.92995

>  <r_epik_Ionization_Penalty_Neutral>  (51) 
0.00012215

>  <r_epik_State_Penalty>  (51) 
2.0534

>  <r_epik_Charging_Adjusted_Penalty>  (51) 
3.98335

>  <i_epik_Tot_Q>  (51) 
1

>  <i_epik_Tot_abs_Q>  (51) 
1

>  <s_lp_Force_Field>  (51) 
OPLS3e

>  <r_lp_Energy>  (51) 
34.6239

>  <b_lp_Chiralities_Consistent>  (51) 
1

>  <s_lp_Variant>  (51) 
14:0-2

>  <s_i_glide_gridfile>  (51) 
pfpi4k_grid

>  <i_i_glide_lignum>  (51) 
20

>  <i_i_glide_rotatable_bonds>  (51) 
3

>  <r_i_docking_score>  (51) 
-3.12226

>  <r_i_glide_ligand_efficiency>  (51) 
-0.16433

>  <r_i_glide_ligand_efficiency_sa>  (51) 
-0.438497

>  <r_i_glide_ligand_efficiency_ln>  (51) 
-0.791561

>  <r_i_glide_gscore>  (51) 
-3.12226

>  <r_i_glide_lipo>  (51) 
-0.0111092

>  <r_i_glide_hbond>  (51) 
-0.173541

>  <r_i_glide_metal>  (51) 
-0

>  <r_i_glide_rewards>  (51) 
-1.64825

>  <r_i_glide_evdw>  (51) 
-15.3559

>  <r_i_glide_ecoul>  (51) 
-4.01391

>  <r_i_glide_erotb>  (51) 
0.264803

>  <r_i_glide_esite>  (51) 
-0.18428

>  <r_i_glide_emodel>  (51) 
-25.5369

>  <r_i_glide_energy>  (51) 
-19.3698

>  <r_i_glide_einternal>  (51) 
0.373724

>  <r_i_glide_intrahb_reward>  (51) 
-0

>  <i_i_glide_confnum>  (51) 
4

>  <i_i_glide_posenum>  (51) 
1

>  <r_i_glide_eff_state_penalty>  (51) 
0

>  <ligand_id>  (51) 
14

>  <original_smiles>  (51) 
CN=c1[nH]cnc2cc(OC)c(-c3cnco3)nc12

>  <smiles>  (51) 
[H]c1nc([H])c(-c2nc3c(N([H])C([H])([H])[H])nc([H])[n+]([H])c3c([H])c2OC([H])([H])[H])o1

$$$$
15:0:0
     RDKit          3D

 34 36  0  0  1  0  0  0  0  0999 V2000
    5.5333   -4.4001    1.7649 O   0  0  0  0  0  0  0  0  0  0  0  0
    5.0763   -4.0589    0.6723 C   0  0  0  0  0  0  0  0  0  0  0  0
    6.1263   -3.4354   -0.6625 S   0  0  0  0  0  0  0  0  0  0  0  0
    4.7466   -3.2105   -1.6890 C   0  0  0  0  0  0  0  0  0  0  0  0
    4.7896   -2.7455   -3.0119 C   0  0  0  0  0  0  0  0  0  0  0  0
    3.5675   -2.6126   -3.7048 C   0  0  0  0  0  0  0  0  0  0  0  0
    2.3500   -2.9609   -3.0764 C   0  0  0  0  0  0  0  0  0  0  0  0
    2.3291   -3.4393   -1.7469 C   0  0  0  0  0  0  0  0  0  0  0  0
    3.5548   -3.5581   -1.0596 C   0  0  0  0  0  0  0  0  0  0  0  0
    3.7428   -4.0434    0.2547 N   0  0  0  0  0  0  0  0  0  0  0  0
    2.6421   -4.4094    1.1409 C   0  0  0  0  0  0  0  0  0  0  0  0
    2.1601   -5.8616    0.9194 C   0  0  0  0  0  0  0  0  0  0  0  0
    0.9924   -6.2227    1.7300 N   0  0  0  0  0  0  0  0  0  0  0  0
    1.3311   -6.2955    3.1520 C   0  0  0  0  0  0  0  0  0  0  0  0
    0.1285   -6.6768    4.0277 C   0  0  0  0  0  0  0  0  0  0  0  0
   -0.4213   -7.9083    3.5770 O   0  0  0  0  0  0  0  0  0  0  0  0
   -0.8050   -7.8779    2.2071 C   0  0  0  0  0  0  0  0  0  0  0  0
    0.4016   -7.4971    1.3243 C   0  0  0  0  0  0  0  0  0  0  0  0
    5.7380   -2.5119   -3.4779 H   0  0  0  0  0  0  0  0  0  0  0  0
    3.5489   -2.2460   -4.7183 H   0  0  0  0  0  0  0  0  0  0  0  0
    1.4195   -2.8611   -3.6230 H   0  0  0  0  0  0  0  0  0  0  0  0
    1.3884   -3.6965   -1.2796 H   0  0  0  0  0  0  0  0  0  0  0  0
    2.9630   -4.2677    2.1722 H   0  0  0  0  0  0  0  0  0  0  0  0
    1.8214   -3.7050    1.0033 H   0  0  0  0  0  0  0  0  0  0  0  0
    1.9167   -5.9828   -0.1358 H   0  0  0  0  0  0  0  0  0  0  0  0
    2.9750   -6.5644    1.1149 H   0  0  0  0  0  0  0  0  0  0  0  0
    2.1354   -7.0183    3.3031 H   0  0  0  0  0  0  0  0  0  0  0  0
    1.6982   -5.3353    3.5111 H   0  0  0  0  0  0  0  0  0  0  0  0
    0.4446   -6.7830    5.0650 H   0  0  0  0  0  0  0  0  0  0  0  0
   -0.6274   -5.8916    4.0054 H   0  0  0  0  0  0  0  0  0  0  0  0
   -1.1885   -8.8592    1.9289 H   0  0  0  0  0  0  0  0  0  0  0  0
   -1.6202   -7.1655    2.0812 H   0  0  0  0  0  0  0  0  0  0  0  0
    0.0721   -7.4437    0.2876 H   0  0  0  0  0  0  0  0  0  0  0  0
    1.1494   -8.2901    1.3746 H   0  0  0  0  0  0  0  0  0  0  0  0
  1  2  2  0
  2 10  1  0
  2  3  1  0
  3  4  1  0
  4  9  2  0
  4  5  1  0
  5  6  2  0
  5 19  1  0
  6  7  1  0
  6 20  1  0
  7  8  2  0
  7 21  1  0
  8  9  1  0
  8 22  1  0
  9 10  1  0
 10 11  1  0
 11 12  1  0
 11 23  1  0
 11 24  1  0
 12 13  1  0
 12 25  1  0
 12 26  1  0
 13 18  1  0
 13 14  1  0
 14 15  1  0
 14 27  1  0
 14 28  1  0
 15 16  1  0
 15 29  1  0
 15 30  1  0
 16 17  1  0
 17 18  1  0
 17 31  1  0
 17 32  1  0
 18 33  1  0
 18 34  1  0
M  END
>  <i_m_ct_stereo_status>  (52) 
1

>  <s_m_source_file>  (52) 
/var/tmp/pbs.5076255.sched01/tmppfua8s0c/0korcpw03.sdf

>  <i_m_source_file_index>  (52) 
21

>  <i_lp_mmshare_version>  (52) 
48012

>  <i_f3d_flags>  (52) 
0

>  <s_epik_input>  (52) 
W2NIXTFbY0hdW2NIXVtjSF1jKGMxMiluKGMoPU8pczIpW0NIMl1bQ0gyXU4zW0NIMl1bQ0gyXU9bQ0gyXVtDSDJdMw==

>  <s_epik_cmdline>  (52) 
J2VwaWtfcHl0aG9uJywgJy1waHQnLCAnMi4wJywgJy1waCcsICc3LjAnLCAnLXRuJywgJzgnLCAnLW1hJywgJzIwMCcsICctaW1hZScsICc8aW5maWxlLm1hZT4nLCAnLW9tYWUnLCAnPG91dGZpbGUubWFlPic=

>  <r_epik_Ionization_Penalty>  (52) 
0.00598928

>  <r_epik_Ionization_Penalty_Charging>  (52) 
1.22729e-06

>  <r_epik_Ionization_Penalty_Neutral>  (52) 
0.00598806

>  <r_epik_State_Penalty>  (52) 
0.00440714

>  <r_epik_Charging_Adjusted_Penalty>  (52) 
0.00440837

>  <i_epik_Tot_Q>  (52) 
0

>  <i_epik_Tot_abs_Q>  (52) 
0

>  <s_lp_Force_Field>  (52) 
OPLS3e

>  <r_lp_Energy>  (52) 
15.3478

>  <b_lp_Chiralities_Consistent>  (52) 
1

>  <s_lp_Variant>  (52) 
15:0-1

>  <s_i_glide_gridfile>  (52) 
pfpi4k_grid

>  <i_i_glide_lignum>  (52) 
21

>  <i_i_glide_rotatable_bonds>  (52) 
3

>  <r_i_docking_score>  (52) 
-3.24543

>  <r_i_glide_ligand_efficiency>  (52) 
-0.180302

>  <r_i_glide_ligand_efficiency_sa>  (52) 
-0.472524

>  <r_i_glide_ligand_efficiency_ln>  (52) 
-0.83422

>  <r_i_glide_gscore>  (52) 
-3.24543

>  <r_i_glide_lipo>  (52) 
-0.769676

>  <r_i_glide_hbond>  (52) 
-0.108283

>  <r_i_glide_metal>  (52) 
-0

>  <r_i_glide_rewards>  (52) 
-1.60674

>  <r_i_glide_evdw>  (52) 
-24.2484

>  <r_i_glide_ecoul>  (52) 
-2.06175

>  <r_i_glide_erotb>  (52) 
0.763142

>  <r_i_glide_esite>  (52) 
-0.0021825

>  <r_i_glide_emodel>  (52) 
-31.2663

>  <r_i_glide_energy>  (52) 
-26.3102

>  <r_i_glide_einternal>  (52) 
0.682653

>  <r_i_glide_intrahb_reward>  (52) 
-0

>  <i_i_glide_confnum>  (52) 
1

>  <i_i_glide_posenum>  (52) 
17

>  <r_i_glide_eff_state_penalty>  (52) 
0

>  <ligand_id>  (52) 
15

>  <original_smiles>  (52) 
O=c1sc2ccccc2n1CCN1CCOCC1

>  <smiles>  (52) 
[H]c1c([H])c([H])c2c(sc(=O)n2C([H])([H])C([H])([H])N2C([H])([H])C([H])([H])OC([H])([H])C2([H])[H])c1[H]

$$$$
15:0:1
     RDKit          3D

 34 36  0  0  1  0  0  0  0  0999 V2000
    5.3451   -2.8993    1.7253 O   0  0  0  0  0  0  0  0  0  0  0  0
    4.9155   -2.5855    0.6146 C   0  0  0  0  0  0  0  0  0  0  0  0
    5.4044   -1.0649   -0.2307 S   0  0  0  0  0  0  0  0  0  0  0  0
    4.3698   -1.4347   -1.5737 C   0  0  0  0  0  0  0  0  0  0  0  0
    4.2143   -0.6500   -2.7247 C   0  0  0  0  0  0  0  0  0  0  0  0
    3.3361   -1.0969   -3.7301 C   0  0  0  0  0  0  0  0  0  0  0  0
    2.6181   -2.3003   -3.5590 C   0  0  0  0  0  0  0  0  0  0  0  0
    2.7735   -3.0638   -2.3872 C   0  0  0  0  0  0  0  0  0  0  0  0
    3.6816   -2.6292   -1.4004 C   0  0  0  0  0  0  0  0  0  0  0  0
    3.9973   -3.2789   -0.1851 N   0  0  0  0  0  0  0  0  0  0  0  0
    3.3689   -4.5161    0.2676 C   0  0  0  0  0  0  0  0  0  0  0  0
    4.3403   -5.7171    0.2581 C   0  0  0  0  0  0  0  0  0  0  0  0
    3.8148   -6.8982    0.9414 N   0  0  0  0  0  0  0  0  0  0  0  0
    3.7473   -6.6951    2.3885 C   0  0  0  0  0  0  0  0  0  0  0  0
    3.2139   -7.9294    3.1264 C   0  0  0  0  0  0  0  0  0  0  0  0
    4.0303   -9.0522    2.8223 O   0  0  0  0  0  0  0  0  0  0  0  0
    4.0788   -9.3282    1.4270 C   0  0  0  0  0  0  0  0  0  0  0  0
    4.6126   -8.0943    0.6705 C   0  0  0  0  0  0  0  0  0  0  0  0
    4.7399    0.2859   -2.8186 H   0  0  0  0  0  0  0  0  0  0  0  0
    3.1954   -0.5179   -4.6285 H   0  0  0  0  0  0  0  0  0  0  0  0
    1.9331   -2.6431   -4.3210 H   0  0  0  0  0  0  0  0  0  0  0  0
    2.2020   -3.9702   -2.2800 H   0  0  0  0  0  0  0  0  0  0  0  0
    2.9753   -4.3114    1.2610 H   0  0  0  0  0  0  0  0  0  0  0  0
    2.4924   -4.7813   -0.3200 H   0  0  0  0  0  0  0  0  0  0  0  0
    4.5616   -5.9619   -0.7802 H   0  0  0  0  0  0  0  0  0  0  0  0
    5.2997   -5.4461    0.6948 H   0  0  0  0  0  0  0  0  0  0  0  0
    4.7389   -6.4392    2.7683 H   0  0  0  0  0  0  0  0  0  0  0  0
    3.0884   -5.8635    2.6330 H   0  0  0  0  0  0  0  0  0  0  0  0
    3.2334   -7.7487    4.2003 H   0  0  0  0  0  0  0  0  0  0  0  0
    2.1769   -8.1252    2.8479 H   0  0  0  0  0  0  0  0  0  0  0  0
    4.7360  -10.1831    1.2768 H   0  0  0  0  0  0  0  0  0  0  0  0
    3.0870   -9.6079    1.0661 H   0  0  0  0  0  0  0  0  0  0  0  0
    4.6115   -8.3034   -0.4002 H   0  0  0  0  0  0  0  0  0  0  0  0
    5.6518   -7.9226    0.9577 H   0  0  0  0  0  0  0  0  0  0  0  0
  1  2  2  0
  2 10  1  0
  2  3  1  0
  3  4  1  0
  4  9  2  0
  4  5  1  0
  5  6  2  0
  5 19  1  0
  6  7  1  0
  6 20  1  0
  7  8  2  0
  7 21  1  0
  8  9  1  0
  8 22  1  0
  9 10  1  0
 10 11  1  0
 11 12  1  0
 11 23  1  0
 11 24  1  0
 12 13  1  0
 12 25  1  0
 12 26  1  0
 13 18  1  0
 13 14  1  0
 14 15  1  0
 14 27  1  0
 14 28  1  0
 15 16  1  0
 15 29  1  0
 15 30  1  0
 16 17  1  0
 17 18  1  0
 17 31  1  0
 17 32  1  0
 18 33  1  0
 18 34  1  0
M  END
>  <i_m_ct_stereo_status>  (53) 
1

>  <s_m_source_file>  (53) 
/var/tmp/pbs.5076255.sched01/tmppfua8s0c/0korcpw03.sdf

>  <i_m_source_file_index>  (53) 
21

>  <i_lp_mmshare_version>  (53) 
48012

>  <i_f3d_flags>  (53) 
0

>  <s_epik_input>  (53) 
W2NIXTFbY0hdW2NIXVtjSF1jKGMxMiluKGMoPU8pczIpW0NIMl1bQ0gyXU4zW0NIMl1bQ0gyXU9bQ0gyXVtDSDJdMw==

>  <s_epik_cmdline>  (53) 
J2VwaWtfcHl0aG9uJywgJy1waHQnLCAnMi4wJywgJy1waCcsICc3LjAnLCAnLXRuJywgJzgnLCAnLW1hJywgJzIwMCcsICctaW1hZScsICc8aW5maWxlLm1hZT4nLCAnLW9tYWUnLCAnPG91dGZpbGUubWFlPic=

>  <r_epik_Ionization_Penalty>  (53) 
0.00598928

>  <r_epik_Ionization_Penalty_Charging>  (53) 
1.22729e-06

>  <r_epik_Ionization_Penalty_Neutral>  (53) 
0.00598806

>  <r_epik_State_Penalty>  (53) 
0.00440714

>  <r_epik_Charging_Adjusted_Penalty>  (53) 
0.00440837

>  <i_epik_Tot_Q>  (53) 
0

>  <i_epik_Tot_abs_Q>  (53) 
0

>  <s_lp_Force_Field>  (53) 
OPLS3e

>  <r_lp_Energy>  (53) 
15.3478

>  <b_lp_Chiralities_Consistent>  (53) 
1

>  <s_lp_Variant>  (53) 
15:0-1

>  <s_i_glide_gridfile>  (53) 
pfpi4k_grid

>  <i_i_glide_lignum>  (53) 
21

>  <i_i_glide_rotatable_bonds>  (53) 
3

>  <r_i_docking_score>  (53) 
-3.0689

>  <r_i_glide_ligand_efficiency>  (53) 
-0.170494

>  <r_i_glide_ligand_efficiency_sa>  (53) 
-0.446822

>  <r_i_glide_ligand_efficiency_ln>  (53) 
-0.788845

>  <r_i_glide_gscore>  (53) 
-3.0689

>  <r_i_glide_lipo>  (53) 
-0.647382

>  <r_i_glide_hbond>  (53) 
0

>  <r_i_glide_metal>  (53) 
-0

>  <r_i_glide_rewards>  (53) 
-1.64514

>  <r_i_glide_evdw>  (53) 
-25.3758

>  <r_i_glide_ecoul>  (53) 
-1.80486

>  <r_i_glide_erotb>  (53) 
0.763142

>  <r_i_glide_esite>  (53) 
0

>  <r_i_glide_emodel>  (53) 
-31.8778

>  <r_i_glide_energy>  (53) 
-27.1807

>  <r_i_glide_einternal>  (53) 
0.541504

>  <r_i_glide_intrahb_reward>  (53) 
-0

>  <i_i_glide_confnum>  (53) 
1

>  <i_i_glide_posenum>  (53) 
2

>  <r_i_glide_eff_state_penalty>  (53) 
0

>  <ligand_id>  (53) 
15

>  <original_smiles>  (53) 
O=c1sc2ccccc2n1CCN1CCOCC1

>  <smiles>  (53) 
[H]c1c([H])c([H])c2c(sc(=O)n2C([H])([H])C([H])([H])N2C([H])([H])C([H])([H])OC([H])([H])C2([H])[H])c1[H]

$$$$
15:0:2
     RDKit          3D

 34 36  0  0  1  0  0  0  0  0999 V2000
    1.2092   -3.0634    4.8270 O   0  0  0  0  0  0  0  0  0  0  0  0
    0.6567   -1.9842    4.6204 C   0  0  0  0  0  0  0  0  0  0  0  0
   -0.5613   -1.2824    5.7587 S   0  0  0  0  0  0  0  0  0  0  0  0
   -0.7786    0.1015    4.7411 C   0  0  0  0  0  0  0  0  0  0  0  0
   -1.6377    1.1794    5.0076 C   0  0  0  0  0  0  0  0  0  0  0  0
   -1.7103    2.2142    4.0532 C   0  0  0  0  0  0  0  0  0  0  0  0
   -0.9374    2.1480    2.8719 C   0  0  0  0  0  0  0  0  0  0  0  0
   -0.0735    1.0604    2.6252 C   0  0  0  0  0  0  0  0  0  0  0  0
    0.0035    0.0349    3.5891 C   0  0  0  0  0  0  0  0  0  0  0  0
    0.8108   -1.1262    3.5258 N   0  0  0  0  0  0  0  0  0  0  0  0
    1.6753   -1.4519    2.3906 C   0  0  0  0  0  0  0  0  0  0  0  0
    3.1140   -0.9423    2.5838 C   0  0  0  0  0  0  0  0  0  0  0  0
    4.0356   -1.3874    1.5373 N   0  0  0  0  0  0  0  0  0  0  0  0
    5.4270   -1.3633    1.9707 C   0  0  0  0  0  0  0  0  0  0  0  0
    6.3793   -1.8473    0.8605 C   0  0  0  0  0  0  0  0  0  0  0  0
    6.2075   -1.0565   -0.3106 O   0  0  0  0  0  0  0  0  0  0  0  0
    4.8661   -1.0809   -0.7925 C   0  0  0  0  0  0  0  0  0  0  0  0
    3.9020   -0.6055    0.3098 C   0  0  0  0  0  0  0  0  0  0  0  0
   -2.2221    1.2142    5.9157 H   0  0  0  0  0  0  0  0  0  0  0  0
   -2.3563    3.0592    4.2232 H   0  0  0  0  0  0  0  0  0  0  0  0
   -0.9948    2.9437    2.1413 H   0  0  0  0  0  0  0  0  0  0  0  0
    0.5046    1.0295    1.7127 H   0  0  0  0  0  0  0  0  0  0  0  0
    1.7003   -2.5328    2.2484 H   0  0  0  0  0  0  0  0  0  0  0  0
    1.2481   -1.0641    1.4700 H   0  0  0  0  0  0  0  0  0  0  0  0
    3.1148    0.1464    2.6438 H   0  0  0  0  0  0  0  0  0  0  0  0
    3.4676   -1.2914    3.5520 H   0  0  0  0  0  0  0  0  0  0  0  0
    5.7079   -0.3567    2.2843 H   0  0  0  0  0  0  0  0  0  0  0  0
    5.5447   -2.0101    2.8414 H   0  0  0  0  0  0  0  0  0  0  0  0
    7.4140   -1.7697    1.1905 H   0  0  0  0  0  0  0  0  0  0  0  0
    6.1941   -2.8971    0.6236 H   0  0  0  0  0  0  0  0  0  0  0  0
    4.7910   -0.4300   -1.6640 H   0  0  0  0  0  0  0  0  0  0  0  0
    4.6087   -2.0895   -1.1209 H   0  0  0  0  0  0  0  0  0  0  0  0
    2.8813   -0.6643   -0.0635 H   0  0  0  0  0  0  0  0  0  0  0  0
    4.0963    0.4482    0.5186 H   0  0  0  0  0  0  0  0  0  0  0  0
  1  2  2  0
  2 10  1  0
  2  3  1  0
  3  4  1  0
  4  9  2  0
  4  5  1  0
  5  6  2  0
  5 19  1  0
  6  7  1  0
  6 20  1  0
  7  8  2  0
  7 21  1  0
  8  9  1  0
  8 22  1  0
  9 10  1  0
 10 11  1  0
 11 12  1  0
 11 23  1  0
 11 24  1  0
 12 13  1  0
 12 25  1  0
 12 26  1  0
 13 18  1  0
 13 14  1  0
 14 15  1  0
 14 27  1  0
 14 28  1  0
 15 16  1  0
 15 29  1  0
 15 30  1  0
 16 17  1  0
 17 18  1  0
 17 31  1  0
 17 32  1  0
 18 33  1  0
 18 34  1  0
M  END
>  <i_m_ct_stereo_status>  (54) 
1

>  <s_m_source_file>  (54) 
/var/tmp/pbs.5076255.sched01/tmppfua8s0c/0korcpw03.sdf

>  <i_m_source_file_index>  (54) 
21

>  <i_lp_mmshare_version>  (54) 
48012

>  <i_f3d_flags>  (54) 
0

>  <s_epik_input>  (54) 
W2NIXTFbY0hdW2NIXVtjSF1jKGMxMiluKGMoPU8pczIpW0NIMl1bQ0gyXU4zW0NIMl1bQ0gyXU9bQ0gyXVtDSDJdMw==

>  <s_epik_cmdline>  (54) 
J2VwaWtfcHl0aG9uJywgJy1waHQnLCAnMi4wJywgJy1waCcsICc3LjAnLCAnLXRuJywgJzgnLCAnLW1hJywgJzIwMCcsICctaW1hZScsICc8aW5maWxlLm1hZT4nLCAnLW9tYWUnLCAnPG91dGZpbGUubWFlPic=

>  <r_epik_Ionization_Penalty>  (54) 
0.00598928

>  <r_epik_Ionization_Penalty_Charging>  (54) 
1.22729e-06

>  <r_epik_Ionization_Penalty_Neutral>  (54) 
0.00598806

>  <r_epik_State_Penalty>  (54) 
0.00440714

>  <r_epik_Charging_Adjusted_Penalty>  (54) 
0.00440837

>  <i_epik_Tot_Q>  (54) 
0

>  <i_epik_Tot_abs_Q>  (54) 
0

>  <s_lp_Force_Field>  (54) 
OPLS3e

>  <r_lp_Energy>  (54) 
15.3478

>  <b_lp_Chiralities_Consistent>  (54) 
1

>  <s_lp_Variant>  (54) 
15:0-1

>  <s_i_glide_gridfile>  (54) 
pfpi4k_grid

>  <i_i_glide_lignum>  (54) 
21

>  <i_i_glide_rotatable_bonds>  (54) 
3

>  <r_i_docking_score>  (54) 
-2.56355

>  <r_i_glide_ligand_efficiency>  (54) 
-0.142419

>  <r_i_glide_ligand_efficiency_sa>  (54) 
-0.373244

>  <r_i_glide_ligand_efficiency_ln>  (54) 
-0.658947

>  <r_i_glide_gscore>  (54) 
-2.56355

>  <r_i_glide_lipo>  (54) 
-0.22021

>  <r_i_glide_hbond>  (54) 
-0.0603667

>  <r_i_glide_metal>  (54) 
-0

>  <r_i_glide_rewards>  (54) 
-1.60674

>  <r_i_glide_evdw>  (54) 
-20.5253

>  <r_i_glide_ecoul>  (54) 
-2.69498

>  <r_i_glide_erotb>  (54) 
0.763142

>  <r_i_glide_esite>  (54) 
-0.00886122

>  <r_i_glide_emodel>  (54) 
-26.2157

>  <r_i_glide_energy>  (54) 
-23.2202

>  <r_i_glide_einternal>  (54) 
2.2601

>  <r_i_glide_intrahb_reward>  (54) 
-0

>  <i_i_glide_confnum>  (54) 
6

>  <i_i_glide_posenum>  (54) 
39

>  <r_i_glide_eff_state_penalty>  (54) 
0

>  <ligand_id>  (54) 
15

>  <original_smiles>  (54) 
O=c1sc2ccccc2n1CCN1CCOCC1

>  <smiles>  (54) 
[H]c1c([H])c([H])c2c(sc(=O)n2C([H])([H])C([H])([H])N2C([H])([H])C([H])([H])OC([H])([H])C2([H])[H])c1[H]

$$$$
16:0:0
     RDKit          3D

 56 61  0  0  1  0  0  0  0  0999 V2000
    5.3413   -0.3491    1.9499 C   0  0  0  0  0  0  0  0  0  0  0  0
    3.9073   -0.2109    2.4185 C   0  0  0  0  0  0  0  0  0  0  0  0
    3.6486    0.5861    3.5478 C   0  0  0  0  0  0  0  0  0  0  0  0
    2.3345    0.7920    4.0073 C   0  0  0  0  0  0  0  0  0  0  0  0
    1.2585    0.2066    3.3114 C   0  0  0  0  0  0  0  0  0  0  0  0
   -0.1434    0.3468    3.8313 C   0  0  0  0  0  0  0  0  0  0  0  0
   -0.8053   -0.6517    4.1102 O   0  0  0  0  0  0  0  0  0  0  0  0
   -0.5992    1.6018    3.9559 N   0  0  0  0  0  0  0  0  0  0  0  0
   -1.9326    1.9356    4.3379 C   0  0  0  0  0  0  0  0  0  0  0  0
   -2.6022    3.0530    3.5750 C   0  0  0  0  0  0  0  0  0  0  0  0
   -2.2180    3.2647    5.0118 C   0  0  0  0  0  0  0  0  0  0  0  0
    1.5119   -0.5690    2.1634 C   0  0  0  0  0  0  0  0  0  0  0  0
    2.8298   -0.8258    1.7260 C   0  0  0  0  0  0  0  0  0  0  0  0
    3.0119   -1.6061    0.5729 N   0  0  0  0  0  0  0  0  0  0  0  0
    3.8812   -2.6709    0.3484 C   0  0  0  0  0  0  0  0  0  0  0  0
    4.9783   -2.3780   -0.3982 N   0  0  0  0  0  0  0  0  0  0  0  0
    5.8535   -3.3745   -0.6558 C   0  0  0  0  0  0  0  0  0  0  0  0
    5.7579   -4.6796   -0.2921 N   0  0  0  0  0  0  0  0  0  0  0  0
    4.6493   -4.9116    0.3975 N   0  0  0  0  0  0  0  0  0  0  0  0
    4.2242   -6.1545    0.8109 C   0  0  0  0  0  0  0  0  0  0  0  0
    3.0039   -6.0023    1.4525 C   0  0  0  0  0  0  0  0  0  0  0  0
    2.1682   -7.0898    1.9977 C   0  0  0  0  0  0  0  0  0  0  0  0
    0.9905   -6.8377    2.5746 N   0  0  0  0  0  0  0  0  0  0  0  0
    0.5623   -8.1022    2.8496 C   0  0  0  0  0  0  0  0  0  0  0  0
   -0.7735   -8.3895    3.4663 C   0  0  0  0  0  0  0  0  0  0  0  0
   -1.8163   -9.1541    2.6805 C   0  0  0  0  0  0  0  0  0  0  0  0
   -1.9970   -7.6830    2.9421 C   0  0  0  0  0  0  0  0  0  0  0  0
    1.4012   -9.0815    2.5485 N   0  0  0  0  0  0  0  0  0  0  0  0
    2.4251   -8.4149    1.9663 N   0  0  0  0  0  0  0  0  0  0  0  0
    3.5384   -9.1958    1.4512 C   0  0  0  0  0  0  0  0  0  0  0  0
    2.6333   -4.6063    1.5244 C   0  0  0  0  0  0  0  0  0  0  0  0
    3.6846   -4.0224    0.7803 C   0  0  0  0  0  0  0  0  0  0  0  0
    6.0397    0.1690    2.6040 H   0  0  0  0  0  0  0  0  0  0  0  0
    5.4572    0.0474    0.9383 H   0  0  0  0  0  0  0  0  0  0  0  0
    5.6388   -1.3938    1.9728 H   0  0  0  0  0  0  0  0  0  0  0  0
    4.4660    1.0666    4.0655 H   0  0  0  0  0  0  0  0  0  0  0  0
    2.1655    1.3805    4.8986 H   0  0  0  0  0  0  0  0  0  0  0  0
    0.0141    2.3606    3.7063 H   0  0  0  0  0  0  0  0  0  0  0  0
   -2.5778    1.1063    4.6535 H   0  0  0  0  0  0  0  0  0  0  0  0
   -2.0082    3.5577    2.8143 H   0  0  0  0  0  0  0  0  0  0  0  0
   -3.6591    2.9330    3.3453 H   0  0  0  0  0  0  0  0  0  0  0  0
   -3.0388    3.3085    5.7279 H   0  0  0  0  0  0  0  0  0  0  0  0
   -1.3788    3.9282    5.2189 H   0  0  0  0  0  0  0  0  0  0  0  0
    0.6700   -0.9857    1.6246 H   0  0  0  0  0  0  0  0  0  0  0  0
    6.7523   -3.0746   -1.1837 H   0  0  0  0  0  0  0  0  0  0  0  0
    4.8667   -6.9879    0.5548 H   0  0  0  0  0  0  0  0  0  0  0  0
   -0.6979   -8.5749    4.5357 H   0  0  0  0  0  0  0  0  0  0  0  0
   -1.5513   -9.4684    1.6716 H   0  0  0  0  0  0  0  0  0  0  0  0
   -2.4674   -9.8347    3.2248 H   0  0  0  0  0  0  0  0  0  0  0  0
   -2.7559   -7.3963    3.6671 H   0  0  0  0  0  0  0  0  0  0  0  0
   -1.8362   -6.9991    2.1116 H   0  0  0  0  0  0  0  0  0  0  0  0
    3.7923   -8.8820    0.4431 H   0  0  0  0  0  0  0  0  0  0  0  0
    3.2701  -10.2492    1.3967 H   0  0  0  0  0  0  0  0  0  0  0  0
    4.4007   -9.0856    2.1068 H   0  0  0  0  0  0  0  0  0  0  0  0
    1.8049   -4.0423    1.9284 H   0  0  0  0  0  0  0  0  0  0  0  0
    2.2984   -1.4832   -0.1329 H   0  0  0  0  0  0  0  0  0  0  0  0
  1  2  1  0
  1 33  1  0
  1 34  1  0
  1 35  1  0
  2 13  2  0
  2  3  1  0
  3  4  2  0
  3 36  1  0
  4  5  1  0
  4 37  1  0
  5  6  1  0
  5 12  2  0
  6  7  2  0
  6  8  1  0
  8  9  1  0
  8 38  1  0
  9 11  1  0
  9 10  1  0
  9 39  1  0
 10 11  1  0
 10 40  1  0
 10 41  1  0
 11 42  1  0
 11 43  1  0
 12 13  1  0
 12 44  1  0
 13 14  1  0
 14 15  1  0
 14 56  1  0
 15 32  1  0
 15 16  2  0
 16 17  1  0
 17 18  2  0
 17 45  1  0
 18 19  1  0
 19 32  1  0
 19 20  1  0
 20 21  2  0
 20 46  1  0
 21 22  1  0
 21 31  1  0
 22 29  1  0
 22 23  2  0
 23 24  1  0
 24 25  1  0
 24 28  2  0
 25 27  1  0
 25 26  1  0
 25 47  1  0
 26 27  1  0
 26 48  1  0
 26 49  1  0
 27 50  1  0
 27 51  1  0
 28 29  1  0
 29 30  1  0
 30 52  1  0
 30 53  1  0
 30 54  1  0
 31 32  2  0
 31 55  1  0
M  END
>  <i_m_ct_stereo_status>  (55) 
1

>  <s_m_source_file>  (55) 
/var/tmp/pbs.5076255.sched01/tmppfua8s0c/0korcpw03.sdf

>  <i_m_source_file_index>  (55) 
22

>  <i_lp_mmshare_version>  (55) 
48012

>  <i_f3d_flags>  (55) 
0

>  <s_epik_input>  (55) 
W0NIMl0xW0NIMl1bQ0hdMVtOSF1DKD1PKWMoW2NIXVtjSF1jMltDSDNdKVtjSF1jMi9OPWMoXFtuSF1bY0hdbjMpYyhuMzQpW2NIXWMoW2NIXTQpLWM1bmMoW0NIXTZbQ0gyXVtDSDJdNilubjVbQ0gzXQ==

>  <s_epik_cmdline>  (55) 
J2VwaWtfcHl0aG9uJywgJy1waHQnLCAnMi4wJywgJy1waCcsICc3LjAnLCAnLXRuJywgJzgnLCAnLW1hJywgJzIwMCcsICctaW1hZScsICc8aW5maWxlLm1hZT4nLCAnLW9tYWUnLCAnPG91dGZpbGUubWFlPic=

>  <r_lp_tautomer_probability>  (55) 
1

>  <r_epik_Ionization_Penalty>  (55) 
9.3111e-05

>  <r_epik_Ionization_Penalty_Charging>  (55) 
0

>  <r_epik_Ionization_Penalty_Neutral>  (55) 
9.3111e-05

>  <r_epik_State_Penalty>  (55) 
-0

>  <r_epik_Charging_Adjusted_Penalty>  (55) 
0

>  <i_epik_Tot_Q>  (55) 
0

>  <i_epik_Tot_abs_Q>  (55) 
0

>  <s_lp_Force_Field>  (55) 
OPLS3e

>  <r_lp_Energy>  (55) 
42.0294

>  <b_lp_Chiralities_Consistent>  (55) 
1

>  <s_lp_Variant>  (55) 
16:0-1

>  <s_i_glide_gridfile>  (55) 
pfpi4k_grid

>  <i_i_glide_lignum>  (55) 
22

>  <i_i_glide_rotatable_bonds>  (55) 
7

>  <r_i_docking_score>  (55) 
-2.81999

>  <r_i_glide_ligand_efficiency>  (55) 
-0.0881246

>  <r_i_glide_ligand_efficiency_sa>  (55) 
-0.279778

>  <r_i_glide_ligand_efficiency_ln>  (55) 
-0.631472

>  <r_i_glide_gscore>  (55) 
-2.81999

>  <r_i_glide_lipo>  (55) 
-0.372651

>  <r_i_glide_hbond>  (55) 
-0.16

>  <r_i_glide_metal>  (55) 
-0

>  <r_i_glide_rewards>  (55) 
-0.67978

>  <r_i_glide_evdw>  (55) 
-36.4358

>  <r_i_glide_ecoul>  (55) 
-2.45203

>  <r_i_glide_erotb>  (55) 
0.757334

>  <r_i_glide_esite>  (55) 
-0.175297

>  <r_i_glide_emodel>  (55) 
-37.6555

>  <r_i_glide_energy>  (55) 
-38.8878

>  <r_i_glide_einternal>  (55) 
15.0882

>  <r_i_glide_intrahb_reward>  (55) 
-0

>  <i_i_glide_confnum>  (55) 
2

>  <i_i_glide_posenum>  (55) 
37

>  <r_i_glide_eff_state_penalty>  (55) 
0

>  <ligand_id>  (55) 
16

>  <original_smiles>  (55) 
Cc1ccc(C(=O)NC2CC2)cc1N=c1[nH]cnn2cc(-c3nc(C4CC4)nn3C)cc12

>  <smiles>  (55) 
[H]c1nc(N([H])c2c([H])c(C(=O)N([H])C3([H])C([H])([H])C3([H])[H])c([H])c([H])c2C([H])([H])[H])c2c([H])c(-c3nc(C4([H])C([H])([H])C4([H])[H])nn3C([H])([H])[H])c([H])n2n1

$$$$
16:0:1
     RDKit          3D

 56 61  0  0  1  0  0  0  0  0999 V2000
    5.5542   -0.3892    2.4435 C   0  0  0  0  0  0  0  0  0  0  0  0
    4.0854   -0.1608    2.7384 C   0  0  0  0  0  0  0  0  0  0  0  0
    3.7342    0.5194    3.9291 C   0  0  0  0  0  0  0  0  0  0  0  0
    2.3858    0.7908    4.2244 C   0  0  0  0  0  0  0  0  0  0  0  0
    1.3741    0.4149    3.3188 C   0  0  0  0  0  0  0  0  0  0  0  0
   -0.0630    0.6040    3.6669 C   0  0  0  0  0  0  0  0  0  0  0  0
   -0.7263   -0.3428    4.0937 O   0  0  0  0  0  0  0  0  0  0  0  0
   -0.5504    1.8461    3.5117 N   0  0  0  0  0  0  0  0  0  0  0  0
   -1.8919    2.2347    3.8249 C   0  0  0  0  0  0  0  0  0  0  0  0
   -2.4657    3.4086    3.0666 C   0  0  0  0  0  0  0  0  0  0  0  0
   -2.1430    3.5562    4.5287 C   0  0  0  0  0  0  0  0  0  0  0  0
    1.7236   -0.2205    2.1082 C   0  0  0  0  0  0  0  0  0  0  0  0
    3.0654   -0.5547    1.8337 C   0  0  0  0  0  0  0  0  0  0  0  0
    3.3301   -1.2182    0.6238 N   0  0  0  0  0  0  0  0  0  0  0  0
    4.1055   -2.3540    0.4029 C   0  0  0  0  0  0  0  0  0  0  0  0
    5.2498   -2.1663   -0.3077 N   0  0  0  0  0  0  0  0  0  0  0  0
    5.9977   -3.2637   -0.5897 C   0  0  0  0  0  0  0  0  0  0  0  0
    5.7311   -4.5568   -0.2786 N   0  0  0  0  0  0  0  0  0  0  0  0
    4.5964   -4.6716    0.3829 N   0  0  0  0  0  0  0  0  0  0  0  0
    4.0050   -5.8645    0.7394 C   0  0  0  0  0  0  0  0  0  0  0  0
    2.8023   -5.5902    1.3658 C   0  0  0  0  0  0  0  0  0  0  0  0
    1.8190   -6.5922    1.8277 C   0  0  0  0  0  0  0  0  0  0  0  0
    0.5758   -6.2461    2.1803 N   0  0  0  0  0  0  0  0  0  0  0  0
    0.0553   -7.4501    2.5566 C   0  0  0  0  0  0  0  0  0  0  0  0
   -1.3403   -7.6047    3.0538 C   0  0  0  0  0  0  0  0  0  0  0  0
   -1.7408   -6.9965    4.3784 C   0  0  0  0  0  0  0  0  0  0  0  0
   -1.6455   -8.4892    4.2380 C   0  0  0  0  0  0  0  0  0  0  0  0
    0.8522   -8.4946    2.3987 N   0  0  0  0  0  0  0  0  0  0  0  0
    1.9953   -7.9313    1.9286 N   0  0  0  0  0  0  0  0  0  0  0  0
    3.1028   -8.8140    1.6487 C   0  0  0  0  0  0  0  0  0  0  0  0
    2.6176   -4.1568    1.4904 C   0  0  0  0  0  0  0  0  0  0  0  0
    3.7453   -3.6799    0.7859 C   0  0  0  0  0  0  0  0  0  0  0  0
    6.2036   -0.0187    3.2373 H   0  0  0  0  0  0  0  0  0  0  0  0
    5.8281    0.1188    1.5178 H   0  0  0  0  0  0  0  0  0  0  0  0
    5.7665   -1.4508    2.3356 H   0  0  0  0  0  0  0  0  0  0  0  0
    4.5032    0.8415    4.6131 H   0  0  0  0  0  0  0  0  0  0  0  0
    2.1300    1.2707    5.1561 H   0  0  0  0  0  0  0  0  0  0  0  0
    0.0562    2.5538    3.1167 H   0  0  0  0  0  0  0  0  0  0  0  0
   -2.5868    1.4357    4.0787 H   0  0  0  0  0  0  0  0  0  0  0  0
   -1.8090    3.9161    2.3623 H   0  0  0  0  0  0  0  0  0  0  0  0
   -3.5127    3.3435    2.7808 H   0  0  0  0  0  0  0  0  0  0  0  0
   -2.9855    3.6033    5.2152 H   0  0  0  0  0  0  0  0  0  0  0  0
   -1.2862    4.1737    4.7948 H   0  0  0  0  0  0  0  0  0  0  0  0
    0.9564   -0.4886    1.4025 H   0  0  0  0  0  0  0  0  0  0  0  0
    6.9237   -3.0741   -1.1124 H   0  0  0  0  0  0  0  0  0  0  0  0
    4.5415   -6.7585    0.4431 H   0  0  0  0  0  0  0  0  0  0  0  0
   -2.0629   -7.5797    2.2366 H   0  0  0  0  0  0  0  0  0  0  0  0
   -0.9645   -6.4835    4.9478 H   0  0  0  0  0  0  0  0  0  0  0  0
   -2.7435   -6.5886    4.4815 H   0  0  0  0  0  0  0  0  0  0  0  0
   -2.5757   -9.0581    4.2070 H   0  0  0  0  0  0  0  0  0  0  0  0
   -0.8124   -9.0054    4.7147 H   0  0  0  0  0  0  0  0  0  0  0  0
    3.5059   -8.6144    0.6584 H   0  0  0  0  0  0  0  0  0  0  0  0
    2.7765   -9.8610    1.6448 H   0  0  0  0  0  0  0  0  0  0  0  0
    3.8835   -8.6909    2.4044 H   0  0  0  0  0  0  0  0  0  0  0  0
    1.8560   -3.5058    1.8798 H   0  0  0  0  0  0  0  0  0  0  0  0
    2.8072   -0.8939   -0.1776 H   0  0  0  0  0  0  0  0  0  0  0  0
  1  2  1  0
  1 33  1  0
  1 34  1  0
  1 35  1  0
  2 13  2  0
  2  3  1  0
  3  4  2  0
  3 36  1  0
  4  5  1  0
  4 37  1  0
  5  6  1  0
  5 12  2  0
  6  7  2  0
  6  8  1  0
  8  9  1  0
  8 38  1  0
  9 11  1  0
  9 10  1  0
  9 39  1  0
 10 11  1  0
 10 40  1  0
 10 41  1  0
 11 42  1  0
 11 43  1  0
 12 13  1  0
 12 44  1  0
 13 14  1  0
 14 15  1  0
 14 56  1  0
 15 32  1  0
 15 16  2  0
 16 17  1  0
 17 18  2  0
 17 45  1  0
 18 19  1  0
 19 32  1  0
 19 20  1  0
 20 21  2  0
 20 46  1  0
 21 22  1  0
 21 31  1  0
 22 29  1  0
 22 23  2  0
 23 24  1  0
 24 25  1  0
 24 28  2  0
 25 27  1  0
 25 26  1  0
 25 47  1  0
 26 27  1  0
 26 48  1  0
 26 49  1  0
 27 50  1  0
 27 51  1  0
 28 29  1  0
 29 30  1  0
 30 52  1  0
 30 53  1  0
 30 54  1  0
 31 32  2  0
 31 55  1  0
M  END
>  <i_m_ct_stereo_status>  (56) 
1

>  <s_m_source_file>  (56) 
/var/tmp/pbs.5076255.sched01/tmppfua8s0c/0korcpw03.sdf

>  <i_m_source_file_index>  (56) 
22

>  <i_lp_mmshare_version>  (56) 
48012

>  <i_f3d_flags>  (56) 
0

>  <s_epik_input>  (56) 
W0NIMl0xW0NIMl1bQ0hdMVtOSF1DKD1PKWMoW2NIXVtjSF1jMltDSDNdKVtjSF1jMi9OPWMoXFtuSF1bY0hdbjMpYyhuMzQpW2NIXWMoW2NIXTQpLWM1bmMoW0NIXTZbQ0gyXVtDSDJdNilubjVbQ0gzXQ==

>  <s_epik_cmdline>  (56) 
J2VwaWtfcHl0aG9uJywgJy1waHQnLCAnMi4wJywgJy1waCcsICc3LjAnLCAnLXRuJywgJzgnLCAnLW1hJywgJzIwMCcsICctaW1hZScsICc8aW5maWxlLm1hZT4nLCAnLW9tYWUnLCAnPG91dGZpbGUubWFlPic=

>  <r_lp_tautomer_probability>  (56) 
1

>  <r_epik_Ionization_Penalty>  (56) 
9.3111e-05

>  <r_epik_Ionization_Penalty_Charging>  (56) 
0

>  <r_epik_Ionization_Penalty_Neutral>  (56) 
9.3111e-05

>  <r_epik_State_Penalty>  (56) 
-0

>  <r_epik_Charging_Adjusted_Penalty>  (56) 
0

>  <i_epik_Tot_Q>  (56) 
0

>  <i_epik_Tot_abs_Q>  (56) 
0

>  <s_lp_Force_Field>  (56) 
OPLS3e

>  <r_lp_Energy>  (56) 
42.0294

>  <b_lp_Chiralities_Consistent>  (56) 
1

>  <s_lp_Variant>  (56) 
16:0-1

>  <s_i_glide_gridfile>  (56) 
pfpi4k_grid

>  <i_i_glide_lignum>  (56) 
22

>  <i_i_glide_rotatable_bonds>  (56) 
7

>  <r_i_docking_score>  (56) 
-2.67209

>  <r_i_glide_ligand_efficiency>  (56) 
-0.0835027

>  <r_i_glide_ligand_efficiency_sa>  (56) 
-0.265105

>  <r_i_glide_ligand_efficiency_ln>  (56) 
-0.598353

>  <r_i_glide_gscore>  (56) 
-2.67209

>  <r_i_glide_lipo>  (56) 
-0.170234

>  <r_i_glide_hbond>  (56) 
-0.172549

>  <r_i_glide_metal>  (56) 
-0

>  <r_i_glide_rewards>  (56) 
-0.652634

>  <r_i_glide_evdw>  (56) 
-37.3026

>  <r_i_glide_ecoul>  (56) 
-2.24459

>  <r_i_glide_erotb>  (56) 
0.757334

>  <r_i_glide_esite>  (56) 
-0.232186

>  <r_i_glide_emodel>  (56) 
-38.3725

>  <r_i_glide_energy>  (56) 
-39.5472

>  <r_i_glide_einternal>  (56) 
15.7323

>  <r_i_glide_intrahb_reward>  (56) 
-0

>  <i_i_glide_confnum>  (56) 
6

>  <i_i_glide_posenum>  (56) 
15

>  <r_i_glide_eff_state_penalty>  (56) 
0

>  <ligand_id>  (56) 
16

>  <original_smiles>  (56) 
Cc1ccc(C(=O)NC2CC2)cc1N=c1[nH]cnn2cc(-c3nc(C4CC4)nn3C)cc12

>  <smiles>  (56) 
[H]c1nc(N([H])c2c([H])c(C(=O)N([H])C3([H])C([H])([H])C3([H])[H])c([H])c([H])c2C([H])([H])[H])c2c([H])c(-c3nc(C4([H])C([H])([H])C4([H])[H])nn3C([H])([H])[H])c([H])n2n1

$$$$
16:0:2
     RDKit          3D

 56 61  0  0  1  0  0  0  0  0999 V2000
    5.9831   -0.6623    2.7596 C   0  0  0  0  0  0  0  0  0  0  0  0
    4.4939   -0.4557    2.8948 C   0  0  0  0  0  0  0  0  0  0  0  0
    4.0211    0.2167    4.0453 C   0  0  0  0  0  0  0  0  0  0  0  0
    2.6455    0.4475    4.2170 C   0  0  0  0  0  0  0  0  0  0  0  0
    1.7283    0.0429    3.2300 C   0  0  0  0  0  0  0  0  0  0  0  0
    0.2569    0.2406    3.4104 C   0  0  0  0  0  0  0  0  0  0  0  0
   -0.4752    0.5442    2.4765 O   0  0  0  0  0  0  0  0  0  0  0  0
   -0.1886   -0.0357    4.6530 N   0  0  0  0  0  0  0  0  0  0  0  0
   -1.5613   -0.1602    5.0342 C   0  0  0  0  0  0  0  0  0  0  0  0
   -1.9151    0.1604    6.4651 C   0  0  0  0  0  0  0  0  0  0  0  0
   -1.9510   -1.2720    5.9992 C   0  0  0  0  0  0  0  0  0  0  0  0
    2.2075   -0.5877    2.0597 C   0  0  0  0  0  0  0  0  0  0  0  0
    3.5774   -0.8851    1.8993 C   0  0  0  0  0  0  0  0  0  0  0  0
    3.9542   -1.5719    0.7274 N   0  0  0  0  0  0  0  0  0  0  0  0
    4.8224   -2.6513    0.5869 C   0  0  0  0  0  0  0  0  0  0  0  0
    6.0572   -2.4083    0.0524 N   0  0  0  0  0  0  0  0  0  0  0  0
    6.8856   -3.4700   -0.1260 C   0  0  0  0  0  0  0  0  0  0  0  0
    6.6205   -4.7764    0.1324 N   0  0  0  0  0  0  0  0  0  0  0  0
    5.4066   -4.9404    0.6257 N   0  0  0  0  0  0  0  0  0  0  0  0
    4.8135   -6.1655    0.8729 C   0  0  0  0  0  0  0  0  0  0  0  0
    3.5269   -5.9359    1.3202 C   0  0  0  0  0  0  0  0  0  0  0  0
    2.5273   -6.9700    1.6451 C   0  0  0  0  0  0  0  0  0  0  0  0
    1.2272   -6.6667    1.7643 N   0  0  0  0  0  0  0  0  0  0  0  0
    0.7021   -7.8920    2.0658 C   0  0  0  0  0  0  0  0  0  0  0  0
   -0.7538   -8.1192    2.2783 C   0  0  0  0  0  0  0  0  0  0  0  0
   -1.4408   -7.4856    3.4653 C   0  0  0  0  0  0  0  0  0  0  0  0
   -1.2437   -8.9787    3.4244 C   0  0  0  0  0  0  0  0  0  0  0  0
    1.5618   -8.9012    2.0854 N   0  0  0  0  0  0  0  0  0  0  0  0
    2.7438   -8.2918    1.8137 N   0  0  0  0  0  0  0  0  0  0  0  0
    3.9261   -9.1305    1.7811 C   0  0  0  0  0  0  0  0  0  0  0  0
    3.2686   -4.5150    1.4220 C   0  0  0  0  0  0  0  0  0  0  0  0
    4.4689   -3.9920    0.9023 C   0  0  0  0  0  0  0  0  0  0  0  0
    6.5498   -0.2199    3.5872 H   0  0  0  0  0  0  0  0  0  0  0  0
    6.3010   -0.2117    1.8240 H   0  0  0  0  0  0  0  0  0  0  0  0
    6.2246   -1.7256    2.7190 H   0  0  0  0  0  0  0  0  0  0  0  0
    4.7085    0.5810    4.7891 H   0  0  0  0  0  0  0  0  0  0  0  0
    2.2992    0.9456    5.1057 H   0  0  0  0  0  0  0  0  0  0  0  0
    0.5064   -0.2398    5.3618 H   0  0  0  0  0  0  0  0  0  0  0  0
   -2.3138    0.0692    4.2813 H   0  0  0  0  0  0  0  0  0  0  0  0
   -1.1007    0.4532    7.1316 H   0  0  0  0  0  0  0  0  0  0  0  0
   -2.8591    0.6776    6.6205 H   0  0  0  0  0  0  0  0  0  0  0  0
   -2.9332   -1.7218    5.8649 H   0  0  0  0  0  0  0  0  0  0  0  0
   -1.1837   -1.9413    6.3880 H   0  0  0  0  0  0  0  0  0  0  0  0
    1.5157   -0.8900    1.2975 H   0  0  0  0  0  0  0  0  0  0  0  0
    7.8742   -3.2477   -0.5117 H   0  0  0  0  0  0  0  0  0  0  0  0
    5.4123   -7.0416    0.6465 H   0  0  0  0  0  0  0  0  0  0  0  0
   -1.2954   -8.1973    1.3303 H   0  0  0  0  0  0  0  0  0  0  0  0
   -0.8145   -6.9083    4.1477 H   0  0  0  0  0  0  0  0  0  0  0  0
   -2.4614   -7.1235    3.3483 H   0  0  0  0  0  0  0  0  0  0  0  0
   -2.1313   -9.5935    3.2665 H   0  0  0  0  0  0  0  0  0  0  0  0
   -0.4923   -9.4236    4.0833 H   0  0  0  0  0  0  0  0  0  0  0  0
    4.4999   -8.9469    0.8746 H   0  0  0  0  0  0  0  0  0  0  0  0
    3.6548  -10.1946    1.7701 H   0  0  0  0  0  0  0  0  0  0  0  0
    4.5448   -8.9446    2.6649 H   0  0  0  0  0  0  0  0  0  0  0  0
    2.4349   -3.9056    1.6944 H   0  0  0  0  0  0  0  0  0  0  0  0
    3.6239   -1.1997   -0.1421 H   0  0  0  0  0  0  0  0  0  0  0  0
  1  2  1  0
  1 33  1  0
  1 34  1  0
  1 35  1  0
  2 13  2  0
  2  3  1  0
  3  4  2  0
  3 36  1  0
  4  5  1  0
  4 37  1  0
  5  6  1  0
  5 12  2  0
  6  7  2  0
  6  8  1  0
  8  9  1  0
  8 38  1  0
  9 11  1  0
  9 10  1  0
  9 39  1  0
 10 11  1  0
 10 40  1  0
 10 41  1  0
 11 42  1  0
 11 43  1  0
 12 13  1  0
 12 44  1  0
 13 14  1  0
 14 15  1  0
 14 56  1  0
 15 32  1  0
 15 16  2  0
 16 17  1  0
 17 18  2  0
 17 45  1  0
 18 19  1  0
 19 32  1  0
 19 20  1  0
 20 21  2  0
 20 46  1  0
 21 22  1  0
 21 31  1  0
 22 29  1  0
 22 23  2  0
 23 24  1  0
 24 25  1  0
 24 28  2  0
 25 27  1  0
 25 26  1  0
 25 47  1  0
 26 27  1  0
 26 48  1  0
 26 49  1  0
 27 50  1  0
 27 51  1  0
 28 29  1  0
 29 30  1  0
 30 52  1  0
 30 53  1  0
 30 54  1  0
 31 32  2  0
 31 55  1  0
M  END
>  <i_m_ct_stereo_status>  (57) 
1

>  <s_m_source_file>  (57) 
/var/tmp/pbs.5076255.sched01/tmppfua8s0c/0korcpw03.sdf

>  <i_m_source_file_index>  (57) 
22

>  <i_lp_mmshare_version>  (57) 
48012

>  <i_f3d_flags>  (57) 
0

>  <s_epik_input>  (57) 
W0NIMl0xW0NIMl1bQ0hdMVtOSF1DKD1PKWMoW2NIXVtjSF1jMltDSDNdKVtjSF1jMi9OPWMoXFtuSF1bY0hdbjMpYyhuMzQpW2NIXWMoW2NIXTQpLWM1bmMoW0NIXTZbQ0gyXVtDSDJdNilubjVbQ0gzXQ==

>  <s_epik_cmdline>  (57) 
J2VwaWtfcHl0aG9uJywgJy1waHQnLCAnMi4wJywgJy1waCcsICc3LjAnLCAnLXRuJywgJzgnLCAnLW1hJywgJzIwMCcsICctaW1hZScsICc8aW5maWxlLm1hZT4nLCAnLW9tYWUnLCAnPG91dGZpbGUubWFlPic=

>  <r_lp_tautomer_probability>  (57) 
1

>  <r_epik_Ionization_Penalty>  (57) 
9.3111e-05

>  <r_epik_Ionization_Penalty_Charging>  (57) 
0

>  <r_epik_Ionization_Penalty_Neutral>  (57) 
9.3111e-05

>  <r_epik_State_Penalty>  (57) 
-0

>  <r_epik_Charging_Adjusted_Penalty>  (57) 
0

>  <i_epik_Tot_Q>  (57) 
0

>  <i_epik_Tot_abs_Q>  (57) 
0

>  <s_lp_Force_Field>  (57) 
OPLS3e

>  <r_lp_Energy>  (57) 
42.0294

>  <b_lp_Chiralities_Consistent>  (57) 
1

>  <s_lp_Variant>  (57) 
16:0-1

>  <s_i_glide_gridfile>  (57) 
pfpi4k_grid

>  <i_i_glide_lignum>  (57) 
22

>  <i_i_glide_rotatable_bonds>  (57) 
7

>  <r_i_docking_score>  (57) 
-2.32512

>  <r_i_glide_ligand_efficiency>  (57) 
-0.0726599

>  <r_i_glide_ligand_efficiency_sa>  (57) 
-0.230681

>  <r_i_glide_ligand_efficiency_ln>  (57) 
-0.520657

>  <r_i_glide_gscore>  (57) 
-2.32512

>  <r_i_glide_lipo>  (57) 
-0.338335

>  <r_i_glide_hbond>  (57) 
0

>  <r_i_glide_metal>  (57) 
-0

>  <r_i_glide_rewards>  (57) 
-0.777579

>  <r_i_glide_evdw>  (57) 
-35.7033

>  <r_i_glide_ecoul>  (57) 
-0.348096

>  <r_i_glide_erotb>  (57) 
0.757334

>  <r_i_glide_esite>  (57) 
-0.129157

>  <r_i_glide_emodel>  (57) 
-34.822

>  <r_i_glide_energy>  (57) 
-36.0514

>  <r_i_glide_einternal>  (57) 
14.5348

>  <r_i_glide_intrahb_reward>  (57) 
-0

>  <i_i_glide_confnum>  (57) 
4

>  <i_i_glide_posenum>  (57) 
39

>  <r_i_glide_eff_state_penalty>  (57) 
0

>  <ligand_id>  (57) 
16

>  <original_smiles>  (57) 
Cc1ccc(C(=O)NC2CC2)cc1N=c1[nH]cnn2cc(-c3nc(C4CC4)nn3C)cc12

>  <smiles>  (57) 
[H]c1nc(N([H])c2c([H])c(C(=O)N([H])C3([H])C([H])([H])C3([H])[H])c([H])c([H])c2C([H])([H])[H])c2c([H])c(-c3nc(C4([H])C([H])([H])C4([H])[H])nn3C([H])([H])[H])c([H])n2n1

$$$$
19:0:0
     RDKit          3D

 44 48  0  0  1  0  0  0  0  0999 V2000
    3.8027   -0.3701   -4.4943 C   0  0  0  0  0  0  0  0  0  0  0  0
    3.5719   -1.3024   -3.3252 C   0  0  0  0  0  0  0  0  0  0  0  0
    2.6225   -2.3401   -3.4274 C   0  0  0  0  0  0  0  0  0  0  0  0
    2.3873   -3.1942   -2.3437 C   0  0  0  0  0  0  0  0  0  0  0  0
    3.1058   -3.0305   -1.1446 C   0  0  0  0  0  0  0  0  0  0  0  0
    4.0628   -1.9891   -1.0316 C   0  0  0  0  0  0  0  0  0  0  0  0
    4.2954   -1.1299   -2.1319 C   0  0  0  0  0  0  0  0  0  0  0  0
    4.7800   -1.8504    0.3104 C   0  0  2  0  0  0  0  0  0  0  0  0
    6.0070   -0.9180    0.3155 C   0  0  0  0  0  0  0  0  0  0  0  0
    5.1385   -3.2334    0.7563 N   0  0  2  0  0  0  0  0  0  0  0  0
    5.9401   -4.1202   -0.1296 C   0  0  0  0  0  0  0  0  0  0  0  0
    3.8463   -3.7686    1.2280 C   0  0  2  0  0  0  0  0  0  0  0  0
    2.9142   -4.0306    0.0062 C   0  0  0  0  0  0  0  0  0  0  0  0
    3.4221   -2.6069    2.1287 C   0  0  2  0  0  0  0  0  0  0  0  0
    4.3185   -2.5884    3.1138 O   0  0  0  0  0  0  0  0  0  0  0  0
    2.0102   -2.5127    2.6891 C   0  0  1  0  0  0  0  0  0  0  0  0
    1.8736   -1.7682    3.9116 O   0  0  0  0  0  0  0  0  0  0  0  0
    1.3351   -1.1550    2.7515 C   0  0  1  0  0  0  0  0  0  0  0  0
    2.0649    0.0975    2.2575 C   0  0  0  0  0  0  0  0  0  0  0  0
    3.5616   -0.1239    1.8986 C   0  0  0  0  0  0  0  0  0  0  0  0
    3.6982   -1.4609    1.2656 N   0  0  1  0  0  0  0  0  0  0  0  0
    3.1752   -0.6111   -5.3487 H   0  0  0  0  0  0  0  0  0  0  0  0
    4.8353   -0.4637   -4.8050 H   0  0  0  0  0  0  0  0  0  0  0  0
    3.6104    0.6631   -4.2083 H   0  0  0  0  0  0  0  0  0  0  0  0
    2.0502   -2.4771   -4.3259 H   0  0  0  0  0  0  0  0  0  0  0  0
    1.6672   -3.9971   -2.4442 H   0  0  0  0  0  0  0  0  0  0  0  0
    5.0182   -0.3269   -2.0753 H   0  0  0  0  0  0  0  0  0  0  0  0
    6.5004   -0.8656    1.2911 H   0  0  0  0  0  0  0  0  0  0  0  0
    5.7312    0.1021    0.0459 H   0  0  0  0  0  0  0  0  0  0  0  0
    6.7468   -1.2623   -0.4090 H   0  0  0  0  0  0  0  0  0  0  0  0
    5.4445   -4.3545   -1.0725 H   0  0  0  0  0  0  0  0  0  0  0  0
    6.1257   -5.0715    0.3730 H   0  0  0  0  0  0  0  0  0  0  0  0
    6.9119   -3.6819   -0.3579 H   0  0  0  0  0  0  0  0  0  0  0  0
    3.9624   -4.6827    1.8102 H   0  0  0  0  0  0  0  0  0  0  0  0
    1.8691   -4.0375    0.3115 H   0  0  0  0  0  0  0  0  0  0  0  0
    3.1258   -5.0283   -0.3894 H   0  0  0  0  0  0  0  0  0  0  0  0
    1.4039   -3.4222    2.6890 H   0  0  0  0  0  0  0  0  0  0  0  0
    0.2453   -1.0903    2.7676 H   0  0  0  0  0  0  0  0  0  0  0  0
    1.5219    0.4497    1.3787 H   0  0  0  0  0  0  0  0  0  0  0  0
    1.9658    0.8790    3.0140 H   0  0  0  0  0  0  0  0  0  0  0  0
    3.8580    0.6619    1.2094 H   0  0  0  0  0  0  0  0  0  0  0  0
    4.1856   -0.0386    2.7888 H   0  0  0  0  0  0  0  0  0  0  0  0
    5.6108   -3.1052    1.6431 H   0  0  0  0  0  0  0  0  0  0  0  0
    2.9008   -1.4642    0.6475 H   0  0  0  0  0  0  0  0  0  0  0  0
  1  2  1  0
  1 22  1  0
  1 23  1  0
  1 24  1  0
  2  7  2  0
  2  3  1  0
  3  4  2  0
  3 25  1  0
  4  5  1  0
  4 26  1  0
  5 13  1  0
  5  6  2  0
  6  7  1  0
  6  8  1  0
  7 27  1  0
  8 21  1  0
  8  9  1  6
  8 10  1  0
  9 28  1  0
  9 29  1  0
  9 30  1  0
 10 11  1  0
 10 12  1  0
 10 43  1  1
 11 31  1  0
 11 32  1  0
 11 33  1  0
 12 13  1  0
 12 14  1  0
 12 34  1  1
 13 35  1  0
 13 36  1  0
 14 21  1  0
 14 15  1  1
 14 16  1  0
 16 18  1  0
 16 17  1  0
 16 37  1  1
 17 18  1  0
 18 19  1  0
 18 38  1  1
 19 20  1  0
 19 39  1  0
 19 40  1  0
 20 21  1  0
 20 41  1  0
 20 42  1  0
 21 44  1  6
M  CHG  3  10   1  15  -1  21   1
M  END
>  <i_m_ct_stereo_status>  (58) 
1

>  <s_m_source_file>  (58) 
/var/tmp/pbs.5076255.sched01/tmppfua8s0c/0korcpw03.sdf

>  <i_m_source_file_index>  (58) 
25

>  <i_lp_mmshare_version>  (58) 
48012

>  <i_f3d_flags>  (58) 
0

>  <s_epik_input>  (58) 
W0NIM11jKFtjSF0xKVtjSF1bY0hdYyhjMVtDQF0yM1tDSDNdKVtDSDJdW0NAQEhdKE4yW0NIM10pW0NAXTQoW09IXSlbQ0BASF01W0NAQEhdKE81KVtDSDJdW0NIMl1OMzQ=

>  <s_epik_cmdline>  (58) 
J2VwaWtfcHl0aG9uJywgJy1waHQnLCAnMi4wJywgJy1waCcsICc3LjAnLCAnLXRuJywgJzgnLCAnLW1hJywgJzIwMCcsICctaW1hZScsICc8aW5maWxlLm1hZT4nLCAnLW9tYWUnLCAnPG91dGZpbGUubWFlPic=

>  <r_epik_Ionization_Penalty>  (58) 
0.0358379

>  <r_epik_Ionization_Penalty_Charging>  (58) 
0.0358379

>  <r_epik_Ionization_Penalty_Neutral>  (58) 
3.81519e-14

>  <r_epik_State_Penalty>  (58) 
0.223027

>  <r_epik_Charging_Adjusted_Penalty>  (58) 
0.258865

>  <i_epik_Tot_Q>  (58) 
1

>  <i_epik_Tot_abs_Q>  (58) 
3

>  <s_lp_Force_Field>  (58) 
OPLS3e

>  <r_lp_Energy>  (58) 
42.4592

>  <b_lp_Chiralities_Consistent>  (58) 
1

>  <s_lp_Variant>  (58) 
19:0-1

>  <s_i_glide_gridfile>  (58) 
pfpi4k_grid

>  <i_i_glide_lignum>  (58) 
25

>  <i_i_glide_rotatable_bonds>  (58) 
0

>  <r_i_docking_score>  (58) 
-4.30467

>  <r_i_glide_ligand_efficiency>  (58) 
-0.204984

>  <r_i_glide_ligand_efficiency_sa>  (58) 
-0.565536

>  <r_i_glide_ligand_efficiency_ln>  (58) 
-1.06432

>  <r_i_glide_gscore>  (58) 
-4.30467

>  <r_i_glide_lipo>  (58) 
-0.926425

>  <r_i_glide_hbond>  (58) 
0

>  <r_i_glide_metal>  (58) 
-0

>  <r_i_glide_rewards>  (58) 
-1.455

>  <r_i_glide_evdw>  (58) 
-22.2147

>  <r_i_glide_ecoul>  (58) 
-5.26104

>  <r_i_glide_erotb>  (58) 
0

>  <r_i_glide_esite>  (58) 
-0.0233501

>  <r_i_glide_emodel>  (58) 
-36.8409

>  <r_i_glide_energy>  (58) 
-27.4757

>  <r_i_glide_einternal>  (58) 
0

>  <r_i_glide_intrahb_reward>  (58) 
-0

>  <i_i_glide_confnum>  (58) 
2

>  <i_i_glide_posenum>  (58) 
6

>  <r_i_glide_eff_state_penalty>  (58) 
0

>  <ligand_id>  (58) 
19

>  <original_smiles>  (58) 
Cc1ccc2c(c1)C1(C)N(C)C(C2)C2(O)C3OC3CCN21

>  <smiles>  (58) 
[H]c1c([H])c2c(c([H])c1C([H])([H])[H])C1(C([H])([H])[H])[N+]([H])(C([H])([H])[H])C([H])(C2([H])[H])C2([O-])C3([H])OC3([H])C([H])([H])C([H])([H])[N+]21[H]

$$$$
19:0:1
     RDKit          3D

 44 48  0  0  1  0  0  0  0  0999 V2000
    5.0050   -8.1332    1.4491 C   0  0  0  0  0  0  0  0  0  0  0  0
    4.4130   -6.7647    1.1703 C   0  0  0  0  0  0  0  0  0  0  0  0
    3.0407   -6.5273    1.4020 C   0  0  0  0  0  0  0  0  0  0  0  0
    2.4859   -5.2646    1.1512 C   0  0  0  0  0  0  0  0  0  0  0  0
    3.2954   -4.2254    0.6514 C   0  0  0  0  0  0  0  0  0  0  0  0
    4.6760   -4.4536    0.4186 C   0  0  0  0  0  0  0  0  0  0  0  0
    5.2282   -5.7286    0.6815 C   0  0  0  0  0  0  0  0  0  0  0  0
    5.4923   -3.2853   -0.1283 C   0  0  2  0  0  0  0  0  0  0  0  0
    7.0230   -3.4453   -0.0888 C   0  0  0  0  0  0  0  0  0  0  0  0
    5.0639   -2.0561    0.6152 N   0  0  2  0  0  0  0  0  0  0  0  0
    5.1483   -2.0281    2.1015 C   0  0  0  0  0  0  0  0  0  0  0  0
    3.7588   -1.7424    0.0069 C   0  0  2  0  0  0  0  0  0  0  0  0
    2.7111   -2.8137    0.4612 C   0  0  0  0  0  0  0  0  0  0  0  0
    4.1769   -1.8143   -1.4670 C   0  0  2  0  0  0  0  0  0  0  0  0
    5.0819   -0.8445   -1.6621 O   0  0  0  0  0  0  0  0  0  0  0  0
    3.1362   -1.8140   -2.5755 C   0  0  1  0  0  0  0  0  0  0  0  0
    3.5759   -1.3397   -3.8556 O   0  0  0  0  0  0  0  0  0  0  0  0
    3.3106   -2.7306   -3.7620 C   0  0  1  0  0  0  0  0  0  0  0  0
    4.5378   -3.6406   -3.8483 C   0  0  0  0  0  0  0  0  0  0  0  0
    5.6066   -3.3708   -2.7639 C   0  0  0  0  0  0  0  0  0  0  0  0
    4.9163   -3.0670   -1.4886 N   0  0  1  0  0  0  0  0  0  0  0  0
    4.2549   -8.8317    1.8100 H   0  0  0  0  0  0  0  0  0  0  0  0
    5.7870   -8.0723    2.2045 H   0  0  0  0  0  0  0  0  0  0  0  0
    5.4278   -8.5532    0.5391 H   0  0  0  0  0  0  0  0  0  0  0  0
    2.4144   -7.3152    1.7803 H   0  0  0  0  0  0  0  0  0  0  0  0
    1.4414   -5.0878    1.3761 H   0  0  0  0  0  0  0  0  0  0  0  0
    6.2816   -5.9228    0.5272 H   0  0  0  0  0  0  0  0  0  0  0  0
    7.5626   -2.5778   -0.4863 H   0  0  0  0  0  0  0  0  0  0  0  0
    7.3317   -4.2935   -0.6881 H   0  0  0  0  0  0  0  0  0  0  0  0
    7.3716   -3.6354    0.9320 H   0  0  0  0  0  0  0  0  0  0  0  0
    4.5099   -2.7741    2.5782 H   0  0  0  0  0  0  0  0  0  0  0  0
    4.8291   -1.0477    2.4608 H   0  0  0  0  0  0  0  0  0  0  0  0
    6.1727   -2.1861    2.4417 H   0  0  0  0  0  0  0  0  0  0  0  0
    3.4055   -0.7426    0.2552 H   0  0  0  0  0  0  0  0  0  0  0  0
    1.8883   -2.8614   -0.2511 H   0  0  0  0  0  0  0  0  0  0  0  0
    2.2869   -2.5000    1.4231 H   0  0  0  0  0  0  0  0  0  0  0  0
    2.1361   -1.4855   -2.3213 H   0  0  0  0  0  0  0  0  0  0  0  0
    2.4252   -3.0510   -4.3195 H   0  0  0  0  0  0  0  0  0  0  0  0
    4.1983   -4.6676   -3.8053 H   0  0  0  0  0  0  0  0  0  0  0  0
    4.9856   -3.5275   -4.8268 H   0  0  0  0  0  0  0  0  0  0  0  0
    6.2116   -4.2522   -2.6689 H   0  0  0  0  0  0  0  0  0  0  0  0
    6.2749   -2.5749   -3.0661 H   0  0  0  0  0  0  0  0  0  0  0  0
    5.6168   -1.3067    0.2132 H   0  0  0  0  0  0  0  0  0  0  0  0
    4.1725   -3.7524   -1.4941 H   0  0  0  0  0  0  0  0  0  0  0  0
  1  2  1  0
  1 22  1  0
  1 23  1  0
  1 24  1  0
  2  7  2  0
  2  3  1  0
  3  4  2  0
  3 25  1  0
  4  5  1  0
  4 26  1  0
  5 13  1  0
  5  6  2  0
  6  7  1  0
  6  8  1  0
  7 27  1  0
  8 21  1  0
  8  9  1  6
  8 10  1  0
  9 28  1  0
  9 29  1  0
  9 30  1  0
 10 11  1  0
 10 12  1  0
 10 43  1  6
 11 31  1  0
 11 32  1  0
 11 33  1  0
 12 13  1  0
 12 14  1  0
 12 34  1  1
 13 35  1  0
 13 36  1  0
 14 21  1  0
 14 15  1  6
 14 16  1  0
 16 18  1  0
 16 17  1  0
 16 37  1  1
 17 18  1  0
 18 19  1  0
 18 38  1  6
 19 20  1  0
 19 39  1  0
 19 40  1  0
 20 21  1  0
 20 41  1  0
 20 42  1  0
 21 44  1  1
M  CHG  3  10   1  15  -1  21   1
M  END
>  <i_m_ct_stereo_status>  (59) 
1

>  <s_m_source_file>  (59) 
/var/tmp/pbs.5076255.sched01/tmppfua8s0c/0korcpw03.sdf

>  <i_m_source_file_index>  (59) 
25

>  <i_lp_mmshare_version>  (59) 
48012

>  <i_f3d_flags>  (59) 
0

>  <s_epik_input>  (59) 
W0NIM11jKFtjSF0xKVtjSF1bY0hdYyhjMVtDQF0yM1tDSDNdKVtDSDJdW0NAQEhdKE4yW0NIM10pW0NAXTQoW09IXSlbQ0BASF01W0NAQEhdKE81KVtDSDJdW0NIMl1OMzQ=

>  <s_epik_cmdline>  (59) 
J2VwaWtfcHl0aG9uJywgJy1waHQnLCAnMi4wJywgJy1waCcsICc3LjAnLCAnLXRuJywgJzgnLCAnLW1hJywgJzIwMCcsICctaW1hZScsICc8aW5maWxlLm1hZT4nLCAnLW9tYWUnLCAnPG91dGZpbGUubWFlPic=

>  <r_epik_Ionization_Penalty>  (59) 
0.0358379

>  <r_epik_Ionization_Penalty_Charging>  (59) 
0.0358379

>  <r_epik_Ionization_Penalty_Neutral>  (59) 
3.81519e-14

>  <r_epik_State_Penalty>  (59) 
0.223027

>  <r_epik_Charging_Adjusted_Penalty>  (59) 
0.258865

>  <i_epik_Tot_Q>  (59) 
1

>  <i_epik_Tot_abs_Q>  (59) 
3

>  <s_lp_Force_Field>  (59) 
OPLS3e

>  <r_lp_Energy>  (59) 
42.4592

>  <b_lp_Chiralities_Consistent>  (59) 
1

>  <s_lp_Variant>  (59) 
19:0-1

>  <s_i_glide_gridfile>  (59) 
pfpi4k_grid

>  <i_i_glide_lignum>  (59) 
25

>  <i_i_glide_rotatable_bonds>  (59) 
0

>  <r_i_docking_score>  (59) 
-4.27401

>  <r_i_glide_ligand_efficiency>  (59) 
-0.203524

>  <r_i_glide_ligand_efficiency_sa>  (59) 
-0.561509

>  <r_i_glide_ligand_efficiency_ln>  (59) 
-1.05674

>  <r_i_glide_gscore>  (59) 
-4.27401

>  <r_i_glide_lipo>  (59) 
-1.03317

>  <r_i_glide_hbond>  (59) 
0

>  <r_i_glide_metal>  (59) 
-0

>  <r_i_glide_rewards>  (59) 
-1.52115

>  <r_i_glide_evdw>  (59) 
-19.3274

>  <r_i_glide_ecoul>  (59) 
-4.77712

>  <r_i_glide_erotb>  (59) 
0

>  <r_i_glide_esite>  (59) 
-0.0367607

>  <r_i_glide_emodel>  (59) 
-33.3395

>  <r_i_glide_energy>  (59) 
-24.1045

>  <r_i_glide_einternal>  (59) 
0

>  <r_i_glide_intrahb_reward>  (59) 
-0

>  <i_i_glide_confnum>  (59) 
2

>  <i_i_glide_posenum>  (59) 
40

>  <r_i_glide_eff_state_penalty>  (59) 
0

>  <ligand_id>  (59) 
19

>  <original_smiles>  (59) 
Cc1ccc2c(c1)C1(C)N(C)C(C2)C2(O)C3OC3CCN21

>  <smiles>  (59) 
[H]c1c([H])c2c(c([H])c1C([H])([H])[H])C1(C([H])([H])[H])[N+]([H])(C([H])([H])[H])C([H])(C2([H])[H])C2([O-])C3([H])OC3([H])C([H])([H])C([H])([H])[N+]21[H]

$$$$
19:0:2
     RDKit          3D

 44 48  0  0  1  0  0  0  0  0999 V2000
    0.9913   -3.4421    3.7814 C   0  0  0  0  0  0  0  0  0  0  0  0
    1.9876   -2.7045    2.9075 C   0  0  0  0  0  0  0  0  0  0  0  0
    2.1758   -1.3163    3.0632 C   0  0  0  0  0  0  0  0  0  0  0  0
    3.1050   -0.6275    2.2633 C   0  0  0  0  0  0  0  0  0  0  0  0
    3.8425   -1.3314    1.2894 C   0  0  0  0  0  0  0  0  0  0  0  0
    3.6461   -2.7266    1.1159 C   0  0  0  0  0  0  0  0  0  0  0  0
    2.7209   -3.4099    1.9334 C   0  0  0  0  0  0  0  0  0  0  0  0
    4.4631   -3.4157    0.0223 C   0  0  2  0  0  0  0  0  0  0  0  0
    4.4522   -4.9641    0.0540 C   0  0  0  0  0  0  0  0  0  0  0  0
    5.8524   -2.8765    0.1160 N   0  0  2  0  0  0  0  0  0  0  0  0
    6.6069   -2.9611    1.3923 C   0  0  0  0  0  0  0  0  0  0  0  0
    5.7171   -1.5285   -0.4765 C   0  0  2  0  0  0  0  0  0  0  0  0
    4.9245   -0.6025    0.4871 C   0  0  0  0  0  0  0  0  0  0  0  0
    4.9985   -1.9151   -1.7766 C   0  0  2  0  0  0  0  0  0  0  0  0
    5.8624   -2.6573   -2.4388 O   0  0  0  0  0  0  0  0  0  0  0  0
    4.3724   -0.8582   -2.6843 C   0  0  1  0  0  0  0  0  0  0  0  0
    4.2340   -1.2334   -4.0724 O   0  0  0  0  0  0  0  0  0  0  0  0
    3.0311   -1.1460   -3.3232 C   0  0  1  0  0  0  0  0  0  0  0  0
    2.3196   -2.4747   -3.0647 C   0  0  0  0  0  0  0  0  0  0  0  0
    3.1602   -3.5036   -2.2779 C   0  0  0  0  0  0  0  0  0  0  0  0
    3.9570   -2.8030   -1.2475 N   0  0  1  0  0  0  0  0  0  0  0  0
    0.4718   -2.7684    4.4595 H   0  0  0  0  0  0  0  0  0  0  0  0
    1.4800   -4.2167    4.3687 H   0  0  0  0  0  0  0  0  0  0  0  0
    0.2370   -3.9242    3.1718 H   0  0  0  0  0  0  0  0  0  0  0  0
    1.6130   -0.7728    3.8029 H   0  0  0  0  0  0  0  0  0  0  0  0
    3.2662    0.4334    2.4107 H   0  0  0  0  0  0  0  0  0  0  0  0
    2.5687   -4.4739    1.8332 H   0  0  0  0  0  0  0  0  0  0  0  0
    5.0633   -5.4066   -0.7381 H   0  0  0  0  0  0  0  0  0  0  0  0
    3.4422   -5.3531   -0.0589 H   0  0  0  0  0  0  0  0  0  0  0  0
    4.8302   -5.3327    1.0090 H   0  0  0  0  0  0  0  0  0  0  0  0
    6.1435   -2.3975    2.2068 H   0  0  0  0  0  0  0  0  0  0  0  0
    7.6007   -2.5446    1.2463 H   0  0  0  0  0  0  0  0  0  0  0  0
    6.7307   -3.9956    1.7163 H   0  0  0  0  0  0  0  0  0  0  0  0
    6.6815   -1.0915   -0.6991 H   0  0  0  0  0  0  0  0  0  0  0  0
    4.4665    0.2152   -0.0577 H   0  0  0  0  0  0  0  0  0  0  0  0
    5.6270   -0.1601    1.1978 H   0  0  0  0  0  0  0  0  0  0  0  0
    4.6914    0.1728   -2.5523 H   0  0  0  0  0  0  0  0  0  0  0  0
    2.4076   -0.3045   -3.6218 H   0  0  0  0  0  0  0  0  0  0  0  0
    1.4250   -2.2615   -2.4828 H   0  0  0  0  0  0  0  0  0  0  0  0
    1.9770   -2.8903   -4.0122 H   0  0  0  0  0  0  0  0  0  0  0  0
    2.4679   -4.1870   -1.7913 H   0  0  0  0  0  0  0  0  0  0  0  0
    3.8092   -4.0658   -2.9544 H   0  0  0  0  0  0  0  0  0  0  0  0
    6.3669   -3.3560   -0.6214 H   0  0  0  0  0  0  0  0  0  0  0  0
    3.2796   -2.1451   -0.8801 H   0  0  0  0  0  0  0  0  0  0  0  0
  1  2  1  0
  1 22  1  0
  1 23  1  0
  1 24  1  0
  2  7  2  0
  2  3  1  0
  3  4  2  0
  3 25  1  0
  4  5  1  0
  4 26  1  0
  5 13  1  0
  5  6  2  0
  6  7  1  0
  6  8  1  0
  7 27  1  0
  8 21  1  0
  8  9  1  6
  8 10  1  0
  9 28  1  0
  9 29  1  0
  9 30  1  0
 10 11  1  0
 10 12  1  0
 10 43  1  6
 11 31  1  0
 11 32  1  0
 11 33  1  0
 12 13  1  0
 12 14  1  0
 12 34  1  6
 13 35  1  0
 13 36  1  0
 14 21  1  0
 14 15  1  6
 14 16  1  0
 16 18  1  0
 16 17  1  0
 16 37  1  6
 17 18  1  0
 18 19  1  0
 18 38  1  6
 19 20  1  0
 19 39  1  0
 19 40  1  0
 20 21  1  0
 20 41  1  0
 20 42  1  0
 21 44  1  1
M  CHG  3  10   1  15  -1  21   1
M  END
>  <i_m_ct_stereo_status>  (60) 
1

>  <s_m_source_file>  (60) 
/var/tmp/pbs.5076255.sched01/tmppfua8s0c/0korcpw03.sdf

>  <i_m_source_file_index>  (60) 
25

>  <i_lp_mmshare_version>  (60) 
48012

>  <i_f3d_flags>  (60) 
0

>  <s_epik_input>  (60) 
W0NIM11jKFtjSF0xKVtjSF1bY0hdYyhjMVtDQF0yM1tDSDNdKVtDSDJdW0NAQEhdKE4yW0NIM10pW0NAXTQoW09IXSlbQ0BASF01W0NAQEhdKE81KVtDSDJdW0NIMl1OMzQ=

>  <s_epik_cmdline>  (60) 
J2VwaWtfcHl0aG9uJywgJy1waHQnLCAnMi4wJywgJy1waCcsICc3LjAnLCAnLXRuJywgJzgnLCAnLW1hJywgJzIwMCcsICctaW1hZScsICc8aW5maWxlLm1hZT4nLCAnLW9tYWUnLCAnPG91dGZpbGUubWFlPic=

>  <r_epik_Ionization_Penalty>  (60) 
0.0358379

>  <r_epik_Ionization_Penalty_Charging>  (60) 
0.0358379

>  <r_epik_Ionization_Penalty_Neutral>  (60) 
3.81519e-14

>  <r_epik_State_Penalty>  (60) 
0.223027

>  <r_epik_Charging_Adjusted_Penalty>  (60) 
0.258865

>  <i_epik_Tot_Q>  (60) 
1

>  <i_epik_Tot_abs_Q>  (60) 
3

>  <s_lp_Force_Field>  (60) 
OPLS3e

>  <r_lp_Energy>  (60) 
42.4592

>  <b_lp_Chiralities_Consistent>  (60) 
1

>  <s_lp_Variant>  (60) 
19:0-1

>  <s_i_glide_gridfile>  (60) 
pfpi4k_grid

>  <i_i_glide_lignum>  (60) 
25

>  <i_i_glide_rotatable_bonds>  (60) 
0

>  <r_i_docking_score>  (60) 
-4.06295

>  <r_i_glide_ligand_efficiency>  (60) 
-0.193474

>  <r_i_glide_ligand_efficiency_sa>  (60) 
-0.53378

>  <r_i_glide_ligand_efficiency_ln>  (60) 
-1.00456

>  <r_i_glide_gscore>  (60) 
-4.06295

>  <r_i_glide_lipo>  (60) 
-0.369759

>  <r_i_glide_hbond>  (60) 
-0.0413533

>  <r_i_glide_metal>  (60) 
-0

>  <r_i_glide_rewards>  (60) 
-1.79437

>  <r_i_glide_evdw>  (60) 
-17.729

>  <r_i_glide_ecoul>  (60) 
-6.17691

>  <r_i_glide_erotb>  (60) 
0

>  <r_i_glide_esite>  (60) 
-0.0444867

>  <r_i_glide_emodel>  (60) 
-32.7191

>  <r_i_glide_energy>  (60) 
-23.9059

>  <r_i_glide_einternal>  (60) 
0

>  <r_i_glide_intrahb_reward>  (60) 
-0

>  <i_i_glide_confnum>  (60) 
1

>  <i_i_glide_posenum>  (60) 
23

>  <r_i_glide_eff_state_penalty>  (60) 
0

>  <ligand_id>  (60) 
19

>  <original_smiles>  (60) 
Cc1ccc2c(c1)C1(C)N(C)C(C2)C2(O)C3OC3CCN21

>  <smiles>  (60) 
[H]c1c([H])c2c(c([H])c1C([H])([H])[H])C1(C([H])([H])[H])[N+]([H])(C([H])([H])[H])C([H])(C2([H])[H])C2([O-])C3([H])OC3([H])C([H])([H])C([H])([H])[N+]21[H]

$$$$
19:1:0
     RDKit          3D

 44 48  0  0  1  0  0  0  0  0999 V2000
    1.2825   -2.6907    3.7072 C   0  0  0  0  0  0  0  0  0  0  0  0
    2.3615   -2.2861    2.7202 C   0  0  0  0  0  0  0  0  0  0  0  0
    2.8219   -0.9547    2.6785 C   0  0  0  0  0  0  0  0  0  0  0  0
    3.8280   -0.5833    1.7670 C   0  0  0  0  0  0  0  0  0  0  0  0
    4.3639   -1.5385    0.8820 C   0  0  0  0  0  0  0  0  0  0  0  0
    3.8925   -2.8780    0.8940 C   0  0  0  0  0  0  0  0  0  0  0  0
    2.8949   -3.2420    1.8326 C   0  0  0  0  0  0  0  0  0  0  0  0
    4.4909   -3.8880   -0.1152 C   0  0  2  0  0  0  0  0  0  0  0  0
    4.1929   -5.3667    0.2172 C   0  0  0  0  0  0  0  0  0  0  0  0
    5.9544   -3.6127   -0.1861 N   0  0  2  0  0  0  0  0  0  0  0  0
    6.7745   -3.6803    1.0555 C   0  0  0  0  0  0  0  0  0  0  0  0
    6.0021   -2.3265   -0.9220 C   0  0  2  0  0  0  0  0  0  0  0  0
    5.5334   -1.1564   -0.0189 C   0  0  0  0  0  0  0  0  0  0  0  0
    5.0460   -2.6438   -2.0755 C   0  0  2  0  0  0  0  0  0  0  0  0
    5.8253   -3.4398   -2.9424 O   0  0  0  0  0  0  0  0  0  0  0  0
    4.5058   -1.4836   -2.9157 C   0  0  1  0  0  0  0  0  0  0  0  0
    4.2128   -1.7773   -4.2921 O   0  0  0  0  0  0  0  0  0  0  0  0
    3.0911   -1.5844   -3.4413 C   0  0  1  0  0  0  0  0  0  0  0  0
    2.3193   -2.8448   -3.1549 C   0  0  0  0  0  0  0  0  0  0  0  0
    2.6552   -3.3244   -1.7354 C   0  0  0  0  0  0  0  0  0  0  0  0
    4.0901   -3.5839   -1.5103 N   0  0  0  0  0  0  0  0  0  0  0  0
    0.9900   -1.8602    4.3473 H   0  0  0  0  0  0  0  0  0  0  0  0
    1.6266   -3.5032    4.3455 H   0  0  0  0  0  0  0  0  0  0  0  0
    0.3916   -3.0257    3.1815 H   0  0  0  0  0  0  0  0  0  0  0  0
    2.4115   -0.2139    3.3469 H   0  0  0  0  0  0  0  0  0  0  0  0
    4.1928    0.4354    1.7608 H   0  0  0  0  0  0  0  0  0  0  0  0
    2.5297   -4.2542    1.8914 H   0  0  0  0  0  0  0  0  0  0  0  0
    3.1209   -5.5582    0.1621 H   0  0  0  0  0  0  0  0  0  0  0  0
    4.5336   -5.6562    1.2133 H   0  0  0  0  0  0  0  0  0  0  0  0
    4.6566   -6.0355   -0.5121 H   0  0  0  0  0  0  0  0  0  0  0  0
    6.4572   -2.9770    1.8287 H   0  0  0  0  0  0  0  0  0  0  0  0
    7.8154   -3.4459    0.8156 H   0  0  0  0  0  0  0  0  0  0  0  0
    6.7585   -4.6858    1.4824 H   0  0  0  0  0  0  0  0  0  0  0  0
    7.0026   -2.1245   -1.3043 H   0  0  0  0  0  0  0  0  0  0  0  0
    5.2536   -0.2803   -0.5994 H   0  0  0  0  0  0  0  0  0  0  0  0
    6.3613   -0.8389    0.6197 H   0  0  0  0  0  0  0  0  0  0  0  0
    5.4585   -4.3167   -2.9532 H   0  0  0  0  0  0  0  0  0  0  0  0
    4.9513   -0.5025   -2.7796 H   0  0  0  0  0  0  0  0  0  0  0  0
    2.5444   -0.6617   -3.6122 H   0  0  0  0  0  0  0  0  0  0  0  0
    1.2563   -2.6577   -3.2690 H   0  0  0  0  0  0  0  0  0  0  0  0
    2.5890   -3.6089   -3.8853 H   0  0  0  0  0  0  0  0  0  0  0  0
    2.2944   -2.5788   -1.0328 H   0  0  0  0  0  0  0  0  0  0  0  0
    2.0827   -4.2321   -1.5295 H   0  0  0  0  0  0  0  0  0  0  0  0
    6.3273   -4.2992   -0.8272 H   0  0  0  0  0  0  0  0  0  0  0  0
  1  2  1  0
  1 22  1  0
  1 23  1  0
  1 24  1  0
  2  7  2  0
  2  3  1  0
  3  4  2  0
  3 25  1  0
  4  5  1  0
  4 26  1  0
  5 13  1  0
  5  6  2  0
  6  7  1  0
  6  8  1  0
  7 27  1  0
  8 21  1  0
  8  9  1  1
  8 10  1  0
  9 28  1  0
  9 29  1  0
  9 30  1  0
 10 11  1  0
 10 12  1  0
 10 44  1  6
 11 31  1  0
 11 32  1  0
 11 33  1  0
 12 13  1  0
 12 14  1  0
 12 34  1  6
 13 35  1  0
 13 36  1  0
 14 21  1  0
 14 15  1  6
 14 16  1  0
 15 37  1  0
 16 18  1  0
 16 17  1  0
 16 38  1  6
 17 18  1  0
 18 19  1  0
 18 39  1  6
 19 20  1  0
 19 40  1  0
 19 41  1  0
 20 21  1  0
 20 42  1  0
 20 43  1  0
M  CHG  1  10   1
M  END
>  <i_m_ct_stereo_status>  (61) 
1

>  <s_m_source_file>  (61) 
/var/tmp/pbs.5076255.sched01/tmppfua8s0c/0korcpw03.sdf

>  <i_m_source_file_index>  (61) 
26

>  <i_lp_mmshare_version>  (61) 
48012

>  <i_f3d_flags>  (61) 
0

>  <s_epik_input>  (61) 
W0NIM11jKFtjSF0xKVtjSF1bY0hdYyhjMVtDQF0yM1tDSDNdKVtDSDJdW0NAQEhdKE4yW0NIM10pW0NAXTQoW09IXSlbQ0BASF01W0NAQEhdKE81KVtDSDJdW0NIMl1OMzQ=

>  <s_epik_cmdline>  (61) 
J2VwaWtfcHl0aG9uJywgJy1waHQnLCAnMi4wJywgJy1waCcsICc3LjAnLCAnLXRuJywgJzgnLCAnLW1hJywgJzIwMCcsICctaW1hZScsICc8aW5maWxlLm1hZT4nLCAnLW9tYWUnLCAnPG91dGZpbGUubWFlPic=

>  <r_epik_Ionization_Penalty>  (61) 
0.0981377

>  <r_epik_Ionization_Penalty_Charging>  (61) 
0.0444428

>  <r_epik_Ionization_Penalty_Neutral>  (61) 
0.0536949

>  <r_epik_State_Penalty>  (61) 
0.870148

>  <r_epik_Charging_Adjusted_Penalty>  (61) 
0.914591

>  <i_epik_Tot_Q>  (61) 
1

>  <i_epik_Tot_abs_Q>  (61) 
1

>  <s_lp_Force_Field>  (61) 
OPLS3e

>  <r_lp_Energy>  (61) 
38.6762

>  <b_lp_Chiralities_Consistent>  (61) 
1

>  <s_lp_Variant>  (61) 
19:0-2

>  <s_i_glide_gridfile>  (61) 
pfpi4k_grid

>  <i_i_glide_lignum>  (61) 
26

>  <i_i_glide_rotatable_bonds>  (61) 
1

>  <r_i_docking_score>  (61) 
-4.27409

>  <r_i_glide_ligand_efficiency>  (61) 
-0.203528

>  <r_i_glide_ligand_efficiency_sa>  (61) 
-0.561519

>  <r_i_glide_ligand_efficiency_ln>  (61) 
-1.05676

>  <r_i_glide_gscore>  (61) 
-4.27409

>  <r_i_glide_lipo>  (61) 
-0.584911

>  <r_i_glide_hbond>  (61) 
-0.32

>  <r_i_glide_metal>  (61) 
-0

>  <r_i_glide_rewards>  (61) 
-1.56479

>  <r_i_glide_evdw>  (61) 
-24.0275

>  <r_i_glide_ecoul>  (61) 
-4.02013

>  <r_i_glide_erotb>  (61) 
0

>  <r_i_glide_esite>  (61) 
0

>  <r_i_glide_emodel>  (61) 
-35.2153

>  <r_i_glide_energy>  (61) 
-28.0476

>  <r_i_glide_einternal>  (61) 
0.878077

>  <r_i_glide_intrahb_reward>  (61) 
-0

>  <i_i_glide_confnum>  (61) 
1

>  <i_i_glide_posenum>  (61) 
9

>  <r_i_glide_eff_state_penalty>  (61) 
0

>  <ligand_id>  (61) 
19

>  <original_smiles>  (61) 
Cc1ccc2c(c1)C1(C)N(C)C(C2)C2(O)C3OC3CCN21

>  <smiles>  (61) 
[H]OC12N(C([H])([H])C([H])([H])C3([H])OC31[H])C1(C([H])([H])[H])c3c([H])c(C([H])([H])[H])c([H])c([H])c3C([H])([H])C2([H])[N+]1([H])C([H])([H])[H]

$$$$
19:1:1
     RDKit          3D

 44 48  0  0  1  0  0  0  0  0999 V2000
    1.3381   -2.7078    3.7215 C   0  0  0  0  0  0  0  0  0  0  0  0
    2.4107   -2.2977    2.7269 C   0  0  0  0  0  0  0  0  0  0  0  0
    2.8667   -0.9687    2.6853 C   0  0  0  0  0  0  0  0  0  0  0  0
    3.8667   -0.5863    1.7667 C   0  0  0  0  0  0  0  0  0  0  0  0
    4.3987   -1.5434    0.8756 C   0  0  0  0  0  0  0  0  0  0  0  0
    3.9324   -2.8764    0.8945 C   0  0  0  0  0  0  0  0  0  0  0  0
    2.9379   -3.2538    1.8338 C   0  0  0  0  0  0  0  0  0  0  0  0
    4.5170   -3.8878   -0.1285 C   0  0  2  0  0  0  0  0  0  0  0  0
    4.2313   -5.3636    0.2036 C   0  0  0  0  0  0  0  0  0  0  0  0
    5.9766   -3.6119   -0.2066 N   0  0  2  0  0  0  0  0  0  0  0  0
    6.8085   -3.6875    1.0235 C   0  0  0  0  0  0  0  0  0  0  0  0
    6.0289   -2.3253   -0.9339 C   0  0  2  0  0  0  0  0  0  0  0  0
    5.5647   -1.1562   -0.0282 C   0  0  0  0  0  0  0  0  0  0  0  0
    5.0742   -2.6337   -2.0840 C   0  0  2  0  0  0  0  0  0  0  0  0
    5.8211   -3.4556   -2.9530 O   0  0  0  0  0  0  0  0  0  0  0  0
    4.5153   -1.4718   -2.9156 C   0  0  1  0  0  0  0  0  0  0  0  0
    4.2116   -1.7742   -4.2911 O   0  0  0  0  0  0  0  0  0  0  0  0
    3.0963   -1.5779   -3.4322 C   0  0  1  0  0  0  0  0  0  0  0  0
    2.3304   -2.8434   -3.1437 C   0  0  0  0  0  0  0  0  0  0  0  0
    2.6792   -3.3216   -1.7309 C   0  0  0  0  0  0  0  0  0  0  0  0
    4.1161   -3.5752   -1.5098 N   0  0  0  0  0  0  0  0  0  0  0  0
    1.0508   -1.8771    4.3631 H   0  0  0  0  0  0  0  0  0  0  0  0
    1.6894   -3.5192    4.3561 H   0  0  0  0  0  0  0  0  0  0  0  0
    0.4447   -3.0412    3.2000 H   0  0  0  0  0  0  0  0  0  0  0  0
    2.4602   -0.2244    3.3595 H   0  0  0  0  0  0  0  0  0  0  0  0
    4.2262    0.4335    1.7587 H   0  0  0  0  0  0  0  0  0  0  0  0
    2.5749   -4.2695    1.8919 H   0  0  0  0  0  0  0  0  0  0  0  0
    3.1616   -5.5612    0.1563 H   0  0  0  0  0  0  0  0  0  0  0  0
    4.5789   -5.6605    1.1974 H   0  0  0  0  0  0  0  0  0  0  0  0
    4.6895   -6.0336   -0.5306 H   0  0  0  0  0  0  0  0  0  0  0  0
    6.5032   -2.9881    1.7990 H   0  0  0  0  0  0  0  0  0  0  0  0
    7.8432   -3.4495    0.7829 H   0  0  0  0  0  0  0  0  0  0  0  0
    6.8013   -4.6845    1.4512 H   0  0  0  0  0  0  0  0  0  0  0  0
    7.0247   -2.1157   -1.3184 H   0  0  0  0  0  0  0  0  0  0  0  0
    5.2757   -0.2826   -0.6064 H   0  0  0  0  0  0  0  0  0  0  0  0
    6.3922   -0.8367    0.6070 H   0  0  0  0  0  0  0  0  0  0  0  0
    6.6876   -3.1142   -3.1185 H   0  0  0  0  0  0  0  0  0  0  0  0
    4.9565   -0.4857   -2.7888 H   0  0  0  0  0  0  0  0  0  0  0  0
    2.5530   -0.6627   -3.6013 H   0  0  0  0  0  0  0  0  0  0  0  0
    1.2597   -2.6534   -3.2554 H   0  0  0  0  0  0  0  0  0  0  0  0
    2.5994   -3.6040   -3.8818 H   0  0  0  0  0  0  0  0  0  0  0  0
    2.3096   -2.5776   -1.0218 H   0  0  0  0  0  0  0  0  0  0  0  0
    2.1120   -4.2338   -1.5281 H   0  0  0  0  0  0  0  0  0  0  0  0
    6.3252   -4.3000   -0.8599 H   0  0  0  0  0  0  0  0  0  0  0  0
  1  2  1  0
  1 22  1  0
  1 23  1  0
  1 24  1  0
  2  7  2  0
  2  3  1  0
  3  4  2  0
  3 25  1  0
  4  5  1  0
  4 26  1  0
  5 13  1  0
  5  6  2  0
  6  7  1  0
  6  8  1  0
  7 27  1  0
  8 21  1  0
  8  9  1  1
  8 10  1  0
  9 28  1  0
  9 29  1  0
  9 30  1  0
 10 11  1  0
 10 12  1  0
 10 44  1  6
 11 31  1  0
 11 32  1  0
 11 33  1  0
 12 13  1  0
 12 14  1  0
 12 34  1  6
 13 35  1  0
 13 36  1  0
 14 21  1  0
 14 15  1  6
 14 16  1  0
 15 37  1  0
 16 18  1  0
 16 17  1  0
 16 38  1  6
 17 18  1  0
 18 19  1  0
 18 39  1  6
 19 20  1  0
 19 40  1  0
 19 41  1  0
 20 21  1  0
 20 42  1  0
 20 43  1  0
M  CHG  1  10   1
M  END
>  <i_m_ct_stereo_status>  (62) 
1

>  <s_m_source_file>  (62) 
/var/tmp/pbs.5076255.sched01/tmppfua8s0c/0korcpw03.sdf

>  <i_m_source_file_index>  (62) 
26

>  <i_lp_mmshare_version>  (62) 
48012

>  <i_f3d_flags>  (62) 
0

>  <s_epik_input>  (62) 
W0NIM11jKFtjSF0xKVtjSF1bY0hdYyhjMVtDQF0yM1tDSDNdKVtDSDJdW0NAQEhdKE4yW0NIM10pW0NAXTQoW09IXSlbQ0BASF01W0NAQEhdKE81KVtDSDJdW0NIMl1OMzQ=

>  <s_epik_cmdline>  (62) 
J2VwaWtfcHl0aG9uJywgJy1waHQnLCAnMi4wJywgJy1waCcsICc3LjAnLCAnLXRuJywgJzgnLCAnLW1hJywgJzIwMCcsICctaW1hZScsICc8aW5maWxlLm1hZT4nLCAnLW9tYWUnLCAnPG91dGZpbGUubWFlPic=

>  <r_epik_Ionization_Penalty>  (62) 
0.0981377

>  <r_epik_Ionization_Penalty_Charging>  (62) 
0.0444428

>  <r_epik_Ionization_Penalty_Neutral>  (62) 
0.0536949

>  <r_epik_State_Penalty>  (62) 
0.870148

>  <r_epik_Charging_Adjusted_Penalty>  (62) 
0.914591

>  <i_epik_Tot_Q>  (62) 
1

>  <i_epik_Tot_abs_Q>  (62) 
1

>  <s_lp_Force_Field>  (62) 
OPLS3e

>  <r_lp_Energy>  (62) 
38.6762

>  <b_lp_Chiralities_Consistent>  (62) 
1

>  <s_lp_Variant>  (62) 
19:0-2

>  <s_i_glide_gridfile>  (62) 
pfpi4k_grid

>  <i_i_glide_lignum>  (62) 
26

>  <i_i_glide_rotatable_bonds>  (62) 
1

>  <r_i_docking_score>  (62) 
-4.24579

>  <r_i_glide_ligand_efficiency>  (62) 
-0.202181

>  <r_i_glide_ligand_efficiency_sa>  (62) 
-0.557801

>  <r_i_glide_ligand_efficiency_ln>  (62) 
-1.04976

>  <r_i_glide_gscore>  (62) 
-4.24579

>  <r_i_glide_lipo>  (62) 
-0.577087

>  <r_i_glide_hbond>  (62) 
-0.32

>  <r_i_glide_metal>  (62) 
-0

>  <r_i_glide_rewards>  (62) 
-1.57116

>  <r_i_glide_evdw>  (62) 
-24.1343

>  <r_i_glide_ecoul>  (62) 
-3.80555

>  <r_i_glide_erotb>  (62) 
0

>  <r_i_glide_esite>  (62) 
0

>  <r_i_glide_emodel>  (62) 
-35.4269

>  <r_i_glide_energy>  (62) 
-27.9399

>  <r_i_glide_einternal>  (62) 
0.00199147

>  <r_i_glide_intrahb_reward>  (62) 
-0

>  <i_i_glide_confnum>  (62) 
1

>  <i_i_glide_posenum>  (62) 
26

>  <r_i_glide_eff_state_penalty>  (62) 
0

>  <ligand_id>  (62) 
19

>  <original_smiles>  (62) 
Cc1ccc2c(c1)C1(C)N(C)C(C2)C2(O)C3OC3CCN21

>  <smiles>  (62) 
[H]OC12N(C([H])([H])C([H])([H])C3([H])OC31[H])C1(C([H])([H])[H])c3c([H])c(C([H])([H])[H])c([H])c([H])c3C([H])([H])C2([H])[N+]1([H])C([H])([H])[H]

$$$$
19:1:2
     RDKit          3D

 44 48  0  0  1  0  0  0  0  0999 V2000
    6.0179   -7.3627    2.0237 C   0  0  0  0  0  0  0  0  0  0  0  0
    5.1584   -6.1776    1.6109 C   0  0  0  0  0  0  0  0  0  0  0  0
    3.7808   -6.1733    1.8875 C   0  0  0  0  0  0  0  0  0  0  0  0
    2.9860   -5.0693    1.5145 C   0  0  0  0  0  0  0  0  0  0  0  0
    3.5743   -3.9750    0.8442 C   0  0  0  0  0  0  0  0  0  0  0  0
    4.9538   -3.9783    0.5429 C   0  0  0  0  0  0  0  0  0  0  0  0
    5.7489   -5.0871    0.9400 C   0  0  0  0  0  0  0  0  0  0  0  0
    5.5573   -2.7643   -0.2196 C   0  0  2  0  0  0  0  0  0  0  0  0
    7.0952   -2.6996   -0.1636 C   0  0  0  0  0  0  0  0  0  0  0  0
    4.9173   -1.5447    0.3496 N   0  0  2  0  0  0  0  0  0  0  0  0
    5.0415   -1.2612    1.8029 C   0  0  0  0  0  0  0  0  0  0  0  0
    3.5370   -1.6255   -0.1727 C   0  0  2  0  0  0  0  0  0  0  0  0
    2.7349   -2.7333    0.5525 C   0  0  0  0  0  0  0  0  0  0  0  0
    3.8351   -1.9340   -1.6412 C   0  0  2  0  0  0  0  0  0  0  0  0
    4.2411   -0.6899   -2.1747 O   0  0  0  0  0  0  0  0  0  0  0  0
    2.7075   -2.4697   -2.5293 C   0  0  1  0  0  0  0  0  0  0  0  0
    2.7893   -2.0999   -3.9162 O   0  0  0  0  0  0  0  0  0  0  0  0
    3.0375   -3.4699   -3.6106 C   0  0  1  0  0  0  0  0  0  0  0  0
    4.4774   -3.8773   -3.7600 C   0  0  0  0  0  0  0  0  0  0  0  0
    5.1309   -3.9463   -2.3813 C   0  0  0  0  0  0  0  0  0  0  0  0
    5.0902   -2.6854   -1.6189 N   0  0  0  0  0  0  0  0  0  0  0  0
    5.4366   -8.1120    2.5586 H   0  0  0  0  0  0  0  0  0  0  0  0
    6.8321   -7.0442    2.6725 H   0  0  0  0  0  0  0  0  0  0  0  0
    6.4446   -7.8419    1.1456 H   0  0  0  0  0  0  0  0  0  0  0  0
    3.3206   -7.0113    2.3971 H   0  0  0  0  0  0  0  0  0  0  0  0
    1.9354   -5.0603    1.7640 H   0  0  0  0  0  0  0  0  0  0  0  0
    6.8111   -5.1171    0.7527 H   0  0  0  0  0  0  0  0  0  0  0  0
    7.5328   -3.5585   -0.6724 H   0  0  0  0  0  0  0  0  0  0  0  0
    7.4922   -2.6766    0.8533 H   0  0  0  0  0  0  0  0  0  0  0  0
    7.4739   -1.8253   -0.6934 H   0  0  0  0  0  0  0  0  0  0  0  0
    4.6177   -2.0374    2.4392 H   0  0  0  0  0  0  0  0  0  0  0  0
    4.5125   -0.3385    2.0437 H   0  0  0  0  0  0  0  0  0  0  0  0
    6.0792   -1.1208    2.0964 H   0  0  0  0  0  0  0  0  0  0  0  0
    3.0132   -0.6729   -0.0798 H   0  0  0  0  0  0  0  0  0  0  0  0
    1.8612   -3.0331   -0.0182 H   0  0  0  0  0  0  0  0  0  0  0  0
    2.3591   -2.3449    1.4996 H   0  0  0  0  0  0  0  0  0  0  0  0
    3.4627   -0.1863   -2.3743 H   0  0  0  0  0  0  0  0  0  0  0  0
    1.6941   -2.4846   -2.1523 H   0  0  0  0  0  0  0  0  0  0  0  0
    2.2662   -4.1703   -3.9111 H   0  0  0  0  0  0  0  0  0  0  0  0
    4.5368   -4.8324   -4.2936 H   0  0  0  0  0  0  0  0  0  0  0  0
    4.9866   -3.1212   -4.3465 H   0  0  0  0  0  0  0  0  0  0  0  0
    4.6568   -4.7565   -1.8231 H   0  0  0  0  0  0  0  0  0  0  0  0
    6.1726   -4.2344   -2.5291 H   0  0  0  0  0  0  0  0  0  0  0  0
    5.3241   -0.7639   -0.1486 H   0  0  0  0  0  0  0  0  0  0  0  0
  1  2  1  0
  1 22  1  0
  1 23  1  0
  1 24  1  0
  2  7  2  0
  2  3  1  0
  3  4  2  0
  3 25  1  0
  4  5  1  0
  4 26  1  0
  5 13  1  0
  5  6  2  0
  6  7  1  0
  6  8  1  0
  7 27  1  0
  8 21  1  0
  8  9  1  6
  8 10  1  0
  9 28  1  0
  9 29  1  0
  9 30  1  0
 10 11  1  0
 10 12  1  0
 10 44  1  6
 11 31  1  0
 11 32  1  0
 11 33  1  0
 12 13  1  0
 12 14  1  0
 12 34  1  6
 13 35  1  0
 13 36  1  0
 14 21  1  0
 14 15  1  6
 14 16  1  0
 15 37  1  0
 16 18  1  0
 16 17  1  0
 16 38  1  1
 17 18  1  0
 18 19  1  0
 18 39  1  6
 19 20  1  0
 19 40  1  0
 19 41  1  0
 20 21  1  0
 20 42  1  0
 20 43  1  0
M  CHG  1  10   1
M  END
>  <i_m_ct_stereo_status>  (63) 
1

>  <s_m_source_file>  (63) 
/var/tmp/pbs.5076255.sched01/tmppfua8s0c/0korcpw03.sdf

>  <i_m_source_file_index>  (63) 
26

>  <i_lp_mmshare_version>  (63) 
48012

>  <i_f3d_flags>  (63) 
0

>  <s_epik_input>  (63) 
W0NIM11jKFtjSF0xKVtjSF1bY0hdYyhjMVtDQF0yM1tDSDNdKVtDSDJdW0NAQEhdKE4yW0NIM10pW0NAXTQoW09IXSlbQ0BASF01W0NAQEhdKE81KVtDSDJdW0NIMl1OMzQ=

>  <s_epik_cmdline>  (63) 
J2VwaWtfcHl0aG9uJywgJy1waHQnLCAnMi4wJywgJy1waCcsICc3LjAnLCAnLXRuJywgJzgnLCAnLW1hJywgJzIwMCcsICctaW1hZScsICc8aW5maWxlLm1hZT4nLCAnLW9tYWUnLCAnPG91dGZpbGUubWFlPic=

>  <r_epik_Ionization_Penalty>  (63) 
0.0981377

>  <r_epik_Ionization_Penalty_Charging>  (63) 
0.0444428

>  <r_epik_Ionization_Penalty_Neutral>  (63) 
0.0536949

>  <r_epik_State_Penalty>  (63) 
0.870148

>  <r_epik_Charging_Adjusted_Penalty>  (63) 
0.914591

>  <i_epik_Tot_Q>  (63) 
1

>  <i_epik_Tot_abs_Q>  (63) 
1

>  <s_lp_Force_Field>  (63) 
OPLS3e

>  <r_lp_Energy>  (63) 
38.6762

>  <b_lp_Chiralities_Consistent>  (63) 
1

>  <s_lp_Variant>  (63) 
19:0-2

>  <s_i_glide_gridfile>  (63) 
pfpi4k_grid

>  <i_i_glide_lignum>  (63) 
26

>  <i_i_glide_rotatable_bonds>  (63) 
1

>  <r_i_docking_score>  (63) 
-4.07329

>  <r_i_glide_ligand_efficiency>  (63) 
-0.193966

>  <r_i_glide_ligand_efficiency_sa>  (63) 
-0.535138

>  <r_i_glide_ligand_efficiency_ln>  (63) 
-1.00711

>  <r_i_glide_gscore>  (63) 
-4.07329

>  <r_i_glide_lipo>  (63) 
-0.590497

>  <r_i_glide_hbond>  (63) 
0

>  <r_i_glide_metal>  (63) 
-0

>  <r_i_glide_rewards>  (63) 
-1.46877

>  <r_i_glide_evdw>  (63) 
-23.4726

>  <r_i_glide_ecoul>  (63) 
-5.26658

>  <r_i_glide_erotb>  (63) 
0

>  <r_i_glide_esite>  (63) 
-0.0504022

>  <r_i_glide_emodel>  (63) 
-35.8013

>  <r_i_glide_energy>  (63) 
-28.7392

>  <r_i_glide_einternal>  (63) 
0.260534

>  <r_i_glide_intrahb_reward>  (63) 
-0

>  <i_i_glide_confnum>  (63) 
1

>  <i_i_glide_posenum>  (63) 
20

>  <r_i_glide_eff_state_penalty>  (63) 
0

>  <ligand_id>  (63) 
19

>  <original_smiles>  (63) 
Cc1ccc2c(c1)C1(C)N(C)C(C2)C2(O)C3OC3CCN21

>  <smiles>  (63) 
[H]OC12N(C([H])([H])C([H])([H])C3([H])OC31[H])C1(C([H])([H])[H])c3c([H])c(C([H])([H])[H])c([H])c([H])c3C([H])([H])C2([H])[N+]1([H])C([H])([H])[H]

$$$$
19:2:0
     RDKit          3D

 44 48  0  0  1  0  0  0  0  0999 V2000
    5.4920   -7.9341    1.7009 C   0  0  0  0  0  0  0  0  0  0  0  0
    4.7638   -6.6479    1.3543 C   0  0  0  0  0  0  0  0  0  0  0  0
    3.3823   -6.5318    1.6031 C   0  0  0  0  0  0  0  0  0  0  0  0
    2.7042   -5.3406    1.2910 C   0  0  0  0  0  0  0  0  0  0  0  0
    3.4033   -4.2559    0.7199 C   0  0  0  0  0  0  0  0  0  0  0  0
    4.7967   -4.3579    0.4673 C   0  0  0  0  0  0  0  0  0  0  0  0
    5.4679   -5.5653    0.7873 C   0  0  0  0  0  0  0  0  0  0  0  0
    5.4949   -3.1544   -0.1922 C   0  0  2  0  0  0  0  0  0  0  0  0
    7.0395   -3.1845   -0.1166 C   0  0  0  0  0  0  0  0  0  0  0  0
    4.9343   -1.9036    0.3544 N   0  0  0  0  0  0  0  0  0  0  0  0
    5.0562   -1.6574    1.7899 C   0  0  0  0  0  0  0  0  0  0  0  0
    3.5830   -1.8513   -0.1959 C   0  0  2  0  0  0  0  0  0  0  0  0
    2.6703   -2.9458    0.4233 C   0  0  0  0  0  0  0  0  0  0  0  0
    3.9239   -2.0659   -1.6767 C   0  0  2  0  0  0  0  0  0  0  0  0
    4.6660   -0.9413   -2.1460 O   0  0  0  0  0  0  0  0  0  0  0  0
    2.8584   -2.4375   -2.6897 C   0  0  1  0  0  0  0  0  0  0  0  0
    3.1534   -2.0061   -4.0297 O   0  0  0  0  0  0  0  0  0  0  0  0
    3.2418   -3.4081   -3.7988 C   0  0  1  0  0  0  0  0  0  0  0  0
    4.6603   -3.9931   -3.8862 C   0  0  0  0  0  0  0  0  0  0  0  0
    5.6605   -3.4461   -2.8276 C   0  0  0  0  0  0  0  0  0  0  0  0
    4.9234   -3.1490   -1.5776 N   0  0  1  0  0  0  0  0  0  0  0  0
    4.8374   -8.6498    2.1958 H   0  0  0  0  0  0  0  0  0  0  0  0
    6.3323   -7.7347    2.3650 H   0  0  0  0  0  0  0  0  0  0  0  0
    5.8715   -8.4125    0.8019 H   0  0  0  0  0  0  0  0  0  0  0  0
    2.8361   -7.3560    2.0386 H   0  0  0  0  0  0  0  0  0  0  0  0
    1.6491   -5.2580    1.5084 H   0  0  0  0  0  0  0  0  0  0  0  0
    6.5257   -5.6816    0.6110 H   0  0  0  0  0  0  0  0  0  0  0  0
    7.3614   -3.2069    0.9248 H   0  0  0  0  0  0  0  0  0  0  0  0
    7.4812   -2.2942   -0.5673 H   0  0  0  0  0  0  0  0  0  0  0  0
    7.4795   -4.0553   -0.6009 H   0  0  0  0  0  0  0  0  0  0  0  0
    4.6171   -0.6890    2.0406 H   0  0  0  0  0  0  0  0  0  0  0  0
    6.1050   -1.6247    2.0893 H   0  0  0  0  0  0  0  0  0  0  0  0
    4.5516   -2.4196    2.3842 H   0  0  0  0  0  0  0  0  0  0  0  0
    3.1234   -0.8688   -0.0599 H   0  0  0  0  0  0  0  0  0  0  0  0
    1.8153   -3.1466   -0.2206 H   0  0  0  0  0  0  0  0  0  0  0  0
    2.2665   -2.5707    1.3643 H   0  0  0  0  0  0  0  0  0  0  0  0
    4.1662   -0.1634   -1.9446 H   0  0  0  0  0  0  0  0  0  0  0  0
    1.8148   -2.3179   -2.4201 H   0  0  0  0  0  0  0  0  0  0  0  0
    2.4499   -3.9760   -4.2914 H   0  0  0  0  0  0  0  0  0  0  0  0
    4.6068   -5.0724   -3.7682 H   0  0  0  0  0  0  0  0  0  0  0  0
    5.0388   -3.8604   -4.8960 H   0  0  0  0  0  0  0  0  0  0  0  0
    6.4169   -4.1975   -2.6632 H   0  0  0  0  0  0  0  0  0  0  0  0
    6.1909   -2.5755   -3.1893 H   0  0  0  0  0  0  0  0  0  0  0  0
    4.3375   -3.9689   -1.5021 H   0  0  0  0  0  0  0  0  0  0  0  0
  1  2  1  0
  1 22  1  0
  1 23  1  0
  1 24  1  0
  2  7  2  0
  2  3  1  0
  3  4  2  0
  3 25  1  0
  4  5  1  0
  4 26  1  0
  5 13  1  0
  5  6  2  0
  6  7  1  0
  6  8  1  0
  7 27  1  0
  8 21  1  0
  8  9  1  6
  8 10  1  0
  9 28  1  0
  9 29  1  0
  9 30  1  0
 10 11  1  0
 10 12  1  0
 11 31  1  0
 11 32  1  0
 11 33  1  0
 12 13  1  0
 12 14  1  0
 12 34  1  6
 13 35  1  0
 13 36  1  0
 14 21  1  0
 14 15  1  6
 14 16  1  0
 15 37  1  0
 16 18  1  0
 16 17  1  0
 16 38  1  1
 17 18  1  0
 18 19  1  0
 18 39  1  6
 19 20  1  0
 19 40  1  0
 19 41  1  0
 20 21  1  0
 20 42  1  0
 20 43  1  0
 21 44  1  1
M  CHG  1  21   1
M  END
>  <i_m_ct_stereo_status>  (64) 
1

>  <s_m_source_file>  (64) 
/var/tmp/pbs.5076255.sched01/tmppfua8s0c/0korcpw03.sdf

>  <i_m_source_file_index>  (64) 
27

>  <i_lp_mmshare_version>  (64) 
48012

>  <i_f3d_flags>  (64) 
0

>  <s_epik_input>  (64) 
W0NIM11jKFtjSF0xKVtjSF1bY0hdYyhjMVtDQF0yM1tDSDNdKVtDSDJdW0NAQEhdKE4yW0NIM10pW0NAXTQoW09IXSlbQ0BASF01W0NAQEhdKE81KVtDSDJdW0NIMl1OMzQ=

>  <s_epik_cmdline>  (64) 
J2VwaWtfcHl0aG9uJywgJy1waHQnLCAnMi4wJywgJy1waCcsICc3LjAnLCAnLXRuJywgJzgnLCAnLW1hJywgJzIwMCcsICctaW1hZScsICc8aW5maWxlLm1hZT4nLCAnLW9tYWUnLCAnPG91dGZpbGUubWFlPic=

>  <r_epik_Ionization_Penalty>  (64) 
0.704947

>  <r_epik_Ionization_Penalty_Charging>  (64) 
0.145445

>  <r_epik_Ionization_Penalty_Neutral>  (64) 
0.559501

>  <r_epik_State_Penalty>  (64) 
1.95818

>  <r_epik_Charging_Adjusted_Penalty>  (64) 
2.10363

>  <i_epik_Tot_Q>  (64) 
1

>  <i_epik_Tot_abs_Q>  (64) 
1

>  <s_lp_Force_Field>  (64) 
OPLS3e

>  <r_lp_Energy>  (64) 
39.7431

>  <b_lp_Chiralities_Consistent>  (64) 
1

>  <s_lp_Variant>  (64) 
19:0-3

>  <s_i_glide_gridfile>  (64) 
pfpi4k_grid

>  <i_i_glide_lignum>  (64) 
27

>  <i_i_glide_rotatable_bonds>  (64) 
1

>  <r_i_docking_score>  (64) 
-4.49069

>  <r_i_glide_ligand_efficiency>  (64) 
-0.213842

>  <r_i_glide_ligand_efficiency_sa>  (64) 
-0.589975

>  <r_i_glide_ligand_efficiency_ln>  (64) 
-1.11031

>  <r_i_glide_gscore>  (64) 
-4.49069

>  <r_i_glide_lipo>  (64) 
-0.888175

>  <r_i_glide_hbond>  (64) 
-0.0358321

>  <r_i_glide_metal>  (64) 
-0

>  <r_i_glide_rewards>  (64) 
-1.50898

>  <r_i_glide_evdw>  (64) 
-23.3738

>  <r_i_glide_ecoul>  (64) 
-5.6651

>  <r_i_glide_erotb>  (64) 
0

>  <r_i_glide_esite>  (64) 
-0.0392445

>  <r_i_glide_emodel>  (64) 
-37.4311

>  <r_i_glide_energy>  (64) 
-29.0389

>  <r_i_glide_einternal>  (64) 
0.0472134

>  <r_i_glide_intrahb_reward>  (64) 
-0

>  <i_i_glide_confnum>  (64) 
2

>  <i_i_glide_posenum>  (64) 
10

>  <r_i_glide_eff_state_penalty>  (64) 
0

>  <ligand_id>  (64) 
19

>  <original_smiles>  (64) 
Cc1ccc2c(c1)C1(C)N(C)C(C2)C2(O)C3OC3CCN21

>  <smiles>  (64) 
[H]OC12C3([H])OC3([H])C([H])([H])C([H])([H])[N+]1([H])C1(C([H])([H])[H])c3c([H])c(C([H])([H])[H])c([H])c([H])c3C([H])([H])C2([H])N1C([H])([H])[H]

$$$$
19:2:1
     RDKit          3D

 44 48  0  0  1  0  0  0  0  0999 V2000
    3.1964   -6.4533    2.9167 C   0  0  0  0  0  0  0  0  0  0  0  0
    3.1936   -5.0297    2.3977 C   0  0  0  0  0  0  0  0  0  0  0  0
    2.1409   -4.1521    2.7557 C   0  0  0  0  0  0  0  0  0  0  0  0
    2.1401   -2.8327    2.2831 C   0  0  0  0  0  0  0  0  0  0  0  0
    3.1636   -2.3767    1.4441 C   0  0  0  0  0  0  0  0  0  0  0  0
    4.2324   -3.2533    1.0705 C   0  0  0  0  0  0  0  0  0  0  0  0
    4.2291   -4.5740    1.5580 C   0  0  0  0  0  0  0  0  0  0  0  0
    5.3094   -2.6948    0.1253 C   0  0  2  0  0  0  0  0  0  0  0  0
    6.5994   -3.5368    0.0661 C   0  0  0  0  0  0  0  0  0  0  0  0
    5.5664   -1.2831    0.4597 N   0  0  0  0  0  0  0  0  0  0  0  0
    6.0375   -0.9709    1.8011 C   0  0  0  0  0  0  0  0  0  0  0  0
    4.3486   -0.5927    0.0446 C   0  0  2  0  0  0  0  0  0  0  0  0
    3.1679   -0.9270    0.9820 C   0  0  0  0  0  0  0  0  0  0  0  0
    4.2524   -1.1468   -1.3858 C   0  0  2  0  0  0  0  0  0  0  0  0
    5.3711   -0.6650   -2.0859 O   0  0  0  0  0  0  0  0  0  0  0  0
    3.0171   -0.9919   -2.2761 C   0  0  1  0  0  0  0  0  0  0  0  0
    3.3030   -0.9724   -3.6831 O   0  0  0  0  0  0  0  0  0  0  0  0
    2.6760   -2.1364   -3.1925 C   0  0  1  0  0  0  0  0  0  0  0  0
    3.5261   -3.3894   -3.2630 C   0  0  0  0  0  0  0  0  0  0  0  0
    4.8331   -3.3579   -2.4144 C   0  0  0  0  0  0  0  0  0  0  0  0
    4.5783   -2.5612   -1.1771 N   0  0  1  0  0  0  0  0  0  0  0  0
    2.3648   -6.6429    3.5930 H   0  0  0  0  0  0  0  0  0  0  0  0
    4.1185   -6.6559    3.4614 H   0  0  0  0  0  0  0  0  0  0  0  0
    3.1180   -7.1614    2.0922 H   0  0  0  0  0  0  0  0  0  0  0  0
    1.3289   -4.4962    3.3764 H   0  0  0  0  0  0  0  0  0  0  0  0
    1.3199   -2.1630    2.5403 H   0  0  0  0  0  0  0  0  0  0  0  0
    5.0297   -5.2676    1.3135 H   0  0  0  0  0  0  0  0  0  0  0  0
    7.0356   -3.5973    1.0590 H   0  0  0  0  0  0  0  0  0  0  0  0
    7.3493   -3.0832   -0.5850 H   0  0  0  0  0  0  0  0  0  0  0  0
    6.4322   -4.5628   -0.2687 H   0  0  0  0  0  0  0  0  0  0  0  0
    6.1894    0.1056    1.9032 H   0  0  0  0  0  0  0  0  0  0  0  0
    7.0061   -1.4341    1.9878 H   0  0  0  0  0  0  0  0  0  0  0  0
    5.3376   -1.2882    2.5750 H   0  0  0  0  0  0  0  0  0  0  0  0
    4.4946    0.4820    0.0441 H   0  0  0  0  0  0  0  0  0  0  0  0
    2.2146   -0.6761    0.5359 H   0  0  0  0  0  0  0  0  0  0  0  0
    3.2255   -0.2824    1.8617 H   0  0  0  0  0  0  0  0  0  0  0  0
    5.3080    0.2719   -2.0642 H   0  0  0  0  0  0  0  0  0  0  0  0
    2.2502   -0.2645   -2.0060 H   0  0  0  0  0  0  0  0  0  0  0  0
    1.6268   -2.2711   -3.4666 H   0  0  0  0  0  0  0  0  0  0  0  0
    2.8528   -4.1642   -2.9185 H   0  0  0  0  0  0  0  0  0  0  0  0
    3.7486   -3.6114   -4.3081 H   0  0  0  0  0  0  0  0  0  0  0  0
    5.1036   -4.3707   -2.1534 H   0  0  0  0  0  0  0  0  0  0  0  0
    5.6583   -2.9501   -2.9909 H   0  0  0  0  0  0  0  0  0  0  0  0
    3.6882   -2.9246   -0.8912 H   0  0  0  0  0  0  0  0  0  0  0  0
  1  2  1  0
  1 22  1  0
  1 23  1  0
  1 24  1  0
  2  7  2  0
  2  3  1  0
  3  4  2  0
  3 25  1  0
  4  5  1  0
  4 26  1  0
  5 13  1  0
  5  6  2  0
  6  7  1  0
  6  8  1  0
  7 27  1  0
  8 21  1  0
  8  9  1  6
  8 10  1  0
  9 28  1  0
  9 29  1  0
  9 30  1  0
 10 11  1  0
 10 12  1  0
 11 31  1  0
 11 32  1  0
 11 33  1  0
 12 13  1  0
 12 14  1  0
 12 34  1  6
 13 35  1  0
 13 36  1  0
 14 21  1  0
 14 15  1  6
 14 16  1  0
 15 37  1  0
 16 18  1  0
 16 17  1  0
 16 38  1  1
 17 18  1  0
 18 19  1  0
 18 39  1  6
 19 20  1  0
 19 40  1  0
 19 41  1  0
 20 21  1  0
 20 42  1  0
 20 43  1  0
 21 44  1  1
M  CHG  1  21   1
M  END
>  <i_m_ct_stereo_status>  (65) 
1

>  <s_m_source_file>  (65) 
/var/tmp/pbs.5076255.sched01/tmppfua8s0c/0korcpw03.sdf

>  <i_m_source_file_index>  (65) 
27

>  <i_lp_mmshare_version>  (65) 
48012

>  <i_f3d_flags>  (65) 
0

>  <s_epik_input>  (65) 
W0NIM11jKFtjSF0xKVtjSF1bY0hdYyhjMVtDQF0yM1tDSDNdKVtDSDJdW0NAQEhdKE4yW0NIM10pW0NAXTQoW09IXSlbQ0BASF01W0NAQEhdKE81KVtDSDJdW0NIMl1OMzQ=

>  <s_epik_cmdline>  (65) 
J2VwaWtfcHl0aG9uJywgJy1waHQnLCAnMi4wJywgJy1waCcsICc3LjAnLCAnLXRuJywgJzgnLCAnLW1hJywgJzIwMCcsICctaW1hZScsICc8aW5maWxlLm1hZT4nLCAnLW9tYWUnLCAnPG91dGZpbGUubWFlPic=

>  <r_epik_Ionization_Penalty>  (65) 
0.704947

>  <r_epik_Ionization_Penalty_Charging>  (65) 
0.145445

>  <r_epik_Ionization_Penalty_Neutral>  (65) 
0.559501

>  <r_epik_State_Penalty>  (65) 
1.95818

>  <r_epik_Charging_Adjusted_Penalty>  (65) 
2.10363

>  <i_epik_Tot_Q>  (65) 
1

>  <i_epik_Tot_abs_Q>  (65) 
1

>  <s_lp_Force_Field>  (65) 
OPLS3e

>  <r_lp_Energy>  (65) 
39.7431

>  <b_lp_Chiralities_Consistent>  (65) 
1

>  <s_lp_Variant>  (65) 
19:0-3

>  <s_i_glide_gridfile>  (65) 
pfpi4k_grid

>  <i_i_glide_lignum>  (65) 
27

>  <i_i_glide_rotatable_bonds>  (65) 
1

>  <r_i_docking_score>  (65) 
-3.88483

>  <r_i_glide_ligand_efficiency>  (65) 
-0.184992

>  <r_i_glide_ligand_efficiency_sa>  (65) 
-0.510379

>  <r_i_glide_ligand_efficiency_ln>  (65) 
-0.960517

>  <r_i_glide_gscore>  (65) 
-3.88483

>  <r_i_glide_lipo>  (65) 
-0.522394

>  <r_i_glide_hbond>  (65) 
0

>  <r_i_glide_metal>  (65) 
-0

>  <r_i_glide_rewards>  (65) 
-1.48042

>  <r_i_glide_evdw>  (65) 
-11.6717

>  <r_i_glide_ecoul>  (65) 
-8.26351

>  <r_i_glide_erotb>  (65) 
0

>  <r_i_glide_esite>  (65) 
-0.0589046

>  <r_i_glide_emodel>  (65) 
-26.9645

>  <r_i_glide_energy>  (65) 
-19.9352

>  <r_i_glide_einternal>  (65) 
0.0727311

>  <r_i_glide_intrahb_reward>  (65) 
-0

>  <i_i_glide_confnum>  (65) 
1

>  <i_i_glide_posenum>  (65) 
11

>  <r_i_glide_eff_state_penalty>  (65) 
0

>  <ligand_id>  (65) 
19

>  <original_smiles>  (65) 
Cc1ccc2c(c1)C1(C)N(C)C(C2)C2(O)C3OC3CCN21

>  <smiles>  (65) 
[H]OC12C3([H])OC3([H])C([H])([H])C([H])([H])[N+]1([H])C1(C([H])([H])[H])c3c([H])c(C([H])([H])[H])c([H])c([H])c3C([H])([H])C2([H])N1C([H])([H])[H]

$$$$
19:2:2
     RDKit          3D

 44 48  0  0  1  0  0  0  0  0999 V2000
    1.4604   -4.1439    4.1595 C   0  0  0  0  0  0  0  0  0  0  0  0
    2.4693   -3.3608    3.3377 C   0  0  0  0  0  0  0  0  0  0  0  0
    2.7309   -2.0132    3.6384 C   0  0  0  0  0  0  0  0  0  0  0  0
    3.6656   -1.2798    2.8819 C   0  0  0  0  0  0  0  0  0  0  0  0
    4.3379   -1.9094    1.8097 C   0  0  0  0  0  0  0  0  0  0  0  0
    4.0852   -3.2634    1.4971 C   0  0  0  0  0  0  0  0  0  0  0  0
    3.1426   -3.9920    2.2688 C   0  0  0  0  0  0  0  0  0  0  0  0
    4.8285   -3.8827    0.2924 C   0  0  2  0  0  0  0  0  0  0  0  0
    4.7806   -5.4221    0.2202 C   0  0  0  0  0  0  0  0  0  0  0  0
    6.2035   -3.3642    0.2411 N   0  0  0  0  0  0  0  0  0  0  0  0
    7.0510   -3.6252    1.3848 C   0  0  0  0  0  0  0  0  0  0  0  0
    6.0416   -1.9579   -0.1166 C   0  0  2  0  0  0  0  0  0  0  0  0
    5.3872   -1.1227    1.0214 C   0  0  0  0  0  0  0  0  0  0  0  0
    5.1766   -2.1372   -1.3600 C   0  0  2  0  0  0  0  0  0  0  0  0
    5.9680   -2.7775   -2.3556 O   0  0  0  0  0  0  0  0  0  0  0  0
    4.3918   -0.9927   -1.9736 C   0  0  1  0  0  0  0  0  0  0  0  0
    4.1761   -1.1518   -3.3792 O   0  0  0  0  0  0  0  0  0  0  0  0
    3.0262   -1.2897   -2.5668 C   0  0  1  0  0  0  0  0  0  0  0  0
    2.4208   -2.6946   -2.5155 C   0  0  0  0  0  0  0  0  0  0  0  0
    3.3461   -3.7638   -1.8967 C   0  0  0  0  0  0  0  0  0  0  0  0
    4.2343   -3.1634   -0.8799 N   0  0  1  0  0  0  0  0  0  0  0  0
    1.0711   -3.5550    4.9886 H   0  0  0  0  0  0  0  0  0  0  0  0
    1.9114   -5.0413    4.5809 H   0  0  0  0  0  0  0  0  0  0  0  0
    0.6136   -4.4399    3.5426 H   0  0  0  0  0  0  0  0  0  0  0  0
    2.2189   -1.5236    4.4527 H   0  0  0  0  0  0  0  0  0  0  0  0
    3.8705   -0.2458    3.1269 H   0  0  0  0  0  0  0  0  0  0  0  0
    2.9297   -5.0276    2.0660 H   0  0  0  0  0  0  0  0  0  0  0  0
    5.2292   -5.8392    1.1180 H   0  0  0  0  0  0  0  0  0  0  0  0
    5.3533   -5.8017   -0.6294 H   0  0  0  0  0  0  0  0  0  0  0  0
    3.7678   -5.8263    0.1500 H   0  0  0  0  0  0  0  0  0  0  0  0
    8.0416   -3.1888    1.2291 H   0  0  0  0  0  0  0  0  0  0  0  0
    7.1973   -4.6948    1.5414 H   0  0  0  0  0  0  0  0  0  0  0  0
    6.6035   -3.1998    2.2796 H   0  0  0  0  0  0  0  0  0  0  0  0
    6.9876   -1.5074   -0.4068 H   0  0  0  0  0  0  0  0  0  0  0  0
    4.9479   -0.1999    0.6398 H   0  0  0  0  0  0  0  0  0  0  0  0
    6.1705   -0.8188    1.7195 H   0  0  0  0  0  0  0  0  0  0  0  0
    5.6237   -3.6520   -2.4982 H   0  0  0  0  0  0  0  0  0  0  0  0
    4.6393    0.0209   -1.6962 H   0  0  0  0  0  0  0  0  0  0  0  0
    2.3180   -0.4625   -2.6536 H   0  0  0  0  0  0  0  0  0  0  0  0
    1.5152   -2.6593   -1.9213 H   0  0  0  0  0  0  0  0  0  0  0  0
    2.1077   -2.9914   -3.5185 H   0  0  0  0  0  0  0  0  0  0  0  0
    2.7078   -4.4482   -1.3527 H   0  0  0  0  0  0  0  0  0  0  0  0
    3.9454   -4.2486   -2.6707 H   0  0  0  0  0  0  0  0  0  0  0  0
    3.5557   -2.6109   -0.3717 H   0  0  0  0  0  0  0  0  0  0  0  0
  1  2  1  0
  1 22  1  0
  1 23  1  0
  1 24  1  0
  2  7  2  0
  2  3  1  0
  3  4  2  0
  3 25  1  0
  4  5  1  0
  4 26  1  0
  5 13  1  0
  5  6  2  0
  6  7  1  0
  6  8  1  0
  7 27  1  0
  8 21  1  0
  8  9  1  6
  8 10  1  0
  9 28  1  0
  9 29  1  0
  9 30  1  0
 10 11  1  0
 10 12  1  0
 11 31  1  0
 11 32  1  0
 11 33  1  0
 12 13  1  0
 12 14  1  0
 12 34  1  6
 13 35  1  0
 13 36  1  0
 14 21  1  0
 14 15  1  6
 14 16  1  0
 15 37  1  0
 16 18  1  0
 16 17  1  0
 16 38  1  6
 17 18  1  0
 18 19  1  0
 18 39  1  6
 19 20  1  0
 19 40  1  0
 19 41  1  0
 20 21  1  0
 20 42  1  0
 20 43  1  0
 21 44  1  1
M  CHG  1  21   1
M  END
>  <i_m_ct_stereo_status>  (66) 
1

>  <s_m_source_file>  (66) 
/var/tmp/pbs.5076255.sched01/tmppfua8s0c/0korcpw03.sdf

>  <i_m_source_file_index>  (66) 
27

>  <i_lp_mmshare_version>  (66) 
48012

>  <i_f3d_flags>  (66) 
0

>  <s_epik_input>  (66) 
W0NIM11jKFtjSF0xKVtjSF1bY0hdYyhjMVtDQF0yM1tDSDNdKVtDSDJdW0NAQEhdKE4yW0NIM10pW0NAXTQoW09IXSlbQ0BASF01W0NAQEhdKE81KVtDSDJdW0NIMl1OMzQ=

>  <s_epik_cmdline>  (66) 
J2VwaWtfcHl0aG9uJywgJy1waHQnLCAnMi4wJywgJy1waCcsICc3LjAnLCAnLXRuJywgJzgnLCAnLW1hJywgJzIwMCcsICctaW1hZScsICc8aW5maWxlLm1hZT4nLCAnLW9tYWUnLCAnPG91dGZpbGUubWFlPic=

>  <r_epik_Ionization_Penalty>  (66) 
0.704947

>  <r_epik_Ionization_Penalty_Charging>  (66) 
0.145445

>  <r_epik_Ionization_Penalty_Neutral>  (66) 
0.559501

>  <r_epik_State_Penalty>  (66) 
1.95818

>  <r_epik_Charging_Adjusted_Penalty>  (66) 
2.10363

>  <i_epik_Tot_Q>  (66) 
1

>  <i_epik_Tot_abs_Q>  (66) 
1

>  <s_lp_Force_Field>  (66) 
OPLS3e

>  <r_lp_Energy>  (66) 
39.7431

>  <b_lp_Chiralities_Consistent>  (66) 
1

>  <s_lp_Variant>  (66) 
19:0-3

>  <s_i_glide_gridfile>  (66) 
pfpi4k_grid

>  <i_i_glide_lignum>  (66) 
27

>  <i_i_glide_rotatable_bonds>  (66) 
1

>  <r_i_docking_score>  (66) 
-3.46585

>  <r_i_glide_ligand_efficiency>  (66) 
-0.16504

>  <r_i_glide_ligand_efficiency_sa>  (66) 
-0.455334

>  <r_i_glide_ligand_efficiency_ln>  (66) 
-0.856924

>  <r_i_glide_gscore>  (66) 
-3.46585

>  <r_i_glide_lipo>  (66) 
-0.241524

>  <r_i_glide_hbond>  (66) 
0

>  <r_i_glide_metal>  (66) 
-0

>  <r_i_glide_rewards>  (66) 
-1.50151

>  <r_i_glide_evdw>  (66) 
-16.6799

>  <r_i_glide_ecoul>  (66) 
-5.74749

>  <r_i_glide_erotb>  (66) 
0

>  <r_i_glide_esite>  (66) 
-0.026696

>  <r_i_glide_emodel>  (66) 
-28.3937

>  <r_i_glide_energy>  (66) 
-22.4274

>  <r_i_glide_einternal>  (66) 
0.777253

>  <r_i_glide_intrahb_reward>  (66) 
-0

>  <i_i_glide_confnum>  (66) 
2

>  <i_i_glide_posenum>  (66) 
12

>  <r_i_glide_eff_state_penalty>  (66) 
0

>  <ligand_id>  (66) 
19

>  <original_smiles>  (66) 
Cc1ccc2c(c1)C1(C)N(C)C(C2)C2(O)C3OC3CCN21

>  <smiles>  (66) 
[H]OC12C3([H])OC3([H])C([H])([H])C([H])([H])[N+]1([H])C1(C([H])([H])[H])c3c([H])c(C([H])([H])[H])c([H])c([H])c3C([H])([H])C2([H])N1C([H])([H])[H]

$$$$
19:3:0
     RDKit          3D

 45 49  0  0  1  0  0  0  0  0999 V2000
    6.7697   -7.9576    1.7315 C   0  0  0  0  0  0  0  0  0  0  0  0
    5.6630   -6.9777    1.3814 C   0  0  0  0  0  0  0  0  0  0  0  0
    4.3098   -7.3531    1.5335 C   0  0  0  0  0  0  0  0  0  0  0  0
    3.2829   -6.4446    1.2290 C   0  0  0  0  0  0  0  0  0  0  0  0
    3.6006   -5.1543    0.7504 C   0  0  0  0  0  0  0  0  0  0  0  0
    4.9562   -4.7743    0.5777 C   0  0  0  0  0  0  0  0  0  0  0  0
    5.9835   -5.6912    0.9037 C   0  0  0  0  0  0  0  0  0  0  0  0
    5.2220   -3.3624    0.0425 C   0  0  2  0  0  0  0  0  0  0  0  0
    6.6956   -2.8915    0.1381 C   0  0  0  0  0  0  0  0  0  0  0  0
    4.2885   -2.4384    0.7611 N   0  0  2  0  0  0  0  0  0  0  0  0
    4.2797   -2.3957    2.2474 C   0  0  0  0  0  0  0  0  0  0  0  0
    2.9818   -2.7167    0.1194 C   0  0  2  0  0  0  0  0  0  0  0  0
    2.4810   -4.1368    0.5112 C   0  0  0  0  0  0  0  0  0  0  0  0
    3.4044   -2.6009   -1.3488 C   0  0  2  0  0  0  0  0  0  0  0  0
    3.8241   -1.2578   -1.5519 O   0  0  0  0  0  0  0  0  0  0  0  0
    2.4915   -3.0521   -2.4777 C   0  0  1  0  0  0  0  0  0  0  0  0
    2.7341   -2.3690   -3.7250 O   0  0  0  0  0  0  0  0  0  0  0  0
    3.1264   -3.7327   -3.6856 C   0  0  1  0  0  0  0  0  0  0  0  0
    4.6345   -3.9937   -3.7363 C   0  0  0  0  0  0  0  0  0  0  0  0
    5.4553   -3.3149   -2.5997 C   0  0  0  0  0  0  0  0  0  0  0  0
    4.6600   -3.3722   -1.3464 N   0  0  1  0  0  0  0  0  0  0  0  0
    6.3690   -8.8930    2.1194 H   0  0  0  0  0  0  0  0  0  0  0  0
    7.4367   -7.5369    2.4823 H   0  0  0  0  0  0  0  0  0  0  0  0
    7.3687   -8.1970    0.8573 H   0  0  0  0  0  0  0  0  0  0  0  0
    4.0562   -8.3388    1.8940 H   0  0  0  0  0  0  0  0  0  0  0  0
    2.2497   -6.7344    1.3751 H   0  0  0  0  0  0  0  0  0  0  0  0
    7.0258   -5.4274    0.8084 H   0  0  0  0  0  0  0  0  0  0  0  0
    6.8379   -1.8802   -0.2483 H   0  0  0  0  0  0  0  0  0  0  0  0
    7.3618   -3.5523   -0.4172 H   0  0  0  0  0  0  0  0  0  0  0  0
    7.0386   -2.9011    1.1740 H   0  0  0  0  0  0  0  0  0  0  0  0
    3.9931   -3.3439    2.7046 H   0  0  0  0  0  0  0  0  0  0  0  0
    3.5560   -1.6457    2.5786 H   0  0  0  0  0  0  0  0  0  0  0  0
    5.2563   -2.1049    2.6375 H   0  0  0  0  0  0  0  0  0  0  0  0
    2.2364   -1.9649    0.3827 H   0  0  0  0  0  0  0  0  0  0  0  0
    1.8133   -4.5359   -0.2501 H   0  0  0  0  0  0  0  0  0  0  0  0
    1.9092   -4.0590    1.4391 H   0  0  0  0  0  0  0  0  0  0  0  0
    3.0398   -0.7305   -1.6630 H   0  0  0  0  0  0  0  0  0  0  0  0
    1.4308   -3.2007   -2.2749 H   0  0  0  0  0  0  0  0  0  0  0  0
    2.5045   -4.3840   -4.3026 H   0  0  0  0  0  0  0  0  0  0  0  0
    4.7691   -5.0729   -3.6809 H   0  0  0  0  0  0  0  0  0  0  0  0
    5.0112   -3.6999   -4.7136 H   0  0  0  0  0  0  0  0  0  0  0  0
    6.3923   -3.8565   -2.4847 H   0  0  0  0  0  0  0  0  0  0  0  0
    5.7071   -2.2866   -2.8626 H   0  0  0  0  0  0  0  0  0  0  0  0
    4.5257   -1.5073    0.4360 H   0  0  0  0  0  0  0  0  0  0  0  0
    4.3225   -4.3234   -1.3822 H   0  0  0  0  0  0  0  0  0  0  0  0
  1  2  1  0
  1 22  1  0
  1 23  1  0
  1 24  1  0
  2  7  2  0
  2  3  1  0
  3  4  2  0
  3 25  1  0
  4  5  1  0
  4 26  1  0
  5 13  1  0
  5  6  2  0
  6  7  1  0
  6  8  1  0
  7 27  1  0
  8 21  1  0
  8  9  1  6
  8 10  1  0
  9 28  1  0
  9 29  1  0
  9 30  1  0
 10 11  1  0
 10 12  1  0
 10 44  1  6
 11 31  1  0
 11 32  1  0
 11 33  1  0
 12 13  1  0
 12 14  1  0
 12 34  1  1
 13 35  1  0
 13 36  1  0
 14 21  1  0
 14 15  1  6
 14 16  1  0
 15 37  1  0
 16 18  1  0
 16 17  1  0
 16 38  1  1
 17 18  1  0
 18 19  1  0
 18 39  1  6
 19 20  1  0
 19 40  1  0
 19 41  1  0
 20 21  1  0
 20 42  1  0
 20 43  1  0
 21 45  1  6
M  CHG  2  10   1  21   1
M  END
>  <i_m_ct_stereo_status>  (67) 
1

>  <s_m_source_file>  (67) 
/var/tmp/pbs.5076255.sched01/tmppfua8s0c/0korcpw03.sdf

>  <i_m_source_file_index>  (67) 
28

>  <i_lp_mmshare_version>  (67) 
48012

>  <i_f3d_flags>  (67) 
0

>  <s_epik_input>  (67) 
W0NIM11jKFtjSF0xKVtjSF1bY0hdYyhjMVtDQF0yM1tDSDNdKVtDSDJdW0NAQEhdKE4yW0NIM10pW0NAXTQoW09IXSlbQ0BASF01W0NAQEhdKE81KVtDSDJdW0NIMl1OMzQ=

>  <s_epik_cmdline>  (67) 
J2VwaWtfcHl0aG9uJywgJy1waHQnLCAnMi4wJywgJy1waCcsICc3LjAnLCAnLXRuJywgJzgnLCAnLW1hJywgJzIwMCcsICctaW1hZScsICc8aW5maWxlLm1hZT4nLCAnLW9tYWUnLCAnPG91dGZpbGUubWFlPic=

>  <r_epik_Ionization_Penalty>  (67) 
3.87025

>  <r_epik_Ionization_Penalty_Charging>  (67) 
1.84945

>  <r_epik_Ionization_Penalty_Neutral>  (67) 
2.0208

>  <r_epik_State_Penalty>  (67) 
2.21771

>  <r_epik_Charging_Adjusted_Penalty>  (67) 
4.06716

>  <i_epik_Tot_Q>  (67) 
2

>  <i_epik_Tot_abs_Q>  (67) 
2

>  <s_lp_Force_Field>  (67) 
OPLS3e

>  <r_lp_Energy>  (67) 
41.4371

>  <b_lp_Chiralities_Consistent>  (67) 
1

>  <s_lp_Variant>  (67) 
19:0-4

>  <s_i_glide_gridfile>  (67) 
pfpi4k_grid

>  <i_i_glide_lignum>  (67) 
28

>  <i_i_glide_rotatable_bonds>  (67) 
1

>  <r_i_docking_score>  (67) 
-4.83485

>  <r_i_glide_ligand_efficiency>  (67) 
-0.230231

>  <r_i_glide_ligand_efficiency_sa>  (67) 
-0.63519

>  <r_i_glide_ligand_efficiency_ln>  (67) 
-1.19541

>  <r_i_glide_gscore>  (67) 
-4.83485

>  <r_i_glide_lipo>  (67) 
-0.964745

>  <r_i_glide_hbond>  (67) 
0

>  <r_i_glide_metal>  (67) 
-0

>  <r_i_glide_rewards>  (67) 
-1.50277

>  <r_i_glide_evdw>  (67) 
-22.1503

>  <r_i_glide_ecoul>  (67) 
-8.12837

>  <r_i_glide_erotb>  (67) 
0

>  <r_i_glide_esite>  (67) 
-0.0405627

>  <r_i_glide_emodel>  (67) 
-40.892

>  <r_i_glide_energy>  (67) 
-30.2787

>  <r_i_glide_einternal>  (67) 
0.1954

>  <r_i_glide_intrahb_reward>  (67) 
-0

>  <i_i_glide_confnum>  (67) 
1

>  <i_i_glide_posenum>  (67) 
30

>  <r_i_glide_eff_state_penalty>  (67) 
0

>  <ligand_id>  (67) 
19

>  <original_smiles>  (67) 
Cc1ccc2c(c1)C1(C)N(C)C(C2)C2(O)C3OC3CCN21

>  <smiles>  (67) 
[H]OC12C3([H])OC3([H])C([H])([H])C([H])([H])[N+]1([H])C1(C([H])([H])[H])c3c([H])c(C([H])([H])[H])c([H])c([H])c3C([H])([H])C2([H])[N+]1([H])C([H])([H])[H]

$$$$
19:3:1
     RDKit          3D

 45 49  0  0  1  0  0  0  0  0999 V2000
    5.4131   -7.8711    1.7455 C   0  0  0  0  0  0  0  0  0  0  0  0
    4.6704   -6.6230    1.2922 C   0  0  0  0  0  0  0  0  0  0  0  0
    3.2673   -6.5435    1.4562 C   0  0  0  0  0  0  0  0  0  0  0  0
    2.5731   -5.3887    1.0500 C   0  0  0  0  0  0  0  0  0  0  0  0
    3.2710   -4.3069    0.4689 C   0  0  0  0  0  0  0  0  0  0  0  0
    4.6827   -4.3916    0.2905 C   0  0  0  0  0  0  0  0  0  0  0  0
    5.3716   -5.5476    0.7139 C   0  0  0  0  0  0  0  0  0  0  0  0
    5.3631   -3.1848   -0.3560 C   0  0  2  0  0  0  0  0  0  0  0  0
    6.9067   -3.1865   -0.2670 C   0  0  0  0  0  0  0  0  0  0  0  0
    4.7868   -1.9662    0.2615 N   0  0  2  0  0  0  0  0  0  0  0  0
    4.8023   -1.7871    1.7267 C   0  0  0  0  0  0  0  0  0  0  0  0
    3.4590   -1.8615   -0.3806 C   0  0  2  0  0  0  0  0  0  0  0  0
    2.5388   -3.0073    0.1258 C   0  0  0  0  0  0  0  0  0  0  0  0
    3.8777   -2.0146   -1.8295 C   0  0  2  0  0  0  0  0  0  0  0  0
    4.7226   -0.9141   -2.1208 O   0  0  0  0  0  0  0  0  0  0  0  0
    2.8759   -2.2702   -2.9308 C   0  0  1  0  0  0  0  0  0  0  0  0
    3.3300   -1.8207   -4.2282 O   0  0  0  0  0  0  0  0  0  0  0  0
    3.2329   -3.2308   -4.0464 C   0  0  1  0  0  0  0  0  0  0  0  0
    4.5809   -3.9559   -4.0560 C   0  0  0  0  0  0  0  0  0  0  0  0
    5.5658   -3.4638   -2.9642 C   0  0  0  0  0  0  0  0  0  0  0  0
    4.8303   -3.1318   -1.7358 N   0  0  1  0  0  0  0  0  0  0  0  0
    4.7397   -8.5915    2.2082 H   0  0  0  0  0  0  0  0  0  0  0  0
    6.1862   -7.6159    2.4717 H   0  0  0  0  0  0  0  0  0  0  0  0
    5.8819   -8.3568    0.8905 H   0  0  0  0  0  0  0  0  0  0  0  0
    2.7198   -7.3641    1.9000 H   0  0  0  0  0  0  0  0  0  0  0  0
    1.5035   -5.3305    1.2113 H   0  0  0  0  0  0  0  0  0  0  0  0
    6.4528   -5.6381    0.6179 H   0  0  0  0  0  0  0  0  0  0  0  0
    7.3694   -2.3212   -0.7493 H   0  0  0  0  0  0  0  0  0  0  0  0
    7.3385   -4.0744   -0.7211 H   0  0  0  0  0  0  0  0  0  0  0  0
    7.2462   -3.2056    0.7716 H   0  0  0  0  0  0  0  0  0  0  0  0
    4.2372   -2.5399    2.2723 H   0  0  0  0  0  0  0  0  0  0  0  0
    4.3584   -0.8262    1.9866 H   0  0  0  0  0  0  0  0  0  0  0  0
    5.8147   -1.7802    2.1243 H   0  0  0  0  0  0  0  0  0  0  0  0
    3.0019   -0.8875   -0.2323 H   0  0  0  0  0  0  0  0  0  0  0  0
    1.7743   -3.2358   -0.6200 H   0  0  0  0  0  0  0  0  0  0  0  0
    2.0150   -2.6710    1.0244 H   0  0  0  0  0  0  0  0  0  0  0  0
    4.1783   -0.1360   -2.1655 H   0  0  0  0  0  0  0  0  0  0  0  0
    1.8253   -2.0641   -2.7392 H   0  0  0  0  0  0  0  0  0  0  0  0
    2.4204   -3.6852   -4.5973 H   0  0  0  0  0  0  0  0  0  0  0  0
    4.3871   -5.0228   -3.9265 H   0  0  0  0  0  0  0  0  0  0  0  0
    5.0141   -3.8766   -5.0583 H   0  0  0  0  0  0  0  0  0  0  0  0
    6.2720   -4.2628   -2.7704 H   0  0  0  0  0  0  0  0  0  0  0  0
    6.1597   -2.6390   -3.3294 H   0  0  0  0  0  0  0  0  0  0  0  0
    5.2939   -1.1912   -0.1327 H   0  0  0  0  0  0  0  0  0  0  0  0
    4.2190   -3.9252   -1.6992 H   0  0  0  0  0  0  0  0  0  0  0  0
  1  2  1  0
  1 22  1  0
  1 23  1  0
  1 24  1  0
  2  7  2  0
  2  3  1  0
  3  4  2  0
  3 25  1  0
  4  5  1  0
  4 26  1  0
  5 13  1  0
  5  6  2  0
  6  7  1  0
  6  8  1  0
  7 27  1  0
  8 21  1  0
  8  9  1  6
  8 10  1  0
  9 28  1  0
  9 29  1  0
  9 30  1  0
 10 11  1  0
 10 12  1  0
 10 44  1  6
 11 31  1  0
 11 32  1  0
 11 33  1  0
 12 13  1  0
 12 14  1  0
 12 34  1  6
 13 35  1  0
 13 36  1  0
 14 21  1  0
 14 15  1  6
 14 16  1  0
 15 37  1  0
 16 18  1  0
 16 17  1  0
 16 38  1  1
 17 18  1  0
 18 19  1  0
 18 39  1  6
 19 20  1  0
 19 40  1  0
 19 41  1  0
 20 21  1  0
 20 42  1  0
 20 43  1  0
 21 45  1  1
M  CHG  2  10   1  21   1
M  END
>  <i_m_ct_stereo_status>  (68) 
1

>  <s_m_source_file>  (68) 
/var/tmp/pbs.5076255.sched01/tmppfua8s0c/0korcpw03.sdf

>  <i_m_source_file_index>  (68) 
28

>  <i_lp_mmshare_version>  (68) 
48012

>  <i_f3d_flags>  (68) 
0

>  <s_epik_input>  (68) 
W0NIM11jKFtjSF0xKVtjSF1bY0hdYyhjMVtDQF0yM1tDSDNdKVtDSDJdW0NAQEhdKE4yW0NIM10pW0NAXTQoW09IXSlbQ0BASF01W0NAQEhdKE81KVtDSDJdW0NIMl1OMzQ=

>  <s_epik_cmdline>  (68) 
J2VwaWtfcHl0aG9uJywgJy1waHQnLCAnMi4wJywgJy1waCcsICc3LjAnLCAnLXRuJywgJzgnLCAnLW1hJywgJzIwMCcsICctaW1hZScsICc8aW5maWxlLm1hZT4nLCAnLW9tYWUnLCAnPG91dGZpbGUubWFlPic=

>  <r_epik_Ionization_Penalty>  (68) 
3.87025

>  <r_epik_Ionization_Penalty_Charging>  (68) 
1.84945

>  <r_epik_Ionization_Penalty_Neutral>  (68) 
2.0208

>  <r_epik_State_Penalty>  (68) 
2.21771

>  <r_epik_Charging_Adjusted_Penalty>  (68) 
4.06716

>  <i_epik_Tot_Q>  (68) 
2

>  <i_epik_Tot_abs_Q>  (68) 
2

>  <s_lp_Force_Field>  (68) 
OPLS3e

>  <r_lp_Energy>  (68) 
41.4371

>  <b_lp_Chiralities_Consistent>  (68) 
1

>  <s_lp_Variant>  (68) 
19:0-4

>  <s_i_glide_gridfile>  (68) 
pfpi4k_grid

>  <i_i_glide_lignum>  (68) 
28

>  <i_i_glide_rotatable_bonds>  (68) 
1

>  <r_i_docking_score>  (68) 
-4.71567

>  <r_i_glide_ligand_efficiency>  (68) 
-0.224556

>  <r_i_glide_ligand_efficiency_sa>  (68) 
-0.619532

>  <r_i_glide_ligand_efficiency_ln>  (68) 
-1.16594

>  <r_i_glide_gscore>  (68) 
-4.71567

>  <r_i_glide_lipo>  (68) 
-0.723168

>  <r_i_glide_hbond>  (68) 
-0.200942

>  <r_i_glide_metal>  (68) 
-0

>  <r_i_glide_rewards>  (68) 
-1.49973

>  <r_i_glide_evdw>  (68) 
-22.4358

>  <r_i_glide_ecoul>  (68) 
-7.54988

>  <r_i_glide_erotb>  (68) 
0

>  <r_i_glide_esite>  (68) 
-0.0375499

>  <r_i_glide_emodel>  (68) 
-40.3054

>  <r_i_glide_energy>  (68) 
-29.9857

>  <r_i_glide_einternal>  (68) 
0.0851429

>  <r_i_glide_intrahb_reward>  (68) 
-0

>  <i_i_glide_confnum>  (68) 
2

>  <i_i_glide_posenum>  (68) 
15

>  <r_i_glide_eff_state_penalty>  (68) 
0

>  <ligand_id>  (68) 
19

>  <original_smiles>  (68) 
Cc1ccc2c(c1)C1(C)N(C)C(C2)C2(O)C3OC3CCN21

>  <smiles>  (68) 
[H]OC12C3([H])OC3([H])C([H])([H])C([H])([H])[N+]1([H])C1(C([H])([H])[H])c3c([H])c(C([H])([H])[H])c([H])c([H])c3C([H])([H])C2([H])[N+]1([H])C([H])([H])[H]

$$$$
19:3:2
     RDKit          3D

 45 49  0  0  1  0  0  0  0  0999 V2000
    0.9285   -2.7043    3.8714 C   0  0  0  0  0  0  0  0  0  0  0  0
    1.9981   -2.1895    2.9282 C   0  0  0  0  0  0  0  0  0  0  0  0
    2.3643   -0.8199    2.9650 C   0  0  0  0  0  0  0  0  0  0  0  0
    3.3588   -0.3324    2.0979 C   0  0  0  0  0  0  0  0  0  0  0  0
    3.9773   -1.2025    1.1826 C   0  0  0  0  0  0  0  0  0  0  0  0
    3.5986   -2.5707    1.1175 C   0  0  0  0  0  0  0  0  0  0  0  0
    2.6128   -3.0629    2.0132 C   0  0  0  0  0  0  0  0  0  0  0  0
    4.2948   -3.4524    0.0852 C   0  0  2  0  0  0  0  0  0  0  0  0
    4.0699   -4.9685    0.2354 C   0  0  0  0  0  0  0  0  0  0  0  0
    5.7456   -3.1015    0.1330 N   0  0  2  0  0  0  0  0  0  0  0  0
    6.4840   -3.1853    1.4150 C   0  0  0  0  0  0  0  0  0  0  0  0
    5.7979   -1.7975   -0.5553 C   0  0  2  0  0  0  0  0  0  0  0  0
    5.1344   -0.6943    0.3123 C   0  0  0  0  0  0  0  0  0  0  0  0
    5.0073   -2.1594   -1.8081 C   0  0  2  0  0  0  0  0  0  0  0  0
    5.7893   -3.1426   -2.4776 O   0  0  0  0  0  0  0  0  0  0  0  0
    4.5124   -1.0813   -2.7601 C   0  0  1  0  0  0  0  0  0  0  0  0
    4.3314   -1.5454   -4.1115 O   0  0  0  0  0  0  0  0  0  0  0  0
    3.1409   -1.2638   -3.3951 C   0  0  1  0  0  0  0  0  0  0  0  0
    2.2868   -2.4929   -3.0878 C   0  0  0  0  0  0  0  0  0  0  0  0
    2.9890   -3.5488   -2.2136 C   0  0  0  0  0  0  0  0  0  0  0  0
    3.8887   -2.8862   -1.2377 N   0  0  1  0  0  0  0  0  0  0  0  0
    0.5671   -1.9294    4.5460 H   0  0  0  0  0  0  0  0  0  0  0  0
    1.2989   -3.5373    4.4699 H   0  0  0  0  0  0  0  0  0  0  0  0
    0.0791   -3.0437    3.2896 H   0  0  0  0  0  0  0  0  0  0  0  0
    1.8868   -0.1500    3.6616 H   0  0  0  0  0  0  0  0  0  0  0  0
    3.6571    0.7131    2.1539 H   0  0  0  0  0  0  0  0  0  0  0  0
    2.3096   -4.1024    2.0063 H   0  0  0  0  0  0  0  0  0  0  0  0
    4.5928   -5.5638   -0.5178 H   0  0  0  0  0  0  0  0  0  0  0  0
    3.0131   -5.2223    0.1650 H   0  0  0  0  0  0  0  0  0  0  0  0
    4.4006   -5.3180    1.2144 H   0  0  0  0  0  0  0  0  0  0  0  0
    6.1220   -2.5064    2.1810 H   0  0  0  0  0  0  0  0  0  0  0  0
    7.5263   -2.9268    1.2437 H   0  0  0  0  0  0  0  0  0  0  0  0
    6.4789   -4.1914    1.8245 H   0  0  0  0  0  0  0  0  0  0  0  0
    6.8102   -1.5185   -0.8272 H   0  0  0  0  0  0  0  0  0  0  0  0
    4.7549    0.1223   -0.2988 H   0  0  0  0  0  0  0  0  0  0  0  0
    5.8864   -0.2620    0.9795 H   0  0  0  0  0  0  0  0  0  0  0  0
    5.2900   -3.9442   -2.6251 H   0  0  0  0  0  0  0  0  0  0  0  0
    4.9606   -0.0965   -2.7067 H   0  0  0  0  0  0  0  0  0  0  0  0
    2.6186   -0.3779   -3.7644 H   0  0  0  0  0  0  0  0  0  0  0  0
    1.4061   -2.2049   -2.5357 H   0  0  0  0  0  0  0  0  0  0  0  0
    1.9080   -2.9206   -4.0204 H   0  0  0  0  0  0  0  0  0  0  0  0
    2.2184   -4.1193   -1.7043 H   0  0  0  0  0  0  0  0  0  0  0  0
    3.5592   -4.1973   -2.8665 H   0  0  0  0  0  0  0  0  0  0  0  0
    6.2076   -3.7384   -0.4971 H   0  0  0  0  0  0  0  0  0  0  0  0
    3.2734   -2.1638   -0.9113 H   0  0  0  0  0  0  0  0  0  0  0  0
  1  2  1  0
  1 22  1  0
  1 23  1  0
  1 24  1  0
  2  7  2  0
  2  3  1  0
  3  4  2  0
  3 25  1  0
  4  5  1  0
  4 26  1  0
  5 13  1  0
  5  6  2  0
  6  7  1  0
  6  8  1  0
  7 27  1  0
  8 21  1  0
  8  9  1  6
  8 10  1  0
  9 28  1  0
  9 29  1  0
  9 30  1  0
 10 11  1  0
 10 12  1  0
 10 44  1  6
 11 31  1  0
 11 32  1  0
 11 33  1  0
 12 13  1  0
 12 14  1  0
 12 34  1  6
 13 35  1  0
 13 36  1  0
 14 21  1  0
 14 15  1  6
 14 16  1  0
 15 37  1  0
 16 18  1  0
 16 17  1  0
 16 38  1  6
 17 18  1  0
 18 19  1  0
 18 39  1  6
 19 20  1  0
 19 40  1  0
 19 41  1  0
 20 21  1  0
 20 42  1  0
 20 43  1  0
 21 45  1  1
M  CHG  2  10   1  21   1
M  END
>  <i_m_ct_stereo_status>  (69) 
1

>  <s_m_source_file>  (69) 
/var/tmp/pbs.5076255.sched01/tmppfua8s0c/0korcpw03.sdf

>  <i_m_source_file_index>  (69) 
28

>  <i_lp_mmshare_version>  (69) 
48012

>  <i_f3d_flags>  (69) 
0

>  <s_epik_input>  (69) 
W0NIM11jKFtjSF0xKVtjSF1bY0hdYyhjMVtDQF0yM1tDSDNdKVtDSDJdW0NAQEhdKE4yW0NIM10pW0NAXTQoW09IXSlbQ0BASF01W0NAQEhdKE81KVtDSDJdW0NIMl1OMzQ=

>  <s_epik_cmdline>  (69) 
J2VwaWtfcHl0aG9uJywgJy1waHQnLCAnMi4wJywgJy1waCcsICc3LjAnLCAnLXRuJywgJzgnLCAnLW1hJywgJzIwMCcsICctaW1hZScsICc8aW5maWxlLm1hZT4nLCAnLW9tYWUnLCAnPG91dGZpbGUubWFlPic=

>  <r_epik_Ionization_Penalty>  (69) 
3.87025

>  <r_epik_Ionization_Penalty_Charging>  (69) 
1.84945

>  <r_epik_Ionization_Penalty_Neutral>  (69) 
2.0208

>  <r_epik_State_Penalty>  (69) 
2.21771

>  <r_epik_Charging_Adjusted_Penalty>  (69) 
4.06716

>  <i_epik_Tot_Q>  (69) 
2

>  <i_epik_Tot_abs_Q>  (69) 
2

>  <s_lp_Force_Field>  (69) 
OPLS3e

>  <r_lp_Energy>  (69) 
41.4371

>  <b_lp_Chiralities_Consistent>  (69) 
1

>  <s_lp_Variant>  (69) 
19:0-4

>  <s_i_glide_gridfile>  (69) 
pfpi4k_grid

>  <i_i_glide_lignum>  (69) 
28

>  <i_i_glide_rotatable_bonds>  (69) 
1

>  <r_i_docking_score>  (69) 
-4.28485

>  <r_i_glide_ligand_efficiency>  (69) 
-0.204041

>  <r_i_glide_ligand_efficiency_sa>  (69) 
-0.562933

>  <r_i_glide_ligand_efficiency_ln>  (69) 
-1.05942

>  <r_i_glide_gscore>  (69) 
-4.28485

>  <r_i_glide_lipo>  (69) 
-0.423158

>  <r_i_glide_hbond>  (69) 
-0.177682

>  <r_i_glide_metal>  (69) 
-0

>  <r_i_glide_rewards>  (69) 
-1.48135

>  <r_i_glide_evdw>  (69) 
-18.7359

>  <r_i_glide_ecoul>  (69) 
-8.23129

>  <r_i_glide_erotb>  (69) 
0

>  <r_i_glide_esite>  (69) 
-0.0311756

>  <r_i_glide_emodel>  (69) 
-35.9538

>  <r_i_glide_energy>  (69) 
-26.9672

>  <r_i_glide_einternal>  (69) 
0.805015

>  <r_i_glide_intrahb_reward>  (69) 
-0

>  <i_i_glide_confnum>  (69) 
1

>  <i_i_glide_posenum>  (69) 
9

>  <r_i_glide_eff_state_penalty>  (69) 
0

>  <ligand_id>  (69) 
19

>  <original_smiles>  (69) 
Cc1ccc2c(c1)C1(C)N(C)C(C2)C2(O)C3OC3CCN21

>  <smiles>  (69) 
[H]OC12C3([H])OC3([H])C([H])([H])C([H])([H])[N+]1([H])C1(C([H])([H])[H])c3c([H])c(C([H])([H])[H])c([H])c([H])c3C([H])([H])C2([H])[N+]1([H])C([H])([H])[H]

$$$$
19:4:0
     RDKit          3D

 43 47  0  0  1  0  0  0  0  0999 V2000
    5.9688   -7.1168    1.7462 C   0  0  0  0  0  0  0  0  0  0  0  0
    5.3811   -5.7569    1.4266 C   0  0  0  0  0  0  0  0  0  0  0  0
    4.1528   -5.3707    1.9966 C   0  0  0  0  0  0  0  0  0  0  0  0
    3.6098   -4.1045    1.7108 C   0  0  0  0  0  0  0  0  0  0  0  0
    4.2868   -3.2249    0.8420 C   0  0  0  0  0  0  0  0  0  0  0  0
    5.5223   -3.6020    0.2483 C   0  0  0  0  0  0  0  0  0  0  0  0
    6.0573   -4.8793    0.5541 C   0  0  0  0  0  0  0  0  0  0  0  0
    6.2222   -2.6280   -0.7442 C   0  0  2  0  0  0  0  0  0  0  0  0
    7.7338   -2.8898   -0.9002 C   0  0  0  0  0  0  0  0  0  0  0  0
    5.9486   -1.2439   -0.3513 N   0  0  0  0  0  0  0  0  0  0  0  0
    6.4710   -0.7789    0.9238 C   0  0  0  0  0  0  0  0  0  0  0  0
    4.5075   -1.1081   -0.5355 C   0  0  2  0  0  0  0  0  0  0  0  0
    3.7283   -1.8350    0.5895 C   0  0  0  0  0  0  0  0  0  0  0  0
    4.3637   -1.7326   -1.9359 C   0  0  2  0  0  0  0  0  0  0  0  0
    4.6163   -0.6770   -2.8376 O   0  0  0  0  0  0  0  0  0  0  0  0
    3.0231   -2.3366   -2.3445 C   0  0  1  0  0  0  0  0  0  0  0  0
    2.6279   -2.1254   -3.7096 O   0  0  0  0  0  0  0  0  0  0  0  0
    3.0131   -3.4533   -3.3616 C   0  0  1  0  0  0  0  0  0  0  0  0
    4.3468   -3.8842   -3.8936 C   0  0  0  0  0  0  0  0  0  0  0  0
    5.3493   -3.8945   -2.7286 C   0  0  0  0  0  0  0  0  0  0  0  0
    5.5330   -2.6062   -2.0515 N   0  0  0  0  0  0  0  0  0  0  0  0
    5.3777   -7.6570    2.4846 H   0  0  0  0  0  0  0  0  0  0  0  0
    6.9864   -7.0227    2.1248 H   0  0  0  0  0  0  0  0  0  0  0  0
    5.9961   -7.7401    0.8586 H   0  0  0  0  0  0  0  0  0  0  0  0
    3.6231   -6.0418    2.6569 H   0  0  0  0  0  0  0  0  0  0  0  0
    2.6763   -3.8067    2.1673 H   0  0  0  0  0  0  0  0  0  0  0  0
    6.9942   -5.2042    0.1309 H   0  0  0  0  0  0  0  0  0  0  0  0
    8.1972   -2.1632   -1.5621 H   0  0  0  0  0  0  0  0  0  0  0  0
    7.9412   -3.8564   -1.3530 H   0  0  0  0  0  0  0  0  0  0  0  0
    8.2546   -2.8554    0.0548 H   0  0  0  0  0  0  0  0  0  0  0  0
    6.1484    0.2470    1.0894 H   0  0  0  0  0  0  0  0  0  0  0  0
    7.5607   -0.7823    0.9118 H   0  0  0  0  0  0  0  0  0  0  0  0
    6.1340   -1.3803    1.7665 H   0  0  0  0  0  0  0  0  0  0  0  0
    4.2142   -0.0590   -0.5427 H   0  0  0  0  0  0  0  0  0  0  0  0
    2.6568   -1.8828    0.3993 H   0  0  0  0  0  0  0  0  0  0  0  0
    3.8184   -1.2610    1.5141 H   0  0  0  0  0  0  0  0  0  0  0  0
    3.9116   -0.0559   -2.7642 H   0  0  0  0  0  0  0  0  0  0  0  0
    2.2146   -2.3101   -1.6342 H   0  0  0  0  0  0  0  0  0  0  0  0
    2.2092   -4.1843   -3.3200 H   0  0  0  0  0  0  0  0  0  0  0  0
    4.2729   -4.8686   -4.3550 H   0  0  0  0  0  0  0  0  0  0  0  0
    4.6445   -3.1756   -4.6667 H   0  0  0  0  0  0  0  0  0  0  0  0
    5.0282   -4.6582   -2.0215 H   0  0  0  0  0  0  0  0  0  0  0  0
    6.3117   -4.2077   -3.1174 H   0  0  0  0  0  0  0  0  0  0  0  0
  1  2  1  0
  1 22  1  0
  1 23  1  0
  1 24  1  0
  2  7  2  0
  2  3  1  0
  3  4  2  0
  3 25  1  0
  4  5  1  0
  4 26  1  0
  5 13  1  0
  5  6  2  0
  6  7  1  0
  6  8  1  0
  7 27  1  0
  8 21  1  0
  8  9  1  6
  8 10  1  0
  9 28  1  0
  9 29  1  0
  9 30  1  0
 10 11  1  0
 10 12  1  0
 11 31  1  0
 11 32  1  0
 11 33  1  0
 12 13  1  0
 12 14  1  0
 12 34  1  6
 13 35  1  0
 13 36  1  0
 14 21  1  0
 14 15  1  6
 14 16  1  0
 15 37  1  0
 16 18  1  0
 16 17  1  0
 16 38  1  1
 17 18  1  0
 18 19  1  0
 18 39  1  1
 19 20  1  0
 19 40  1  0
 19 41  1  0
 20 21  1  0
 20 42  1  0
 20 43  1  0
M  END
>  <i_m_ct_stereo_status>  (70) 
1

>  <s_m_source_file>  (70) 
/var/tmp/pbs.5076255.sched01/tmppfua8s0c/0korcpw03.sdf

>  <i_m_source_file_index>  (70) 
29

>  <i_lp_mmshare_version>  (70) 
48012

>  <i_f3d_flags>  (70) 
0

>  <s_epik_input>  (70) 
W0NIM11jKFtjSF0xKVtjSF1bY0hdYyhjMVtDQF0yM1tDSDNdKVtDSDJdW0NAQEhdKE4yW0NIM10pW0NAXTQoW09IXSlbQ0BASF01W0NAQEhdKE81KVtDSDJdW0NIMl1OMzQ=

>  <s_epik_cmdline>  (70) 
J2VwaWtfcHl0aG9uJywgJy1waHQnLCAnMi4wJywgJy1waCcsICc3LjAnLCAnLXRuJywgJzgnLCAnLW1hJywgJzIwMCcsICctaW1hZScsICc8aW5maWxlLm1hZT4nLCAnLW9tYWUnLCAnPG91dGZpbGUubWFlPic=

>  <r_epik_Ionization_Penalty>  (70) 
2.46009

>  <r_epik_Ionization_Penalty_Charging>  (70) 
0

>  <r_epik_Ionization_Penalty_Neutral>  (70) 
2.46009

>  <r_epik_State_Penalty>  (70) 
2.62541

>  <r_epik_Charging_Adjusted_Penalty>  (70) 
2.62541

>  <i_epik_Tot_Q>  (70) 
0

>  <i_epik_Tot_abs_Q>  (70) 
0

>  <s_lp_Force_Field>  (70) 
OPLS3e

>  <r_lp_Energy>  (70) 
41.5043

>  <b_lp_Chiralities_Consistent>  (70) 
1

>  <s_lp_Variant>  (70) 
19:0-5

>  <s_i_glide_gridfile>  (70) 
pfpi4k_grid

>  <i_i_glide_lignum>  (70) 
29

>  <i_i_glide_rotatable_bonds>  (70) 
1

>  <r_i_docking_score>  (70) 
-3.90606

>  <r_i_glide_ligand_efficiency>  (70) 
-0.186003

>  <r_i_glide_ligand_efficiency_sa>  (70) 
-0.513168

>  <r_i_glide_ligand_efficiency_ln>  (70) 
-0.965767

>  <r_i_glide_gscore>  (70) 
-3.90606

>  <r_i_glide_lipo>  (70) 
-0.52982

>  <r_i_glide_hbond>  (70) 
-0.0227336

>  <r_i_glide_metal>  (70) 
-0

>  <r_i_glide_rewards>  (70) 
-1.45658

>  <r_i_glide_evdw>  (70) 
-23.0808

>  <r_i_glide_ecoul>  (70) 
-4.66322

>  <r_i_glide_erotb>  (70) 
0

>  <r_i_glide_esite>  (70) 
-0.0434099

>  <r_i_glide_emodel>  (70) 
-34.5103

>  <r_i_glide_energy>  (70) 
-27.744

>  <r_i_glide_einternal>  (70) 
0.183048

>  <r_i_glide_intrahb_reward>  (70) 
-0

>  <i_i_glide_confnum>  (70) 
2

>  <i_i_glide_posenum>  (70) 
15

>  <r_i_glide_eff_state_penalty>  (70) 
0

>  <ligand_id>  (70) 
19

>  <original_smiles>  (70) 
Cc1ccc2c(c1)C1(C)N(C)C(C2)C2(O)C3OC3CCN21

>  <smiles>  (70) 
[H]OC12N(C([H])([H])C([H])([H])C3([H])OC31[H])C1(C([H])([H])[H])c3c([H])c(C([H])([H])[H])c([H])c([H])c3C([H])([H])C2([H])N1C([H])([H])[H]

$$$$
19:4:1
     RDKit          3D

 43 47  0  0  1  0  0  0  0  0999 V2000
    3.6545   -0.2856   -4.3501 C   0  0  0  0  0  0  0  0  0  0  0  0
    3.5639   -1.2683   -3.2057 C   0  0  0  0  0  0  0  0  0  0  0  0
    2.6253   -2.3172   -3.2603 C   0  0  0  0  0  0  0  0  0  0  0  0
    2.5195   -3.2111   -2.1852 C   0  0  0  0  0  0  0  0  0  0  0  0
    3.3488   -3.0718   -1.0534 C   0  0  0  0  0  0  0  0  0  0  0  0
    4.2996   -2.0218   -0.9795 C   0  0  0  0  0  0  0  0  0  0  0  0
    4.3933   -1.1220   -2.0715 C   0  0  0  0  0  0  0  0  0  0  0  0
    5.1628   -1.8687    0.3127 C   0  0  2  0  0  0  0  0  0  0  0  0
    6.4542   -1.0713    0.0797 C   0  0  0  0  0  0  0  0  0  0  0  0
    5.4312   -3.1905    0.8946 N   0  0  0  0  0  0  0  0  0  0  0  0
    6.2299   -4.1353    0.1141 C   0  0  0  0  0  0  0  0  0  0  0  0
    4.1077   -3.6522    1.3011 C   0  0  2  0  0  0  0  0  0  0  0  0
    3.2688   -4.0922    0.0723 C   0  0  0  0  0  0  0  0  0  0  0  0
    3.5929   -2.3814    2.0150 C   0  0  2  0  0  0  0  0  0  0  0  0
    4.0525   -2.4683    3.3462 O   0  0  0  0  0  0  0  0  0  0  0  0
    2.0854   -2.1587    2.1221 C   0  0  1  0  0  0  0  0  0  0  0  0
    1.6206   -1.6064    3.3656 O   0  0  0  0  0  0  0  0  0  0  0  0
    1.5817   -0.7366    2.2325 C   0  0  1  0  0  0  0  0  0  0  0  0
    2.6239    0.3472    2.2162 C   0  0  0  0  0  0  0  0  0  0  0  0
    3.6839   -0.0224    1.1696 C   0  0  0  0  0  0  0  0  0  0  0  0
    4.3726   -1.2986    1.4198 N   0  0  0  0  0  0  0  0  0  0  0  0
    3.0043   -0.5552   -5.1823 H   0  0  0  0  0  0  0  0  0  0  0  0
    4.6694   -0.2568   -4.7253 H   0  0  0  0  0  0  0  0  0  0  0  0
    3.3873    0.7174   -4.0213 H   0  0  0  0  0  0  0  0  0  0  0  0
    1.9730   -2.4293   -4.1151 H   0  0  0  0  0  0  0  0  0  0  0  0
    1.7963   -4.0134   -2.2410 H   0  0  0  0  0  0  0  0  0  0  0  0
    5.0883   -0.2968   -2.0564 H   0  0  0  0  0  0  0  0  0  0  0  0
    7.0605   -1.0519    0.9871 H   0  0  0  0  0  0  0  0  0  0  0  0
    6.2390   -0.0380   -0.1814 H   0  0  0  0  0  0  0  0  0  0  0  0
    7.0509   -1.5222   -0.7096 H   0  0  0  0  0  0  0  0  0  0  0  0
    6.3208   -5.0827    0.6470 H   0  0  0  0  0  0  0  0  0  0  0  0
    7.2407   -3.7548   -0.0300 H   0  0  0  0  0  0  0  0  0  0  0  0
    5.8015   -4.3367   -0.8677 H   0  0  0  0  0  0  0  0  0  0  0  0
    4.1789   -4.4852    2.0017 H   0  0  0  0  0  0  0  0  0  0  0  0
    2.2310   -4.2993    0.3225 H   0  0  0  0  0  0  0  0  0  0  0  0
    3.6550   -5.0384   -0.3104 H   0  0  0  0  0  0  0  0  0  0  0  0
    3.3298   -2.1856    3.8899 H   0  0  0  0  0  0  0  0  0  0  0  0
    1.4217   -2.9259    1.7509 H   0  0  0  0  0  0  0  0  0  0  0  0
    0.6041   -0.5157    1.8097 H   0  0  0  0  0  0  0  0  0  0  0  0
    2.1526    1.3049    1.9867 H   0  0  0  0  0  0  0  0  0  0  0  0
    3.0763    0.4278    3.2081 H   0  0  0  0  0  0  0  0  0  0  0  0
    3.1991   -0.0614    0.1997 H   0  0  0  0  0  0  0  0  0  0  0  0
    4.4208    0.7751    1.1205 H   0  0  0  0  0  0  0  0  0  0  0  0
  1  2  1  0
  1 22  1  0
  1 23  1  0
  1 24  1  0
  2  7  2  0
  2  3  1  0
  3  4  2  0
  3 25  1  0
  4  5  1  0
  4 26  1  0
  5 13  1  0
  5  6  2  0
  6  7  1  0
  6  8  1  0
  7 27  1  0
  8 21  1  0
  8  9  1  6
  8 10  1  0
  9 28  1  0
  9 29  1  0
  9 30  1  0
 10 11  1  0
 10 12  1  0
 11 31  1  0
 11 32  1  0
 11 33  1  0
 12 13  1  0
 12 14  1  0
 12 34  1  1
 13 35  1  0
 13 36  1  0
 14 21  1  0
 14 15  1  1
 14 16  1  0
 15 37  1  0
 16 18  1  0
 16 17  1  0
 16 38  1  6
 17 18  1  0
 18 19  1  0
 18 39  1  6
 19 20  1  0
 19 40  1  0
 19 41  1  0
 20 21  1  0
 20 42  1  0
 20 43  1  0
M  END
>  <i_m_ct_stereo_status>  (71) 
1

>  <s_m_source_file>  (71) 
/var/tmp/pbs.5076255.sched01/tmppfua8s0c/0korcpw03.sdf

>  <i_m_source_file_index>  (71) 
29

>  <i_lp_mmshare_version>  (71) 
48012

>  <i_f3d_flags>  (71) 
0

>  <s_epik_input>  (71) 
W0NIM11jKFtjSF0xKVtjSF1bY0hdYyhjMVtDQF0yM1tDSDNdKVtDSDJdW0NAQEhdKE4yW0NIM10pW0NAXTQoW09IXSlbQ0BASF01W0NAQEhdKE81KVtDSDJdW0NIMl1OMzQ=

>  <s_epik_cmdline>  (71) 
J2VwaWtfcHl0aG9uJywgJy1waHQnLCAnMi4wJywgJy1waCcsICc3LjAnLCAnLXRuJywgJzgnLCAnLW1hJywgJzIwMCcsICctaW1hZScsICc8aW5maWxlLm1hZT4nLCAnLW9tYWUnLCAnPG91dGZpbGUubWFlPic=

>  <r_epik_Ionization_Penalty>  (71) 
2.46009

>  <r_epik_Ionization_Penalty_Charging>  (71) 
0

>  <r_epik_Ionization_Penalty_Neutral>  (71) 
2.46009

>  <r_epik_State_Penalty>  (71) 
2.62541

>  <r_epik_Charging_Adjusted_Penalty>  (71) 
2.62541

>  <i_epik_Tot_Q>  (71) 
0

>  <i_epik_Tot_abs_Q>  (71) 
0

>  <s_lp_Force_Field>  (71) 
OPLS3e

>  <r_lp_Energy>  (71) 
41.5043

>  <b_lp_Chiralities_Consistent>  (71) 
1

>  <s_lp_Variant>  (71) 
19:0-5

>  <s_i_glide_gridfile>  (71) 
pfpi4k_grid

>  <i_i_glide_lignum>  (71) 
29

>  <i_i_glide_rotatable_bonds>  (71) 
1

>  <r_i_docking_score>  (71) 
-3.62333

>  <r_i_glide_ligand_efficiency>  (71) 
-0.172539

>  <r_i_glide_ligand_efficiency_sa>  (71) 
-0.476023

>  <r_i_glide_ligand_efficiency_ln>  (71) 
-0.895861

>  <r_i_glide_gscore>  (71) 
-3.62333

>  <r_i_glide_lipo>  (71) 
-0.673705

>  <r_i_glide_hbond>  (71) 
0

>  <r_i_glide_metal>  (71) 
-0

>  <r_i_glide_rewards>  (71) 
-1.50827

>  <r_i_glide_evdw>  (71) 
-24.0544

>  <r_i_glide_ecoul>  (71) 
-1.57251

>  <r_i_glide_erotb>  (71) 
0

>  <r_i_glide_esite>  (71) 
-0.0027604

>  <r_i_glide_emodel>  (71) 
-31.8984

>  <r_i_glide_energy>  (71) 
-25.6269

>  <r_i_glide_einternal>  (71) 
0.241086

>  <r_i_glide_intrahb_reward>  (71) 
-0

>  <i_i_glide_confnum>  (71) 
2

>  <i_i_glide_posenum>  (71) 
9

>  <r_i_glide_eff_state_penalty>  (71) 
0

>  <ligand_id>  (71) 
19

>  <original_smiles>  (71) 
Cc1ccc2c(c1)C1(C)N(C)C(C2)C2(O)C3OC3CCN21

>  <smiles>  (71) 
[H]OC12N(C([H])([H])C([H])([H])C3([H])OC31[H])C1(C([H])([H])[H])c3c([H])c(C([H])([H])[H])c([H])c([H])c3C([H])([H])C2([H])N1C([H])([H])[H]

$$$$
19:4:2
     RDKit          3D

 43 47  0  0  1  0  0  0  0  0999 V2000
    3.6038   -0.2770   -4.2881 C   0  0  0  0  0  0  0  0  0  0  0  0
    3.5411   -1.2758   -3.1520 C   0  0  0  0  0  0  0  0  0  0  0  0
    2.6247   -2.3430   -3.2040 C   0  0  0  0  0  0  0  0  0  0  0  0
    2.5522   -3.2544   -2.1389 C   0  0  0  0  0  0  0  0  0  0  0  0
    3.4022   -3.1153   -1.0221 C   0  0  0  0  0  0  0  0  0  0  0  0
    4.3303   -2.0438   -0.9496 C   0  0  0  0  0  0  0  0  0  0  0  0
    4.3837   -1.1258   -2.0282 C   0  0  0  0  0  0  0  0  0  0  0  0
    5.2088   -1.8887    0.3290 C   0  0  2  0  0  0  0  0  0  0  0  0
    6.4774   -1.0567    0.0903 C   0  0  0  0  0  0  0  0  0  0  0  0
    5.5201   -3.2098    0.8915 N   0  0  0  0  0  0  0  0  0  0  0  0
    6.3326   -4.1222    0.0868 C   0  0  0  0  0  0  0  0  0  0  0  0
    4.2149   -3.7088    1.3125 C   0  0  2  0  0  0  0  0  0  0  0  0
    3.3687   -4.1522    0.0905 C   0  0  0  0  0  0  0  0  0  0  0  0
    3.6773   -2.4645    2.0629 C   0  0  2  0  0  0  0  0  0  0  0  0
    4.2046   -2.5483    3.3764 O   0  0  0  0  0  0  0  0  0  0  0  0
    2.1589   -2.2900    2.1992 C   0  0  1  0  0  0  0  0  0  0  0  0
    1.6796   -1.7536    3.4433 O   0  0  0  0  0  0  0  0  0  0  0  0
    1.6285   -0.8782    2.3186 C   0  0  1  0  0  0  0  0  0  0  0  0
    2.6466    0.2334    2.3121 C   0  0  0  0  0  0  0  0  0  0  0  0
    3.6985   -0.0894    1.2414 C   0  0  0  0  0  0  0  0  0  0  0  0
    4.4185   -1.3550    1.4560 N   0  0  0  0  0  0  0  0  0  0  0  0
    2.9366   -0.5484   -5.1080 H   0  0  0  0  0  0  0  0  0  0  0  0
    4.6128   -0.2130   -4.6862 H   0  0  0  0  0  0  0  0  0  0  0  0
    3.3093    0.7110   -3.9345 H   0  0  0  0  0  0  0  0  0  0  0  0
    1.9583   -2.4597   -4.0482 H   0  0  0  0  0  0  0  0  0  0  0  0
    1.8463   -4.0715   -2.1931 H   0  0  0  0  0  0  0  0  0  0  0  0
    5.0575   -0.2843   -2.0100 H   0  0  0  0  0  0  0  0  0  0  0  0
    7.0963   -1.0366    0.9887 H   0  0  0  0  0  0  0  0  0  0  0  0
    6.2353   -0.0231   -0.1485 H   0  0  0  0  0  0  0  0  0  0  0  0
    7.0742   -1.4775   -0.7150 H   0  0  0  0  0  0  0  0  0  0  0  0
    6.4553   -5.0745    0.6044 H   0  0  0  0  0  0  0  0  0  0  0  0
    7.3308   -3.7118   -0.0661 H   0  0  0  0  0  0  0  0  0  0  0  0
    5.8935   -4.3174   -0.8909 H   0  0  0  0  0  0  0  0  0  0  0  0
    4.3200   -4.5587    1.9879 H   0  0  0  0  0  0  0  0  0  0  0  0
    2.3404   -4.3902    0.3546 H   0  0  0  0  0  0  0  0  0  0  0  0
    3.7731   -5.0827   -0.3121 H   0  0  0  0  0  0  0  0  0  0  0  0
    4.2648   -3.4578    3.6135 H   0  0  0  0  0  0  0  0  0  0  0  0
    1.5100   -3.0630    1.8174 H   0  0  0  0  0  0  0  0  0  0  0  0
    0.6388   -0.6649    1.9174 H   0  0  0  0  0  0  0  0  0  0  0  0
    2.1511    1.1840    2.1084 H   0  0  0  0  0  0  0  0  0  0  0  0
    3.1127    0.3097    3.2986 H   0  0  0  0  0  0  0  0  0  0  0  0
    3.1938   -0.1105    0.2806 H   0  0  0  0  0  0  0  0  0  0  0  0
    4.4169    0.7270    1.1979 H   0  0  0  0  0  0  0  0  0  0  0  0
  1  2  1  0
  1 22  1  0
  1 23  1  0
  1 24  1  0
  2  7  2  0
  2  3  1  0
  3  4  2  0
  3 25  1  0
  4  5  1  0
  4 26  1  0
  5 13  1  0
  5  6  2  0
  6  7  1  0
  6  8  1  0
  7 27  1  0
  8 21  1  0
  8  9  1  6
  8 10  1  0
  9 28  1  0
  9 29  1  0
  9 30  1  0
 10 11  1  0
 10 12  1  0
 11 31  1  0
 11 32  1  0
 11 33  1  0
 12 13  1  0
 12 14  1  0
 12 34  1  1
 13 35  1  0
 13 36  1  0
 14 21  1  0
 14 15  1  1
 14 16  1  0
 15 37  1  0
 16 18  1  0
 16 17  1  0
 16 38  1  6
 17 18  1  0
 18 19  1  0
 18 39  1  6
 19 20  1  0
 19 40  1  0
 19 41  1  0
 20 21  1  0
 20 42  1  0
 20 43  1  0
M  END
>  <i_m_ct_stereo_status>  (72) 
1

>  <s_m_source_file>  (72) 
/var/tmp/pbs.5076255.sched01/tmppfua8s0c/0korcpw03.sdf

>  <i_m_source_file_index>  (72) 
29

>  <i_lp_mmshare_version>  (72) 
48012

>  <i_f3d_flags>  (72) 
0

>  <s_epik_input>  (72) 
W0NIM11jKFtjSF0xKVtjSF1bY0hdYyhjMVtDQF0yM1tDSDNdKVtDSDJdW0NAQEhdKE4yW0NIM10pW0NAXTQoW09IXSlbQ0BASF01W0NAQEhdKE81KVtDSDJdW0NIMl1OMzQ=

>  <s_epik_cmdline>  (72) 
J2VwaWtfcHl0aG9uJywgJy1waHQnLCAnMi4wJywgJy1waCcsICc3LjAnLCAnLXRuJywgJzgnLCAnLW1hJywgJzIwMCcsICctaW1hZScsICc8aW5maWxlLm1hZT4nLCAnLW9tYWUnLCAnPG91dGZpbGUubWFlPic=

>  <r_epik_Ionization_Penalty>  (72) 
2.46009

>  <r_epik_Ionization_Penalty_Charging>  (72) 
0

>  <r_epik_Ionization_Penalty_Neutral>  (72) 
2.46009

>  <r_epik_State_Penalty>  (72) 
2.62541

>  <r_epik_Charging_Adjusted_Penalty>  (72) 
2.62541

>  <i_epik_Tot_Q>  (72) 
0

>  <i_epik_Tot_abs_Q>  (72) 
0

>  <s_lp_Force_Field>  (72) 
OPLS3e

>  <r_lp_Energy>  (72) 
41.5043

>  <b_lp_Chiralities_Consistent>  (72) 
1

>  <s_lp_Variant>  (72) 
19:0-5

>  <s_i_glide_gridfile>  (72) 
pfpi4k_grid

>  <i_i_glide_lignum>  (72) 
29

>  <i_i_glide_rotatable_bonds>  (72) 
1

>  <r_i_docking_score>  (72) 
-3.54906

>  <r_i_glide_ligand_efficiency>  (72) 
-0.169003

>  <r_i_glide_ligand_efficiency_sa>  (72) 
-0.466266

>  <r_i_glide_ligand_efficiency_ln>  (72) 
-0.877497

>  <r_i_glide_gscore>  (72) 
-3.54906

>  <r_i_glide_lipo>  (72) 
-0.640428

>  <r_i_glide_hbond>  (72) 
0

>  <r_i_glide_metal>  (72) 
-0

>  <r_i_glide_rewards>  (72) 
-1.51189

>  <r_i_glide_evdw>  (72) 
-23.9358

>  <r_i_glide_ecoul>  (72) 
-1.32125

>  <r_i_glide_erotb>  (72) 
0

>  <r_i_glide_esite>  (72) 
-0.00175891

>  <r_i_glide_emodel>  (72) 
-31.5542

>  <r_i_glide_energy>  (72) 
-25.2571

>  <r_i_glide_einternal>  (72) 
0.00680365

>  <r_i_glide_intrahb_reward>  (72) 
-0

>  <i_i_glide_confnum>  (72) 
2

>  <i_i_glide_posenum>  (72) 
34

>  <r_i_glide_eff_state_penalty>  (72) 
0

>  <ligand_id>  (72) 
19

>  <original_smiles>  (72) 
Cc1ccc2c(c1)C1(C)N(C)C(C2)C2(O)C3OC3CCN21

>  <smiles>  (72) 
[H]OC12N(C([H])([H])C([H])([H])C3([H])OC31[H])C1(C([H])([H])[H])c3c([H])c(C([H])([H])[H])c([H])c([H])c3C([H])([H])C2([H])N1C([H])([H])[H]

$$$$
19:5:0
     RDKit          3D

 43 47  0  0  1  0  0  0  0  0999 V2000
    0.7846   -4.6772    3.6704 C   0  0  0  0  0  0  0  0  0  0  0  0
    1.5568   -3.5637    2.9929 C   0  0  0  0  0  0  0  0  0  0  0  0
    1.0472   -2.2426    2.9815 C   0  0  0  0  0  0  0  0  0  0  0  0
    1.7157   -1.2248    2.2797 C   0  0  0  0  0  0  0  0  0  0  0  0
    2.9209   -1.5114    1.6159 C   0  0  0  0  0  0  0  0  0  0  0  0
    3.4436   -2.8340    1.6204 C   0  0  0  0  0  0  0  0  0  0  0  0
    2.7560   -3.8545    2.3033 C   0  0  0  0  0  0  0  0  0  0  0  0
    4.7473   -3.0598    0.8448 C   0  0  2  0  0  0  0  0  0  0  0  0
    5.4798   -4.3683    1.2140 C   0  0  0  0  0  0  0  0  0  0  0  0
    5.6314   -1.9072    1.0451 N   0  0  0  0  0  0  0  0  0  0  0  0
    6.0150   -1.5144    2.3948 C   0  0  0  0  0  0  0  0  0  0  0  0
    5.0126   -0.8651    0.2224 C   0  0  2  0  0  0  0  0  0  0  0  0
    3.6986   -0.3982    0.9288 C   0  0  0  0  0  0  0  0  0  0  0  0
    4.8681   -1.6612   -1.0818 C   0  0  2  0  0  0  0  0  0  0  0  0
    6.0953   -1.8538   -1.5704 O   0  0  0  0  0  0  0  0  0  0  0  0
    3.9724   -1.1929   -2.2161 C   0  0  1  0  0  0  0  0  0  0  0  0
    4.3073   -1.6358   -3.5444 O   0  0  0  0  0  0  0  0  0  0  0  0
    3.1363   -2.1884   -2.9650 C   0  0  1  0  0  0  0  0  0  0  0  0
    3.2363   -3.6586   -2.6249 C   0  0  0  0  0  0  0  0  0  0  0  0
    4.3077   -4.0240   -1.5489 C   0  0  0  0  0  0  0  0  0  0  0  0
    4.3654   -2.9273   -0.5794 N   0  0  1  0  0  0  0  0  0  0  0  0
   -0.1413   -4.3103    4.0996 H   0  0  0  0  0  0  0  0  0  0  0  0
    1.3663   -5.1291    4.4673 H   0  0  0  0  0  0  0  0  0  0  0  0
    0.5279   -5.4530    2.9518 H   0  0  0  0  0  0  0  0  0  0  0  0
    0.1025   -2.0213    3.4503 H   0  0  0  0  0  0  0  0  0  0  0  0
    1.2967   -0.2223    2.2383 H   0  0  0  0  0  0  0  0  0  0  0  0
    3.1204   -4.8760    2.3104 H   0  0  0  0  0  0  0  0  0  0  0  0
    5.7031   -4.3860    2.2862 H   0  0  0  0  0  0  0  0  0  0  0  0
    6.4305   -4.4667    0.6813 H   0  0  0  0  0  0  0  0  0  0  0  0
    4.8845   -5.2619    1.0081 H   0  0  0  0  0  0  0  0  0  0  0  0
    6.7034   -0.6663    2.3582 H   0  0  0  0  0  0  0  0  0  0  0  0
    6.5433   -2.3534    2.8403 H   0  0  0  0  0  0  0  0  0  0  0  0
    5.1730   -1.2606    3.0380 H   0  0  0  0  0  0  0  0  0  0  0  0
    5.6701   -0.0116    0.0790 H   0  0  0  0  0  0  0  0  0  0  0  0
    3.0307    0.0879    0.2318 H   0  0  0  0  0  0  0  0  0  0  0  0
    3.9397    0.3457    1.6958 H   0  0  0  0  0  0  0  0  0  0  0  0
    3.6440   -0.1683   -2.2210 H   0  0  0  0  0  0  0  0  0  0  0  0
    2.2088   -1.8682   -3.4445 H   0  0  0  0  0  0  0  0  0  0  0  0
    2.2333   -3.9404   -2.2886 H   0  0  0  0  0  0  0  0  0  0  0  0
    3.4378   -4.1896   -3.5651 H   0  0  0  0  0  0  0  0  0  0  0  0
    4.0150   -4.9488   -1.0652 H   0  0  0  0  0  0  0  0  0  0  0  0
    5.2734   -4.2009   -2.0188 H   0  0  0  0  0  0  0  0  0  0  0  0
    3.3924   -2.7124   -0.4565 H   0  0  0  0  0  0  0  0  0  0  0  0
  1  2  1  0
  1 22  1  0
  1 23  1  0
  1 24  1  0
  2  7  2  0
  2  3  1  0
  3  4  2  0
  3 25  1  0
  4  5  1  0
  4 26  1  0
  5 13  1  0
  5  6  2  0
  6  7  1  0
  6  8  1  0
  7 27  1  0
  8 21  1  0
  8  9  1  6
  8 10  1  0
  9 28  1  0
  9 29  1  0
  9 30  1  0
 10 11  1  0
 10 12  1  0
 11 31  1  0
 11 32  1  0
 11 33  1  0
 12 13  1  0
 12 14  1  0
 12 34  1  6
 13 35  1  0
 13 36  1  0
 14 21  1  0
 14 15  1  6
 14 16  1  0
 16 18  1  0
 16 17  1  0
 16 37  1  6
 17 18  1  0
 18 19  1  0
 18 38  1  6
 19 20  1  0
 19 39  1  0
 19 40  1  0
 20 21  1  0
 20 41  1  0
 20 42  1  0
 21 43  1  1
M  CHG  2  15  -1  21   1
M  END
>  <i_m_ct_stereo_status>  (73) 
1

>  <s_m_source_file>  (73) 
/var/tmp/pbs.5076255.sched01/tmppfua8s0c/0korcpw03.sdf

>  <i_m_source_file_index>  (73) 
30

>  <i_lp_mmshare_version>  (73) 
48012

>  <i_f3d_flags>  (73) 
0

>  <s_epik_input>  (73) 
W0NIM11jKFtjSF0xKVtjSF1bY0hdYyhjMVtDQF0yM1tDSDNdKVtDSDJdW0NAQEhdKE4yW0NIM10pW0NAXTQoW09IXSlbQ0BASF01W0NAQEhdKE81KVtDSDJdW0NIMl1OMzQ=

>  <s_epik_cmdline>  (73) 
J2VwaWtfcHl0aG9uJywgJy1waHQnLCAnMi4wJywgJy1waCcsICc3LjAnLCAnLXRuJywgJzgnLCAnLW1hJywgJzIwMCcsICctaW1hZScsICc8aW5maWxlLm1hZT4nLCAnLW9tYWUnLCAnPG91dGZpbGUubWFlPic=

>  <r_epik_Ionization_Penalty>  (73) 
3.10049

>  <r_epik_Ionization_Penalty_Charging>  (73) 
0.930223

>  <r_epik_Ionization_Penalty_Neutral>  (73) 
2.17027

>  <r_epik_State_Penalty>  (73) 
2.66289

>  <r_epik_Charging_Adjusted_Penalty>  (73) 
3.59311

>  <i_epik_Tot_Q>  (73) 
0

>  <i_epik_Tot_abs_Q>  (73) 
2

>  <s_lp_Force_Field>  (73) 
OPLS3e

>  <r_lp_Energy>  (73) 
50.8839

>  <b_lp_Chiralities_Consistent>  (73) 
1

>  <s_lp_Variant>  (73) 
19:0-6

>  <s_i_glide_gridfile>  (73) 
pfpi4k_grid

>  <i_i_glide_lignum>  (73) 
30

>  <i_i_glide_rotatable_bonds>  (73) 
0

>  <r_i_docking_score>  (73) 
-3.71782

>  <r_i_glide_ligand_efficiency>  (73) 
-0.177039

>  <r_i_glide_ligand_efficiency_sa>  (73) 
-0.488437

>  <r_i_glide_ligand_efficiency_ln>  (73) 
-0.919224

>  <r_i_glide_gscore>  (73) 
-3.71782

>  <r_i_glide_lipo>  (73) 
-0.280379

>  <r_i_glide_hbond>  (73) 
-0.152394

>  <r_i_glide_metal>  (73) 
-0

>  <r_i_glide_rewards>  (73) 
-1.78871

>  <r_i_glide_evdw>  (73) 
-9.82071

>  <r_i_glide_ecoul>  (73) 
-6.47413

>  <r_i_glide_erotb>  (73) 
0

>  <r_i_glide_esite>  (73) 
-0.0341828

>  <r_i_glide_emodel>  (73) 
-21.2564

>  <r_i_glide_energy>  (73) 
-16.2948

>  <r_i_glide_einternal>  (73) 
0

>  <r_i_glide_intrahb_reward>  (73) 
-0

>  <i_i_glide_confnum>  (73) 
2

>  <i_i_glide_posenum>  (73) 
9

>  <r_i_glide_eff_state_penalty>  (73) 
0

>  <ligand_id>  (73) 
19

>  <original_smiles>  (73) 
Cc1ccc2c(c1)C1(C)N(C)C(C2)C2(O)C3OC3CCN21

>  <smiles>  (73) 
[H]c1c([H])c2c(c([H])c1C([H])([H])[H])C1(C([H])([H])[H])N(C([H])([H])[H])C([H])(C2([H])[H])C2([O-])C3([H])OC3([H])C([H])([H])C([H])([H])[N+]12[H]

$$$$
19:5:1
     RDKit          3D

 43 47  0  0  1  0  0  0  0  0999 V2000
    2.9926   -6.7416    2.5970 C   0  0  0  0  0  0  0  0  0  0  0  0
    3.0468   -5.2858    2.1667 C   0  0  0  0  0  0  0  0  0  0  0  0
    2.0508   -4.3850    2.5882 C   0  0  0  0  0  0  0  0  0  0  0  0
    2.1020   -3.0335    2.1956 C   0  0  0  0  0  0  0  0  0  0  0  0
    3.1301   -2.5890    1.3471 C   0  0  0  0  0  0  0  0  0  0  0  0
    4.1418   -3.4805    0.9281 C   0  0  0  0  0  0  0  0  0  0  0  0
    4.0994   -4.8352    1.3422 C   0  0  0  0  0  0  0  0  0  0  0  0
    5.2292   -2.9200    0.0102 C   0  0  2  0  0  0  0  0  0  0  0  0
    6.5088   -3.7716   -0.0759 C   0  0  0  0  0  0  0  0  0  0  0  0
    5.5688   -1.5519    0.4344 N   0  0  0  0  0  0  0  0  0  0  0  0
    6.0551   -1.3171    1.7878 C   0  0  0  0  0  0  0  0  0  0  0  0
    4.3926   -0.7775    0.0130 C   0  0  2  0  0  0  0  0  0  0  0  0
    3.1963   -1.1157    0.9393 C   0  0  0  0  0  0  0  0  0  0  0  0
    4.3126   -1.2705   -1.4544 C   0  0  2  0  0  0  0  0  0  0  0  0
    5.3527   -0.7968   -2.0810 O   0  0  0  0  0  0  0  0  0  0  0  0
    3.0564   -1.0585   -2.3081 C   0  0  1  0  0  0  0  0  0  0  0  0
    3.2747   -0.9939   -3.7361 O   0  0  0  0  0  0  0  0  0  0  0  0
    2.6400   -2.1671   -3.2540 C   0  0  1  0  0  0  0  0  0  0  0  0
    3.4476   -3.4360   -3.3727 C   0  0  0  0  0  0  0  0  0  0  0  0
    4.7473   -3.4766   -2.5263 C   0  0  0  0  0  0  0  0  0  0  0  0
    4.5205   -2.7057   -1.2767 N   0  0  1  0  0  0  0  0  0  0  0  0
    2.1142   -6.9504    3.2059 H   0  0  0  0  0  0  0  0  0  0  0  0
    3.8707   -6.9952    3.1881 H   0  0  0  0  0  0  0  0  0  0  0  0
    2.9557   -7.3962    1.7281 H   0  0  0  0  0  0  0  0  0  0  0  0
    1.2211   -4.7292    3.1900 H   0  0  0  0  0  0  0  0  0  0  0  0
    1.3148   -2.3517    2.4963 H   0  0  0  0  0  0  0  0  0  0  0  0
    4.8689   -5.5345    1.0553 H   0  0  0  0  0  0  0  0  0  0  0  0
    6.9418   -3.8994    0.9155 H   0  0  0  0  0  0  0  0  0  0  0  0
    7.2738   -3.3155   -0.7124 H   0  0  0  0  0  0  0  0  0  0  0  0
    6.2980   -4.7729   -0.4471 H   0  0  0  0  0  0  0  0  0  0  0  0
    6.2533   -0.2564    1.9245 H   0  0  0  0  0  0  0  0  0  0  0  0
    6.9935   -1.8478    1.9340 H   0  0  0  0  0  0  0  0  0  0  0  0
    5.3479   -1.6303    2.5563 H   0  0  0  0  0  0  0  0  0  0  0  0
    4.5875    0.2921    0.0475 H   0  0  0  0  0  0  0  0  0  0  0  0
    2.2607   -0.8061    0.4800 H   0  0  0  0  0  0  0  0  0  0  0  0
    3.2735   -0.5242    1.8521 H   0  0  0  0  0  0  0  0  0  0  0  0
    2.3297   -0.3220   -2.0034 H   0  0  0  0  0  0  0  0  0  0  0  0
    1.5950   -2.2817   -3.5356 H   0  0  0  0  0  0  0  0  0  0  0  0
    2.7392   -4.1942   -3.0582 H   0  0  0  0  0  0  0  0  0  0  0  0
    3.6483   -3.6170   -4.4283 H   0  0  0  0  0  0  0  0  0  0  0  0
    4.9753   -4.5123   -2.3056 H   0  0  0  0  0  0  0  0  0  0  0  0
    5.5777   -3.0703   -3.1009 H   0  0  0  0  0  0  0  0  0  0  0  0
    3.5972   -2.9912   -1.0171 H   0  0  0  0  0  0  0  0  0  0  0  0
  1  2  1  0
  1 22  1  0
  1 23  1  0
  1 24  1  0
  2  7  2  0
  2  3  1  0
  3  4  2  0
  3 25  1  0
  4  5  1  0
  4 26  1  0
  5 13  1  0
  5  6  2  0
  6  7  1  0
  6  8  1  0
  7 27  1  0
  8 21  1  0
  8  9  1  6
  8 10  1  0
  9 28  1  0
  9 29  1  0
  9 30  1  0
 10 11  1  0
 10 12  1  0
 11 31  1  0
 11 32  1  0
 11 33  1  0
 12 13  1  0
 12 14  1  0
 12 34  1  6
 13 35  1  0
 13 36  1  0
 14 21  1  0
 14 15  1  6
 14 16  1  0
 16 18  1  0
 16 17  1  0
 16 37  1  1
 17 18  1  0
 18 19  1  0
 18 38  1  6
 19 20  1  0
 19 39  1  0
 19 40  1  0
 20 21  1  0
 20 41  1  0
 20 42  1  0
 21 43  1  1
M  CHG  2  15  -1  21   1
M  END
>  <i_m_ct_stereo_status>  (74) 
1

>  <s_m_source_file>  (74) 
/var/tmp/pbs.5076255.sched01/tmppfua8s0c/0korcpw03.sdf

>  <i_m_source_file_index>  (74) 
30

>  <i_lp_mmshare_version>  (74) 
48012

>  <i_f3d_flags>  (74) 
0

>  <s_epik_input>  (74) 
W0NIM11jKFtjSF0xKVtjSF1bY0hdYyhjMVtDQF0yM1tDSDNdKVtDSDJdW0NAQEhdKE4yW0NIM10pW0NAXTQoW09IXSlbQ0BASF01W0NAQEhdKE81KVtDSDJdW0NIMl1OMzQ=

>  <s_epik_cmdline>  (74) 
J2VwaWtfcHl0aG9uJywgJy1waHQnLCAnMi4wJywgJy1waCcsICc3LjAnLCAnLXRuJywgJzgnLCAnLW1hJywgJzIwMCcsICctaW1hZScsICc8aW5maWxlLm1hZT4nLCAnLW9tYWUnLCAnPG91dGZpbGUubWFlPic=

>  <r_epik_Ionization_Penalty>  (74) 
3.10049

>  <r_epik_Ionization_Penalty_Charging>  (74) 
0.930223

>  <r_epik_Ionization_Penalty_Neutral>  (74) 
2.17027

>  <r_epik_State_Penalty>  (74) 
2.66289

>  <r_epik_Charging_Adjusted_Penalty>  (74) 
3.59311

>  <i_epik_Tot_Q>  (74) 
0

>  <i_epik_Tot_abs_Q>  (74) 
2

>  <s_lp_Force_Field>  (74) 
OPLS3e

>  <r_lp_Energy>  (74) 
50.8839

>  <b_lp_Chiralities_Consistent>  (74) 
1

>  <s_lp_Variant>  (74) 
19:0-6

>  <s_i_glide_gridfile>  (74) 
pfpi4k_grid

>  <i_i_glide_lignum>  (74) 
30

>  <i_i_glide_rotatable_bonds>  (74) 
0

>  <r_i_docking_score>  (74) 
-3.62021

>  <r_i_glide_ligand_efficiency>  (74) 
-0.172391

>  <r_i_glide_ligand_efficiency_sa>  (74) 
-0.475614

>  <r_i_glide_ligand_efficiency_ln>  (74) 
-0.895091

>  <r_i_glide_gscore>  (74) 
-3.62021

>  <r_i_glide_lipo>  (74) 
-0.562646

>  <r_i_glide_hbond>  (74) 
-0.00153455

>  <r_i_glide_metal>  (74) 
-0

>  <r_i_glide_rewards>  (74) 
-1.49167

>  <r_i_glide_evdw>  (74) 
-12.5443

>  <r_i_glide_ecoul>  (74) 
-5.85606

>  <r_i_glide_erotb>  (74) 
0

>  <r_i_glide_esite>  (74) 
-0.0587337

>  <r_i_glide_emodel>  (74) 
-23.199

>  <r_i_glide_energy>  (74) 
-18.4004

>  <r_i_glide_einternal>  (74) 
0

>  <r_i_glide_intrahb_reward>  (74) 
-0

>  <i_i_glide_confnum>  (74) 
1

>  <i_i_glide_posenum>  (74) 
29

>  <r_i_glide_eff_state_penalty>  (74) 
0

>  <ligand_id>  (74) 
19

>  <original_smiles>  (74) 
Cc1ccc2c(c1)C1(C)N(C)C(C2)C2(O)C3OC3CCN21

>  <smiles>  (74) 
[H]c1c([H])c2c(c([H])c1C([H])([H])[H])C1(C([H])([H])[H])N(C([H])([H])[H])C([H])(C2([H])[H])C2([O-])C3([H])OC3([H])C([H])([H])C([H])([H])[N+]12[H]

$$$$
19:5:2
     RDKit          3D

 43 47  0  0  1  0  0  0  0  0999 V2000
    0.8309   -5.6444    2.9104 C   0  0  0  0  0  0  0  0  0  0  0  0
    1.8238   -4.5500    2.5903 C   0  0  0  0  0  0  0  0  0  0  0  0
    1.8023   -3.3277    3.2950 C   0  0  0  0  0  0  0  0  0  0  0  0
    2.7110   -2.2992    2.9809 C   0  0  0  0  0  0  0  0  0  0  0  0
    3.6444   -2.4930    1.9454 C   0  0  0  0  0  0  0  0  0  0  0  0
    3.6744   -3.7143    1.2308 C   0  0  0  0  0  0  0  0  0  0  0  0
    2.7608   -4.7417    1.5538 C   0  0  0  0  0  0  0  0  0  0  0  0
    4.6961   -3.8493    0.1043 C   0  0  2  0  0  0  0  0  0  0  0  0
    4.9769   -5.2910   -0.3497 C   0  0  0  0  0  0  0  0  0  0  0  0
    5.9543   -3.2231    0.5069 N   0  0  0  0  0  0  0  0  0  0  0  0
    6.6363   -3.7340    1.6756 C   0  0  0  0  0  0  0  0  0  0  0  0
    5.6602   -1.7838    0.4838 C   0  0  2  0  0  0  0  0  0  0  0  0
    4.6866   -1.4151    1.6461 C   0  0  0  0  0  0  0  0  0  0  0  0
    5.0927   -1.7400   -0.9543 C   0  0  2  0  0  0  0  0  0  0  0  0
    6.0955   -1.8601   -1.8011 O   0  0  0  0  0  0  0  0  0  0  0  0
    4.2233   -0.5980   -1.3973 C   0  0  1  0  0  0  0  0  0  0  0  0
    4.2676   -0.3039   -2.8137 O   0  0  0  0  0  0  0  0  0  0  0  0
    3.0343   -0.8295   -2.3290 C   0  0  1  0  0  0  0  0  0  0  0  0
    2.6658   -2.2320   -2.7432 C   0  0  0  0  0  0  0  0  0  0  0  0
    3.6718   -3.3115   -2.2661 C   0  0  0  0  0  0  0  0  0  0  0  0
    4.2364   -2.9211   -0.9571 N   0  0  1  0  0  0  0  0  0  0  0  0
    0.1545   -5.3416    3.7074 H   0  0  0  0  0  0  0  0  0  0  0  0
    1.3306   -6.5591    3.2290 H   0  0  0  0  0  0  0  0  0  0  0  0
    0.2297   -5.8759    2.0324 H   0  0  0  0  0  0  0  0  0  0  0  0
    1.0726   -3.1650    4.0654 H   0  0  0  0  0  0  0  0  0  0  0  0
    2.6948   -1.3715    3.5338 H   0  0  0  0  0  0  0  0  0  0  0  0
    2.7709   -5.6806    1.0266 H   0  0  0  0  0  0  0  0  0  0  0  0
    5.3525   -5.8902    0.4825 H   0  0  0  0  0  0  0  0  0  0  0  0
    5.7274   -5.2903   -1.1246 H   0  0  0  0  0  0  0  0  0  0  0  0
    4.0848   -5.7829   -0.7263 H   0  0  0  0  0  0  0  0  0  0  0  0
    7.5444   -3.1475    1.6808 H   0  0  0  0  0  0  0  0  0  0  0  0
    6.9338   -4.7781    1.5702 H   0  0  0  0  0  0  0  0  0  0  0  0
    6.0642   -3.6071    2.5946 H   0  0  0  0  0  0  0  0  0  0  0  0
    6.5583   -1.1689    0.5341 H   0  0  0  0  0  0  0  0  0  0  0  0
    4.1896   -0.4660    1.4455 H   0  0  0  0  0  0  0  0  0  0  0  0
    5.2861   -1.2694    2.5506 H   0  0  0  0  0  0  0  0  0  0  0  0
    4.2087    0.2299   -0.7077 H   0  0  0  0  0  0  0  0  0  0  0  0
    2.2146   -0.1366   -2.3701 H   0  0  0  0  0  0  0  0  0  0  0  0
    1.6895   -2.4306   -2.3130 H   0  0  0  0  0  0  0  0  0  0  0  0
    2.5406   -2.2399   -3.8233 H   0  0  0  0  0  0  0  0  0  0  0  0
    3.1118   -4.2212   -2.1141 H   0  0  0  0  0  0  0  0  0  0  0  0
    4.4607   -3.4599   -3.0093 H   0  0  0  0  0  0  0  0  0  0  0  0
    3.4125   -2.5557   -0.4866 H   0  0  0  0  0  0  0  0  0  0  0  0
  1  2  1  0
  1 22  1  0
  1 23  1  0
  1 24  1  0
  2  7  2  0
  2  3  1  0
  3  4  2  0
  3 25  1  0
  4  5  1  0
  4 26  1  0
  5 13  1  0
  5  6  2  0
  6  7  1  0
  6  8  1  0
  7 27  1  0
  8 21  1  0
  8  9  1  6
  8 10  1  0
  9 28  1  0
  9 29  1  0
  9 30  1  0
 10 11  1  0
 10 12  1  0
 11 31  1  0
 11 32  1  0
 11 33  1  0
 12 13  1  0
 12 14  1  0
 12 34  1  6
 13 35  1  0
 13 36  1  0
 14 21  1  0
 14 15  1  6
 14 16  1  0
 16 18  1  0
 16 17  1  0
 16 37  1  1
 17 18  1  0
 18 19  1  0
 18 38  1  1
 19 20  1  0
 19 39  1  0
 19 40  1  0
 20 21  1  0
 20 41  1  0
 20 42  1  0
 21 43  1  1
M  CHG  2  15  -1  21   1
M  END
>  <i_m_ct_stereo_status>  (75) 
1

>  <s_m_source_file>  (75) 
/var/tmp/pbs.5076255.sched01/tmppfua8s0c/0korcpw03.sdf

>  <i_m_source_file_index>  (75) 
30

>  <i_lp_mmshare_version>  (75) 
48012

>  <i_f3d_flags>  (75) 
0

>  <s_epik_input>  (75) 
W0NIM11jKFtjSF0xKVtjSF1bY0hdYyhjMVtDQF0yM1tDSDNdKVtDSDJdW0NAQEhdKE4yW0NIM10pW0NAXTQoW09IXSlbQ0BASF01W0NAQEhdKE81KVtDSDJdW0NIMl1OMzQ=

>  <s_epik_cmdline>  (75) 
J2VwaWtfcHl0aG9uJywgJy1waHQnLCAnMi4wJywgJy1waCcsICc3LjAnLCAnLXRuJywgJzgnLCAnLW1hJywgJzIwMCcsICctaW1hZScsICc8aW5maWxlLm1hZT4nLCAnLW9tYWUnLCAnPG91dGZpbGUubWFlPic=

>  <r_epik_Ionization_Penalty>  (75) 
3.10049

>  <r_epik_Ionization_Penalty_Charging>  (75) 
0.930223

>  <r_epik_Ionization_Penalty_Neutral>  (75) 
2.17027

>  <r_epik_State_Penalty>  (75) 
2.66289

>  <r_epik_Charging_Adjusted_Penalty>  (75) 
3.59311

>  <i_epik_Tot_Q>  (75) 
0

>  <i_epik_Tot_abs_Q>  (75) 
2

>  <s_lp_Force_Field>  (75) 
OPLS3e

>  <r_lp_Energy>  (75) 
50.8839

>  <b_lp_Chiralities_Consistent>  (75) 
1

>  <s_lp_Variant>  (75) 
19:0-6

>  <s_i_glide_gridfile>  (75) 
pfpi4k_grid

>  <i_i_glide_lignum>  (75) 
30

>  <i_i_glide_rotatable_bonds>  (75) 
0

>  <r_i_docking_score>  (75) 
-3.45671

>  <r_i_glide_ligand_efficiency>  (75) 
-0.164605

>  <r_i_glide_ligand_efficiency_sa>  (75) 
-0.454133

>  <r_i_glide_ligand_efficiency_ln>  (75) 
-0.854664

>  <r_i_glide_gscore>  (75) 
-3.45671

>  <r_i_glide_lipo>  (75) 
-0.195899

>  <r_i_glide_hbond>  (75) 
-0.145144

>  <r_i_glide_metal>  (75) 
-0

>  <r_i_glide_rewards>  (75) 
-1.80093

>  <r_i_glide_evdw>  (75) 
-10.2008

>  <r_i_glide_ecoul>  (75) 
-5.12758

>  <r_i_glide_erotb>  (75) 
0

>  <r_i_glide_esite>  (75) 
-0.0355542

>  <r_i_glide_emodel>  (75) 
-19.8306

>  <r_i_glide_energy>  (75) 
-15.3284

>  <r_i_glide_einternal>  (75) 
0

>  <r_i_glide_intrahb_reward>  (75) 
-0

>  <i_i_glide_confnum>  (75) 
1

>  <i_i_glide_posenum>  (75) 
13

>  <r_i_glide_eff_state_penalty>  (75) 
0

>  <ligand_id>  (75) 
19

>  <original_smiles>  (75) 
Cc1ccc2c(c1)C1(C)N(C)C(C2)C2(O)C3OC3CCN21

>  <smiles>  (75) 
[H]c1c([H])c2c(c([H])c1C([H])([H])[H])C1(C([H])([H])[H])N(C([H])([H])[H])C([H])(C2([H])[H])C2([O-])C3([H])OC3([H])C([H])([H])C([H])([H])[N+]12[H]

$$$$
20:0:0
     RDKit          3D

 76 80  0  0  1  0  0  0  0  0999 V2000
   -0.1245    1.0656    2.8898 C   0  0  0  0  0  0  0  0  0  0  0  0
   -0.7879    0.6928    4.0976 O   0  0  0  0  0  0  0  0  0  0  0  0
   -0.7226   -0.5628    4.6410 C   0  0  0  0  0  0  0  0  0  0  0  0
   -1.3946   -0.9044    5.6213 O   0  0  0  0  0  0  0  0  0  0  0  0
    0.2573   -1.5646    4.0017 C   0  0  0  0  0  0  0  0  0  0  0  0
    1.7108   -1.3491    4.4753 C   0  0  0  0  0  0  0  0  0  0  0  0
    2.7081   -2.3269    3.8181 C   0  0  2  0  0  0  0  0  0  0  0  0
    2.7070   -2.1579    2.2793 C   0  0  0  0  0  0  0  0  0  0  0  0
    2.4713   -3.7909    4.3094 C   0  0  2  0  0  0  0  0  0  0  0  0
    2.5642   -3.8884    5.8664 C   0  0  0  0  0  0  0  0  0  0  0  0
    3.1274   -5.2790    6.2301 C   0  0  0  0  0  0  0  0  0  0  0  0
    3.0006   -6.0197    4.9070 C   0  0  2  0  0  0  0  0  0  0  0  0
    3.5346   -7.4389    4.6348 C   0  0  1  0  0  0  0  0  0  0  0  0
    4.6575   -8.3201    5.2418 C   0  0  0  0  0  0  0  0  0  0  0  0
    5.6217   -8.8307    4.0924 C   0  0  1  0  0  0  0  0  0  0  0  0
    6.7805   -7.8117    3.8954 C   0  0  0  0  0  0  0  0  0  0  0  0
    6.2605  -10.1801    4.5210 C   0  0  0  0  0  0  0  0  0  0  0  0
    7.1181  -10.8070    3.4107 C   0  0  0  0  0  0  0  0  0  0  0  0
    8.2096  -11.3036    3.6733 O   0  0  0  0  0  0  0  0  0  0  0  0
    6.5708  -10.8102    1.9795 C   0  0  0  0  0  0  0  0  0  0  0  0
    5.7636   -9.5494    1.6007 C   0  0  0  0  0  0  0  0  0  0  0  0
    4.8206   -9.1399    2.7514 C   0  0  2  0  0  0  0  0  0  0  0  0
    3.5996   -8.1994    2.3544 C   0  0  2  0  0  0  0  0  0  0  0  0
    3.9148   -6.7408    1.8125 C   0  0  0  0  0  0  0  0  0  0  0  0
    3.0736   -5.5119    2.3595 C   0  0  0  0  0  0  0  0  0  0  0  0
    3.3827   -4.9577    3.8094 C   0  0  1  0  0  0  0  0  0  0  0  0
    4.8515   -4.4518    3.8912 C   0  0  0  0  0  0  0  0  0  0  0  0
    2.6586   -8.1617    3.5764 C   0  0  1  0  0  0  0  0  0  0  0  0
    2.0653   -9.4664    3.9986 N   0  0  0  0  0  0  0  0  0  0  0  0
    1.4639  -10.3723    3.1582 C   0  0  0  0  0  0  0  0  0  0  0  0
    0.9990  -11.3971    3.9771 C   0  0  0  0  0  0  0  0  0  0  0  0
    1.2912  -11.0140    5.2280 N   0  0  0  0  0  0  0  0  0  0  0  0
    1.8586   -9.8364    5.2712 C   0  0  0  0  0  0  0  0  0  0  0  0
   -0.3626    2.1027    2.6391 H   0  0  0  0  0  0  0  0  0  0  0  0
   -0.4761    0.4400    2.0685 H   0  0  0  0  0  0  0  0  0  0  0  0
    0.9586    0.9803    2.9828 H   0  0  0  0  0  0  0  0  0  0  0  0
   -0.0955   -2.5567    4.2633 H   0  0  0  0  0  0  0  0  0  0  0  0
    0.2037   -1.5216    2.9175 H   0  0  0  0  0  0  0  0  0  0  0  0
    2.0840   -0.3558    4.2514 H   0  0  0  0  0  0  0  0  0  0  0  0
    1.7552   -1.4296    5.5626 H   0  0  0  0  0  0  0  0  0  0  0  0
    3.7006   -2.0037    4.1470 H   0  0  0  0  0  0  0  0  0  0  0  0
    1.8339   -2.6150    1.8047 H   0  0  0  0  0  0  0  0  0  0  0  0
    3.5987   -2.5882    1.8179 H   0  0  0  0  0  0  0  0  0  0  0  0
    2.7103   -1.1040    1.9994 H   0  0  0  0  0  0  0  0  0  0  0  0
    1.4581   -4.0716    4.0186 H   0  0  0  0  0  0  0  0  0  0  0  0
    3.2120   -3.1117    6.2843 H   0  0  0  0  0  0  0  0  0  0  0  0
    1.5737   -3.7248    6.3001 H   0  0  0  0  0  0  0  0  0  0  0  0
    4.1697   -5.2028    6.5315 H   0  0  0  0  0  0  0  0  0  0  0  0
    2.5622   -5.7477    7.0342 H   0  0  0  0  0  0  0  0  0  0  0  0
    1.9190   -6.1322    4.8353 H   0  0  0  0  0  0  0  0  0  0  0  0
    4.3618   -6.9659    4.1241 H   0  0  0  0  0  0  0  0  0  0  0  0
    5.2144   -7.7522    5.9881 H   0  0  0  0  0  0  0  0  0  0  0  0
    4.2830   -9.1909    5.7870 H   0  0  0  0  0  0  0  0  0  0  0  0
    7.6382   -8.2272    3.3763 H   0  0  0  0  0  0  0  0  0  0  0  0
    7.1627   -7.4387    4.8462 H   0  0  0  0  0  0  0  0  0  0  0  0
    6.5113   -6.9554    3.2889 H   0  0  0  0  0  0  0  0  0  0  0  0
    6.8626  -10.0361    5.4163 H   0  0  0  0  0  0  0  0  0  0  0  0
    5.4803  -10.8942    4.7667 H   0  0  0  0  0  0  0  0  0  0  0  0
    7.3862  -10.9543    1.2795 H   0  0  0  0  0  0  0  0  0  0  0  0
    5.9303  -11.6831    1.8886 H   0  0  0  0  0  0  0  0  0  0  0  0
    6.4334   -8.7295    1.3389 H   0  0  0  0  0  0  0  0  0  0  0  0
    5.1631   -9.7559    0.7109 H   0  0  0  0  0  0  0  0  0  0  0  0
    4.3017  -10.0750    2.9674 H   0  0  0  0  0  0  0  0  0  0  0  0
    3.0538   -8.7123    1.5582 H   0  0  0  0  0  0  0  0  0  0  0  0
    4.9691   -6.5153    1.9343 H   0  0  0  0  0  0  0  0  0  0  0  0
    3.7843   -6.7879    0.7326 H   0  0  0  0  0  0  0  0  0  0  0  0
    3.2714   -4.7191    1.6466 H   0  0  0  0  0  0  0  0  0  0  0  0
    2.0061   -5.7062    2.2448 H   0  0  0  0  0  0  0  0  0  0  0  0
    5.5802   -5.2464    3.9636 H   0  0  0  0  0  0  0  0  0  0  0  0
    5.0350   -3.8192    4.7594 H   0  0  0  0  0  0  0  0  0  0  0  0
    5.1205   -3.8633    3.0116 H   0  0  0  0  0  0  0  0  0  0  0  0
    1.7815   -7.5675    3.3175 H   0  0  0  0  0  0  0  0  0  0  0  0
    1.4096  -10.2590    2.0773 H   0  0  0  0  0  0  0  0  0  0  0  0
    0.4905  -12.2982    3.7112 H   0  0  0  0  0  0  0  0  0  0  0  0
    2.1372   -9.3019    6.1682 H   0  0  0  0  0  0  0  0  0  0  0  0
    1.0895  -11.5731    6.0994 H   0  0  0  0  0  0  0  0  0  0  0  0
  1  2  1  0
  1 34  1  0
  1 35  1  0
  1 36  1  0
  2  3  1  0
  3  4  2  0
  3  5  1  0
  5  6  1  0
  5 37  1  0
  5 38  1  0
  6  7  1  0
  6 39  1  0
  6 40  1  0
  7  8  1  0
  7  9  1  0
  7 41  1  1
  8 42  1  0
  8 43  1  0
  8 44  1  0
  9 26  1  0
  9 10  1  0
  9 45  1  1
 10 11  1  0
 10 46  1  0
 10 47  1  0
 11 12  1  0
 11 48  1  0
 11 49  1  0
 12 26  1  0
 12 13  1  0
 12 50  1  6
 13 28  1  0
 13 14  1  0
 13 51  1  6
 14 15  1  0
 14 52  1  0
 14 53  1  0
 15 22  1  0
 15 16  1  6
 15 17  1  0
 16 54  1  0
 16 55  1  0
 16 56  1  0
 17 18  1  0
 17 57  1  0
 17 58  1  0
 18 19  2  0
 18 20  1  0
 20 21  1  0
 20 59  1  0
 20 60  1  0
 21 22  1  0
 21 61  1  0
 21 62  1  0
 22 23  1  0
 22 63  1  1
 23 24  1  0
 23 28  1  0
 23 64  1  6
 24 25  1  0
 24 65  1  0
 24 66  1  0
 25 26  1  0
 25 67  1  0
 25 68  1  0
 26 27  1  6
 27 69  1  0
 27 70  1  0
 27 71  1  0
 28 29  1  0
 28 72  1  6
 29 33  1  0
 29 30  1  0
 30 31  2  0
 30 73  1  0
 31 32  1  0
 31 74  1  0
 32 33  2  0
 32 76  1  0
 33 75  1  0
M  CHG  1  32   1
M  END
>  <i_m_ct_stereo_status>  (76) 
1

>  <s_m_source_file>  (76) 
/var/tmp/pbs.5076255.sched01/tmppfua8s0c/0korcpw03.sdf

>  <i_m_source_file_index>  (76) 
31

>  <i_lp_mmshare_version>  (76) 
48012

>  <i_f3d_flags>  (76) 
0

>  <s_epik_input>  (76) 
W0NIM11PQyg9TylbQ0gyXVtDSDJdW0NASF0oW0NIM10pW0NAQEhdMVtDSDJdW0NIMl1bQ0BIXShbQ0hdKFtDSDJdMilbQ0BASF0zbjRbY0hdW2NIXW5bY0hdNClbQ0BAXTEoW0NIM10pW0NIMl1bQ0gyXVtDQEhdM1tDQEhdKFtDQEBdMjVbQ0gzXSlbQ0gyXVtDSDJdQyg9TylbQ0gyXTU=

>  <s_epik_cmdline>  (76) 
J2VwaWtfcHl0aG9uJywgJy1waHQnLCAnMi4wJywgJy1waCcsICc3LjAnLCAnLXRuJywgJzgnLCAnLW1hJywgJzIwMCcsICctaW1hZScsICc8aW5maWxlLm1hZT4nLCAnLW9tYWUnLCAnPG91dGZpbGUubWFlPic=

>  <r_lp_tautomer_probability>  (76) 
1

>  <r_epik_Ionization_Penalty>  (76) 
0.0881817

>  <r_epik_Ionization_Penalty_Charging>  (76) 
0

>  <r_epik_Ionization_Penalty_Neutral>  (76) 
0.0881817

>  <r_epik_State_Penalty>  (76) 
0.0786423

>  <r_epik_Charging_Adjusted_Penalty>  (76) 
0.0786423

>  <i_epik_Tot_Q>  (76) 
1

>  <i_epik_Tot_abs_Q>  (76) 
1

>  <s_epik_Chemistry_Notes>  (76) 
This compound has an ester and may undergo hydrolysis at high or low pH.

>  <s_lp_Force_Field>  (76) 
OPLS3e

>  <r_lp_Energy>  (76) 
123.541

>  <b_lp_Chiralities_Consistent>  (76) 
1

>  <s_lp_Variant>  (76) 
20:0-1

>  <s_i_glide_gridfile>  (76) 
pfpi4k_grid

>  <i_i_glide_lignum>  (76) 
31

>  <i_i_glide_rotatable_bonds>  (76) 
6

>  <r_i_docking_score>  (76) 
-2.90219

>  <r_i_glide_ligand_efficiency>  (76) 
-0.087945

>  <r_i_glide_ligand_efficiency_sa>  (76) 
-0.282087

>  <r_i_glide_ligand_efficiency_ln>  (76) 
-0.645431

>  <r_i_glide_gscore>  (76) 
-2.90219

>  <r_i_glide_lipo>  (76) 
-0.32078

>  <r_i_glide_hbond>  (76) 
-0.2

>  <r_i_glide_metal>  (76) 
-0

>  <r_i_glide_rewards>  (76) 
-0.307116

>  <r_i_glide_evdw>  (76) 
-22.9851

>  <r_i_glide_ecoul>  (76) 
-8.28459

>  <r_i_glide_erotb>  (76) 
0.483837

>  <r_i_glide_esite>  (76) 
-0.166183

>  <r_i_glide_emodel>  (76) 
-34.936

>  <r_i_glide_energy>  (76) 
-31.2697

>  <r_i_glide_einternal>  (76) 
8.44913

>  <r_i_glide_intrahb_reward>  (76) 
-0

>  <i_i_glide_confnum>  (76) 
2

>  <i_i_glide_posenum>  (76) 
22

>  <r_i_glide_eff_state_penalty>  (76) 
0

>  <ligand_id>  (76) 
20

>  <original_smiles>  (76) 
COC(=O)CCC(C)C1CCC2C3CC4(C)CC(=O)CCC4C(CCC12C)C3n1ccnc1

>  <smiles>  (76) 
[H]c1c([H])[n+]([H])c([H])n1C1([H])C2([H])C([H])([H])C([H])([H])C3(C([H])([H])[H])C([H])(C([H])(C([H])([H])[H])C([H])([H])C([H])([H])C(=O)OC([H])([H])[H])C([H])([H])C([H])([H])C3([H])C1([H])C([H])([H])C1(C([H])([H])[H])C([H])([H])C(=O)C([H])([H])C([H])([H])C21[H]

$$$$
20:0:1
     RDKit          3D

 76 80  0  0  1  0  0  0  0  0999 V2000
    2.4945   -2.9967   -3.6104 C   0  0  0  0  0  0  0  0  0  0  0  0
    3.0659   -1.7525   -3.2106 O   0  0  0  0  0  0  0  0  0  0  0  0
    4.2947   -1.6723   -2.6942 C   0  0  0  0  0  0  0  0  0  0  0  0
    4.7684   -0.6254   -2.2357 O   0  0  0  0  0  0  0  0  0  0  0  0
    5.1308   -3.0041   -2.7506 C   0  0  0  0  0  0  0  0  0  0  0  0
    6.3237   -2.9696   -1.7124 C   0  0  0  0  0  0  0  0  0  0  0  0
    5.9609   -3.0956   -0.1794 C   0  0  2  0  0  0  0  0  0  0  0  0
    7.2848   -3.2631    0.5983 C   0  0  0  0  0  0  0  0  0  0  0  0
    4.9018   -4.2124    0.1981 C   0  0  2  0  0  0  0  0  0  0  0  0
    3.4887   -3.9728   -0.4041 C   0  0  0  0  0  0  0  0  0  0  0  0
    2.3615   -4.4501    0.4824 C   0  0  0  0  0  0  0  0  0  0  0  0
    3.1662   -5.3209    1.4132 C   0  0  2  0  0  0  0  0  0  0  0  0
    2.5395   -6.0013    2.6369 C   0  0  1  0  0  0  0  0  0  0  0  0
    1.2752   -5.7489    3.4969 C   0  0  0  0  0  0  0  0  0  0  0  0
    1.7137   -5.6217    5.0158 C   0  0  1  0  0  0  0  0  0  0  0  0
    2.0653   -4.1393    5.3705 C   0  0  0  0  0  0  0  0  0  0  0  0
    0.5324   -6.0302    5.9195 C   0  0  0  0  0  0  0  0  0  0  0  0
    0.9001   -6.0700    7.4196 C   0  0  0  0  0  0  0  0  0  0  0  0
    0.1424   -5.6277    8.2546 O   0  0  0  0  0  0  0  0  0  0  0  0
    2.2416   -6.7298    7.8055 C   0  0  0  0  0  0  0  0  0  0  0  0
    3.3887   -6.4803    6.8022 C   0  0  0  0  0  0  0  0  0  0  0  0
    2.8995   -6.6216    5.3514 C   0  0  2  0  0  0  0  0  0  0  0  0
    4.0163   -6.8777    4.2664 C   0  0  2  0  0  0  0  0  0  0  0  0
    5.0930   -5.7535    4.0086 C   0  0  0  0  0  0  0  0  0  0  0  0
    5.5023   -5.3793    2.5296 C   0  0  0  0  0  0  0  0  0  0  0  0
    4.4977   -4.5077    1.6838 C   0  0  1  0  0  0  0  0  0  0  0  0
    4.2670   -3.1232    2.3577 C   0  0  0  0  0  0  0  0  0  0  0  0
    3.3036   -7.2892    2.9712 C   0  0  1  0  0  0  0  0  0  0  0  0
    2.4775   -8.5194    3.0425 N   0  0  0  0  0  0  0  0  0  0  0  0
    2.6959   -9.6410    3.7948 C   0  0  0  0  0  0  0  0  0  0  0  0
    1.7495  -10.5732    3.4841 C   0  0  0  0  0  0  0  0  0  0  0  0
    0.9937  -10.0179    2.4853 N   0  0  0  0  0  0  0  0  0  0  0  0
    1.4434   -8.7903    2.1836 C   0  0  0  0  0  0  0  0  0  0  0  0
    1.5033   -2.8504   -4.0453 H   0  0  0  0  0  0  0  0  0  0  0  0
    2.3656   -3.6714   -2.7639 H   0  0  0  0  0  0  0  0  0  0  0  0
    3.1257   -3.4918   -4.3489 H   0  0  0  0  0  0  0  0  0  0  0  0
    4.5656   -3.8557   -2.5402 H   0  0  0  0  0  0  0  0  0  0  0  0
    5.5555   -3.1234   -3.7730 H   0  0  0  0  0  0  0  0  0  0  0  0
    6.9824   -3.7593   -1.9829 H   0  0  0  0  0  0  0  0  0  0  0  0
    6.9763   -2.1118   -1.8510 H   0  0  0  0  0  0  0  0  0  0  0  0
    5.5517   -2.1260    0.1239 H   0  0  0  0  0  0  0  0  0  0  0  0
    7.6899   -4.2761    0.5155 H   0  0  0  0  0  0  0  0  0  0  0  0
    7.1695   -3.0434    1.6576 H   0  0  0  0  0  0  0  0  0  0  0  0
    8.0596   -2.5817    0.2342 H   0  0  0  0  0  0  0  0  0  0  0  0
    5.2795   -5.1433   -0.2263 H   0  0  0  0  0  0  0  0  0  0  0  0
    3.2801   -2.9215   -0.6425 H   0  0  0  0  0  0  0  0  0  0  0  0
    3.4311   -4.6004   -1.2810 H   0  0  0  0  0  0  0  0  0  0  0  0
    1.8519   -3.6046    0.9821 H   0  0  0  0  0  0  0  0  0  0  0  0
    1.6381   -5.0143   -0.1129 H   0  0  0  0  0  0  0  0  0  0  0  0
    3.4563   -6.1433    0.7457 H   0  0  0  0  0  0  0  0  0  0  0  0
    2.9603   -5.1844    3.1881 H   0  0  0  0  0  0  0  0  0  0  0  0
    0.7691   -4.8400    3.1655 H   0  0  0  0  0  0  0  0  0  0  0  0
    0.5623   -6.5795    3.3759 H   0  0  0  0  0  0  0  0  0  0  0  0
    2.0529   -3.9353    6.4407 H   0  0  0  0  0  0  0  0  0  0  0  0
    1.3624   -3.4321    4.9302 H   0  0  0  0  0  0  0  0  0  0  0  0
    3.0632   -3.8412    5.0776 H   0  0  0  0  0  0  0  0  0  0  0  0
   -0.3168   -5.3583    5.7826 H   0  0  0  0  0  0  0  0  0  0  0  0
    0.1895   -7.0242    5.6520 H   0  0  0  0  0  0  0  0  0  0  0  0
    2.5217   -6.4076    8.8120 H   0  0  0  0  0  0  0  0  0  0  0  0
    2.0470   -7.7970    7.8778 H   0  0  0  0  0  0  0  0  0  0  0  0
    3.8276   -5.5010    6.9767 H   0  0  0  0  0  0  0  0  0  0  0  0
    4.1783   -7.2108    6.9973 H   0  0  0  0  0  0  0  0  0  0  0  0
    2.3976   -7.5819    5.3934 H   0  0  0  0  0  0  0  0  0  0  0  0
    4.5838   -7.7419    4.5791 H   0  0  0  0  0  0  0  0  0  0  0  0
    4.8237   -4.8440    4.5309 H   0  0  0  0  0  0  0  0  0  0  0  0
    5.9986   -6.0708    4.5132 H   0  0  0  0  0  0  0  0  0  0  0  0
    6.4258   -4.8200    2.6208 H   0  0  0  0  0  0  0  0  0  0  0  0
    5.7902   -6.2668    1.9674 H   0  0  0  0  0  0  0  0  0  0  0  0
    3.6039   -3.1669    3.2092 H   0  0  0  0  0  0  0  0  0  0  0  0
    3.8134   -2.3875    1.6894 H   0  0  0  0  0  0  0  0  0  0  0  0
    5.1999   -2.6813    2.7039 H   0  0  0  0  0  0  0  0  0  0  0  0
    4.0354   -7.5506    2.2089 H   0  0  0  0  0  0  0  0  0  0  0  0
    3.5120   -9.7154    4.5183 H   0  0  0  0  0  0  0  0  0  0  0  0
    1.5699  -11.5767    3.8689 H   0  0  0  0  0  0  0  0  0  0  0  0
    1.0531   -8.1595    1.4142 H   0  0  0  0  0  0  0  0  0  0  0  0
    0.2210  -10.4772    1.9976 H   0  0  0  0  0  0  0  0  0  0  0  0
  1  2  1  0
  1 34  1  0
  1 35  1  0
  1 36  1  0
  2  3  1  0
  3  4  2  0
  3  5  1  0
  5  6  1  0
  5 37  1  0
  5 38  1  0
  6  7  1  0
  6 39  1  0
  6 40  1  0
  7  8  1  0
  7  9  1  0
  7 41  1  1
  8 42  1  0
  8 43  1  0
  8 44  1  0
  9 26  1  0
  9 10  1  0
  9 45  1  6
 10 11  1  0
 10 46  1  0
 10 47  1  0
 11 12  1  0
 11 48  1  0
 11 49  1  0
 12 26  1  0
 12 13  1  0
 12 50  1  6
 13 28  1  0
 13 14  1  0
 13 51  1  1
 14 15  1  0
 14 52  1  0
 14 53  1  0
 15 22  1  0
 15 16  1  1
 15 17  1  0
 16 54  1  0
 16 55  1  0
 16 56  1  0
 17 18  1  0
 17 57  1  0
 17 58  1  0
 18 19  2  0
 18 20  1  0
 20 21  1  0
 20 59  1  0
 20 60  1  0
 21 22  1  0
 21 61  1  0
 21 62  1  0
 22 23  1  0
 22 63  1  1
 23 24  1  0
 23 28  1  0
 23 64  1  1
 24 25  1  0
 24 65  1  0
 24 66  1  0
 25 26  1  0
 25 67  1  0
 25 68  1  0
 26 27  1  1
 27 69  1  0
 27 70  1  0
 27 71  1  0
 28 29  1  0
 28 72  1  6
 29 33  1  0
 29 30  1  0
 30 31  2  0
 30 73  1  0
 31 32  1  0
 31 74  1  0
 32 33  2  0
 32 76  1  0
 33 75  1  0
M  CHG  1  32   1
M  END
>  <i_m_ct_stereo_status>  (77) 
1

>  <s_m_source_file>  (77) 
/var/tmp/pbs.5076255.sched01/tmppfua8s0c/0korcpw03.sdf

>  <i_m_source_file_index>  (77) 
31

>  <i_lp_mmshare_version>  (77) 
48012

>  <i_f3d_flags>  (77) 
0

>  <s_epik_input>  (77) 
W0NIM11PQyg9TylbQ0gyXVtDSDJdW0NASF0oW0NIM10pW0NAQEhdMVtDSDJdW0NIMl1bQ0BIXShbQ0hdKFtDSDJdMilbQ0BASF0zbjRbY0hdW2NIXW5bY0hdNClbQ0BAXTEoW0NIM10pW0NIMl1bQ0gyXVtDQEhdM1tDQEhdKFtDQEBdMjVbQ0gzXSlbQ0gyXVtDSDJdQyg9TylbQ0gyXTU=

>  <s_epik_cmdline>  (77) 
J2VwaWtfcHl0aG9uJywgJy1waHQnLCAnMi4wJywgJy1waCcsICc3LjAnLCAnLXRuJywgJzgnLCAnLW1hJywgJzIwMCcsICctaW1hZScsICc8aW5maWxlLm1hZT4nLCAnLW9tYWUnLCAnPG91dGZpbGUubWFlPic=

>  <r_lp_tautomer_probability>  (77) 
1

>  <r_epik_Ionization_Penalty>  (77) 
0.0881817

>  <r_epik_Ionization_Penalty_Charging>  (77) 
0

>  <r_epik_Ionization_Penalty_Neutral>  (77) 
0.0881817

>  <r_epik_State_Penalty>  (77) 
0.0786423

>  <r_epik_Charging_Adjusted_Penalty>  (77) 
0.0786423

>  <i_epik_Tot_Q>  (77) 
1

>  <i_epik_Tot_abs_Q>  (77) 
1

>  <s_epik_Chemistry_Notes>  (77) 
This compound has an ester and may undergo hydrolysis at high or low pH.

>  <s_lp_Force_Field>  (77) 
OPLS3e

>  <r_lp_Energy>  (77) 
123.541

>  <b_lp_Chiralities_Consistent>  (77) 
1

>  <s_lp_Variant>  (77) 
20:0-1

>  <s_i_glide_gridfile>  (77) 
pfpi4k_grid

>  <i_i_glide_lignum>  (77) 
31

>  <i_i_glide_rotatable_bonds>  (77) 
6

>  <r_i_docking_score>  (77) 
-2.74518

>  <r_i_glide_ligand_efficiency>  (77) 
-0.0831873

>  <r_i_glide_ligand_efficiency_sa>  (77) 
-0.266826

>  <r_i_glide_ligand_efficiency_ln>  (77) 
-0.610514

>  <r_i_glide_gscore>  (77) 
-2.74518

>  <r_i_glide_lipo>  (77) 
-0.833042

>  <r_i_glide_hbond>  (77) 
0

>  <r_i_glide_metal>  (77) 
-0

>  <r_i_glide_rewards>  (77) 
-0.302368

>  <r_i_glide_evdw>  (77) 
-27.2862

>  <r_i_glide_ecoul>  (77) 
-4.69912

>  <r_i_glide_erotb>  (77) 
0.483837

>  <r_i_glide_esite>  (77) 
-0.0244273

>  <r_i_glide_emodel>  (77) 
-34.9266

>  <r_i_glide_energy>  (77) 
-31.9853

>  <r_i_glide_einternal>  (77) 
6.54371

>  <r_i_glide_intrahb_reward>  (77) 
-0

>  <i_i_glide_confnum>  (77) 
2

>  <i_i_glide_posenum>  (77) 
14

>  <r_i_glide_eff_state_penalty>  (77) 
0

>  <ligand_id>  (77) 
20

>  <original_smiles>  (77) 
COC(=O)CCC(C)C1CCC2C3CC4(C)CC(=O)CCC4C(CCC12C)C3n1ccnc1

>  <smiles>  (77) 
[H]c1c([H])[n+]([H])c([H])n1C1([H])C2([H])C([H])([H])C([H])([H])C3(C([H])([H])[H])C([H])(C([H])(C([H])([H])[H])C([H])([H])C([H])([H])C(=O)OC([H])([H])[H])C([H])([H])C([H])([H])C3([H])C1([H])C([H])([H])C1(C([H])([H])[H])C([H])([H])C(=O)C([H])([H])C([H])([H])C21[H]

$$$$
20:0:2
     RDKit          3D

 76 80  0  0  1  0  0  0  0  0999 V2000
    1.2560    2.1772    2.0638 C   0  0  0  0  0  0  0  0  0  0  0  0
    2.0486    1.0168    2.0688 O   0  0  0  0  0  0  0  0  0  0  0  0
    1.5933   -0.0454    2.7023 C   0  0  0  0  0  0  0  0  0  0  0  0
    0.5358   -0.1383    3.3268 O   0  0  0  0  0  0  0  0  0  0  0  0
    2.5474   -1.2253    2.6496 C   0  0  0  0  0  0  0  0  0  0  0  0
    2.6280   -1.9169    1.2602 C   0  0  0  0  0  0  0  0  0  0  0  0
    3.6443   -3.0921    1.1537 C   0  0  2  0  0  0  0  0  0  0  0  0
    3.7069   -3.5324   -0.3278 C   0  0  0  0  0  0  0  0  0  0  0  0
    3.3451   -4.2820    2.1442 C   0  0  2  0  0  0  0  0  0  0  0  0
    3.4363   -3.8870    3.6570 C   0  0  0  0  0  0  0  0  0  0  0  0
    3.9700   -5.0429    4.4971 C   0  0  0  0  0  0  0  0  0  0  0  0
    3.7809   -6.1731    3.5167 C   0  0  2  0  0  0  0  0  0  0  0  0
    4.2583   -7.6111    3.8036 C   0  0  1  0  0  0  0  0  0  0  0  0
    5.3198   -8.2524    4.7372 C   0  0  0  0  0  0  0  0  0  0  0  0
    6.2888   -9.1657    3.8740 C   0  0  1  0  0  0  0  0  0  0  0  0
    7.4938   -8.3286    3.3391 C   0  0  0  0  0  0  0  0  0  0  0  0
    6.8812  -10.2815    4.7725 C   0  0  0  0  0  0  0  0  0  0  0  0
    7.7295  -11.2909    3.9844 C   0  0  0  0  0  0  0  0  0  0  0  0
    8.8087  -11.6862    4.4249 O   0  0  0  0  0  0  0  0  0  0  0  0
    7.1851  -11.8079    2.6486 C   0  0  0  0  0  0  0  0  0  0  0  0
    6.4274  -10.7369    1.8252 C   0  0  0  0  0  0  0  0  0  0  0  0
    5.4935   -9.9080    2.7190 C   0  0  2  0  0  0  0  0  0  0  0  0
    4.3233   -9.1414    1.9807 C   0  0  2  0  0  0  0  0  0  0  0  0
    4.6983   -8.0010    0.9481 C   0  0  0  0  0  0  0  0  0  0  0  0
    3.8983   -6.6326    0.9663 C   0  0  0  0  0  0  0  0  0  0  0  0
    4.2088   -5.5888    2.1148 C   0  0  1  0  0  0  0  0  0  0  0  0
    5.7004   -5.1471    2.0467 C   0  0  0  0  0  0  0  0  0  0  0  0
    3.3676   -8.6275    3.0679 C   0  0  1  0  0  0  0  0  0  0  0  0
    2.7173   -9.6679    3.9356 N   0  0  0  0  0  0  0  0  0  0  0  0
    2.2039  -10.8593    3.4941 C   0  0  0  0  0  0  0  0  0  0  0  0
    1.6130  -11.4638    4.5741 C   0  0  0  0  0  0  0  0  0  0  0  0
    1.7703  -10.6126    5.6213 N   0  0  0  0  0  0  0  0  0  0  0  0
    2.3839   -9.5021    5.2204 C   0  0  0  0  0  0  0  0  0  0  0  0
    1.8084    2.9401    1.5104 H   0  0  0  0  0  0  0  0  0  0  0  0
    1.0651    2.5381    3.0832 H   0  0  0  0  0  0  0  0  0  0  0  0
    0.3028    1.9769    1.5577 H   0  0  0  0  0  0  0  0  0  0  0  0
    3.5509   -0.8972    2.9748 H   0  0  0  0  0  0  0  0  0  0  0  0
    2.1106   -1.8758    3.3963 H   0  0  0  0  0  0  0  0  0  0  0  0
    1.6331   -2.2622    0.9961 H   0  0  0  0  0  0  0  0  0  0  0  0
    2.8756   -1.1670    0.5147 H   0  0  0  0  0  0  0  0  0  0  0  0
    4.6260   -2.6756    1.3844 H   0  0  0  0  0  0  0  0  0  0  0  0
    2.8332   -4.1156   -0.6256 H   0  0  0  0  0  0  0  0  0  0  0  0
    4.5932   -4.1277   -0.5437 H   0  0  0  0  0  0  0  0  0  0  0  0
    3.7629   -2.6762   -1.0036 H   0  0  0  0  0  0  0  0  0  0  0  0
    2.3145   -4.5788    1.9481 H   0  0  0  0  0  0  0  0  0  0  0  0
    4.0826   -3.0203    3.8170 H   0  0  0  0  0  0  0  0  0  0  0  0
    2.4366   -3.6663    4.0340 H   0  0  0  0  0  0  0  0  0  0  0  0
    5.0139   -4.8874    4.7808 H   0  0  0  0  0  0  0  0  0  0  0  0
    3.3692   -5.1535    5.3990 H   0  0  0  0  0  0  0  0  0  0  0  0
    2.6903   -6.2539    3.4765 H   0  0  0  0  0  0  0  0  0  0  0  0
    5.0980   -7.3742    3.1825 H   0  0  0  0  0  0  0  0  0  0  0  0
    5.8787   -7.4759    5.2635 H   0  0  0  0  0  0  0  0  0  0  0  0
    4.8555   -8.8635    5.5153 H   0  0  0  0  0  0  0  0  0  0  0  0
    8.3440   -8.9344    3.0334 H   0  0  0  0  0  0  0  0  0  0  0  0
    7.8823   -7.6436    4.0926 H   0  0  0  0  0  0  0  0  0  0  0  0
    7.2688   -7.7529    2.4516 H   0  0  0  0  0  0  0  0  0  0  0  0
    7.4778   -9.8522    5.5770 H   0  0  0  0  0  0  0  0  0  0  0  0
    6.0745  -10.8386    5.2435 H   0  0  0  0  0  0  0  0  0  0  0  0
    7.9934  -12.2537    2.0732 H   0  0  0  0  0  0  0  0  0  0  0  0
    6.5079  -12.6285    2.8803 H   0  0  0  0  0  0  0  0  0  0  0  0
    7.1100  -10.0923    1.2777 H   0  0  0  0  0  0  0  0  0  0  0  0
    5.8406  -11.2441    1.0669 H   0  0  0  0  0  0  0  0  0  0  0  0
    4.9444  -10.6888    3.2423 H   0  0  0  0  0  0  0  0  0  0  0  0
    3.7720   -9.8760    1.4008 H   0  0  0  0  0  0  0  0  0  0  0  0
    5.7587   -7.7820    0.9969 H   0  0  0  0  0  0  0  0  0  0  0  0
    4.5814   -8.4325   -0.0424 H   0  0  0  0  0  0  0  0  0  0  0  0
    4.1318   -6.1673    0.0132 H   0  0  0  0  0  0  0  0  0  0  0  0
    2.8271   -6.8197    0.9049 H   0  0  0  0  0  0  0  0  0  0  0  0
    6.3889   -5.8858    2.4325 H   0  0  0  0  0  0  0  0  0  0  0  0
    5.9022   -4.2449    2.6239 H   0  0  0  0  0  0  0  0  0  0  0  0
    6.0140   -4.9369    1.0248 H   0  0  0  0  0  0  0  0  0  0  0  0
    2.5068   -8.1637    2.5934 H   0  0  0  0  0  0  0  0  0  0  0  0
    2.2936  -11.2088    2.4825 H   0  0  0  0  0  0  0  0  0  0  0  0
    1.1107  -12.4176    4.6855 H   0  0  0  0  0  0  0  0  0  0  0  0
    2.6091   -8.6460    5.8499 H   0  0  0  0  0  0  0  0  0  0  0  0
    1.4696  -10.8683    6.5794 H   0  0  0  0  0  0  0  0  0  0  0  0
  1  2  1  0
  1 34  1  0
  1 35  1  0
  1 36  1  0
  2  3  1  0
  3  4  2  0
  3  5  1  0
  5  6  1  0
  5 37  1  0
  5 38  1  0
  6  7  1  0
  6 39  1  0
  6 40  1  0
  7  8  1  0
  7  9  1  0
  7 41  1  1
  8 42  1  0
  8 43  1  0
  8 44  1  0
  9 26  1  0
  9 10  1  0
  9 45  1  6
 10 11  1  0
 10 46  1  0
 10 47  1  0
 11 12  1  0
 11 48  1  0
 11 49  1  0
 12 26  1  0
 12 13  1  0
 12 50  1  6
 13 28  1  0
 13 14  1  0
 13 51  1  6
 14 15  1  0
 14 52  1  0
 14 53  1  0
 15 22  1  0
 15 16  1  6
 15 17  1  0
 16 54  1  0
 16 55  1  0
 16 56  1  0
 17 18  1  0
 17 57  1  0
 17 58  1  0
 18 19  2  0
 18 20  1  0
 20 21  1  0
 20 59  1  0
 20 60  1  0
 21 22  1  0
 21 61  1  0
 21 62  1  0
 22 23  1  0
 22 63  1  1
 23 24  1  0
 23 28  1  0
 23 64  1  6
 24 25  1  0
 24 65  1  0
 24 66  1  0
 25 26  1  0
 25 67  1  0
 25 68  1  0
 26 27  1  1
 27 69  1  0
 27 70  1  0
 27 71  1  0
 28 29  1  0
 28 72  1  6
 29 33  1  0
 29 30  1  0
 30 31  2  0
 30 73  1  0
 31 32  1  0
 31 74  1  0
 32 33  2  0
 32 76  1  0
 33 75  1  0
M  CHG  1  32   1
M  END
>  <i_m_ct_stereo_status>  (78) 
1

>  <s_m_source_file>  (78) 
/var/tmp/pbs.5076255.sched01/tmppfua8s0c/0korcpw03.sdf

>  <i_m_source_file_index>  (78) 
31

>  <i_lp_mmshare_version>  (78) 
48012

>  <i_f3d_flags>  (78) 
0

>  <s_epik_input>  (78) 
W0NIM11PQyg9TylbQ0gyXVtDSDJdW0NASF0oW0NIM10pW0NAQEhdMVtDSDJdW0NIMl1bQ0BIXShbQ0hdKFtDSDJdMilbQ0BASF0zbjRbY0hdW2NIXW5bY0hdNClbQ0BAXTEoW0NIM10pW0NIMl1bQ0gyXVtDQEhdM1tDQEhdKFtDQEBdMjVbQ0gzXSlbQ0gyXVtDSDJdQyg9TylbQ0gyXTU=

>  <s_epik_cmdline>  (78) 
J2VwaWtfcHl0aG9uJywgJy1waHQnLCAnMi4wJywgJy1waCcsICc3LjAnLCAnLXRuJywgJzgnLCAnLW1hJywgJzIwMCcsICctaW1hZScsICc8aW5maWxlLm1hZT4nLCAnLW9tYWUnLCAnPG91dGZpbGUubWFlPic=

>  <r_lp_tautomer_probability>  (78) 
1

>  <r_epik_Ionization_Penalty>  (78) 
0.0881817

>  <r_epik_Ionization_Penalty_Charging>  (78) 
0

>  <r_epik_Ionization_Penalty_Neutral>  (78) 
0.0881817

>  <r_epik_State_Penalty>  (78) 
0.0786423

>  <r_epik_Charging_Adjusted_Penalty>  (78) 
0.0786423

>  <i_epik_Tot_Q>  (78) 
1

>  <i_epik_Tot_abs_Q>  (78) 
1

>  <s_epik_Chemistry_Notes>  (78) 
This compound has an ester and may undergo hydrolysis at high or low pH.

>  <s_lp_Force_Field>  (78) 
OPLS3e

>  <r_lp_Energy>  (78) 
123.541

>  <b_lp_Chiralities_Consistent>  (78) 
1

>  <s_lp_Variant>  (78) 
20:0-1

>  <s_i_glide_gridfile>  (78) 
pfpi4k_grid

>  <i_i_glide_lignum>  (78) 
31

>  <i_i_glide_rotatable_bonds>  (78) 
6

>  <r_i_docking_score>  (78) 
-2.44049

>  <r_i_glide_ligand_efficiency>  (78) 
-0.0739543

>  <r_i_glide_ligand_efficiency_sa>  (78) 
-0.237211

>  <r_i_glide_ligand_efficiency_ln>  (78) 
-0.542753

>  <r_i_glide_gscore>  (78) 
-2.44049

>  <r_i_glide_lipo>  (78) 
-0.237176

>  <r_i_glide_hbond>  (78) 
-0.159859

>  <r_i_glide_metal>  (78) 
-0

>  <r_i_glide_rewards>  (78) 
-0.309885

>  <r_i_glide_evdw>  (78) 
-23.5317

>  <r_i_glide_ecoul>  (78) 
-5.98005

>  <r_i_glide_erotb>  (78) 
0.483837

>  <r_i_glide_esite>  (78) 
-0.14382

>  <r_i_glide_emodel>  (78) 
-34.8388

>  <r_i_glide_energy>  (78) 
-29.5117

>  <r_i_glide_einternal>  (78) 
1.61683

>  <r_i_glide_intrahb_reward>  (78) 
-0

>  <i_i_glide_confnum>  (78) 
2

>  <i_i_glide_posenum>  (78) 
1

>  <r_i_glide_eff_state_penalty>  (78) 
0

>  <ligand_id>  (78) 
20

>  <original_smiles>  (78) 
COC(=O)CCC(C)C1CCC2C3CC4(C)CC(=O)CCC4C(CCC12C)C3n1ccnc1

>  <smiles>  (78) 
[H]c1c([H])[n+]([H])c([H])n1C1([H])C2([H])C([H])([H])C([H])([H])C3(C([H])([H])[H])C([H])(C([H])(C([H])([H])[H])C([H])([H])C([H])([H])C(=O)OC([H])([H])[H])C([H])([H])C([H])([H])C3([H])C1([H])C([H])([H])C1(C([H])([H])[H])C([H])([H])C(=O)C([H])([H])C([H])([H])C21[H]

$$$$
20:1:0
     RDKit          3D

 76 80  0  0  1  0  0  0  0  0999 V2000
    4.0954    0.1830    1.6967 C   0  0  0  0  0  0  0  0  0  0  0  0
    5.3738   -0.2494    1.2763 O   0  0  0  0  0  0  0  0  0  0  0  0
    5.5532   -0.9206    0.1217 C   0  0  0  0  0  0  0  0  0  0  0  0
    6.6605   -1.3042   -0.2519 O   0  0  0  0  0  0  0  0  0  0  0  0
    4.3009   -1.2510   -0.7114 C   0  0  0  0  0  0  0  0  0  0  0  0
    3.6731   -2.6240   -0.3862 C   0  0  0  0  0  0  0  0  0  0  0  0
    4.5790   -3.6953    0.2990 C   0  0  2  0  0  0  0  0  0  0  0  0
    5.5551   -4.2678   -0.7524 C   0  0  0  0  0  0  0  0  0  0  0  0
    3.7451   -4.7745    1.0620 C   0  0  2  0  0  0  0  0  0  0  0  0
    2.8214   -4.1355    2.1453 C   0  0  0  0  0  0  0  0  0  0  0  0
    2.7295   -5.1288    3.3145 C   0  0  0  0  0  0  0  0  0  0  0  0
    3.3401   -6.4028    2.7339 C   0  0  2  0  0  0  0  0  0  0  0  0
    3.4517   -7.6441    3.6841 C   0  0  2  0  0  0  0  0  0  0  0  0
    4.7163   -7.8409    4.6008 C   0  0  0  0  0  0  0  0  0  0  0  0
    5.8775   -8.8214    4.1565 C   0  0  1  0  0  0  0  0  0  0  0  0
    7.1229   -8.0597    3.6264 C   0  0  0  0  0  0  0  0  0  0  0  0
    6.3759   -9.6133    5.4007 C   0  0  0  0  0  0  0  0  0  0  0  0
    7.4044  -10.7020    5.0577 C   0  0  0  0  0  0  0  0  0  0  0  0
    8.4036  -10.8658    5.7581 O   0  0  0  0  0  0  0  0  0  0  0  0
    7.1372  -11.5845    3.8294 C   0  0  0  0  0  0  0  0  0  0  0  0
    6.4657  -10.8387    2.6442 C   0  0  0  0  0  0  0  0  0  0  0  0
    5.3664   -9.8862    3.1481 C   0  0  2  0  0  0  0  0  0  0  0  0
    4.2956   -9.4090    2.1399 C   0  0  2  0  0  0  0  0  0  0  0  0
    4.6675   -8.5272    0.9027 C   0  0  0  0  0  0  0  0  0  0  0  0
    5.0943   -7.0225    0.9020 C   0  0  0  0  0  0  0  0  0  0  0  0
    4.5064   -5.9126    1.8439 C   0  0  1  0  0  0  0  0  0  0  0  0
    5.6459   -5.2087    2.6473 C   0  0  0  0  0  0  0  0  0  0  0  0
    3.0610   -8.9140    2.8963 C   0  0  1  0  0  0  0  0  0  0  0  0
    2.3552   -9.9745    3.6952 N   0  0  0  0  0  0  0  0  0  0  0  0
    1.3334  -10.7598    3.1982 C   0  0  0  0  0  0  0  0  0  0  0  0
    0.9755  -11.6244    4.1841 C   0  0  0  0  0  0  0  0  0  0  0  0
    1.7475  -11.3444    5.2674 N   0  0  0  0  0  0  0  0  0  0  0  0
    2.5867  -10.3394    4.9646 C   0  0  0  0  0  0  0  0  0  0  0  0
    4.1657    0.7451    2.6290 H   0  0  0  0  0  0  0  0  0  0  0  0
    3.4543   -0.6814    1.8536 H   0  0  0  0  0  0  0  0  0  0  0  0
    3.6565    0.8362    0.9433 H   0  0  0  0  0  0  0  0  0  0  0  0
    3.5160   -0.5123   -0.5677 H   0  0  0  0  0  0  0  0  0  0  0  0
    4.5509   -1.1781   -1.7716 H   0  0  0  0  0  0  0  0  0  0  0  0
    2.7923   -2.4241    0.2193 H   0  0  0  0  0  0  0  0  0  0  0  0
    3.2701   -3.0417   -1.3097 H   0  0  0  0  0  0  0  0  0  0  0  0
    5.1690   -3.2255    1.0836 H   0  0  0  0  0  0  0  0  0  0  0  0
    5.0246   -4.8226   -1.5293 H   0  0  0  0  0  0  0  0  0  0  0  0
    6.3037   -4.9160   -0.2987 H   0  0  0  0  0  0  0  0  0  0  0  0
    6.1128   -3.4864   -1.2651 H   0  0  0  0  0  0  0  0  0  0  0  0
    3.0955   -5.2490    0.3215 H   0  0  0  0  0  0  0  0  0  0  0  0
    3.2000   -3.1757    2.5067 H   0  0  0  0  0  0  0  0  0  0  0  0
    1.8331   -3.9403    1.7284 H   0  0  0  0  0  0  0  0  0  0  0  0
    3.2987   -4.7736    4.1742 H   0  0  0  0  0  0  0  0  0  0  0  0
    1.6972   -5.2631    3.6388 H   0  0  0  0  0  0  0  0  0  0  0  0
    2.5630   -6.6709    2.0157 H   0  0  0  0  0  0  0  0  0  0  0  0
    2.6242   -7.4789    4.3732 H   0  0  0  0  0  0  0  0  0  0  0  0
    5.0997   -6.8830    4.9344 H   0  0  0  0  0  0  0  0  0  0  0  0
    4.3248   -8.2173    5.5403 H   0  0  0  0  0  0  0  0  0  0  0  0
    7.9965   -8.6923    3.4708 H   0  0  0  0  0  0  0  0  0  0  0  0
    7.4447   -7.2877    4.3258 H   0  0  0  0  0  0  0  0  0  0  0  0
    6.9599   -7.6046    2.6645 H   0  0  0  0  0  0  0  0  0  0  0  0
    6.8024   -8.9307    6.1368 H   0  0  0  0  0  0  0  0  0  0  0  0
    5.5425  -10.1091    5.8941 H   0  0  0  0  0  0  0  0  0  0  0  0
    8.0684  -12.0535    3.5112 H   0  0  0  0  0  0  0  0  0  0  0  0
    6.4848  -12.3896    4.1674 H   0  0  0  0  0  0  0  0  0  0  0  0
    7.2047  -10.3071    2.0479 H   0  0  0  0  0  0  0  0  0  0  0  0
    6.0216  -11.5895    1.9859 H   0  0  0  0  0  0  0  0  0  0  0  0
    4.8052  -10.5898    3.7559 H   0  0  0  0  0  0  0  0  0  0  0  0
    3.9558  -10.3349    1.6839 H   0  0  0  0  0  0  0  0  0  0  0  0
    5.4474   -9.0609    0.3699 H   0  0  0  0  0  0  0  0  0  0  0  0
    3.8107   -8.5926    0.2310 H   0  0  0  0  0  0  0  0  0  0  0  0
    6.1791   -6.9669    0.8968 H   0  0  0  0  0  0  0  0  0  0  0  0
    4.8731   -6.7119   -0.1180 H   0  0  0  0  0  0  0  0  0  0  0  0
    6.0299   -5.7839    3.4701 H   0  0  0  0  0  0  0  0  0  0  0  0
    5.3321   -4.2654    3.0946 H   0  0  0  0  0  0  0  0  0  0  0  0
    6.5024   -4.9719    2.0156 H   0  0  0  0  0  0  0  0  0  0  0  0
    2.3127   -8.6750    2.1383 H   0  0  0  0  0  0  0  0  0  0  0  0
    0.9528  -10.6312    2.1929 H   0  0  0  0  0  0  0  0  0  0  0  0
    0.2304  -12.4276    4.2186 H   0  0  0  0  0  0  0  0  0  0  0  0
    3.3279   -9.9525    5.6510 H   0  0  0  0  0  0  0  0  0  0  0  0
    1.7070  -11.8094    6.2068 H   0  0  0  0  0  0  0  0  0  0  0  0
  1  2  1  0
  1 34  1  0
  1 35  1  0
  1 36  1  0
  2  3  1  0
  3  4  2  0
  3  5  1  0
  5  6  1  0
  5 37  1  0
  5 38  1  0
  6  7  1  0
  6 39  1  0
  6 40  1  0
  7  8  1  0
  7  9  1  0
  7 41  1  1
  8 42  1  0
  8 43  1  0
  8 44  1  0
  9 26  1  0
  9 10  1  0
  9 45  1  6
 10 11  1  0
 10 46  1  0
 10 47  1  0
 11 12  1  0
 11 48  1  0
 11 49  1  0
 12 26  1  0
 12 13  1  0
 12 50  1  6
 13 28  1  0
 13 14  1  0
 13 51  1  1
 14 15  1  0
 14 52  1  0
 14 53  1  0
 15 22  1  0
 15 16  1  6
 15 17  1  0
 16 54  1  0
 16 55  1  0
 16 56  1  0
 17 18  1  0
 17 57  1  0
 17 58  1  0
 18 19  2  0
 18 20  1  0
 20 21  1  0
 20 59  1  0
 20 60  1  0
 21 22  1  0
 21 61  1  0
 21 62  1  0
 22 23  1  0
 22 63  1  1
 23 24  1  0
 23 28  1  0
 23 64  1  6
 24 25  1  0
 24 65  1  0
 24 66  1  0
 25 26  1  0
 25 67  1  0
 25 68  1  0
 26 27  1  1
 27 69  1  0
 27 70  1  0
 27 71  1  0
 28 29  1  0
 28 72  1  6
 29 33  1  0
 29 30  1  0
 30 31  2  0
 30 73  1  0
 31 32  1  0
 31 74  1  0
 32 33  2  0
 32 76  1  0
 33 75  1  0
M  CHG  1  32   1
M  END
>  <i_m_ct_stereo_status>  (79) 
1

>  <s_m_source_file>  (79) 
/var/tmp/pbs.5076255.sched01/tmppfua8s0c/0korcpw03.sdf

>  <i_m_source_file_index>  (79) 
32

>  <i_lp_mmshare_version>  (79) 
48012

>  <i_f3d_flags>  (79) 
0

>  <s_epik_input>  (79) 
W0NIM11PQyg9TylbQ0gyXVtDSDJdW0NASF0oW0NIM10pW0NAQEhdMVtDSDJdW0NIMl1bQ0BIXShbQ0hdKFtDSDJdMilbQ0BASF0zbjRbY0hdW2NIXW5bY0hdNClbQ0BAXTEoW0NIM10pW0NIMl1bQ0gyXVtDQEhdM1tDQEhdKFtDQEBdMjVbQ0gzXSlbQ0gyXVtDSDJdQyg9TylbQ0gyXTU=

>  <s_epik_cmdline>  (79) 
J2VwaWtfcHl0aG9uJywgJy1waHQnLCAnMi4wJywgJy1waCcsICc3LjAnLCAnLXRuJywgJzgnLCAnLW1hJywgJzIwMCcsICctaW1hZScsICc8aW5maWxlLm1hZT4nLCAnLW9tYWUnLCAnPG91dGZpbGUubWFlPic=

>  <r_lp_tautomer_probability>  (79) 
1

>  <r_epik_Ionization_Penalty>  (79) 
0.0881817

>  <r_epik_Ionization_Penalty_Charging>  (79) 
0

>  <r_epik_Ionization_Penalty_Neutral>  (79) 
0.0881817

>  <r_epik_State_Penalty>  (79) 
0.0786423

>  <r_epik_Charging_Adjusted_Penalty>  (79) 
0.0786423

>  <i_epik_Tot_Q>  (79) 
1

>  <i_epik_Tot_abs_Q>  (79) 
1

>  <s_epik_Chemistry_Notes>  (79) 
This compound has an ester and may undergo hydrolysis at high or low pH.

>  <s_lp_Force_Field>  (79) 
OPLS3e

>  <r_lp_Energy>  (79) 
91.2803

>  <b_lp_Chiralities_Consistent>  (79) 
1

>  <s_lp_Variant>  (79) 
20:0-2

>  <s_i_glide_gridfile>  (79) 
pfpi4k_grid

>  <i_i_glide_lignum>  (79) 
32

>  <i_i_glide_rotatable_bonds>  (79) 
6

>  <r_i_docking_score>  (79) 
-3.44707

>  <r_i_glide_ligand_efficiency>  (79) 
-0.104457

>  <r_i_glide_ligand_efficiency_sa>  (79) 
-0.335048

>  <r_i_glide_ligand_efficiency_ln>  (79) 
-0.76661

>  <r_i_glide_gscore>  (79) 
-3.44707

>  <r_i_glide_lipo>  (79) 
-0.43969

>  <r_i_glide_hbond>  (79) 
-0.455661

>  <r_i_glide_metal>  (79) 
-0

>  <r_i_glide_rewards>  (79) 
-0.358529

>  <r_i_glide_evdw>  (79) 
-22.6234

>  <r_i_glide_ecoul>  (79) 
-9.3714

>  <r_i_glide_erotb>  (79) 
0.483837

>  <r_i_glide_esite>  (79) 
-0.140146

>  <r_i_glide_emodel>  (79) 
-35.9943

>  <r_i_glide_energy>  (79) 
-31.9948

>  <r_i_glide_einternal>  (79) 
10.6406

>  <r_i_glide_intrahb_reward>  (79) 
-0

>  <i_i_glide_confnum>  (79) 
3

>  <i_i_glide_posenum>  (79) 
18

>  <r_i_glide_eff_state_penalty>  (79) 
0

>  <ligand_id>  (79) 
20

>  <original_smiles>  (79) 
COC(=O)CCC(C)C1CCC2C3CC4(C)CC(=O)CCC4C(CCC12C)C3n1ccnc1

>  <smiles>  (79) 
[H]c1c([H])[n+]([H])c([H])n1C1([H])C2([H])C([H])([H])C([H])([H])C3(C([H])([H])[H])C([H])(C([H])(C([H])([H])[H])C([H])([H])C([H])([H])C(=O)OC([H])([H])[H])C([H])([H])C([H])([H])C3([H])C1([H])C([H])([H])C1(C([H])([H])[H])C([H])([H])C(=O)C([H])([H])C([H])([H])C21[H]

$$$$
20:1:1
     RDKit          3D

 76 80  0  0  1  0  0  0  0  0999 V2000
    2.8140    0.7795    2.5477 C   0  0  0  0  0  0  0  0  0  0  0  0
    3.0997    0.1441    1.3098 O   0  0  0  0  0  0  0  0  0  0  0  0
    4.3350   -0.3167    1.0651 C   0  0  0  0  0  0  0  0  0  0  0  0
    5.2913   -0.2554    1.8377 O   0  0  0  0  0  0  0  0  0  0  0  0
    4.4752   -0.9551   -0.3170 C   0  0  0  0  0  0  0  0  0  0  0  0
    3.9624   -2.4076   -0.3674 C   0  0  0  0  0  0  0  0  0  0  0  0
    4.8685   -3.4480    0.3569 C   0  0  2  0  0  0  0  0  0  0  0  0
    5.8641   -4.0382   -0.6630 C   0  0  0  0  0  0  0  0  0  0  0  0
    4.0165   -4.5156    1.1240 C   0  0  2  0  0  0  0  0  0  0  0  0
    3.1562   -3.8606    2.2465 C   0  0  0  0  0  0  0  0  0  0  0  0
    3.0514   -4.8782    3.3923 C   0  0  0  0  0  0  0  0  0  0  0  0
    3.5697   -6.1710    2.7629 C   0  0  2  0  0  0  0  0  0  0  0  0
    3.6431   -7.4460    3.6826 C   0  0  2  0  0  0  0  0  0  0  0  0
    4.9250   -7.7372    4.5521 C   0  0  0  0  0  0  0  0  0  0  0  0
    6.0120   -8.7616    4.0332 C   0  0  1  0  0  0  0  0  0  0  0  0
    7.2786   -8.0589    3.4726 C   0  0  0  0  0  0  0  0  0  0  0  0
    6.5084   -9.6086    5.2364 C   0  0  0  0  0  0  0  0  0  0  0  0
    7.4597  -10.7433    4.8263 C   0  0  0  0  0  0  0  0  0  0  0  0
    8.4692  -10.9839    5.4877 O   0  0  0  0  0  0  0  0  0  0  0  0
    7.0975  -11.5842    3.5945 C   0  0  0  0  0  0  0  0  0  0  0  0
    6.4192  -10.7784    2.4569 C   0  0  0  0  0  0  0  0  0  0  0  0
    5.3996   -9.7768    3.0275 C   0  0  2  0  0  0  0  0  0  0  0  0
    4.3176   -9.2224    2.0723 C   0  0  2  0  0  0  0  0  0  0  0  0
    4.6984   -8.3243    0.8489 C   0  0  0  0  0  0  0  0  0  0  0  0
    5.2108   -6.8434    0.8622 C   0  0  0  0  0  0  0  0  0  0  0  0
    4.7293   -5.7200    1.8429 C   0  0  1  0  0  0  0  0  0  0  0  0
    5.9282   -5.1031    2.6227 C   0  0  0  0  0  0  0  0  0  0  0  0
    3.1421   -8.6779    2.8933 C   0  0  1  0  0  0  0  0  0  0  0  0
    2.4017   -9.7164    3.6859 N   0  0  0  0  0  0  0  0  0  0  0  0
    1.4056  -10.5178    3.1707 C   0  0  0  0  0  0  0  0  0  0  0  0
    1.0100  -11.3618    4.1712 C   0  0  0  0  0  0  0  0  0  0  0  0
    1.7508  -11.0522    5.2688 N   0  0  0  0  0  0  0  0  0  0  0  0
    2.5936  -10.0568    4.9686 C   0  0  0  0  0  0  0  0  0  0  0  0
    1.7687    1.0820    2.5729 H   0  0  0  0  0  0  0  0  0  0  0  0
    3.4138    1.6777    2.6976 H   0  0  0  0  0  0  0  0  0  0  0  0
    2.9903    0.1002    3.3825 H   0  0  0  0  0  0  0  0  0  0  0  0
    3.8931   -0.3564   -1.0136 H   0  0  0  0  0  0  0  0  0  0  0  0
    5.5121   -0.8889   -0.6505 H   0  0  0  0  0  0  0  0  0  0  0  0
    2.9426   -2.4190    0.0184 H   0  0  0  0  0  0  0  0  0  0  0  0
    3.8394   -2.6942   -1.4122 H   0  0  0  0  0  0  0  0  0  0  0  0
    5.4696   -2.9207    1.0986 H   0  0  0  0  0  0  0  0  0  0  0  0
    5.3560   -4.6098   -1.4407 H   0  0  0  0  0  0  0  0  0  0  0  0
    6.5880   -4.6992   -0.1935 H   0  0  0  0  0  0  0  0  0  0  0  0
    6.4424   -3.2545   -1.1546 H   0  0  0  0  0  0  0  0  0  0  0  0
    3.3232   -4.9397    0.3957 H   0  0  0  0  0  0  0  0  0  0  0  0
    3.5976   -2.9320    2.6151 H   0  0  0  0  0  0  0  0  0  0  0  0
    2.1672   -3.6006    1.8663 H   0  0  0  0  0  0  0  0  0  0  0  0
    3.6717   -4.5784    4.2370 H   0  0  0  0  0  0  0  0  0  0  0  0
    2.0267   -4.9657    3.7573 H   0  0  0  0  0  0  0  0  0  0  0  0
    2.7540   -6.3796    2.0690 H   0  0  0  0  0  0  0  0  0  0  0  0
    2.8594   -7.2424    4.4018 H   0  0  0  0  0  0  0  0  0  0  0  0
    5.3743   -6.8081    4.8640 H   0  0  0  0  0  0  0  0  0  0  0  0
    4.5653   -8.1023    5.5245 H   0  0  0  0  0  0  0  0  0  0  0  0
    8.1069   -8.7350    3.2686 H   0  0  0  0  0  0  0  0  0  0  0  0
    7.6690   -7.3253    4.1758 H   0  0  0  0  0  0  0  0  0  0  0  0
    7.1071   -7.5726    2.5296 H   0  0  0  0  0  0  0  0  0  0  0  0
    7.0017   -8.9724    5.9706 H   0  0  0  0  0  0  0  0  0  0  0  0
    5.6665  -10.0677    5.7516 H   0  0  0  0  0  0  0  0  0  0  0  0
    7.9884  -12.0964    3.2298 H   0  0  0  0  0  0  0  0  0  0  0  0
    6.4184  -12.3601    3.9425 H   0  0  0  0  0  0  0  0  0  0  0  0
    7.1606  -10.2697    1.8499 H   0  0  0  0  0  0  0  0  0  0  0  0
    5.9090  -11.4850    1.7921 H   0  0  0  0  0  0  0  0  0  0  0  0
    4.8192  -10.4543    3.6459 H   0  0  0  0  0  0  0  0  0  0  0  0
    3.9184  -10.1160    1.5949 H   0  0  0  0  0  0  0  0  0  0  0  0
    5.4091   -8.8976    0.2635 H   0  0  0  0  0  0  0  0  0  0  0  0
    3.8174   -8.3232    0.2068 H   0  0  0  0  0  0  0  0  0  0  0  0
    6.2943   -6.8500    0.8226 H   0  0  0  0  0  0  0  0  0  0  0  0
    4.9714   -6.4989   -0.1424 H   0  0  0  0  0  0  0  0  0  0  0  0
    6.3046   -5.7226    3.4148 H   0  0  0  0  0  0  0  0  0  0  0  0
    5.6811   -4.1528    3.0962 H   0  0  0  0  0  0  0  0  0  0  0  0
    6.7800   -4.9028    1.9758 H   0  0  0  0  0  0  0  0  0  0  0  0
    2.3880   -8.3739    2.1731 H   0  0  0  0  0  0  0  0  0  0  0  0
    1.0665  -10.4311    2.1359 H   0  0  0  0  0  0  0  0  0  0  0  0
    0.2645  -12.1505    4.1796 H   0  0  0  0  0  0  0  0  0  0  0  0
    3.2987   -9.6563    5.6733 H   0  0  0  0  0  0  0  0  0  0  0  0
    1.6860  -11.5145    6.1864 H   0  0  0  0  0  0  0  0  0  0  0  0
  1  2  1  0
  1 34  1  0
  1 35  1  0
  1 36  1  0
  2  3  1  0
  3  4  2  0
  3  5  1  0
  5  6  1  0
  5 37  1  0
  5 38  1  0
  6  7  1  0
  6 39  1  0
  6 40  1  0
  7  8  1  0
  7  9  1  0
  7 41  1  1
  8 42  1  0
  8 43  1  0
  8 44  1  0
  9 26  1  0
  9 10  1  0
  9 45  1  6
 10 11  1  0
 10 46  1  0
 10 47  1  0
 11 12  1  0
 11 48  1  0
 11 49  1  0
 12 26  1  0
 12 13  1  0
 12 50  1  6
 13 28  1  0
 13 14  1  0
 13 51  1  1
 14 15  1  0
 14 52  1  0
 14 53  1  0
 15 22  1  0
 15 16  1  6
 15 17  1  0
 16 54  1  0
 16 55  1  0
 16 56  1  0
 17 18  1  0
 17 57  1  0
 17 58  1  0
 18 19  2  0
 18 20  1  0
 20 21  1  0
 20 59  1  0
 20 60  1  0
 21 22  1  0
 21 61  1  0
 21 62  1  0
 22 23  1  0
 22 63  1  1
 23 24  1  0
 23 28  1  0
 23 64  1  6
 24 25  1  0
 24 65  1  0
 24 66  1  0
 25 26  1  0
 25 67  1  0
 25 68  1  0
 26 27  1  1
 27 69  1  0
 27 70  1  0
 27 71  1  0
 28 29  1  0
 28 72  1  6
 29 33  1  0
 29 30  1  0
 30 31  2  0
 30 73  1  0
 31 32  1  0
 31 74  1  0
 32 33  2  0
 32 76  1  0
 33 75  1  0
M  CHG  1  32   1
M  END
>  <i_m_ct_stereo_status>  (80) 
1

>  <s_m_source_file>  (80) 
/var/tmp/pbs.5076255.sched01/tmppfua8s0c/0korcpw03.sdf

>  <i_m_source_file_index>  (80) 
32

>  <i_lp_mmshare_version>  (80) 
48012

>  <i_f3d_flags>  (80) 
0

>  <s_epik_input>  (80) 
W0NIM11PQyg9TylbQ0gyXVtDSDJdW0NASF0oW0NIM10pW0NAQEhdMVtDSDJdW0NIMl1bQ0BIXShbQ0hdKFtDSDJdMilbQ0BASF0zbjRbY0hdW2NIXW5bY0hdNClbQ0BAXTEoW0NIM10pW0NIMl1bQ0gyXVtDQEhdM1tDQEhdKFtDQEBdMjVbQ0gzXSlbQ0gyXVtDSDJdQyg9TylbQ0gyXTU=

>  <s_epik_cmdline>  (80) 
J2VwaWtfcHl0aG9uJywgJy1waHQnLCAnMi4wJywgJy1waCcsICc3LjAnLCAnLXRuJywgJzgnLCAnLW1hJywgJzIwMCcsICctaW1hZScsICc8aW5maWxlLm1hZT4nLCAnLW9tYWUnLCAnPG91dGZpbGUubWFlPic=

>  <r_lp_tautomer_probability>  (80) 
1

>  <r_epik_Ionization_Penalty>  (80) 
0.0881817

>  <r_epik_Ionization_Penalty_Charging>  (80) 
0

>  <r_epik_Ionization_Penalty_Neutral>  (80) 
0.0881817

>  <r_epik_State_Penalty>  (80) 
0.0786423

>  <r_epik_Charging_Adjusted_Penalty>  (80) 
0.0786423

>  <i_epik_Tot_Q>  (80) 
1

>  <i_epik_Tot_abs_Q>  (80) 
1

>  <s_epik_Chemistry_Notes>  (80) 
This compound has an ester and may undergo hydrolysis at high or low pH.

>  <s_lp_Force_Field>  (80) 
OPLS3e

>  <r_lp_Energy>  (80) 
91.2803

>  <b_lp_Chiralities_Consistent>  (80) 
1

>  <s_lp_Variant>  (80) 
20:0-2

>  <s_i_glide_gridfile>  (80) 
pfpi4k_grid

>  <i_i_glide_lignum>  (80) 
32

>  <i_i_glide_rotatable_bonds>  (80) 
6

>  <r_i_docking_score>  (80) 
-3.30651

>  <r_i_glide_ligand_efficiency>  (80) 
-0.100197

>  <r_i_glide_ligand_efficiency_sa>  (80) 
-0.321386

>  <r_i_glide_ligand_efficiency_ln>  (80) 
-0.73535

>  <r_i_glide_gscore>  (80) 
-3.30651

>  <r_i_glide_lipo>  (80) 
-0.539798

>  <r_i_glide_hbond>  (80) 
-0.381039

>  <r_i_glide_metal>  (80) 
-0

>  <r_i_glide_rewards>  (80) 
-0.480051

>  <r_i_glide_evdw>  (80) 
-24.8853

>  <r_i_glide_ecoul>  (80) 
-6.77756

>  <r_i_glide_erotb>  (80) 
0.483837

>  <r_i_glide_esite>  (80) 
-0.128558

>  <r_i_glide_emodel>  (80) 
-40.0557

>  <r_i_glide_energy>  (80) 
-31.6628

>  <r_i_glide_einternal>  (80) 
2.81966

>  <r_i_glide_intrahb_reward>  (80) 
-0

>  <i_i_glide_confnum>  (80) 
3

>  <i_i_glide_posenum>  (80) 
40

>  <r_i_glide_eff_state_penalty>  (80) 
0

>  <ligand_id>  (80) 
20

>  <original_smiles>  (80) 
COC(=O)CCC(C)C1CCC2C3CC4(C)CC(=O)CCC4C(CCC12C)C3n1ccnc1

>  <smiles>  (80) 
[H]c1c([H])[n+]([H])c([H])n1C1([H])C2([H])C([H])([H])C([H])([H])C3(C([H])([H])[H])C([H])(C([H])(C([H])([H])[H])C([H])([H])C([H])([H])C(=O)OC([H])([H])[H])C([H])([H])C([H])([H])C3([H])C1([H])C([H])([H])C1(C([H])([H])[H])C([H])([H])C(=O)C([H])([H])C([H])([H])C21[H]

$$$$
20:1:2
     RDKit          3D

 76 80  0  0  1  0  0  0  0  0999 V2000
    2.3237    3.8587    2.5098 C   0  0  0  0  0  0  0  0  0  0  0  0
    1.5397    2.9071    3.2028 O   0  0  0  0  0  0  0  0  0  0  0  0
    1.7580    1.6145    2.9097 C   0  0  0  0  0  0  0  0  0  0  0  0
    2.5830    1.2510    2.1131 O   0  0  0  0  0  0  0  0  0  0  0  0
    0.8771    0.6532    3.7264 C   0  0  0  0  0  0  0  0  0  0  0  0
    0.6471   -0.7705    3.1414 C   0  0  0  0  0  0  0  0  0  0  0  0
    1.8654   -1.7486    3.1537 C   0  0  2  0  0  0  0  0  0  0  0  0
    2.5576   -1.7719    1.7605 C   0  0  0  0  0  0  0  0  0  0  0  0
    1.4575   -3.1863    3.6320 C   0  0  2  0  0  0  0  0  0  0  0  0
    0.9270   -3.2168    5.0987 C   0  0  0  0  0  0  0  0  0  0  0  0
    1.3522   -4.5669    5.7094 C   0  0  0  0  0  0  0  0  0  0  0  0
    1.8090   -5.3730    4.4937 C   0  0  2  0  0  0  0  0  0  0  0  0
    2.3578   -6.8196    4.7483 C   0  0  2  0  0  0  0  0  0  0  0  0
    3.8751   -7.0820    5.0784 C   0  0  0  0  0  0  0  0  0  0  0  0
    4.8725   -7.5227    3.9338 C   0  0  1  0  0  0  0  0  0  0  0  0
    5.7708   -6.3635    3.4190 C   0  0  0  0  0  0  0  0  0  0  0  0
    5.8556   -8.5764    4.5173 C   0  0  0  0  0  0  0  0  0  0  0  0
    6.7691   -9.2084    3.4562 C   0  0  0  0  0  0  0  0  0  0  0  0
    7.9619   -9.3989    3.6885 O   0  0  0  0  0  0  0  0  0  0  0  0
    6.1435   -9.6250    2.1189 C   0  0  0  0  0  0  0  0  0  0  0  0
    5.0230   -8.6762    1.6227 C   0  0  0  0  0  0  0  0  0  0  0  0
    4.1125   -8.2384    2.7867 C   0  0  2  0  0  0  0  0  0  0  0  0
    2.7122   -7.6684    2.4365 C   0  0  2  0  0  0  0  0  0  0  0  0
    2.5249   -6.3430    1.6328 C   0  0  0  0  0  0  0  0  0  0  0  0
    2.8103   -4.8936    2.1383 C   0  0  0  0  0  0  0  0  0  0  0  0
    2.5251   -4.3473    3.5863 C   0  0  1  0  0  0  0  0  0  0  0  0
    3.8182   -3.7583    4.2288 C   0  0  0  0  0  0  0  0  0  0  0  0
    1.7980   -7.7816    3.6681 C   0  0  1  0  0  0  0  0  0  0  0  0
    1.5646   -9.1981    4.0944 N   0  0  0  0  0  0  0  0  0  0  0  0
    1.0449  -10.1710    3.2676 C   0  0  0  0  0  0  0  0  0  0  0  0
    0.9610  -11.3235    4.0170 C   0  0  0  0  0  0  0  0  0  0  0  0
    1.3870  -10.9977    5.2706 N   0  0  0  0  0  0  0  0  0  0  0  0
    1.7407   -9.7148    5.3167 C   0  0  0  0  0  0  0  0  0  0  0  0
    2.0676    4.8682    2.8284 H   0  0  0  0  0  0  0  0  0  0  0  0
    2.1679    3.7685    1.4354 H   0  0  0  0  0  0  0  0  0  0  0  0
    3.3823    3.6768    2.7086 H   0  0  0  0  0  0  0  0  0  0  0  0
    1.3005    0.5556    4.7244 H   0  0  0  0  0  0  0  0  0  0  0  0
   -0.0955    1.1223    3.8601 H   0  0  0  0  0  0  0  0  0  0  0  0
   -0.1714   -1.1994    3.7193 H   0  0  0  0  0  0  0  0  0  0  0  0
    0.2303   -0.6893    2.1392 H   0  0  0  0  0  0  0  0  0  0  0  0
    2.5694   -1.3547    3.8881 H   0  0  0  0  0  0  0  0  0  0  0  0
    1.8769   -2.1617    0.9963 H   0  0  0  0  0  0  0  0  0  0  0  0
    3.4584   -2.3841    1.7717 H   0  0  0  0  0  0  0  0  0  0  0  0
    2.9064   -0.8289    1.3994 H   0  0  0  0  0  0  0  0  0  0  0  0
    0.6223   -3.5018    3.0019 H   0  0  0  0  0  0  0  0  0  0  0  0
    1.3281   -2.3955    5.6964 H   0  0  0  0  0  0  0  0  0  0  0  0
   -0.1618   -3.1163    5.1137 H   0  0  0  0  0  0  0  0  0  0  0  0
    2.1685   -4.4318    6.4205 H   0  0  0  0  0  0  0  0  0  0  0  0
    0.5274   -5.0394    6.2471 H   0  0  0  0  0  0  0  0  0  0  0  0
    0.8472   -5.5314    4.0052 H   0  0  0  0  0  0  0  0  0  0  0  0
    1.8354   -7.0628    5.6661 H   0  0  0  0  0  0  0  0  0  0  0  0
    4.2788   -6.2548    5.6488 H   0  0  0  0  0  0  0  0  0  0  0  0
    3.8704   -7.8952    5.8148 H   0  0  0  0  0  0  0  0  0  0  0  0
    6.5733   -6.6886    2.7581 H   0  0  0  0  0  0  0  0  0  0  0  0
    6.2654   -5.8479    4.2407 H   0  0  0  0  0  0  0  0  0  0  0  0
    5.2308   -5.6407    2.8344 H   0  0  0  0  0  0  0  0  0  0  0  0
    6.4697   -8.1329    5.3016 H   0  0  0  0  0  0  0  0  0  0  0  0
    5.3038   -9.3886    4.9896 H   0  0  0  0  0  0  0  0  0  0  0  0
    6.9266   -9.7277    1.3669 H   0  0  0  0  0  0  0  0  0  0  0  0
    5.7302  -10.6213    2.2674 H   0  0  0  0  0  0  0  0  0  0  0  0
    5.4483   -7.8159    1.1113 H   0  0  0  0  0  0  0  0  0  0  0  0
    4.4350   -9.2177    0.8756 H   0  0  0  0  0  0  0  0  0  0  0  0
    3.8662   -9.2120    3.2083 H   0  0  0  0  0  0  0  0  0  0  0  0
    2.3243   -8.3957    1.7262 H   0  0  0  0  0  0  0  0  0  0  0  0
    3.0871   -6.4600    0.7069 H   0  0  0  0  0  0  0  0  0  0  0  0
    1.4869   -6.3465    1.2992 H   0  0  0  0  0  0  0  0  0  0  0  0
    3.8085   -4.6043    1.8237 H   0  0  0  0  0  0  0  0  0  0  0  0
    2.2075   -4.2997    1.4572 H   0  0  0  0  0  0  0  0  0  0  0  0
    4.5170   -4.4968    4.5760 H   0  0  0  0  0  0  0  0  0  0  0  0
    3.6115   -3.1280    5.0941 H   0  0  0  0  0  0  0  0  0  0  0  0
    4.3773   -3.1308    3.5373 H   0  0  0  0  0  0  0  0  0  0  0  0
    0.7979   -7.4786    3.3665 H   0  0  0  0  0  0  0  0  0  0  0  0
    0.7792   -9.9996    2.2357 H   0  0  0  0  0  0  0  0  0  0  0  0
    0.6097  -12.3035    3.7399 H   0  0  0  0  0  0  0  0  0  0  0  0
    2.1022   -9.2194    6.2073 H   0  0  0  0  0  0  0  0  0  0  0  0
    1.4146  -11.6472    6.0701 H   0  0  0  0  0  0  0  0  0  0  0  0
  1  2  1  0
  1 34  1  0
  1 35  1  0
  1 36  1  0
  2  3  1  0
  3  4  2  0
  3  5  1  0
  5  6  1  0
  5 37  1  0
  5 38  1  0
  6  7  1  0
  6 39  1  0
  6 40  1  0
  7  8  1  0
  7  9  1  0
  7 41  1  1
  8 42  1  0
  8 43  1  0
  8 44  1  0
  9 26  1  0
  9 10  1  0
  9 45  1  6
 10 11  1  0
 10 46  1  0
 10 47  1  0
 11 12  1  0
 11 48  1  0
 11 49  1  0
 12 26  1  0
 12 13  1  0
 12 50  1  6
 13 28  1  0
 13 14  1  0
 13 51  1  1
 14 15  1  0
 14 52  1  0
 14 53  1  0
 15 22  1  0
 15 16  1  6
 15 17  1  0
 16 54  1  0
 16 55  1  0
 16 56  1  0
 17 18  1  0
 17 57  1  0
 17 58  1  0
 18 19  2  0
 18 20  1  0
 20 21  1  0
 20 59  1  0
 20 60  1  0
 21 22  1  0
 21 61  1  0
 21 62  1  0
 22 23  1  0
 22 63  1  1
 23 24  1  0
 23 28  1  0
 23 64  1  6
 24 25  1  0
 24 65  1  0
 24 66  1  0
 25 26  1  0
 25 67  1  0
 25 68  1  0
 26 27  1  1
 27 69  1  0
 27 70  1  0
 27 71  1  0
 28 29  1  0
 28 72  1  6
 29 33  1  0
 29 30  1  0
 30 31  2  0
 30 73  1  0
 31 32  1  0
 31 74  1  0
 32 33  2  0
 32 76  1  0
 33 75  1  0
M  CHG  1  32   1
M  END
>  <i_m_ct_stereo_status>  (81) 
1

>  <s_m_source_file>  (81) 
/var/tmp/pbs.5076255.sched01/tmppfua8s0c/0korcpw03.sdf

>  <i_m_source_file_index>  (81) 
32

>  <i_lp_mmshare_version>  (81) 
48012

>  <i_f3d_flags>  (81) 
0

>  <s_epik_input>  (81) 
W0NIM11PQyg9TylbQ0gyXVtDSDJdW0NASF0oW0NIM10pW0NAQEhdMVtDSDJdW0NIMl1bQ0BIXShbQ0hdKFtDSDJdMilbQ0BASF0zbjRbY0hdW2NIXW5bY0hdNClbQ0BAXTEoW0NIM10pW0NIMl1bQ0gyXVtDQEhdM1tDQEhdKFtDQEBdMjVbQ0gzXSlbQ0gyXVtDSDJdQyg9TylbQ0gyXTU=

>  <s_epik_cmdline>  (81) 
J2VwaWtfcHl0aG9uJywgJy1waHQnLCAnMi4wJywgJy1waCcsICc3LjAnLCAnLXRuJywgJzgnLCAnLW1hJywgJzIwMCcsICctaW1hZScsICc8aW5maWxlLm1hZT4nLCAnLW9tYWUnLCAnPG91dGZpbGUubWFlPic=

>  <r_lp_tautomer_probability>  (81) 
1

>  <r_epik_Ionization_Penalty>  (81) 
0.0881817

>  <r_epik_Ionization_Penalty_Charging>  (81) 
0

>  <r_epik_Ionization_Penalty_Neutral>  (81) 
0.0881817

>  <r_epik_State_Penalty>  (81) 
0.0786423

>  <r_epik_Charging_Adjusted_Penalty>  (81) 
0.0786423

>  <i_epik_Tot_Q>  (81) 
1

>  <i_epik_Tot_abs_Q>  (81) 
1

>  <s_epik_Chemistry_Notes>  (81) 
This compound has an ester and may undergo hydrolysis at high or low pH.

>  <s_lp_Force_Field>  (81) 
OPLS3e

>  <r_lp_Energy>  (81) 
91.2803

>  <b_lp_Chiralities_Consistent>  (81) 
1

>  <s_lp_Variant>  (81) 
20:0-2

>  <s_i_glide_gridfile>  (81) 
pfpi4k_grid

>  <i_i_glide_lignum>  (81) 
32

>  <i_i_glide_rotatable_bonds>  (81) 
6

>  <r_i_docking_score>  (81) 
-2.62797

>  <r_i_glide_ligand_efficiency>  (81) 
-0.0796356

>  <r_i_glide_ligand_efficiency_sa>  (81) 
-0.255434

>  <r_i_glide_ligand_efficiency_ln>  (81) 
-0.584448

>  <r_i_glide_gscore>  (81) 
-2.62797

>  <r_i_glide_lipo>  (81) 
-0.275275

>  <r_i_glide_hbond>  (81) 
-0.2

>  <r_i_glide_metal>  (81) 
-0

>  <r_i_glide_rewards>  (81) 
-0.340177

>  <r_i_glide_evdw>  (81) 
-25.0772

>  <r_i_glide_ecoul>  (81) 
-5.92326

>  <r_i_glide_erotb>  (81) 
0.483837

>  <r_i_glide_esite>  (81) 
-0.154011

>  <r_i_glide_emodel>  (81) 
-36.6857

>  <r_i_glide_energy>  (81) 
-31.0004

>  <r_i_glide_einternal>  (81) 
2.84004

>  <r_i_glide_intrahb_reward>  (81) 
-0

>  <i_i_glide_confnum>  (81) 
3

>  <i_i_glide_posenum>  (81) 
19

>  <r_i_glide_eff_state_penalty>  (81) 
0

>  <ligand_id>  (81) 
20

>  <original_smiles>  (81) 
COC(=O)CCC(C)C1CCC2C3CC4(C)CC(=O)CCC4C(CCC12C)C3n1ccnc1

>  <smiles>  (81) 
[H]c1c([H])[n+]([H])c([H])n1C1([H])C2([H])C([H])([H])C([H])([H])C3(C([H])([H])[H])C([H])(C([H])(C([H])([H])[H])C([H])([H])C([H])([H])C(=O)OC([H])([H])[H])C([H])([H])C([H])([H])C3([H])C1([H])C([H])([H])C1(C([H])([H])[H])C([H])([H])C(=O)C([H])([H])C([H])([H])C21[H]

$$$$
20:2:0
     RDKit          3D

 75 79  0  0  1  0  0  0  0  0999 V2000
   -1.7180    1.6900    3.9192 C   0  0  0  0  0  0  0  0  0  0  0  0
   -0.6452    1.6312    4.8387 O   0  0  0  0  0  0  0  0  0  0  0  0
   -0.7794    0.9340    5.9736 C   0  0  0  0  0  0  0  0  0  0  0  0
   -1.7930    0.3384    6.3492 O   0  0  0  0  0  0  0  0  0  0  0  0
    0.5135    0.8795    6.7816 C   0  0  0  0  0  0  0  0  0  0  0  0
    1.5191   -0.1688    6.2437 C   0  0  0  0  0  0  0  0  0  0  0  0
    1.0194   -1.6443    6.2282 C   0  0  2  0  0  0  0  0  0  0  0  0
    0.7729   -2.1120    7.6773 C   0  0  0  0  0  0  0  0  0  0  0  0
    1.9824   -2.5691    5.4065 C   0  0  2  0  0  0  0  0  0  0  0  0
    2.0076   -2.1849    3.8887 C   0  0  0  0  0  0  0  0  0  0  0  0
    2.2270   -3.4788    3.0646 C   0  0  0  0  0  0  0  0  0  0  0  0
    2.6571   -4.4573    4.1402 C   0  0  2  0  0  0  0  0  0  0  0  0
    2.8813   -5.9872    3.9305 C   0  0  1  0  0  0  0  0  0  0  0  0
    2.4104   -7.0252    2.8763 C   0  0  0  0  0  0  0  0  0  0  0  0
    1.7429   -8.2594    3.6309 C   0  0  1  0  0  0  0  0  0  0  0  0
    0.2174   -8.0088    3.8765 C   0  0  0  0  0  0  0  0  0  0  0  0
    1.8480   -9.5284    2.7501 C   0  0  0  0  0  0  0  0  0  0  0  0
    1.3479  -10.7879    3.4699 C   0  0  0  0  0  0  0  0  0  0  0  0
    0.6098  -11.5865    2.8971 O   0  0  0  0  0  0  0  0  0  0  0  0
    1.8003  -11.0322    4.9141 C   0  0  0  0  0  0  0  0  0  0  0  0
    1.8705   -9.7435    5.7678 C   0  0  0  0  0  0  0  0  0  0  0  0
    2.5159   -8.5881    4.9758 C   0  0  2  0  0  0  0  0  0  0  0  0
    3.1038   -7.3958    5.8322 C   0  0  2  0  0  0  0  0  0  0  0  0
    2.0991   -6.5063    6.6781 C   0  0  0  0  0  0  0  0  0  0  0  0
    2.2449   -4.9265    6.6586 C   0  0  0  0  0  0  0  0  0  0  0  0
    1.7604   -4.1183    5.3827 C   0  0  1  0  0  0  0  0  0  0  0  0
    0.2394   -4.3670    5.1457 C   0  0  0  0  0  0  0  0  0  0  0  0
    3.9454   -6.5269    4.8965 C   0  0  1  0  0  0  0  0  0  0  0  0
    5.0920   -7.1988    4.2574 N   0  0  0  0  0  0  0  0  0  0  0  0
    5.7661   -6.7968    3.0953 C   0  0  0  0  0  0  0  0  0  0  0  0
    6.8260   -7.6517    2.9306 C   0  0  0  0  0  0  0  0  0  0  0  0
    6.8783   -8.5417    3.9899 N   0  0  0  0  0  0  0  0  0  0  0  0
    5.8448   -8.1953    4.7396 C   0  0  0  0  0  0  0  0  0  0  0  0
   -1.4505    2.3262    3.0767 H   0  0  0  0  0  0  0  0  0  0  0  0
   -2.6211    2.0933    4.3785 H   0  0  0  0  0  0  0  0  0  0  0  0
   -1.9254    0.6920    3.5366 H   0  0  0  0  0  0  0  0  0  0  0  0
    0.9729    1.8677    6.7580 H   0  0  0  0  0  0  0  0  0  0  0  0
    0.2723    0.6996    7.8283 H   0  0  0  0  0  0  0  0  0  0  0  0
    1.8196    0.1441    5.2431 H   0  0  0  0  0  0  0  0  0  0  0  0
    2.4283   -0.1040    6.8432 H   0  0  0  0  0  0  0  0  0  0  0  0
    0.0578   -1.6690    5.7178 H   0  0  0  0  0  0  0  0  0  0  0  0
    1.7077   -2.3162    8.1977 H   0  0  0  0  0  0  0  0  0  0  0  0
    0.1596   -3.0070    7.7122 H   0  0  0  0  0  0  0  0  0  0  0  0
    0.2275   -1.3770    8.2659 H   0  0  0  0  0  0  0  0  0  0  0  0
    2.9862   -2.4021    5.8004 H   0  0  0  0  0  0  0  0  0  0  0  0
    1.0800   -1.7059    3.5707 H   0  0  0  0  0  0  0  0  0  0  0  0
    2.8055   -1.4662    3.6974 H   0  0  0  0  0  0  0  0  0  0  0  0
    1.3015   -3.8067    2.5953 H   0  0  0  0  0  0  0  0  0  0  0  0
    2.9785   -3.3520    2.2849 H   0  0  0  0  0  0  0  0  0  0  0  0
    3.6557   -4.0845    4.3819 H   0  0  0  0  0  0  0  0  0  0  0  0
    1.9050   -6.1305    4.3627 H   0  0  0  0  0  0  0  0  0  0  0  0
    1.6880   -6.5791    2.1979 H   0  0  0  0  0  0  0  0  0  0  0  0
    3.2503   -7.3735    2.2582 H   0  0  0  0  0  0  0  0  0  0  0  0
   -0.3440   -8.9181    4.0864 H   0  0  0  0  0  0  0  0  0  0  0  0
   -0.2658   -7.5588    3.0114 H   0  0  0  0  0  0  0  0  0  0  0  0
    0.0127   -7.3923    4.7392 H   0  0  0  0  0  0  0  0  0  0  0  0
    1.2914   -9.4056    1.8205 H   0  0  0  0  0  0  0  0  0  0  0  0
    2.8861   -9.7029    2.4691 H   0  0  0  0  0  0  0  0  0  0  0  0
    1.1370  -11.7601    5.3767 H   0  0  0  0  0  0  0  0  0  0  0  0
    2.7833  -11.4965    4.8780 H   0  0  0  0  0  0  0  0  0  0  0  0
    0.8723   -9.4717    6.1108 H   0  0  0  0  0  0  0  0  0  0  0  0
    2.4582   -9.9504    6.6685 H   0  0  0  0  0  0  0  0  0  0  0  0
    3.4169   -9.0773    4.6170 H   0  0  0  0  0  0  0  0  0  0  0  0
    3.7783   -7.8225    6.5664 H   0  0  0  0  0  0  0  0  0  0  0  0
    1.0693   -6.7646    6.4407 H   0  0  0  0  0  0  0  0  0  0  0  0
    2.2038   -6.8305    7.7148 H   0  0  0  0  0  0  0  0  0  0  0  0
    1.6627   -4.5921    7.5113 H   0  0  0  0  0  0  0  0  0  0  0  0
    3.2654   -4.6372    6.9189 H   0  0  0  0  0  0  0  0  0  0  0  0
    0.0160   -5.3263    4.7079 H   0  0  0  0  0  0  0  0  0  0  0  0
   -0.1932   -3.6313    4.4716 H   0  0  0  0  0  0  0  0  0  0  0  0
   -0.3341   -4.3268    6.0675 H   0  0  0  0  0  0  0  0  0  0  0  0
    4.4139   -5.7391    5.4711 H   0  0  0  0  0  0  0  0  0  0  0  0
    5.4383   -5.9527    2.4931 H   0  0  0  0  0  0  0  0  0  0  0  0
    7.5915   -7.6736    2.1332 H   0  0  0  0  0  0  0  0  0  0  0  0
    5.6419   -8.7028    5.6714 H   0  0  0  0  0  0  0  0  0  0  0  0
  1  2  1  0
  1 34  1  0
  1 35  1  0
  1 36  1  0
  2  3  1  0
  3  4  2  0
  3  5  1  0
  5  6  1  0
  5 37  1  0
  5 38  1  0
  6  7  1  0
  6 39  1  0
  6 40  1  0
  7  8  1  0
  7  9  1  0
  7 41  1  6
  8 42  1  0
  8 43  1  0
  8 44  1  0
  9 26  1  0
  9 10  1  0
  9 45  1  1
 10 11  1  0
 10 46  1  0
 10 47  1  0
 11 12  1  0
 11 48  1  0
 11 49  1  0
 12 26  1  0
 12 13  1  0
 12 50  1  1
 13 28  1  0
 13 14  1  0
 13 51  1  1
 14 15  1  0
 14 52  1  0
 14 53  1  0
 15 22  1  0
 15 16  1  1
 15 17  1  0
 16 54  1  0
 16 55  1  0
 16 56  1  0
 17 18  1  0
 17 57  1  0
 17 58  1  0
 18 19  2  0
 18 20  1  0
 20 21  1  0
 20 59  1  0
 20 60  1  0
 21 22  1  0
 21 61  1  0
 21 62  1  0
 22 23  1  0
 22 63  1  6
 23 24  1  0
 23 28  1  0
 23 64  1  1
 24 25  1  0
 24 65  1  0
 24 66  1  0
 25 26  1  0
 25 67  1  0
 25 68  1  0
 26 27  1  6
 27 69  1  0
 27 70  1  0
 27 71  1  0
 28 29  1  0
 28 72  1  1
 29 33  1  0
 29 30  1  0
 30 31  2  0
 30 73  1  0
 31 32  1  0
 31 74  1  0
 32 33  2  0
 33 75  1  0
M  END
>  <i_m_ct_stereo_status>  (82) 
1

>  <s_m_source_file>  (82) 
/var/tmp/pbs.5076255.sched01/tmppfua8s0c/0korcpw03.sdf

>  <i_m_source_file_index>  (82) 
33

>  <i_lp_mmshare_version>  (82) 
48012

>  <i_f3d_flags>  (82) 
0

>  <s_epik_input>  (82) 
W0NIM11PQyg9TylbQ0gyXVtDSDJdW0NASF0oW0NIM10pW0NAQEhdMVtDSDJdW0NIMl1bQ0BIXShbQ0hdKFtDSDJdMilbQ0BASF0zbjRbY0hdW2NIXW5bY0hdNClbQ0BAXTEoW0NIM10pW0NIMl1bQ0gyXVtDQEhdM1tDQEhdKFtDQEBdMjVbQ0gzXSlbQ0gyXVtDSDJdQyg9TylbQ0gyXTU=

>  <s_epik_cmdline>  (82) 
J2VwaWtfcHl0aG9uJywgJy1waHQnLCAnMi4wJywgJy1waCcsICc3LjAnLCAnLXRuJywgJzgnLCAnLW1hJywgJzIwMCcsICctaW1hZScsICc8aW5maWxlLm1hZT4nLCAnLW9tYWUnLCAnPG91dGZpbGUubWFlPic=

>  <r_lp_tautomer_probability>  (82) 
1

>  <r_epik_Ionization_Penalty>  (82) 
1.17219

>  <r_epik_Ionization_Penalty_Charging>  (82) 
1.17219

>  <r_epik_Ionization_Penalty_Neutral>  (82) 
4.07896e-12

>  <r_epik_State_Penalty>  (82) 
1.23536

>  <r_epik_Charging_Adjusted_Penalty>  (82) 
2.40755

>  <i_epik_Tot_Q>  (82) 
0

>  <i_epik_Tot_abs_Q>  (82) 
0

>  <s_epik_Chemistry_Notes>  (82) 
This compound has an ester and may undergo hydrolysis at high or low pH.

>  <s_lp_Force_Field>  (82) 
OPLS3e

>  <r_lp_Energy>  (82) 
116.909

>  <b_lp_Chiralities_Consistent>  (82) 
1

>  <s_lp_Variant>  (82) 
20:0-3

>  <s_i_glide_gridfile>  (82) 
pfpi4k_grid

>  <i_i_glide_lignum>  (82) 
33

>  <i_i_glide_rotatable_bonds>  (82) 
6

>  <r_i_docking_score>  (82) 
-1.84611

>  <r_i_glide_ligand_efficiency>  (82) 
-0.0559427

>  <r_i_glide_ligand_efficiency_sa>  (82) 
-0.179438

>  <r_i_glide_ligand_efficiency_ln>  (82) 
-0.410565

>  <r_i_glide_gscore>  (82) 
-1.84611

>  <r_i_glide_lipo>  (82) 
-0.0720436

>  <r_i_glide_hbond>  (82) 
-0.16

>  <r_i_glide_metal>  (82) 
-0

>  <r_i_glide_rewards>  (82) 
-0.521403

>  <r_i_glide_evdw>  (82) 
-19.5271

>  <r_i_glide_ecoul>  (82) 
-3.84195

>  <r_i_glide_erotb>  (82) 
0.485791

>  <r_i_glide_esite>  (82) 
-0.0258078

>  <r_i_glide_emodel>  (82) 
-25.9452

>  <r_i_glide_energy>  (82) 
-23.369

>  <r_i_glide_einternal>  (82) 
0.652525

>  <r_i_glide_intrahb_reward>  (82) 
-0

>  <i_i_glide_confnum>  (82) 
3

>  <i_i_glide_posenum>  (82) 
31

>  <r_i_glide_eff_state_penalty>  (82) 
0

>  <ligand_id>  (82) 
20

>  <original_smiles>  (82) 
COC(=O)CCC(C)C1CCC2C3CC4(C)CC(=O)CCC4C(CCC12C)C3n1ccnc1

>  <smiles>  (82) 
[H]c1nc([H])n(C2([H])C3([H])C([H])([H])C([H])([H])C4(C([H])([H])[H])C([H])(C([H])(C([H])([H])[H])C([H])([H])C([H])([H])C(=O)OC([H])([H])[H])C([H])([H])C([H])([H])C4([H])C2([H])C([H])([H])C2(C([H])([H])[H])C([H])([H])C(=O)C([H])([H])C([H])([H])C32[H])c1[H]

$$$$
20:2:1
     RDKit          3D

 75 79  0  0  1  0  0  0  0  0999 V2000
    0.3640    1.3715    1.6246 C   0  0  0  0  0  0  0  0  0  0  0  0
   -0.4963    0.7652    2.5653 O   0  0  0  0  0  0  0  0  0  0  0  0
   -0.0287    0.2522    3.7190 C   0  0  0  0  0  0  0  0  0  0  0  0
   -0.7280   -0.2921    4.5737 O   0  0  0  0  0  0  0  0  0  0  0  0
    1.5019    0.3281    3.8901 C   0  0  0  0  0  0  0  0  0  0  0  0
    2.0760   -0.2193    5.2294 C   0  0  0  0  0  0  0  0  0  0  0  0
    1.7772   -1.7080    5.5741 C   0  0  2  0  0  0  0  0  0  0  0  0
    2.0090   -1.9056    7.0873 C   0  0  0  0  0  0  0  0  0  0  0  0
    2.5845   -2.7111    4.6644 C   0  0  2  0  0  0  0  0  0  0  0  0
    2.3667   -2.4575    3.1402 C   0  0  0  0  0  0  0  0  0  0  0  0
    2.4264   -3.8022    2.3802 C   0  0  0  0  0  0  0  0  0  0  0  0
    2.9961   -4.7131    3.4541 C   0  0  2  0  0  0  0  0  0  0  0  0
    3.1538   -6.2381    3.2826 C   0  0  1  0  0  0  0  0  0  0  0  0
    2.4704   -7.3079    2.4044 C   0  0  0  0  0  0  0  0  0  0  0  0
    1.9231   -8.4796    3.3215 C   0  0  1  0  0  0  0  0  0  0  0  0
    0.4591   -8.1599    3.7783 C   0  0  0  0  0  0  0  0  0  0  0  0
    1.8574   -9.7990    2.5082 C   0  0  0  0  0  0  0  0  0  0  0  0
    1.4516  -11.0029    3.3743 C   0  0  0  0  0  0  0  0  0  0  0  0
    0.6162  -11.8043    2.9794 O   0  0  0  0  0  0  0  0  0  0  0  0
    2.1205  -11.1639    4.7506 C   0  0  0  0  0  0  0  0  0  0  0  0
    2.3420   -9.8259    5.4986 C   0  0  0  0  0  0  0  0  0  0  0  0
    2.8942   -8.7517    4.5487 C   0  0  2  0  0  0  0  0  0  0  0  0
    3.6294   -7.5327    5.2371 C   0  0  2  0  0  0  0  0  0  0  0  0
    2.7885   -6.5650    6.1645 C   0  0  0  0  0  0  0  0  0  0  0  0
    2.9644   -4.9921    6.0288 C   0  0  0  0  0  0  0  0  0  0  0  0
    2.3115   -4.2494    4.7930 C   0  0  1  0  0  0  0  0  0  0  0  0
    0.7607   -4.4509    4.8185 C   0  0  0  0  0  0  0  0  0  0  0  0
    4.3308   -6.7423    4.1243 C   0  0  1  0  0  0  0  0  0  0  0  0
    5.3504   -7.4808    3.3452 N   0  0  0  0  0  0  0  0  0  0  0  0
    5.8180   -7.2023    2.0627 C   0  0  0  0  0  0  0  0  0  0  0  0
    6.8337   -8.0875    1.7971 C   0  0  0  0  0  0  0  0  0  0  0  0
    7.0565   -8.8704    2.8824 N   0  0  0  0  0  0  0  0  0  0  0  0
    6.1799   -8.4519    3.7768 C   0  0  0  0  0  0  0  0  0  0  0  0
   -0.2240    1.7545    0.7867 H   0  0  0  0  0  0  0  0  0  0  0  0
    1.0797    0.6515    1.2347 H   0  0  0  0  0  0  0  0  0  0  0  0
    0.8922    2.2049    2.0781 H   0  0  0  0  0  0  0  0  0  0  0  0
    1.9464   -0.2422    3.0773 H   0  0  0  0  0  0  0  0  0  0  0  0
    1.8314    1.3847    3.8329 H   0  0  0  0  0  0  0  0  0  0  0  0
    3.1576   -0.0583    5.2406 H   0  0  0  0  0  0  0  0  0  0  0  0
    1.6993    0.4280    6.0152 H   0  0  0  0  0  0  0  0  0  0  0  0
    0.6981   -1.8615    5.4202 H   0  0  0  0  0  0  0  0  0  0  0  0
    3.0645   -1.9471    7.3572 H   0  0  0  0  0  0  0  0  0  0  0  0
    1.5149   -2.8036    7.4467 H   0  0  0  0  0  0  0  0  0  0  0  0
    1.5587   -1.0906    7.6516 H   0  0  0  0  0  0  0  0  0  0  0  0
    3.6435   -2.5627    4.8837 H   0  0  0  0  0  0  0  0  0  0  0  0
    1.4262   -1.9564    2.9337 H   0  0  0  0  0  0  0  0  0  0  0  0
    3.1419   -1.8046    2.7626 H   0  0  0  0  0  0  0  0  0  0  0  0
    1.4324   -4.1340    2.0617 H   0  0  0  0  0  0  0  0  0  0  0  0
    3.0607   -3.7421    1.4845 H   0  0  0  0  0  0  0  0  0  0  0  0
    4.0284   -4.3500    3.5040 H   0  0  0  0  0  0  0  0  0  0  0  0
    2.2471   -6.3204    3.8783 H   0  0  0  0  0  0  0  0  0  0  0  0
    1.6817   -6.8708    1.8056 H   0  0  0  0  0  0  0  0  0  0  0  0
    3.2093   -7.7189    1.6767 H   0  0  0  0  0  0  0  0  0  0  0  0
   -0.0853   -9.0349    4.1280 H   0  0  0  0  0  0  0  0  0  0  0  0
   -0.1457   -7.7415    2.9732 H   0  0  0  0  0  0  0  0  0  0  0  0
    0.4028   -7.4868    4.6249 H   0  0  0  0  0  0  0  0  0  0  0  0
    1.1683   -9.7034    1.6699 H   0  0  0  0  0  0  0  0  0  0  0  0
    2.8364  -10.0141    2.0866 H   0  0  0  0  0  0  0  0  0  0  0  0
    1.5172  -11.8336    5.3557 H   0  0  0  0  0  0  0  0  0  0  0  0
    3.0755  -11.6603    4.5877 H   0  0  0  0  0  0  0  0  0  0  0  0
    1.4211   -9.5050    5.9776 H   0  0  0  0  0  0  0  0  0  0  0  0
    3.0630  -10.0026    6.3056 H   0  0  0  0  0  0  0  0  0  0  0  0
    3.7167   -9.2808    4.0815 H   0  0  0  0  0  0  0  0  0  0  0  0
    4.4034   -7.9362    5.8753 H   0  0  0  0  0  0  0  0  0  0  0  0
    1.7283   -6.7966    6.1001 H   0  0  0  0  0  0  0  0  0  0  0  0
    3.0430   -6.8289    7.1898 H   0  0  0  0  0  0  0  0  0  0  0  0
    2.5281   -4.5870    6.9332 H   0  0  0  0  0  0  0  0  0  0  0  0
    4.0193   -4.7210    6.1075 H   0  0  0  0  0  0  0  0  0  0  0  0
    0.4411   -5.4292    4.4912 H   0  0  0  0  0  0  0  0  0  0  0  0
    0.2262   -3.7552    4.1720 H   0  0  0  0  0  0  0  0  0  0  0  0
    0.3620   -4.3098    5.8212 H   0  0  0  0  0  0  0  0  0  0  0  0
    4.9070   -5.9345    4.5698 H   0  0  0  0  0  0  0  0  0  0  0  0
    5.3845   -6.4022    1.4516 H   0  0  0  0  0  0  0  0  0  0  0  0
    7.4287   -8.1839    0.9081 H   0  0  0  0  0  0  0  0  0  0  0  0
    6.1260   -8.8604    4.7904 H   0  0  0  0  0  0  0  0  0  0  0  0
  1  2  1  0
  1 34  1  0
  1 35  1  0
  1 36  1  0
  2  3  1  0
  3  4  2  0
  3  5  1  0
  5  6  1  0
  5 37  1  0
  5 38  1  0
  6  7  1  0
  6 39  1  0
  6 40  1  0
  7  8  1  0
  7  9  1  0
  7 41  1  1
  8 42  1  0
  8 43  1  0
  8 44  1  0
  9 26  1  0
  9 10  1  0
  9 45  1  6
 10 11  1  0
 10 46  1  0
 10 47  1  0
 11 12  1  0
 11 48  1  0
 11 49  1  0
 12 26  1  0
 12 13  1  0
 12 50  1  1
 13 28  1  0
 13 14  1  0
 13 51  1  1
 14 15  1  0
 14 52  1  0
 14 53  1  0
 15 22  1  0
 15 16  1  1
 15 17  1  0
 16 54  1  0
 16 55  1  0
 16 56  1  0
 17 18  1  0
 17 57  1  0
 17 58  1  0
 18 19  2  0
 18 20  1  0
 20 21  1  0
 20 59  1  0
 20 60  1  0
 21 22  1  0
 21 61  1  0
 21 62  1  0
 22 23  1  0
 22 63  1  6
 23 24  1  0
 23 28  1  0
 23 64  1  1
 24 25  1  0
 24 65  1  0
 24 66  1  0
 25 26  1  0
 25 67  1  0
 25 68  1  0
 26 27  1  6
 27 69  1  0
 27 70  1  0
 27 71  1  0
 28 29  1  0
 28 72  1  1
 29 33  1  0
 29 30  1  0
 30 31  2  0
 30 73  1  0
 31 32  1  0
 31 74  1  0
 32 33  2  0
 33 75  1  0
M  END
>  <i_m_ct_stereo_status>  (83) 
1

>  <s_m_source_file>  (83) 
/var/tmp/pbs.5076255.sched01/tmppfua8s0c/0korcpw03.sdf

>  <i_m_source_file_index>  (83) 
33

>  <i_lp_mmshare_version>  (83) 
48012

>  <i_f3d_flags>  (83) 
0

>  <s_epik_input>  (83) 
W0NIM11PQyg9TylbQ0gyXVtDSDJdW0NASF0oW0NIM10pW0NAQEhdMVtDSDJdW0NIMl1bQ0BIXShbQ0hdKFtDSDJdMilbQ0BASF0zbjRbY0hdW2NIXW5bY0hdNClbQ0BAXTEoW0NIM10pW0NIMl1bQ0gyXVtDQEhdM1tDQEhdKFtDQEBdMjVbQ0gzXSlbQ0gyXVtDSDJdQyg9TylbQ0gyXTU=

>  <s_epik_cmdline>  (83) 
J2VwaWtfcHl0aG9uJywgJy1waHQnLCAnMi4wJywgJy1waCcsICc3LjAnLCAnLXRuJywgJzgnLCAnLW1hJywgJzIwMCcsICctaW1hZScsICc8aW5maWxlLm1hZT4nLCAnLW9tYWUnLCAnPG91dGZpbGUubWFlPic=

>  <r_lp_tautomer_probability>  (83) 
1

>  <r_epik_Ionization_Penalty>  (83) 
1.17219

>  <r_epik_Ionization_Penalty_Charging>  (83) 
1.17219

>  <r_epik_Ionization_Penalty_Neutral>  (83) 
4.07896e-12

>  <r_epik_State_Penalty>  (83) 
1.23536

>  <r_epik_Charging_Adjusted_Penalty>  (83) 
2.40755

>  <i_epik_Tot_Q>  (83) 
0

>  <i_epik_Tot_abs_Q>  (83) 
0

>  <s_epik_Chemistry_Notes>  (83) 
This compound has an ester and may undergo hydrolysis at high or low pH.

>  <s_lp_Force_Field>  (83) 
OPLS3e

>  <r_lp_Energy>  (83) 
116.909

>  <b_lp_Chiralities_Consistent>  (83) 
1

>  <s_lp_Variant>  (83) 
20:0-3

>  <s_i_glide_gridfile>  (83) 
pfpi4k_grid

>  <i_i_glide_lignum>  (83) 
33

>  <i_i_glide_rotatable_bonds>  (83) 
6

>  <r_i_docking_score>  (83) 
-1.72224

>  <r_i_glide_ligand_efficiency>  (83) 
-0.0521892

>  <r_i_glide_ligand_efficiency_sa>  (83) 
-0.167399

>  <r_i_glide_ligand_efficiency_ln>  (83) 
-0.383018

>  <r_i_glide_gscore>  (83) 
-1.72224

>  <r_i_glide_lipo>  (83) 
-0.241428

>  <r_i_glide_hbond>  (83) 
0

>  <r_i_glide_metal>  (83) 
-0

>  <r_i_glide_rewards>  (83) 
-0.562494

>  <r_i_glide_evdw>  (83) 
-22.6794

>  <r_i_glide_ecoul>  (83) 
-1.67111

>  <r_i_glide_erotb>  (83) 
0.485791

>  <r_i_glide_esite>  (83) 
-0.0194758

>  <r_i_glide_emodel>  (83) 
-22.9888

>  <r_i_glide_energy>  (83) 
-24.3505

>  <r_i_glide_einternal>  (83) 
5.93008

>  <r_i_glide_intrahb_reward>  (83) 
-0

>  <i_i_glide_confnum>  (83) 
2

>  <i_i_glide_posenum>  (83) 
37

>  <r_i_glide_eff_state_penalty>  (83) 
0

>  <ligand_id>  (83) 
20

>  <original_smiles>  (83) 
COC(=O)CCC(C)C1CCC2C3CC4(C)CC(=O)CCC4C(CCC12C)C3n1ccnc1

>  <smiles>  (83) 
[H]c1nc([H])n(C2([H])C3([H])C([H])([H])C([H])([H])C4(C([H])([H])[H])C([H])(C([H])(C([H])([H])[H])C([H])([H])C([H])([H])C(=O)OC([H])([H])[H])C([H])([H])C([H])([H])C4([H])C2([H])C([H])([H])C2(C([H])([H])[H])C([H])([H])C(=O)C([H])([H])C([H])([H])C32[H])c1[H]

$$$$
20:2:2
     RDKit          3D

 75 79  0  0  1  0  0  0  0  0999 V2000
   -0.5245    1.5828    1.7950 C   0  0  0  0  0  0  0  0  0  0  0  0
    0.5922    1.5090    2.6559 O   0  0  0  0  0  0  0  0  0  0  0  0
    0.4036    1.3134    3.9611 C   0  0  0  0  0  0  0  0  0  0  0  0
   -0.6819    1.1533    4.5216 O   0  0  0  0  0  0  0  0  0  0  0  0
    1.7177    1.2737    4.7410 C   0  0  0  0  0  0  0  0  0  0  0  0
    2.6298    0.0911    4.3362 C   0  0  0  0  0  0  0  0  0  0  0  0
    2.0637   -1.3249    4.6447 C   0  0  2  0  0  0  0  0  0  0  0  0
    1.9913   -1.5196    6.1731 C   0  0  0  0  0  0  0  0  0  0  0  0
    2.8735   -2.4412    3.9003 C   0  0  2  0  0  0  0  0  0  0  0  0
    2.7833   -2.2916    2.3457 C   0  0  0  0  0  0  0  0  0  0  0  0
    2.8297   -3.7070    1.7172 C   0  0  0  0  0  0  0  0  0  0  0  0
    3.2903   -4.5477    2.8900 C   0  0  2  0  0  0  0  0  0  0  0  0
    3.3660   -6.1029    2.9094 C   0  0  1  0  0  0  0  0  0  0  0  0
    2.7437   -7.2458    2.0604 C   0  0  0  0  0  0  0  0  0  0  0  0
    2.0535   -8.2880    3.0519 C   0  0  1  0  0  0  0  0  0  0  0  0
    0.5821   -7.8751    3.3772 C   0  0  0  0  0  0  0  0  0  0  0  0
    1.9875   -9.6816    2.3739 C   0  0  0  0  0  0  0  0  0  0  0  0
    1.4633  -10.7670    3.3204 C   0  0  0  0  0  0  0  0  0  0  0  0
    0.6138  -11.5759    2.9379 O   0  0  0  0  0  0  0  0  0  0  0  0
    2.0239  -10.8403    4.7407 C   0  0  0  0  0  0  0  0  0  0  0  0
    2.2777   -9.4496    5.3750 C   0  0  0  0  0  0  0  0  0  0  0  0
    2.9222   -8.4831    4.3604 C   0  0  2  0  0  0  0  0  0  0  0  0
    3.6739   -7.2319    4.9706 C   0  0  2  0  0  0  0  0  0  0  0  0
    2.8222   -6.1462    5.7524 C   0  0  0  0  0  0  0  0  0  0  0  0
    3.0853   -4.6047    5.4764 C   0  0  0  0  0  0  0  0  0  0  0  0
    2.5408   -3.9546    4.1361 C   0  0  1  0  0  0  0  0  0  0  0  0
    0.9912   -4.0950    4.0722 C   0  0  0  0  0  0  0  0  0  0  0  0
    4.4845   -6.5884    3.8473 C   0  0  1  0  0  0  0  0  0  0  0  0
    5.5141   -7.4489    3.2367 N   0  0  0  0  0  0  0  0  0  0  0  0
    6.0860   -7.2847    1.9577 C   0  0  0  0  0  0  0  0  0  0  0  0
    7.0599   -8.2202    1.8232 C   0  0  0  0  0  0  0  0  0  0  0  0
    7.1700   -8.9627    3.0382 N   0  0  0  0  0  0  0  0  0  0  0  0
    6.2319   -8.3929    3.7970 C   0  0  0  0  0  0  0  0  0  0  0  0
   -0.1776    1.7458    0.7757 H   0  0  0  0  0  0  0  0  0  0  0  0
   -1.1724    2.4112    2.0837 H   0  0  0  0  0  0  0  0  0  0  0  0
   -1.1038    0.6602    1.8115 H   0  0  0  0  0  0  0  0  0  0  0  0
    2.2417    2.2131    4.5578 H   0  0  0  0  0  0  0  0  0  0  0  0
    1.4994    1.2667    5.8070 H   0  0  0  0  0  0  0  0  0  0  0  0
    2.8460    0.1958    3.2729 H   0  0  0  0  0  0  0  0  0  0  0  0
    3.5962    0.2144    4.8262 H   0  0  0  0  0  0  0  0  0  0  0  0
    1.0415   -1.3629    4.2707 H   0  0  0  0  0  0  0  0  0  0  0  0
    2.9770   -1.6903    6.6056 H   0  0  0  0  0  0  0  0  0  0  0  0
    1.3473   -2.3536    6.4384 H   0  0  0  0  0  0  0  0  0  0  0  0
    1.5593   -0.6608    6.6832 H   0  0  0  0  0  0  0  0  0  0  0  0
    3.9197   -2.3033    4.1798 H   0  0  0  0  0  0  0  0  0  0  0  0
    1.8671   -1.7852    2.0348 H   0  0  0  0  0  0  0  0  0  0  0  0
    3.6101   -1.6810    1.9813 H   0  0  0  0  0  0  0  0  0  0  0  0
    1.8421   -4.0208    1.3854 H   0  0  0  0  0  0  0  0  0  0  0  0
    3.5104   -3.7602    0.8672 H   0  0  0  0  0  0  0  0  0  0  0  0
    4.3297   -4.2315    2.9899 H   0  0  0  0  0  0  0  0  0  0  0  0
    2.4354   -6.0987    3.4333 H   0  0  0  0  0  0  0  0  0  0  0  0
    1.9868   -6.8422    1.3848 H   0  0  0  0  0  0  0  0  0  0  0  0
    3.4788   -7.7457    1.4348 H   0  0  0  0  0  0  0  0  0  0  0  0
   -0.0230   -8.6912    3.7685 H   0  0  0  0  0  0  0  0  0  0  0  0
    0.0537   -7.5168    2.4951 H   0  0  0  0  0  0  0  0  0  0  0  0
    0.5040   -7.1226    4.1479 H   0  0  0  0  0  0  0  0  0  0  0  0
    1.3674   -9.6430    1.4827 H   0  0  0  0  0  0  0  0  0  0  0  0
    2.9795   -9.9837    2.0367 H   0  0  0  0  0  0  0  0  0  0  0  0
    1.3644  -11.4325    5.3733 H   0  0  0  0  0  0  0  0  0  0  0  0
    2.9655  -11.3869    4.6919 H   0  0  0  0  0  0  0  0  0  0  0  0
    1.3343   -9.0424    5.7483 H   0  0  0  0  0  0  0  0  0  0  0  0
    2.9273   -9.5672    6.2434 H   0  0  0  0  0  0  0  0  0  0  0  0
    3.7501   -9.0951    4.0087 H   0  0  0  0  0  0  0  0  0  0  0  0
    4.3829   -7.6056    5.7057 H   0  0  0  0  0  0  0  0  0  0  0  0
    1.7591   -6.3457    5.6419 H   0  0  0  0  0  0  0  0  0  0  0  0
    3.0006   -6.3237    6.8141 H   0  0  0  0  0  0  0  0  0  0  0  0
    2.6115   -4.0993    6.3136 H   0  0  0  0  0  0  0  0  0  0  0  0
    4.1422   -4.3704    5.6053 H   0  0  0  0  0  0  0  0  0  0  0  0
    0.6537   -5.0868    3.8139 H   0  0  0  0  0  0  0  0  0  0  0  0
    0.5456   -3.4360    3.3301 H   0  0  0  0  0  0  0  0  0  0  0  0
    0.5222   -3.8578    5.0248 H   0  0  0  0  0  0  0  0  0  0  0  0
    5.0615   -5.7672    4.2543 H   0  0  0  0  0  0  0  0  0  0  0  0
    5.7527   -6.5236    1.2553 H   0  0  0  0  0  0  0  0  0  0  0  0
    7.7403   -8.4410    0.9950 H   0  0  0  0  0  0  0  0  0  0  0  0
    6.1094   -8.7397    4.8162 H   0  0  0  0  0  0  0  0  0  0  0  0
  1  2  1  0
  1 34  1  0
  1 35  1  0
  1 36  1  0
  2  3  1  0
  3  4  2  0
  3  5  1  0
  5  6  1  0
  5 37  1  0
  5 38  1  0
  6  7  1  0
  6 39  1  0
  6 40  1  0
  7  8  1  0
  7  9  1  0
  7 41  1  6
  8 42  1  0
  8 43  1  0
  8 44  1  0
  9 26  1  0
  9 10  1  0
  9 45  1  1
 10 11  1  0
 10 46  1  0
 10 47  1  0
 11 12  1  0
 11 48  1  0
 11 49  1  0
 12 26  1  0
 12 13  1  0
 12 50  1  1
 13 28  1  0
 13 14  1  0
 13 51  1  1
 14 15  1  0
 14 52  1  0
 14 53  1  0
 15 22  1  0
 15 16  1  1
 15 17  1  0
 16 54  1  0
 16 55  1  0
 16 56  1  0
 17 18  1  0
 17 57  1  0
 17 58  1  0
 18 19  2  0
 18 20  1  0
 20 21  1  0
 20 59  1  0
 20 60  1  0
 21 22  1  0
 21 61  1  0
 21 62  1  0
 22 23  1  0
 22 63  1  6
 23 24  1  0
 23 28  1  0
 23 64  1  1
 24 25  1  0
 24 65  1  0
 24 66  1  0
 25 26  1  0
 25 67  1  0
 25 68  1  0
 26 27  1  6
 27 69  1  0
 27 70  1  0
 27 71  1  0
 28 29  1  0
 28 72  1  1
 29 33  1  0
 29 30  1  0
 30 31  2  0
 30 73  1  0
 31 32  1  0
 31 74  1  0
 32 33  2  0
 33 75  1  0
M  END
>  <i_m_ct_stereo_status>  (84) 
1

>  <s_m_source_file>  (84) 
/var/tmp/pbs.5076255.sched01/tmppfua8s0c/0korcpw03.sdf

>  <i_m_source_file_index>  (84) 
33

>  <i_lp_mmshare_version>  (84) 
48012

>  <i_f3d_flags>  (84) 
0

>  <s_epik_input>  (84) 
W0NIM11PQyg9TylbQ0gyXVtDSDJdW0NASF0oW0NIM10pW0NAQEhdMVtDSDJdW0NIMl1bQ0BIXShbQ0hdKFtDSDJdMilbQ0BASF0zbjRbY0hdW2NIXW5bY0hdNClbQ0BAXTEoW0NIM10pW0NIMl1bQ0gyXVtDQEhdM1tDQEhdKFtDQEBdMjVbQ0gzXSlbQ0gyXVtDSDJdQyg9TylbQ0gyXTU=

>  <s_epik_cmdline>  (84) 
J2VwaWtfcHl0aG9uJywgJy1waHQnLCAnMi4wJywgJy1waCcsICc3LjAnLCAnLXRuJywgJzgnLCAnLW1hJywgJzIwMCcsICctaW1hZScsICc8aW5maWxlLm1hZT4nLCAnLW9tYWUnLCAnPG91dGZpbGUubWFlPic=

>  <r_lp_tautomer_probability>  (84) 
1

>  <r_epik_Ionization_Penalty>  (84) 
1.17219

>  <r_epik_Ionization_Penalty_Charging>  (84) 
1.17219

>  <r_epik_Ionization_Penalty_Neutral>  (84) 
4.07896e-12

>  <r_epik_State_Penalty>  (84) 
1.23536

>  <r_epik_Charging_Adjusted_Penalty>  (84) 
2.40755

>  <i_epik_Tot_Q>  (84) 
0

>  <i_epik_Tot_abs_Q>  (84) 
0

>  <s_epik_Chemistry_Notes>  (84) 
This compound has an ester and may undergo hydrolysis at high or low pH.

>  <s_lp_Force_Field>  (84) 
OPLS3e

>  <r_lp_Energy>  (84) 
116.909

>  <b_lp_Chiralities_Consistent>  (84) 
1

>  <s_lp_Variant>  (84) 
20:0-3

>  <s_i_glide_gridfile>  (84) 
pfpi4k_grid

>  <i_i_glide_lignum>  (84) 
33

>  <i_i_glide_rotatable_bonds>  (84) 
6

>  <r_i_docking_score>  (84) 
-1.66524

>  <r_i_glide_ligand_efficiency>  (84) 
-0.050462

>  <r_i_glide_ligand_efficiency_sa>  (84) 
-0.161858

>  <r_i_glide_ligand_efficiency_ln>  (84) 
-0.370342

>  <r_i_glide_gscore>  (84) 
-1.66524

>  <r_i_glide_lipo>  (84) 
-0.273105

>  <r_i_glide_hbond>  (84) 
0

>  <r_i_glide_metal>  (84) 
-0

>  <r_i_glide_rewards>  (84) 
-0.521297

>  <r_i_glide_evdw>  (84) 
-22.9067

>  <r_i_glide_ecoul>  (84) 
-1.29176

>  <r_i_glide_erotb>  (84) 
0.485791

>  <r_i_glide_esite>  (84) 
-0.017532

>  <r_i_glide_emodel>  (84) 
-26.7465

>  <r_i_glide_energy>  (84) 
-24.1985

>  <r_i_glide_einternal>  (84) 
0.19388

>  <r_i_glide_intrahb_reward>  (84) 
-0

>  <i_i_glide_confnum>  (84) 
3

>  <i_i_glide_posenum>  (84) 
33

>  <r_i_glide_eff_state_penalty>  (84) 
0

>  <ligand_id>  (84) 
20

>  <original_smiles>  (84) 
COC(=O)CCC(C)C1CCC2C3CC4(C)CC(=O)CCC4C(CCC12C)C3n1ccnc1

>  <smiles>  (84) 
[H]c1nc([H])n(C2([H])C3([H])C([H])([H])C([H])([H])C4(C([H])([H])[H])C([H])(C([H])(C([H])([H])[H])C([H])([H])C([H])([H])C(=O)OC([H])([H])[H])C([H])([H])C([H])([H])C4([H])C2([H])C([H])([H])C2(C([H])([H])[H])C([H])([H])C(=O)C([H])([H])C([H])([H])C32[H])c1[H]

$$$$
21:0:0
     RDKit          3D

 29 31  0  0  1  0  0  0  0  0999 V2000
    3.3352   -0.5793   -4.5095 C   0  0  0  0  0  0  0  0  0  0  0  0
    4.0569   -1.3318   -3.4613 N   0  0  2  0  0  0  0  0  0  0  0  0
    3.8646   -2.8059   -3.5479 C   0  0  0  0  0  0  0  0  0  0  0  0
    4.5357   -3.5315   -2.3599 C   0  0  1  0  0  0  0  0  0  0  0  0
    6.0005   -3.1345   -2.1641 C   0  0  0  0  0  0  0  0  0  0  0  0
    5.9348   -1.9044   -1.2498 C   0  0  0  0  0  0  0  0  0  0  0  0
    4.4358   -1.6793   -0.9902 C   0  0  1  0  0  0  0  0  0  0  0  0
    3.8086   -0.7959   -2.0986 C   0  0  0  0  0  0  0  0  0  0  0  0
    3.8705   -3.0690   -1.0901 C   0  0  0  0  0  0  0  0  0  0  0  0
    2.4918   -3.4813   -0.6545 C   0  0  0  0  0  0  0  0  0  0  0  0
    3.7173   -3.9597    0.1126 C   0  0  0  0  0  0  0  0  0  0  0  0
    2.2527   -0.6854   -4.3971 H   0  0  0  0  0  0  0  0  0  0  0  0
    3.6141   -0.9458   -5.4969 H   0  0  0  0  0  0  0  0  0  0  0  0
    3.5856    0.4827   -4.4606 H   0  0  0  0  0  0  0  0  0  0  0  0
    2.7932   -3.0340   -3.5466 H   0  0  0  0  0  0  0  0  0  0  0  0
    4.2887   -3.1785   -4.4781 H   0  0  0  0  0  0  0  0  0  0  0  0
    4.4668   -4.6101   -2.4684 H   0  0  0  0  0  0  0  0  0  0  0  0
    6.5172   -3.9057   -1.6059 H   0  0  0  0  0  0  0  0  0  0  0  0
    6.5351   -2.9776   -3.1060 H   0  0  0  0  0  0  0  0  0  0  0  0
    6.4696   -2.1044   -0.3138 H   0  0  0  0  0  0  0  0  0  0  0  0
    6.3706   -1.0562   -1.7354 H   0  0  0  0  0  0  0  0  0  0  0  0
    4.2585   -1.2491   -0.0032 H   0  0  0  0  0  0  0  0  0  0  0  0
    4.2397    0.1981   -2.0554 H   0  0  0  0  0  0  0  0  0  0  0  0
    2.7326   -0.7052   -1.9176 H   0  0  0  0  0  0  0  0  0  0  0  0
    1.8628   -2.7426   -0.1632 H   0  0  0  0  0  0  0  0  0  0  0  0
    1.9663   -4.1910   -1.2923 H   0  0  0  0  0  0  0  0  0  0  0  0
    4.0263   -4.9977    0.0012 H   0  0  0  0  0  0  0  0  0  0  0  0
    3.8780   -3.5271    1.0996 H   0  0  0  0  0  0  0  0  0  0  0  0
    5.0470   -1.1878   -3.6145 H   0  0  0  0  0  0  0  0  0  0  0  0
  1  2  1  0
  1 12  1  0
  1 13  1  0
  1 14  1  0
  2  8  1  0
  2  3  1  0
  2 29  1  6
  3  4  1  0
  3 15  1  0
  3 16  1  0
  4  9  1  0
  4  5  1  0
  4 17  1  6
  5  6  1  0
  5 18  1  0
  5 19  1  0
  6  7  1  0
  6 20  1  0
  6 21  1  0
  7  8  1  0
  7  9  1  0
  7 22  1  1
  8 23  1  0
  8 24  1  0
  9 11  1  0
  9 10  1  0
 10 11  1  0
 10 25  1  0
 10 26  1  0
 11 27  1  0
 11 28  1  0
M  CHG  1   2   1
M  END
>  <i_m_ct_stereo_status>  (85) 
1

>  <s_m_source_file>  (85) 
/var/tmp/pbs.5076255.sched01/tmppfua8s0c/0korcpw03.sdf

>  <i_m_source_file_index>  (85) 
35

>  <i_lp_mmshare_version>  (85) 
48012

>  <i_f3d_flags>  (85) 
0

>  <s_epik_input>  (85) 
W0NIMl0xW0NIMl1bQ0BIXTJbQ0gyXU4oW0NIM10pW0NIMl1bQ0BASF0xQzIzW0NIMl1bQ0gyXTM=

>  <s_epik_cmdline>  (85) 
J2VwaWtfcHl0aG9uJywgJy1waHQnLCAnMi4wJywgJy1waCcsICc3LjAnLCAnLXRuJywgJzgnLCAnLW1hJywgJzIwMCcsICctaW1hZScsICc8aW5maWxlLm1hZT4nLCAnLW9tYWUnLCAnPG91dGZpbGUubWFlPic=

>  <r_epik_Ionization_Penalty>  (85) 
0.000714194

>  <r_epik_Ionization_Penalty_Charging>  (85) 
0.000714194

>  <r_epik_Ionization_Penalty_Neutral>  (85) 
0

>  <r_epik_State_Penalty>  (85) 
0.000455125

>  <r_epik_Charging_Adjusted_Penalty>  (85) 
0.00116932

>  <i_epik_Tot_Q>  (85) 
1

>  <i_epik_Tot_abs_Q>  (85) 
1

>  <s_lp_Force_Field>  (85) 
OPLS3e

>  <r_lp_Energy>  (85) 
27.1625

>  <b_lp_Chiralities_Consistent>  (85) 
1

>  <s_lp_Variant>  (85) 
21:0-1

>  <s_i_glide_gridfile>  (85) 
pfpi4k_grid

>  <i_i_glide_lignum>  (85) 
35

>  <i_i_glide_rotatable_bonds>  (85) 
0

>  <r_i_docking_score>  (85) 
-3.65052

>  <r_i_glide_ligand_efficiency>  (85) 
-0.331865

>  <r_i_glide_ligand_efficiency_sa>  (85) 
-0.738061

>  <r_i_glide_ligand_efficiency_ln>  (85) 
-1.07435

>  <r_i_glide_gscore>  (85) 
-3.65052

>  <r_i_glide_lipo>  (85) 
-0.630317

>  <r_i_glide_hbond>  (85) 
0

>  <r_i_glide_metal>  (85) 
-0

>  <r_i_glide_rewards>  (85) 
-2.25

>  <r_i_glide_evdw>  (85) 
-12.0365

>  <r_i_glide_ecoul>  (85) 
-1.12251

>  <r_i_glide_erotb>  (85) 
0

>  <r_i_glide_esite>  (85) 
0

>  <r_i_glide_emodel>  (85) 
-16.6162

>  <r_i_glide_energy>  (85) 
-13.159

>  <r_i_glide_einternal>  (85) 
0

>  <r_i_glide_intrahb_reward>  (85) 
-0

>  <i_i_glide_confnum>  (85) 
1

>  <i_i_glide_posenum>  (85) 
5

>  <r_i_glide_eff_state_penalty>  (85) 
0

>  <ligand_id>  (85) 
21

>  <original_smiles>  (85) 
CN1CC2CCC(C1)C21CC1

>  <smiles>  (85) 
[H]C1([H])C([H])([H])C2([H])C3(C([H])([H])C3([H])[H])C1([H])C([H])([H])[N+]([H])(C([H])([H])[H])C2([H])[H]

$$$$
21:0:1
     RDKit          3D

 29 31  0  0  1  0  0  0  0  0999 V2000
    3.4710   -0.6098   -3.4977 C   0  0  0  0  0  0  0  0  0  0  0  0
    4.0732   -1.5870   -2.5648 N   0  0  2  0  0  0  0  0  0  0  0  0
    3.1641   -2.7238   -2.2598 C   0  0  0  0  0  0  0  0  0  0  0  0
    3.7566   -3.6486   -1.1732 C   0  0  1  0  0  0  0  0  0  0  0  0
    5.1805   -4.1183   -1.5125 C   0  0  0  0  0  0  0  0  0  0  0  0
    6.0980   -3.0115   -0.9479 C   0  0  0  0  0  0  0  0  0  0  0  0
    5.1241   -1.9955   -0.3149 C   0  0  1  0  0  0  0  0  0  0  0  0
    4.6462   -0.9459   -1.3467 C   0  0  0  0  0  0  0  0  0  0  0  0
    3.9423   -2.8517    0.0845 C   0  0  0  0  0  0  0  0  0  0  0  0
    2.8065   -2.4416    0.9825 C   0  0  0  0  0  0  0  0  0  0  0  0
    3.8217   -3.4774    1.4503 C   0  0  0  0  0  0  0  0  0  0  0  0
    2.6124   -0.1158   -3.0445 H   0  0  0  0  0  0  0  0  0  0  0  0
    3.1352   -1.1066   -4.4078 H   0  0  0  0  0  0  0  0  0  0  0  0
    4.1953    0.1554   -3.7745 H   0  0  0  0  0  0  0  0  0  0  0  0
    2.2127   -2.3288   -1.9091 H   0  0  0  0  0  0  0  0  0  0  0  0
    2.9642   -3.2958   -3.1655 H   0  0  0  0  0  0  0  0  0  0  0  0
    3.0854   -4.4875   -0.9843 H   0  0  0  0  0  0  0  0  0  0  0  0
    5.3850   -5.0588   -0.9976 H   0  0  0  0  0  0  0  0  0  0  0  0
    5.3205   -4.2857   -2.5825 H   0  0  0  0  0  0  0  0  0  0  0  0
    6.7492   -3.4329   -0.1791 H   0  0  0  0  0  0  0  0  0  0  0  0
    6.7386   -2.5723   -1.7170 H   0  0  0  0  0  0  0  0  0  0  0  0
    5.5576   -1.5047    0.5570 H   0  0  0  0  0  0  0  0  0  0  0  0
    5.4749   -0.3055   -1.6459 H   0  0  0  0  0  0  0  0  0  0  0  0
    3.9074   -0.3049   -0.8646 H   0  0  0  0  0  0  0  0  0  0  0  0
    2.8343   -1.4556    1.4398 H   0  0  0  0  0  0  0  0  0  0  0  0
    1.8140   -2.7873    0.6995 H   0  0  0  0  0  0  0  0  0  0  0  0
    3.5148   -4.5227    1.4891 H   0  0  0  0  0  0  0  0  0  0  0  0
    4.5178   -3.1702    2.2296 H   0  0  0  0  0  0  0  0  0  0  0  0
    4.8560   -2.0124   -3.0378 H   0  0  0  0  0  0  0  0  0  0  0  0
  1  2  1  0
  1 12  1  0
  1 13  1  0
  1 14  1  0
  2  8  1  0
  2  3  1  0
  2 29  1  6
  3  4  1  0
  3 15  1  0
  3 16  1  0
  4  9  1  0
  4  5  1  0
  4 17  1  1
  5  6  1  0
  5 18  1  0
  5 19  1  0
  6  7  1  0
  6 20  1  0
  6 21  1  0
  7  8  1  0
  7  9  1  0
  7 22  1  1
  8 23  1  0
  8 24  1  0
  9 11  1  0
  9 10  1  0
 10 11  1  0
 10 25  1  0
 10 26  1  0
 11 27  1  0
 11 28  1  0
M  CHG  1   2   1
M  END
>  <i_m_ct_stereo_status>  (86) 
1

>  <s_m_source_file>  (86) 
/var/tmp/pbs.5076255.sched01/tmppfua8s0c/0korcpw03.sdf

>  <i_m_source_file_index>  (86) 
35

>  <i_lp_mmshare_version>  (86) 
48012

>  <i_f3d_flags>  (86) 
0

>  <s_epik_input>  (86) 
W0NIMl0xW0NIMl1bQ0BIXTJbQ0gyXU4oW0NIM10pW0NIMl1bQ0BASF0xQzIzW0NIMl1bQ0gyXTM=

>  <s_epik_cmdline>  (86) 
J2VwaWtfcHl0aG9uJywgJy1waHQnLCAnMi4wJywgJy1waCcsICc3LjAnLCAnLXRuJywgJzgnLCAnLW1hJywgJzIwMCcsICctaW1hZScsICc8aW5maWxlLm1hZT4nLCAnLW9tYWUnLCAnPG91dGZpbGUubWFlPic=

>  <r_epik_Ionization_Penalty>  (86) 
0.000714194

>  <r_epik_Ionization_Penalty_Charging>  (86) 
0.000714194

>  <r_epik_Ionization_Penalty_Neutral>  (86) 
0

>  <r_epik_State_Penalty>  (86) 
0.000455125

>  <r_epik_Charging_Adjusted_Penalty>  (86) 
0.00116932

>  <i_epik_Tot_Q>  (86) 
1

>  <i_epik_Tot_abs_Q>  (86) 
1

>  <s_lp_Force_Field>  (86) 
OPLS3e

>  <r_lp_Energy>  (86) 
27.1625

>  <b_lp_Chiralities_Consistent>  (86) 
1

>  <s_lp_Variant>  (86) 
21:0-1

>  <s_i_glide_gridfile>  (86) 
pfpi4k_grid

>  <i_i_glide_lignum>  (86) 
35

>  <i_i_glide_rotatable_bonds>  (86) 
0

>  <r_i_docking_score>  (86) 
-3.50009

>  <r_i_glide_ligand_efficiency>  (86) 
-0.31819

>  <r_i_glide_ligand_efficiency_sa>  (86) 
-0.707649

>  <r_i_glide_ligand_efficiency_ln>  (86) 
-1.03008

>  <r_i_glide_gscore>  (86) 
-3.50009

>  <r_i_glide_lipo>  (86) 
-0.258396

>  <r_i_glide_hbond>  (86) 
0

>  <r_i_glide_metal>  (86) 
-0

>  <r_i_glide_rewards>  (86) 
-2.25

>  <r_i_glide_evdw>  (86) 
-11.6806

>  <r_i_glide_ecoul>  (86) 
-2.53753

>  <r_i_glide_erotb>  (86) 
0

>  <r_i_glide_esite>  (86) 
-0.0270349

>  <r_i_glide_emodel>  (86) 
-17.5671

>  <r_i_glide_energy>  (86) 
-14.2182

>  <r_i_glide_einternal>  (86) 
0

>  <r_i_glide_intrahb_reward>  (86) 
-0

>  <i_i_glide_confnum>  (86) 
2

>  <i_i_glide_posenum>  (86) 
37

>  <r_i_glide_eff_state_penalty>  (86) 
0

>  <ligand_id>  (86) 
21

>  <original_smiles>  (86) 
CN1CC2CCC(C1)C21CC1

>  <smiles>  (86) 
[H]C1([H])C([H])([H])C2([H])C3(C([H])([H])C3([H])[H])C1([H])C([H])([H])[N+]([H])(C([H])([H])[H])C2([H])[H]

$$$$
21:0:2
     RDKit          3D

 29 31  0  0  1  0  0  0  0  0999 V2000
    3.2590   -1.2673   -2.8596 C   0  0  0  0  0  0  0  0  0  0  0  0
    4.1185   -1.9381   -1.8606 N   0  0  2  0  0  0  0  0  0  0  0  0
    4.2125   -3.4081   -2.0807 C   0  0  0  0  0  0  0  0  0  0  0  0
    5.0006   -4.1021   -0.9476 C   0  0  1  0  0  0  0  0  0  0  0  0
    6.3770   -3.4581   -0.6979 C   0  0  0  0  0  0  0  0  0  0  0  0
    6.0945   -2.3193    0.3075 C   0  0  0  0  0  0  0  0  0  0  0  0
    4.5767   -2.4063    0.5660 C   0  0  1  0  0  0  0  0  0  0  0  0
    3.7760   -1.5683   -0.4593 C   0  0  0  0  0  0  0  0  0  0  0  0
    4.2693   -3.8706    0.3435 C   0  0  0  0  0  0  0  0  0  0  0  0
    2.9952   -4.5812    0.7145 C   0  0  0  0  0  0  0  0  0  0  0  0
    4.2881   -4.8763    1.4633 C   0  0  0  0  0  0  0  0  0  0  0  0
    2.2200   -1.5900   -2.7597 H   0  0  0  0  0  0  0  0  0  0  0  0
    3.5980   -1.4994   -3.8698 H   0  0  0  0  0  0  0  0  0  0  0  0
    3.2985   -0.1858   -2.7337 H   0  0  0  0  0  0  0  0  0  0  0  0
    3.2067   -3.8357   -2.1263 H   0  0  0  0  0  0  0  0  0  0  0  0
    4.6931   -3.6089   -3.0373 H   0  0  0  0  0  0  0  0  0  0  0  0
    5.0783   -5.1716   -1.1474 H   0  0  0  0  0  0  0  0  0  0  0  0
    7.0414   -4.1902   -0.2343 H   0  0  0  0  0  0  0  0  0  0  0  0
    6.8544   -3.1141   -1.6187 H   0  0  0  0  0  0  0  0  0  0  0  0
    6.6396   -2.5042    1.2356 H   0  0  0  0  0  0  0  0  0  0  0  0
    6.4058   -1.3395   -0.0633 H   0  0  0  0  0  0  0  0  0  0  0  0
    4.3203   -2.1061    1.5822 H   0  0  0  0  0  0  0  0  0  0  0  0
    3.9753   -0.5061   -0.3080 H   0  0  0  0  0  0  0  0  0  0  0  0
    2.7112   -1.7297   -0.2772 H   0  0  0  0  0  0  0  0  0  0  0  0
    2.2224   -4.0229    1.2391 H   0  0  0  0  0  0  0  0  0  0  0  0
    2.6311   -5.3305    0.0119 H   0  0  0  0  0  0  0  0  0  0  0  0
    4.7947   -5.8222    1.2700 H   0  0  0  0  0  0  0  0  0  0  0  0
    4.3614   -4.5144    2.4890 H   0  0  0  0  0  0  0  0  0  0  0  0
    5.0550   -1.5944   -1.9994 H   0  0  0  0  0  0  0  0  0  0  0  0
  1  2  1  0
  1 12  1  0
  1 13  1  0
  1 14  1  0
  2  8  1  0
  2  3  1  0
  2 29  1  6
  3  4  1  0
  3 15  1  0
  3 16  1  0
  4  9  1  0
  4  5  1  0
  4 17  1  6
  5  6  1  0
  5 18  1  0
  5 19  1  0
  6  7  1  0
  6 20  1  0
  6 21  1  0
  7  8  1  0
  7  9  1  0
  7 22  1  1
  8 23  1  0
  8 24  1  0
  9 11  1  0
  9 10  1  0
 10 11  1  0
 10 25  1  0
 10 26  1  0
 11 27  1  0
 11 28  1  0
M  CHG  1   2   1
M  END
>  <i_m_ct_stereo_status>  (87) 
1

>  <s_m_source_file>  (87) 
/var/tmp/pbs.5076255.sched01/tmppfua8s0c/0korcpw03.sdf

>  <i_m_source_file_index>  (87) 
35

>  <i_lp_mmshare_version>  (87) 
48012

>  <i_f3d_flags>  (87) 
0

>  <s_epik_input>  (87) 
W0NIMl0xW0NIMl1bQ0BIXTJbQ0gyXU4oW0NIM10pW0NIMl1bQ0BASF0xQzIzW0NIMl1bQ0gyXTM=

>  <s_epik_cmdline>  (87) 
J2VwaWtfcHl0aG9uJywgJy1waHQnLCAnMi4wJywgJy1waCcsICc3LjAnLCAnLXRuJywgJzgnLCAnLW1hJywgJzIwMCcsICctaW1hZScsICc8aW5maWxlLm1hZT4nLCAnLW9tYWUnLCAnPG91dGZpbGUubWFlPic=

>  <r_epik_Ionization_Penalty>  (87) 
0.000714194

>  <r_epik_Ionization_Penalty_Charging>  (87) 
0.000714194

>  <r_epik_Ionization_Penalty_Neutral>  (87) 
0

>  <r_epik_State_Penalty>  (87) 
0.000455125

>  <r_epik_Charging_Adjusted_Penalty>  (87) 
0.00116932

>  <i_epik_Tot_Q>  (87) 
1

>  <i_epik_Tot_abs_Q>  (87) 
1

>  <s_lp_Force_Field>  (87) 
OPLS3e

>  <r_lp_Energy>  (87) 
27.1625

>  <b_lp_Chiralities_Consistent>  (87) 
1

>  <s_lp_Variant>  (87) 
21:0-1

>  <s_i_glide_gridfile>  (87) 
pfpi4k_grid

>  <i_i_glide_lignum>  (87) 
35

>  <i_i_glide_rotatable_bonds>  (87) 
0

>  <r_i_docking_score>  (87) 
-3.47477

>  <r_i_glide_ligand_efficiency>  (87) 
-0.315888

>  <r_i_glide_ligand_efficiency_sa>  (87) 
-0.702528

>  <r_i_glide_ligand_efficiency_ln>  (87) 
-1.02262

>  <r_i_glide_gscore>  (87) 
-3.47477

>  <r_i_glide_lipo>  (87) 
-0.21312

>  <r_i_glide_hbond>  (87) 
0

>  <r_i_glide_metal>  (87) 
-0

>  <r_i_glide_rewards>  (87) 
-2.25

>  <r_i_glide_evdw>  (87) 
-10.5921

>  <r_i_glide_ecoul>  (87) 
-3.04456

>  <r_i_glide_erotb>  (87) 
0

>  <r_i_glide_esite>  (87) 
-0.0253543

>  <r_i_glide_emodel>  (87) 
-16.9591

>  <r_i_glide_energy>  (87) 
-13.6367

>  <r_i_glide_einternal>  (87) 
0

>  <r_i_glide_intrahb_reward>  (87) 
-0

>  <i_i_glide_confnum>  (87) 
1

>  <i_i_glide_posenum>  (87) 
19

>  <r_i_glide_eff_state_penalty>  (87) 
0

>  <ligand_id>  (87) 
21

>  <original_smiles>  (87) 
CN1CC2CCC(C1)C21CC1

>  <smiles>  (87) 
[H]C1([H])C([H])([H])C2([H])C3(C([H])([H])C3([H])[H])C1([H])C([H])([H])[N+]([H])(C([H])([H])[H])C2([H])[H]

$$$$
21:1:0
     RDKit          3D

 29 31  0  0  1  0  0  0  0  0999 V2000
    3.1027   -4.2515   -0.6451 C   0  0  0  0  0  0  0  0  0  0  0  0
    2.7119   -3.0170   -1.3627 N   0  0  1  0  0  0  0  0  0  0  0  0
    3.6850   -1.8963   -1.2136 C   0  0  0  0  0  0  0  0  0  0  0  0
    4.5884   -1.6904   -2.4568 C   0  0  1  0  0  0  0  0  0  0  0  0
    5.4520   -2.9267   -2.7595 C   0  0  0  0  0  0  0  0  0  0  0  0
    4.5918   -3.7424   -3.7269 C   0  0  0  0  0  0  0  0  0  0  0  0
    3.2830   -2.9590   -3.8408 C   0  0  1  0  0  0  0  0  0  0  0  0
    2.2412   -3.2720   -2.7485 C   0  0  0  0  0  0  0  0  0  0  0  0
    3.7229   -1.5429   -3.6847 C   0  0  0  0  0  0  0  0  0  0  0  0
    4.1295   -0.6880   -4.8465 C   0  0  0  0  0  0  0  0  0  0  0  0
    2.9106   -0.3370   -4.0485 C   0  0  0  0  0  0  0  0  0  0  0  0
    3.9972   -4.6879   -1.0889 H   0  0  0  0  0  0  0  0  0  0  0  0
    2.3007   -4.9855   -0.6989 H   0  0  0  0  0  0  0  0  0  0  0  0
    3.3107   -4.0467    0.4045 H   0  0  0  0  0  0  0  0  0  0  0  0
    3.1004   -0.9917   -1.0686 H   0  0  0  0  0  0  0  0  0  0  0  0
    4.2886   -2.0217   -0.3199 H   0  0  0  0  0  0  0  0  0  0  0  0
    5.1893   -0.7955   -2.3148 H   0  0  0  0  0  0  0  0  0  0  0  0
    6.3852   -2.6580   -3.2590 H   0  0  0  0  0  0  0  0  0  0  0  0
    5.7290   -3.4794   -1.8586 H   0  0  0  0  0  0  0  0  0  0  0  0
    5.0558   -3.8374   -4.7112 H   0  0  0  0  0  0  0  0  0  0  0  0
    4.4411   -4.7461   -3.3605 H   0  0  0  0  0  0  0  0  0  0  0  0
    2.8121   -3.0991   -4.8024 H   0  0  0  0  0  0  0  0  0  0  0  0
    1.8294   -4.2624   -2.8622 H   0  0  0  0  0  0  0  0  0  0  0  0
    1.4186   -2.5916   -2.9155 H   0  0  0  0  0  0  0  0  0  0  0  0
    4.9955   -0.0653   -4.7312 H   0  0  0  0  0  0  0  0  0  0  0  0
    3.8872   -0.9269   -5.8792 H   0  0  0  0  0  0  0  0  0  0  0  0
    1.9998   -0.4601   -4.6382 H   0  0  0  0  0  0  0  0  0  0  0  0
    2.9619    0.5220   -3.3985 H   0  0  0  0  0  0  0  0  0  0  0  0
    1.8905   -2.6354   -0.8973 H   0  0  0  0  0  0  0  0  0  0  0  0
  1  2  1  0
  1 12  1  0
  1 13  1  0
  1 14  1  0
  2  8  1  0
  2  3  1  0
  2 29  1  1
  3  4  1  0
  3 15  1  0
  3 16  1  0
  4  9  1  0
  4  5  1  0
  4 17  1  1
  5  6  1  0
  5 18  1  0
  5 19  1  0
  6  7  1  0
  6 20  1  0
  6 21  1  0
  7  8  1  0
  7  9  1  0
  7 22  1  6
  8 23  1  0
  8 24  1  0
  9 11  1  0
  9 10  1  0
 10 11  1  0
 10 25  1  0
 10 26  1  0
 11 27  1  0
 11 28  1  0
M  CHG  1   2   1
M  END
>  <i_m_ct_stereo_status>  (88) 
1

>  <s_m_source_file>  (88) 
/var/tmp/pbs.5076255.sched01/tmppfua8s0c/0korcpw03.sdf

>  <i_m_source_file_index>  (88) 
36

>  <i_lp_mmshare_version>  (88) 
48012

>  <i_f3d_flags>  (88) 
0

>  <s_epik_input>  (88) 
W0NIMl0xW0NIMl1bQ0BIXTJbQ0gyXU4oW0NIM10pW0NIMl1bQ0BASF0xQzIzW0NIMl1bQ0gyXTM=

>  <s_epik_cmdline>  (88) 
J2VwaWtfcHl0aG9uJywgJy1waHQnLCAnMi4wJywgJy1waCcsICc3LjAnLCAnLXRuJywgJzgnLCAnLW1hJywgJzIwMCcsICctaW1hZScsICc8aW5maWxlLm1hZT4nLCAnLW9tYWUnLCAnPG91dGZpbGUubWFlPic=

>  <r_epik_Ionization_Penalty>  (88) 
0.000714194

>  <r_epik_Ionization_Penalty_Charging>  (88) 
0.000714194

>  <r_epik_Ionization_Penalty_Neutral>  (88) 
0

>  <r_epik_State_Penalty>  (88) 
0.000455125

>  <r_epik_Charging_Adjusted_Penalty>  (88) 
0.00116932

>  <i_epik_Tot_Q>  (88) 
1

>  <i_epik_Tot_abs_Q>  (88) 
1

>  <s_lp_Force_Field>  (88) 
OPLS3e

>  <r_lp_Energy>  (88) 
31.4415

>  <b_lp_Chiralities_Consistent>  (88) 
1

>  <s_lp_Variant>  (88) 
21:0-2

>  <s_i_glide_gridfile>  (88) 
pfpi4k_grid

>  <i_i_glide_lignum>  (88) 
36

>  <i_i_glide_rotatable_bonds>  (88) 
0

>  <r_i_docking_score>  (88) 
-4.80564

>  <r_i_glide_ligand_efficiency>  (88) 
-0.436876

>  <r_i_glide_ligand_efficiency_sa>  (88) 
-0.971604

>  <r_i_glide_ligand_efficiency_ln>  (88) 
-1.4143

>  <r_i_glide_gscore>  (88) 
-4.80564

>  <r_i_glide_lipo>  (88) 
-1.10173

>  <r_i_glide_hbond>  (88) 
-0.171392

>  <r_i_glide_metal>  (88) 
-0

>  <r_i_glide_rewards>  (88) 
-2.25

>  <r_i_glide_evdw>  (88) 
-9.13093

>  <r_i_glide_ecoul>  (88) 
-5.44631

>  <r_i_glide_erotb>  (88) 
0

>  <r_i_glide_esite>  (88) 
-0.00901702

>  <r_i_glide_emodel>  (88) 
-18.3852

>  <r_i_glide_energy>  (88) 
-14.5772

>  <r_i_glide_einternal>  (88) 
0

>  <r_i_glide_intrahb_reward>  (88) 
-0

>  <i_i_glide_confnum>  (88) 
2

>  <i_i_glide_posenum>  (88) 
13

>  <r_i_glide_eff_state_penalty>  (88) 
0

>  <ligand_id>  (88) 
21

>  <original_smiles>  (88) 
CN1CC2CCC(C1)C21CC1

>  <smiles>  (88) 
[H]C1([H])C([H])([H])C2([H])C3(C([H])([H])C3([H])[H])C1([H])C([H])([H])[N+]([H])(C([H])([H])[H])C2([H])[H]

$$$$
21:1:1
     RDKit          3D

 29 31  0  0  1  0  0  0  0  0999 V2000
    3.9874    0.0396   -3.4712 C   0  0  0  0  0  0  0  0  0  0  0  0
    3.2417   -0.7816   -2.5017 N   0  0  1  0  0  0  0  0  0  0  0  0
    2.8430   -2.1075   -3.0351 C   0  0  0  0  0  0  0  0  0  0  0  0
    3.7492   -3.2466   -2.5379 C   0  0  1  0  0  0  0  0  0  0  0  0
    5.2137   -3.0839   -2.9516 C   0  0  0  0  0  0  0  0  0  0  0  0
    5.8301   -2.2915   -1.7878 C   0  0  0  0  0  0  0  0  0  0  0  0
    4.6636   -2.0700   -0.8221 C   0  0  1  0  0  0  0  0  0  0  0  0
    3.8436   -0.8090   -1.1405 C   0  0  0  0  0  0  0  0  0  0  0  0
    3.7949   -3.2668   -1.0334 C   0  0  0  0  0  0  0  0  0  0  0  0
    3.9614   -4.5238   -0.2238 C   0  0  0  0  0  0  0  0  0  0  0  0
    2.6920   -3.6792   -0.0995 C   0  0  0  0  0  0  0  0  0  0  0  0
    4.9354   -0.4386   -3.6627 H   0  0  0  0  0  0  0  0  0  0  0  0
    4.1885    1.0394   -3.0955 H   0  0  0  0  0  0  0  0  0  0  0  0
    3.4488    0.1495   -4.4119 H   0  0  0  0  0  0  0  0  0  0  0  0
    1.8268   -2.3103   -2.6902 H   0  0  0  0  0  0  0  0  0  0  0  0
    2.7999   -2.0947   -4.1279 H   0  0  0  0  0  0  0  0  0  0  0  0
    3.3558   -4.2030   -2.9469 H   0  0  0  0  0  0  0  0  0  0  0  0
    5.6915   -4.0616   -3.0245 H   0  0  0  0  0  0  0  0  0  0  0  0
    5.3114   -2.5920   -3.9113 H   0  0  0  0  0  0  0  0  0  0  0  0
    6.6033   -2.8924   -1.3039 H   0  0  0  0  0  0  0  0  0  0  0  0
    6.2581   -1.3434   -2.0906 H   0  0  0  0  0  0  0  0  0  0  0  0
    5.0034   -2.0299    0.2081 H   0  0  0  0  0  0  0  0  0  0  0  0
    4.4609    0.0662   -0.9455 H   0  0  0  0  0  0  0  0  0  0  0  0
    3.0195   -0.7711   -0.4199 H   0  0  0  0  0  0  0  0  0  0  0  0
    3.8606   -5.4820   -0.7182 H   0  0  0  0  0  0  0  0  0  0  0  0
    4.6879   -4.4924    0.5898 H   0  0  0  0  0  0  0  0  0  0  0  0
    2.5579   -3.0857    0.8036 H   0  0  0  0  0  0  0  0  0  0  0  0
    1.7824   -4.0793   -0.5392 H   0  0  0  0  0  0  0  0  0  0  0  0
    2.3658   -0.3071   -2.3612 H   0  0  0  0  0  0  0  0  0  0  0  0
  1  2  1  0
  1 12  1  0
  1 13  1  0
  1 14  1  0
  2  8  1  0
  2  3  1  0
  2 29  1  1
  3  4  1  0
  3 15  1  0
  3 16  1  0
  4  9  1  0
  4  5  1  0
  4 17  1  6
  5  6  1  0
  5 18  1  0
  5 19  1  0
  6  7  1  0
  6 20  1  0
  6 21  1  0
  7  8  1  0
  7  9  1  0
  7 22  1  1
  8 23  1  0
  8 24  1  0
  9 11  1  0
  9 10  1  0
 10 11  1  0
 10 25  1  0
 10 26  1  0
 11 27  1  0
 11 28  1  0
M  CHG  1   2   1
M  END
>  <i_m_ct_stereo_status>  (89) 
1

>  <s_m_source_file>  (89) 
/var/tmp/pbs.5076255.sched01/tmppfua8s0c/0korcpw03.sdf

>  <i_m_source_file_index>  (89) 
36

>  <i_lp_mmshare_version>  (89) 
48012

>  <i_f3d_flags>  (89) 
0

>  <s_epik_input>  (89) 
W0NIMl0xW0NIMl1bQ0BIXTJbQ0gyXU4oW0NIM10pW0NIMl1bQ0BASF0xQzIzW0NIMl1bQ0gyXTM=

>  <s_epik_cmdline>  (89) 
J2VwaWtfcHl0aG9uJywgJy1waHQnLCAnMi4wJywgJy1waCcsICc3LjAnLCAnLXRuJywgJzgnLCAnLW1hJywgJzIwMCcsICctaW1hZScsICc8aW5maWxlLm1hZT4nLCAnLW9tYWUnLCAnPG91dGZpbGUubWFlPic=

>  <r_epik_Ionization_Penalty>  (89) 
0.000714194

>  <r_epik_Ionization_Penalty_Charging>  (89) 
0.000714194

>  <r_epik_Ionization_Penalty_Neutral>  (89) 
0

>  <r_epik_State_Penalty>  (89) 
0.000455125

>  <r_epik_Charging_Adjusted_Penalty>  (89) 
0.00116932

>  <i_epik_Tot_Q>  (89) 
1

>  <i_epik_Tot_abs_Q>  (89) 
1

>  <s_lp_Force_Field>  (89) 
OPLS3e

>  <r_lp_Energy>  (89) 
31.4415

>  <b_lp_Chiralities_Consistent>  (89) 
1

>  <s_lp_Variant>  (89) 
21:0-2

>  <s_i_glide_gridfile>  (89) 
pfpi4k_grid

>  <i_i_glide_lignum>  (89) 
36

>  <i_i_glide_rotatable_bonds>  (89) 
0

>  <r_i_docking_score>  (89) 
-3.47611

>  <r_i_glide_ligand_efficiency>  (89) 
-0.31601

>  <r_i_glide_ligand_efficiency_sa>  (89) 
-0.7028

>  <r_i_glide_ligand_efficiency_ln>  (89) 
-1.02302

>  <r_i_glide_gscore>  (89) 
-3.47611

>  <r_i_glide_lipo>  (89) 
-0.279385

>  <r_i_glide_hbond>  (89) 
-0.0277144

>  <r_i_glide_metal>  (89) 
-0

>  <r_i_glide_rewards>  (89) 
-2.25

>  <r_i_glide_evdw>  (89) 
-7.99282

>  <r_i_glide_ecoul>  (89) 
-3.1152

>  <r_i_glide_erotb>  (89) 
0

>  <r_i_glide_esite>  (89) 
-0.052088

>  <r_i_glide_emodel>  (89) 
-13.885

>  <r_i_glide_energy>  (89) 
-11.108

>  <r_i_glide_einternal>  (89) 
0

>  <r_i_glide_intrahb_reward>  (89) 
-0

>  <i_i_glide_confnum>  (89) 
2

>  <i_i_glide_posenum>  (89) 
32

>  <r_i_glide_eff_state_penalty>  (89) 
0

>  <ligand_id>  (89) 
21

>  <original_smiles>  (89) 
CN1CC2CCC(C1)C21CC1

>  <smiles>  (89) 
[H]C1([H])C([H])([H])C2([H])C3(C([H])([H])C3([H])[H])C1([H])C([H])([H])[N+]([H])(C([H])([H])[H])C2([H])[H]

$$$$
21:1:2
     RDKit          3D

 29 31  0  0  1  0  0  0  0  0999 V2000
    2.7398   -0.0996   -4.2954 C   0  0  0  0  0  0  0  0  0  0  0  0
    2.7342   -0.7842   -2.9642 N   0  0  1  0  0  0  0  0  0  0  0  0
    2.1966   -2.1985   -3.0027 C   0  0  0  0  0  0  0  0  0  0  0  0
    3.2276   -3.2780   -2.8459 C   0  0  1  0  0  0  0  0  0  0  0  0
    4.1614   -3.2559   -4.0120 C   0  0  0  0  0  0  0  0  0  0  0  0
    5.2378   -2.2901   -3.5268 C   0  0  0  0  0  0  0  0  0  0  0  0
    4.8606   -1.8191   -2.1419 C   0  0  1  0  0  0  0  0  0  0  0  0
    3.9757   -0.5988   -2.1628 C   0  0  0  0  0  0  0  0  0  0  0  0
    4.0856   -3.0033   -1.6415 C   0  0  0  0  0  0  0  0  0  0  0  0
    4.7719   -4.1034   -0.8837 C   0  0  0  0  0  0  0  0  0  0  0  0
    3.7452   -3.2123   -0.1925 C   0  0  0  0  0  0  0  0  0  0  0  0
    3.4137   -0.5834   -4.9866 H   0  0  0  0  0  0  0  0  0  0  0  0
    3.0282    0.9420   -4.2106 H   0  0  0  0  0  0  0  0  0  0  0  0
    1.7635   -0.1169   -4.7708 H   0  0  0  0  0  0  0  0  0  0  0  0
    1.5553   -2.3986   -2.1491 H   0  0  0  0  0  0  0  0  0  0  0  0
    1.5611   -2.3519   -3.8893 H   0  0  0  0  0  0  0  0  0  0  0  0
    2.6836   -4.2073   -2.7822 H   0  0  0  0  0  0  0  0  0  0  0  0
    4.5808   -4.2389   -4.2589 H   0  0  0  0  0  0  0  0  0  0  0  0
    3.6172   -2.8661   -4.8810 H   0  0  0  0  0  0  0  0  0  0  0  0
    6.1957   -2.8040   -3.4233 H   0  0  0  0  0  0  0  0  0  0  0  0
    5.2037   -1.4601   -4.2370 H   0  0  0  0  0  0  0  0  0  0  0  0
    5.7321   -1.6061   -1.5247 H   0  0  0  0  0  0  0  0  0  0  0  0
    4.4903    0.2909   -2.5101 H   0  0  0  0  0  0  0  0  0  0  0  0
    3.7489   -0.4681   -1.1003 H   0  0  0  0  0  0  0  0  0  0  0  0
    4.4754   -5.1147   -1.1261 H   0  0  0  0  0  0  0  0  0  0  0  0
    5.8401   -3.9582   -0.6897 H   0  0  0  0  0  0  0  0  0  0  0  0
    4.1064   -2.4502    0.5079 H   0  0  0  0  0  0  0  0  0  0  0  0
    2.7632   -3.6161    0.0209 H   0  0  0  0  0  0  0  0  0  0  0  0
    2.0139   -0.3039   -2.4046 H   0  0  0  0  0  0  0  0  0  0  0  0
  1  2  1  0
  1 12  1  0
  1 13  1  0
  1 14  1  0
  2  8  1  0
  2  3  1  0
  2 29  1  1
  3  4  1  0
  3 15  1  0
  3 16  1  0
  4  9  1  0
  4  5  1  0
  4 17  1  1
  5  6  1  0
  5 18  1  0
  5 19  1  0
  6  7  1  0
  6 20  1  0
  6 21  1  0
  7  8  1  0
  7  9  1  0
  7 22  1  1
  8 23  1  0
  8 24  1  0
  9 11  1  0
  9 10  1  0
 10 11  1  0
 10 25  1  0
 10 26  1  0
 11 27  1  0
 11 28  1  0
M  CHG  1   2   1
M  END
>  <i_m_ct_stereo_status>  (90) 
1

>  <s_m_source_file>  (90) 
/var/tmp/pbs.5076255.sched01/tmppfua8s0c/0korcpw03.sdf

>  <i_m_source_file_index>  (90) 
36

>  <i_lp_mmshare_version>  (90) 
48012

>  <i_f3d_flags>  (90) 
0

>  <s_epik_input>  (90) 
W0NIMl0xW0NIMl1bQ0BIXTJbQ0gyXU4oW0NIM10pW0NIMl1bQ0BASF0xQzIzW0NIMl1bQ0gyXTM=

>  <s_epik_cmdline>  (90) 
J2VwaWtfcHl0aG9uJywgJy1waHQnLCAnMi4wJywgJy1waCcsICc3LjAnLCAnLXRuJywgJzgnLCAnLW1hJywgJzIwMCcsICctaW1hZScsICc8aW5maWxlLm1hZT4nLCAnLW9tYWUnLCAnPG91dGZpbGUubWFlPic=

>  <r_epik_Ionization_Penalty>  (90) 
0.000714194

>  <r_epik_Ionization_Penalty_Charging>  (90) 
0.000714194

>  <r_epik_Ionization_Penalty_Neutral>  (90) 
0

>  <r_epik_State_Penalty>  (90) 
0.000455125

>  <r_epik_Charging_Adjusted_Penalty>  (90) 
0.00116932

>  <i_epik_Tot_Q>  (90) 
1

>  <i_epik_Tot_abs_Q>  (90) 
1

>  <s_lp_Force_Field>  (90) 
OPLS3e

>  <r_lp_Energy>  (90) 
31.4415

>  <b_lp_Chiralities_Consistent>  (90) 
1

>  <s_lp_Variant>  (90) 
21:0-2

>  <s_i_glide_gridfile>  (90) 
pfpi4k_grid

>  <i_i_glide_lignum>  (90) 
36

>  <i_i_glide_rotatable_bonds>  (90) 
0

>  <r_i_docking_score>  (90) 
-3.2013

>  <r_i_glide_ligand_efficiency>  (90) 
-0.291027

>  <r_i_glide_ligand_efficiency_sa>  (90) 
-0.647238

>  <r_i_glide_ligand_efficiency_ln>  (90) 
-0.942141

>  <r_i_glide_gscore>  (90) 
-3.2013

>  <r_i_glide_lipo>  (90) 
-0.147268

>  <r_i_glide_hbond>  (90) 
-0.103303

>  <r_i_glide_metal>  (90) 
-0

>  <r_i_glide_rewards>  (90) 
-2.25

>  <r_i_glide_evdw>  (90) 
-2.81467

>  <r_i_glide_ecoul>  (90) 
-3.60224

>  <r_i_glide_erotb>  (90) 
0

>  <r_i_glide_esite>  (90) 
-0.0196552

>  <r_i_glide_emodel>  (90) 
-8.2123

>  <r_i_glide_energy>  (90) 
-6.41691

>  <r_i_glide_einternal>  (90) 
0

>  <r_i_glide_intrahb_reward>  (90) 
-0

>  <i_i_glide_confnum>  (90) 
1

>  <i_i_glide_posenum>  (90) 
14

>  <r_i_glide_eff_state_penalty>  (90) 
0

>  <ligand_id>  (90) 
21

>  <original_smiles>  (90) 
CN1CC2CCC(C1)C21CC1

>  <smiles>  (90) 
[H]C1([H])C([H])([H])C2([H])C3(C([H])([H])C3([H])[H])C1([H])C([H])([H])[N+]([H])(C([H])([H])[H])C2([H])[H]

$$$$
22:0:0
     RDKit          3D

 52 57  0  0  1  0  0  0  0  0999 V2000
    6.0268   -0.2463    2.9295 C   0  0  0  0  0  0  0  0  0  0  0  0
    5.7389   -0.7306    1.7214 C   0  0  0  0  0  0  0  0  0  0  0  0
    4.3317   -0.7534    1.1800 C   0  0  0  0  0  0  0  0  0  0  0  0
    3.9520   -2.0968    0.4918 C   0  0  2  0  0  0  0  0  0  0  0  0
    3.8241   -3.2990    1.4903 C   0  0  1  0  0  0  0  0  0  0  0  0
    3.6002   -3.1637    2.9560 C   0  0  0  0  0  0  0  0  0  0  0  0
    4.6176   -4.1059    3.7159 C   0  0  1  0  0  0  0  0  0  0  0  0
    3.7162   -4.5816    4.8085 C   0  0  0  0  0  0  0  0  0  0  0  0
    3.0558   -5.6367    4.3742 C   0  0  0  0  0  0  0  0  0  0  0  0
    3.7648   -6.2339    3.1819 C   0  0  2  0  0  0  0  0  0  0  0  0
    5.0661   -5.4722    3.0150 C   0  0  1  0  0  0  0  0  0  0  0  0
    5.4785   -5.7701    1.4671 C   0  0  1  0  0  0  0  0  0  0  0  0
    4.5179   -6.9331    1.2147 C   0  0  0  0  0  0  0  0  0  0  0  0
    3.3045   -6.1127    1.7182 C   0  0  2  0  0  0  0  0  0  0  0  0
    3.4883   -4.7140    0.8498 C   0  0  1  0  0  0  0  0  0  0  0  0
    2.3246   -4.6646   -0.2197 C   0  0  0  0  0  0  0  0  0  0  0  0
    2.3283   -3.8368   -1.1472 O   0  0  0  0  0  0  0  0  0  0  0  0
    1.3753   -5.4873   -0.1123 O   0  0  0  0  0  0  0  0  0  0  0  0
    4.9141   -4.9259    0.2646 C   0  0  1  0  0  0  0  0  0  0  0  0
    5.7371   -3.6872   -0.2904 C   0  0  0  0  0  0  0  0  0  0  0  0
    4.8720   -2.5167   -0.6206 N   0  0  0  0  0  0  0  0  0  0  0  0
    4.7357   -2.1378   -1.9368 C   0  0  0  0  0  0  0  0  0  0  0  0
    5.1743   -2.8228   -2.8634 O   0  0  0  0  0  0  0  0  0  0  0  0
    4.1370   -0.7869   -2.2099 C   0  0  0  0  0  0  0  0  0  0  0  0
    2.8924   -0.6846   -3.0580 C   0  0  0  0  0  0  0  0  0  0  0  0
    4.2020   -0.2167   -3.6059 C   0  0  0  0  0  0  0  0  0  0  0  0
    5.2270    0.1225    3.5556 H   0  0  0  0  0  0  0  0  0  0  0  0
    7.0336   -0.2310    3.2944 H   0  0  0  0  0  0  0  0  0  0  0  0
    6.5142   -1.1039    1.0727 H   0  0  0  0  0  0  0  0  0  0  0  0
    3.5816   -0.5377    1.9550 H   0  0  0  0  0  0  0  0  0  0  0  0
    4.2678    0.1283    0.5441 H   0  0  0  0  0  0  0  0  0  0  0  0
    2.9686   -1.8746    0.0896 H   0  0  0  0  0  0  0  0  0  0  0  0
    4.8695   -3.2552    1.7442 H   0  0  0  0  0  0  0  0  0  0  0  0
    3.7706   -2.1548    3.3202 H   0  0  0  0  0  0  0  0  0  0  0  0
    2.5431   -3.3570    3.1556 H   0  0  0  0  0  0  0  0  0  0  0  0
    5.4764   -3.5594    4.1008 H   0  0  0  0  0  0  0  0  0  0  0  0
    3.5445   -4.0246    5.7202 H   0  0  0  0  0  0  0  0  0  0  0  0
    2.2920   -6.1561    4.9417 H   0  0  0  0  0  0  0  0  0  0  0  0
    3.8913   -7.2701    3.5101 H   0  0  0  0  0  0  0  0  0  0  0  0
    5.7928   -5.9619    3.6659 H   0  0  0  0  0  0  0  0  0  0  0  0
    6.5156   -6.0723    1.3502 H   0  0  0  0  0  0  0  0  0  0  0  0
    4.4044   -7.2903    0.1892 H   0  0  0  0  0  0  0  0  0  0  0  0
    4.7670   -7.8382    1.7764 H   0  0  0  0  0  0  0  0  0  0  0  0
    2.3882   -6.6949    1.6020 H   0  0  0  0  0  0  0  0  0  0  0  0
    4.8418   -5.5167   -0.6545 H   0  0  0  0  0  0  0  0  0  0  0  0
    6.4901   -3.3704    0.4387 H   0  0  0  0  0  0  0  0  0  0  0  0
    6.3525   -3.9920   -1.1371 H   0  0  0  0  0  0  0  0  0  0  0  0
    4.3110   -0.0231   -1.4743 H   0  0  0  0  0  0  0  0  0  0  0  0
    2.4285   -1.5993   -3.4378 H   0  0  0  0  0  0  0  0  0  0  0  0
    2.2097    0.1052   -2.7657 H   0  0  0  0  0  0  0  0  0  0  0  0
    4.3534    0.8630   -3.6327 H   0  0  0  0  0  0  0  0  0  0  0  0
    4.6566   -0.7858   -4.4149 H   0  0  0  0  0  0  0  0  0  0  0  0
  1  2  2  0
  1 27  1  0
  1 28  1  0
  2  3  1  0
  2 29  1  0
  3  4  1  0
  3 30  1  0
  3 31  1  0
  4 21  1  0
  4  5  1  0
  4 32  1  6
  5 15  1  0
  5  6  1  0
  5 33  1  1
  6  7  1  0
  6 34  1  0
  6 35  1  0
  7 11  1  0
  7  8  1  0
  7 36  1  1
  8  9  2  0
  8 37  1  0
  9 10  1  0
  9 38  1  0
 10 14  1  0
 10 11  1  0
 10 39  1  1
 11 12  1  0
 11 40  1  1
 12 19  1  0
 12 13  1  0
 12 41  1  1
 13 14  1  0
 13 42  1  0
 13 43  1  0
 14 15  1  0
 14 44  1  1
 15 16  1  6
 15 19  1  0
 16 17  2  0
 16 18  1  0
 19 20  1  0
 19 45  1  6
 20 21  1  0
 20 46  1  0
 20 47  1  0
 21 22  1  0
 22 23  2  0
 22 24  1  0
 24 26  1  0
 24 25  1  0
 24 48  1  0
 25 26  1  0
 25 49  1  0
 25 50  1  0
 26 51  1  0
 26 52  1  0
M  CHG  1  18  -1
M  END
>  <i_m_ct_stereo_status>  (91) 
1

>  <s_m_source_file>  (91) 
/var/tmp/pbs.5076255.sched01/tmppfua8s0c/0korcpw03.sdf

>  <i_m_source_file_index>  (91) 
37

>  <i_lp_mmshare_version>  (91) 
48012

>  <i_f3d_flags>  (91) 
0

>  <s_epik_input>  (91) 
Tz1DKFtPSF0pW0NAQF0xMltDQEhdM1tDQEBIXShbQ0gyXVtDSF09W0NIMl0pTihDKD1PKVtDSF00W0NIMl1bQ0gyXTQpW0NIMl1bQ0BIXTJbQ0BIXTVbQ0BIXTZbQ0BASF0oW0NIMl0zKVtDSF09W0NIXVtDQEhdNltDQEBIXTFbQ0gyXTU=

>  <s_epik_cmdline>  (91) 
J2VwaWtfcHl0aG9uJywgJy1waHQnLCAnMi4wJywgJy1waCcsICc3LjAnLCAnLXRuJywgJzgnLCAnLW1hJywgJzIwMCcsICctaW1hZScsICc8aW5maWxlLm1hZT4nLCAnLW9tYWUnLCAnPG91dGZpbGUubWFlPic=

>  <r_epik_Ionization_Penalty>  (91) 
0.00288736

>  <r_epik_Ionization_Penalty_Charging>  (91) 
0.00288666

>  <r_epik_Ionization_Penalty_Neutral>  (91) 
6.97612e-07

>  <r_epik_State_Penalty>  (91) 
0.00202151

>  <r_epik_Charging_Adjusted_Penalty>  (91) 
0.00490817

>  <i_epik_Tot_Q>  (91) 
-1

>  <i_epik_Tot_abs_Q>  (91) 
1

>  <s_lp_Force_Field>  (91) 
OPLS3e

>  <r_lp_Energy>  (91) 
168.223

>  <b_lp_Chiralities_Consistent>  (91) 
1

>  <s_lp_Variant>  (91) 
22:0-1

>  <s_i_glide_gridfile>  (91) 
pfpi4k_grid

>  <i_i_glide_lignum>  (91) 
37

>  <i_i_glide_rotatable_bonds>  (91) 
5

>  <r_i_docking_score>  (91) 
-2.52946

>  <r_i_glide_ligand_efficiency>  (91) 
-0.0972869

>  <r_i_glide_ligand_efficiency_sa>  (91) 
-0.288212

>  <r_i_glide_ligand_efficiency_ln>  (91) 
-0.594035

>  <r_i_glide_gscore>  (91) 
-2.52946

>  <r_i_glide_lipo>  (91) 
-0.729001

>  <r_i_glide_hbond>  (91) 
-0.179177

>  <r_i_glide_metal>  (91) 
-0

>  <r_i_glide_rewards>  (91) 
-1.00604

>  <r_i_glide_evdw>  (91) 
-18.6844

>  <r_i_glide_ecoul>  (91) 
-1.38687

>  <r_i_glide_erotb>  (91) 
0.614561

>  <r_i_glide_esite>  (91) 
-0.0875492

>  <r_i_glide_emodel>  (91) 
-17.2117

>  <r_i_glide_energy>  (91) 
-20.0713

>  <r_i_glide_einternal>  (91) 
10.1258

>  <r_i_glide_intrahb_reward>  (91) 
-0

>  <i_i_glide_confnum>  (91) 
1

>  <i_i_glide_posenum>  (91) 
11

>  <r_i_glide_eff_state_penalty>  (91) 
0

>  <ligand_id>  (91) 
22

>  <original_smiles>  (91) 
C=CCC1C2CC3C=CC4C3C3CC4C2(C(=O)O)C3CN1C(=O)C1CC1

>  <smiles>  (91) 
[H]C([H])=C([H])C([H])([H])C1([H])N(C(=O)C2([H])C([H])([H])C2([H])[H])C([H])([H])C2([H])C3([H])C([H])([H])C4([H])C5([H])C([H])=C([H])C([H])(C([H])([H])C1([H])C42C(=O)[O-])C53[H]

$$$$
22:0:1
     RDKit          3D

 52 57  0  0  1  0  0  0  0  0999 V2000
    9.0969   -5.3377   -0.4089 C   0  0  0  0  0  0  0  0  0  0  0  0
    8.5516   -4.1257   -0.6737 C   0  0  0  0  0  0  0  0  0  0  0  0
    8.0627   -3.1582    0.3820 C   0  0  0  0  0  0  0  0  0  0  0  0
    6.5883   -3.3612    0.8286 C   0  0  2  0  0  0  0  0  0  0  0  0
    6.2827   -4.7292    1.5271 C   0  0  1  0  0  0  0  0  0  0  0  0
    7.2747   -5.5662    2.2793 C   0  0  0  0  0  0  0  0  0  0  0  0
    7.0720   -7.0579    1.7419 C   0  0  1  0  0  0  0  0  0  0  0  0
    7.3150   -7.7830    3.0162 C   0  0  0  0  0  0  0  0  0  0  0  0
    6.1769   -7.8524    3.6800 C   0  0  0  0  0  0  0  0  0  0  0  0
    5.0136   -7.5879    2.7633 C   0  0  2  0  0  0  0  0  0  0  0  0
    5.5979   -7.5677    1.3538 C   0  0  1  0  0  0  0  0  0  0  0  0
    4.4359   -6.8246    0.4774 C   0  0  1  0  0  0  0  0  0  0  0  0
    3.3019   -6.9236    1.5048 C   0  0  0  0  0  0  0  0  0  0  0  0
    4.1677   -6.3027    2.6161 C   0  0  2  0  0  0  0  0  0  0  0  0
    4.7439   -4.9955    1.8456 C   0  0  1  0  0  0  0  0  0  0  0  0
    4.0615   -3.7582    2.4755 C   0  0  0  0  0  0  0  0  0  0  0  0
    2.9097   -3.4525    2.0757 O   0  0  0  0  0  0  0  0  0  0  0  0
    4.6817   -3.1633    3.3787 O   0  0  0  0  0  0  0  0  0  0  0  0
    4.3152   -5.2597    0.3891 C   0  0  1  0  0  0  0  0  0  0  0  0
    4.9805   -4.4544   -0.7800 C   0  0  0  0  0  0  0  0  0  0  0  0
    5.5944   -3.1925   -0.2814 N   0  0  0  0  0  0  0  0  0  0  0  0
    5.2140   -1.9563   -0.7016 C   0  0  0  0  0  0  0  0  0  0  0  0
    5.8213   -0.9230   -0.3717 O   0  0  0  0  0  0  0  0  0  0  0  0
    3.9675   -1.8320   -1.5474 C   0  0  0  0  0  0  0  0  0  0  0  0
    4.0511   -2.1395   -3.0285 C   0  0  0  0  0  0  0  0  0  0  0  0
    3.9332   -0.7082   -2.5579 C   0  0  0  0  0  0  0  0  0  0  0  0
    9.2711   -5.6819    0.5791 H   0  0  0  0  0  0  0  0  0  0  0  0
    9.3633   -5.9629   -1.2726 H   0  0  0  0  0  0  0  0  0  0  0  0
    8.4116   -3.7795   -1.7012 H   0  0  0  0  0  0  0  0  0  0  0  0
    8.6988   -3.2103    1.2643 H   0  0  0  0  0  0  0  0  0  0  0  0
    8.1801   -2.1448    0.0149 H   0  0  0  0  0  0  0  0  0  0  0  0
    6.3892   -2.5766    1.5544 H   0  0  0  0  0  0  0  0  0  0  0  0
    6.5602   -5.2905    0.6441 H   0  0  0  0  0  0  0  0  0  0  0  0
    8.2818   -5.2339    2.1409 H   0  0  0  0  0  0  0  0  0  0  0  0
    7.0122   -5.4613    3.3665 H   0  0  0  0  0  0  0  0  0  0  0  0
    7.7796   -7.3519    0.9730 H   0  0  0  0  0  0  0  0  0  0  0  0
    8.3041   -8.0410    3.3584 H   0  0  0  0  0  0  0  0  0  0  0  0
    6.0732   -8.2319    4.6719 H   0  0  0  0  0  0  0  0  0  0  0  0
    4.3981   -8.4907    2.9453 H   0  0  0  0  0  0  0  0  0  0  0  0
    5.6586   -8.6021    0.9932 H   0  0  0  0  0  0  0  0  0  0  0  0
    4.2148   -7.3268   -0.4704 H   0  0  0  0  0  0  0  0  0  0  0  0
    2.3870   -6.3662    1.3129 H   0  0  0  0  0  0  0  0  0  0  0  0
    2.9576   -7.9397    1.6556 H   0  0  0  0  0  0  0  0  0  0  0  0
    3.6130   -6.0702    3.5214 H   0  0  0  0  0  0  0  0  0  0  0  0
    3.2788   -4.9565    0.2232 H   0  0  0  0  0  0  0  0  0  0  0  0
    5.7730   -5.0331   -1.2292 H   0  0  0  0  0  0  0  0  0  0  0  0
    4.2683   -4.3292   -1.5889 H   0  0  0  0  0  0  0  0  0  0  0  0
    3.0342   -2.0202   -1.0177 H   0  0  0  0  0  0  0  0  0  0  0  0
    5.0094   -2.4809   -3.4106 H   0  0  0  0  0  0  0  0  0  0  0  0
    3.1735   -2.5913   -3.4793 H   0  0  0  0  0  0  0  0  0  0  0  0
    2.9823   -0.2177   -2.7338 H   0  0  0  0  0  0  0  0  0  0  0  0
    4.8116   -0.0764   -2.6658 H   0  0  0  0  0  0  0  0  0  0  0  0
  1  2  2  0
  1 27  1  0
  1 28  1  0
  2  3  1  0
  2 29  1  0
  3  4  1  0
  3 30  1  0
  3 31  1  0
  4 21  1  0
  4  5  1  0
  4 32  1  1
  5 15  1  0
  5  6  1  0
  5 33  1  6
  6  7  1  0
  6 34  1  0
  6 35  1  0
  7 11  1  0
  7  8  1  0
  7 36  1  6
  8  9  2  0
  8 37  1  0
  9 10  1  0
  9 38  1  0
 10 14  1  0
 10 11  1  0
 10 39  1  6
 11 12  1  0
 11 40  1  6
 12 19  1  0
 12 13  1  0
 12 41  1  6
 13 14  1  0
 13 42  1  0
 13 43  1  0
 14 15  1  0
 14 44  1  1
 15 16  1  1
 15 19  1  0
 16 17  2  0
 16 18  1  0
 19 20  1  0
 19 45  1  1
 20 21  1  0
 20 46  1  0
 20 47  1  0
 21 22  1  0
 22 23  2  0
 22 24  1  0
 24 26  1  0
 24 25  1  0
 24 48  1  0
 25 26  1  0
 25 49  1  0
 25 50  1  0
 26 51  1  0
 26 52  1  0
M  CHG  1  18  -1
M  END
>  <i_m_ct_stereo_status>  (92) 
1

>  <s_m_source_file>  (92) 
/var/tmp/pbs.5076255.sched01/tmppfua8s0c/0korcpw03.sdf

>  <i_m_source_file_index>  (92) 
37

>  <i_lp_mmshare_version>  (92) 
48012

>  <i_f3d_flags>  (92) 
0

>  <s_epik_input>  (92) 
Tz1DKFtPSF0pW0NAQF0xMltDQEhdM1tDQEBIXShbQ0gyXVtDSF09W0NIMl0pTihDKD1PKVtDSF00W0NIMl1bQ0gyXTQpW0NIMl1bQ0BIXTJbQ0BIXTVbQ0BIXTZbQ0BASF0oW0NIMl0zKVtDSF09W0NIXVtDQEhdNltDQEBIXTFbQ0gyXTU=

>  <s_epik_cmdline>  (92) 
J2VwaWtfcHl0aG9uJywgJy1waHQnLCAnMi4wJywgJy1waCcsICc3LjAnLCAnLXRuJywgJzgnLCAnLW1hJywgJzIwMCcsICctaW1hZScsICc8aW5maWxlLm1hZT4nLCAnLW9tYWUnLCAnPG91dGZpbGUubWFlPic=

>  <r_epik_Ionization_Penalty>  (92) 
0.00288736

>  <r_epik_Ionization_Penalty_Charging>  (92) 
0.00288666

>  <r_epik_Ionization_Penalty_Neutral>  (92) 
6.97612e-07

>  <r_epik_State_Penalty>  (92) 
0.00202151

>  <r_epik_Charging_Adjusted_Penalty>  (92) 
0.00490817

>  <i_epik_Tot_Q>  (92) 
-1

>  <i_epik_Tot_abs_Q>  (92) 
1

>  <s_lp_Force_Field>  (92) 
OPLS3e

>  <r_lp_Energy>  (92) 
168.223

>  <b_lp_Chiralities_Consistent>  (92) 
1

>  <s_lp_Variant>  (92) 
22:0-1

>  <s_i_glide_gridfile>  (92) 
pfpi4k_grid

>  <i_i_glide_lignum>  (92) 
37

>  <i_i_glide_rotatable_bonds>  (92) 
5

>  <r_i_docking_score>  (92) 
-2.52315

>  <r_i_glide_ligand_efficiency>  (92) 
-0.0970444

>  <r_i_glide_ligand_efficiency_sa>  (92) 
-0.287494

>  <r_i_glide_ligand_efficiency_ln>  (92) 
-0.592554

>  <r_i_glide_gscore>  (92) 
-2.52315

>  <r_i_glide_lipo>  (92) 
-1.04212

>  <r_i_glide_hbond>  (92) 
-0.0129377

>  <r_i_glide_metal>  (92) 
-0

>  <r_i_glide_rewards>  (92) 
-1.0752

>  <r_i_glide_evdw>  (92) 
-20.3575

>  <r_i_glide_ecoul>  (92) 
0.224281

>  <r_i_glide_erotb>  (92) 
0.614561

>  <r_i_glide_esite>  (92) 
-0.0232277

>  <r_i_glide_emodel>  (92) 
-18.8198

>  <r_i_glide_energy>  (92) 
-20.1332

>  <r_i_glide_einternal>  (92) 
5.78965

>  <r_i_glide_intrahb_reward>  (92) 
-0

>  <i_i_glide_confnum>  (92) 
5

>  <i_i_glide_posenum>  (92) 
18

>  <r_i_glide_eff_state_penalty>  (92) 
0

>  <ligand_id>  (92) 
22

>  <original_smiles>  (92) 
C=CCC1C2CC3C=CC4C3C3CC4C2(C(=O)O)C3CN1C(=O)C1CC1

>  <smiles>  (92) 
[H]C([H])=C([H])C([H])([H])C1([H])N(C(=O)C2([H])C([H])([H])C2([H])[H])C([H])([H])C2([H])C3([H])C([H])([H])C4([H])C5([H])C([H])=C([H])C([H])(C([H])([H])C1([H])C42C(=O)[O-])C53[H]

$$$$
22:0:2
     RDKit          3D

 52 57  0  0  1  0  0  0  0  0999 V2000
    8.5536   -6.2320    3.0583 C   0  0  0  0  0  0  0  0  0  0  0  0
    7.5591   -6.0293    2.1829 C   0  0  0  0  0  0  0  0  0  0  0  0
    6.2701   -6.8293    2.1437 C   0  0  0  0  0  0  0  0  0  0  0  0
    4.9750   -5.9707    2.2985 C   0  0  2  0  0  0  0  0  0  0  0  0
    4.6979   -4.9675    1.1458 C   0  0  1  0  0  0  0  0  0  0  0  0
    5.1956   -5.1223   -0.2491 C   0  0  0  0  0  0  0  0  0  0  0  0
    5.7412   -3.7180   -0.7303 C   0  0  1  0  0  0  0  0  0  0  0  0
    5.2525   -3.7470   -2.1421 C   0  0  0  0  0  0  0  0  0  0  0  0
    4.0150   -3.2839   -2.1680 C   0  0  0  0  0  0  0  0  0  0  0  0
    3.7334   -2.4951   -0.9120 C   0  0  2  0  0  0  0  0  0  0  0  0
    5.0520   -2.3933   -0.1603 C   0  0  1  0  0  0  0  0  0  0  0  0
    4.5872   -2.0127    1.3525 C   0  0  1  0  0  0  0  0  0  0  0  0
    3.1313   -1.6316    1.0384 C   0  0  0  0  0  0  0  0  0  0  0  0
    2.8742   -2.9648    0.2897 C   0  0  2  0  0  0  0  0  0  0  0  0
    3.4453   -4.0296    1.3875 C   0  0  1  0  0  0  0  0  0  0  0  0
    2.2239   -4.7871    1.9763 C   0  0  0  0  0  0  0  0  0  0  0  0
    1.5413   -5.4708    1.1735 O   0  0  0  0  0  0  0  0  0  0  0  0
    1.9398   -4.6612    3.1866 O   0  0  0  0  0  0  0  0  0  0  0  0
    4.1581   -3.0981    2.3952 C   0  0  1  0  0  0  0  0  0  0  0  0
    5.1869   -3.7299    3.4150 C   0  0  0  0  0  0  0  0  0  0  0  0
    4.9568   -5.1996    3.5795 N   0  0  0  0  0  0  0  0  0  0  0  0
    4.5965   -5.7197    4.7873 C   0  0  0  0  0  0  0  0  0  0  0  0
    4.4549   -4.9979    5.7790 O   0  0  0  0  0  0  0  0  0  0  0  0
    4.4003   -7.2157    4.9112 C   0  0  0  0  0  0  0  0  0  0  0  0
    3.2922   -7.7333    5.8000 C   0  0  0  0  0  0  0  0  0  0  0  0
    4.7278   -7.8654    6.2380 C   0  0  0  0  0  0  0  0  0  0  0  0
    8.5041   -6.9990    3.8194 H   0  0  0  0  0  0  0  0  0  0  0  0
    9.4387   -5.6172    3.0213 H   0  0  0  0  0  0  0  0  0  0  0  0
    7.6663   -5.2447    1.4441 H   0  0  0  0  0  0  0  0  0  0  0  0
    6.2166   -7.4001    1.2150 H   0  0  0  0  0  0  0  0  0  0  0  0
    6.3460   -7.5806    2.9295 H   0  0  0  0  0  0  0  0  0  0  0  0
    4.1326   -6.6626    2.2800 H   0  0  0  0  0  0  0  0  0  0  0  0
    5.6135   -4.4210    1.3098 H   0  0  0  0  0  0  0  0  0  0  0  0
    6.0068   -5.8460   -0.3191 H   0  0  0  0  0  0  0  0  0  0  0  0
    4.3848   -5.5432   -0.8443 H   0  0  0  0  0  0  0  0  0  0  0  0
    6.8250   -3.6632   -0.6661 H   0  0  0  0  0  0  0  0  0  0  0  0
    5.7744   -4.2576   -2.9375 H   0  0  0  0  0  0  0  0  0  0  0  0
    3.3875   -3.2631   -3.0449 H   0  0  0  0  0  0  0  0  0  0  0  0
    3.3979   -1.5511   -1.3376 H   0  0  0  0  0  0  0  0  0  0  0  0
    5.5875   -1.5318   -0.5682 H   0  0  0  0  0  0  0  0  0  0  0  0
    5.1448   -1.1883    1.7947 H   0  0  0  0  0  0  0  0  0  0  0  0
    2.4461   -1.4729    1.8724 H   0  0  0  0  0  0  0  0  0  0  0  0
    3.0442   -0.7113    0.4574 H   0  0  0  0  0  0  0  0  0  0  0  0
    1.8308   -3.0943    0.0149 H   0  0  0  0  0  0  0  0  0  0  0  0
    3.4304   -2.7025    3.1093 H   0  0  0  0  0  0  0  0  0  0  0  0
    6.2063   -3.5713    3.0633 H   0  0  0  0  0  0  0  0  0  0  0  0
    5.1463   -3.1829    4.3639 H   0  0  0  0  0  0  0  0  0  0  0  0
    4.5685   -7.8376    4.0384 H   0  0  0  0  0  0  0  0  0  0  0  0
    2.6501   -7.0048    6.3029 H   0  0  0  0  0  0  0  0  0  0  0  0
    2.7864   -8.6269    5.4364 H   0  0  0  0  0  0  0  0  0  0  0  0
    5.1958   -8.8456    6.1781 H   0  0  0  0  0  0  0  0  0  0  0  0
    5.0776   -7.2313    7.0568 H   0  0  0  0  0  0  0  0  0  0  0  0
  1  2  2  0
  1 27  1  0
  1 28  1  0
  2  3  1  0
  2 29  1  0
  3  4  1  0
  3 30  1  0
  3 31  1  0
  4 21  1  0
  4  5  1  0
  4 32  1  1
  5 15  1  0
  5  6  1  0
  5 33  1  1
  6  7  1  0
  6 34  1  0
  6 35  1  0
  7 11  1  0
  7  8  1  0
  7 36  1  6
  8  9  2  0
  8 37  1  0
  9 10  1  0
  9 38  1  0
 10 14  1  0
 10 11  1  0
 10 39  1  6
 11 12  1  0
 11 40  1  6
 12 19  1  0
 12 13  1  0
 12 41  1  1
 13 14  1  0
 13 42  1  0
 13 43  1  0
 14 15  1  0
 14 44  1  6
 15 16  1  1
 15 19  1  0
 16 17  2  0
 16 18  1  0
 19 20  1  0
 19 45  1  1
 20 21  1  0
 20 46  1  0
 20 47  1  0
 21 22  1  0
 22 23  2  0
 22 24  1  0
 24 26  1  0
 24 25  1  0
 24 48  1  0
 25 26  1  0
 25 49  1  0
 25 50  1  0
 26 51  1  0
 26 52  1  0
M  CHG  1  18  -1
M  END
>  <i_m_ct_stereo_status>  (93) 
1

>  <s_m_source_file>  (93) 
/var/tmp/pbs.5076255.sched01/tmppfua8s0c/0korcpw03.sdf

>  <i_m_source_file_index>  (93) 
37

>  <i_lp_mmshare_version>  (93) 
48012

>  <i_f3d_flags>  (93) 
0

>  <s_epik_input>  (93) 
Tz1DKFtPSF0pW0NAQF0xMltDQEhdM1tDQEBIXShbQ0gyXVtDSF09W0NIMl0pTihDKD1PKVtDSF00W0NIMl1bQ0gyXTQpW0NIMl1bQ0BIXTJbQ0BIXTVbQ0BIXTZbQ0BASF0oW0NIMl0zKVtDSF09W0NIXVtDQEhdNltDQEBIXTFbQ0gyXTU=

>  <s_epik_cmdline>  (93) 
J2VwaWtfcHl0aG9uJywgJy1waHQnLCAnMi4wJywgJy1waCcsICc3LjAnLCAnLXRuJywgJzgnLCAnLW1hJywgJzIwMCcsICctaW1hZScsICc8aW5maWxlLm1hZT4nLCAnLW9tYWUnLCAnPG91dGZpbGUubWFlPic=

>  <r_epik_Ionization_Penalty>  (93) 
0.00288736

>  <r_epik_Ionization_Penalty_Charging>  (93) 
0.00288666

>  <r_epik_Ionization_Penalty_Neutral>  (93) 
6.97612e-07

>  <r_epik_State_Penalty>  (93) 
0.00202151

>  <r_epik_Charging_Adjusted_Penalty>  (93) 
0.00490817

>  <i_epik_Tot_Q>  (93) 
-1

>  <i_epik_Tot_abs_Q>  (93) 
1

>  <s_lp_Force_Field>  (93) 
OPLS3e

>  <r_lp_Energy>  (93) 
168.223

>  <b_lp_Chiralities_Consistent>  (93) 
1

>  <s_lp_Variant>  (93) 
22:0-1

>  <s_i_glide_gridfile>  (93) 
pfpi4k_grid

>  <i_i_glide_lignum>  (93) 
37

>  <i_i_glide_rotatable_bonds>  (93) 
5

>  <r_i_docking_score>  (93) 
-1.70464

>  <r_i_glide_ligand_efficiency>  (93) 
-0.0655632

>  <r_i_glide_ligand_efficiency_sa>  (93) 
-0.194231

>  <r_i_glide_ligand_efficiency_ln>  (93) 
-0.40033

>  <r_i_glide_gscore>  (93) 
-1.70464

>  <r_i_glide_lipo>  (93) 
-0.266665

>  <r_i_glide_hbond>  (93) 
-0.139565

>  <r_i_glide_metal>  (93) 
-0

>  <r_i_glide_rewards>  (93) 
-1.00785

>  <r_i_glide_evdw>  (93) 
-13.7381

>  <r_i_glide_ecoul>  (93) 
-1.31667

>  <r_i_glide_erotb>  (93) 
0.614561

>  <r_i_glide_esite>  (93) 
-0.0207194

>  <r_i_glide_emodel>  (93) 
-16.3431

>  <r_i_glide_energy>  (93) 
-15.0548

>  <r_i_glide_einternal>  (93) 
1.69864

>  <r_i_glide_intrahb_reward>  (93) 
-0

>  <i_i_glide_confnum>  (93) 
3

>  <i_i_glide_posenum>  (93) 
3

>  <r_i_glide_eff_state_penalty>  (93) 
0

>  <ligand_id>  (93) 
22

>  <original_smiles>  (93) 
C=CCC1C2CC3C=CC4C3C3CC4C2(C(=O)O)C3CN1C(=O)C1CC1

>  <smiles>  (93) 
[H]C([H])=C([H])C([H])([H])C1([H])N(C(=O)C2([H])C([H])([H])C2([H])[H])C([H])([H])C2([H])C3([H])C([H])([H])C4([H])C5([H])C([H])=C([H])C([H])(C([H])([H])C1([H])C42C(=O)[O-])C53[H]

$$$$
23:0:0
     RDKit          3D

 44 47  0  0  1  0  0  0  0  0999 V2000
    4.2019   -6.4933    1.7872 C   0  0  0  0  0  0  0  0  0  0  0  0
    4.0826   -4.9553    1.7358 C   0  0  2  0  0  0  0  0  0  0  0  0
    2.6490   -4.4997    2.0269 C   0  0  0  0  0  0  0  0  0  0  0  0
    2.6237   -2.9759    2.1536 C   0  0  0  0  0  0  0  0  0  0  0  0
    3.0627   -2.2311    0.8731 C   0  0  1  0  0  0  0  0  0  0  0  0
    3.4441   -0.9120    1.2104 O   0  0  0  0  0  0  0  0  0  0  0  0
    4.1195   -2.9005   -0.0138 C   0  0  1  0  0  0  0  0  0  0  0  0
    4.2150   -2.2131   -1.3686 C   0  0  1  0  0  0  0  0  0  0  0  0
    4.9014   -3.0438   -2.4596 C   0  0  2  0  0  0  0  0  0  0  0  0
    6.3408   -2.7195   -2.1062 C   0  0  0  0  0  0  0  0  0  0  0  0
    6.7163   -3.1988   -0.6722 C   0  0  0  0  0  0  0  0  0  0  0  0
    5.5781   -3.1745    0.3945 C   0  0  1  0  0  0  0  0  0  0  0  0
    6.1334   -2.5752    1.6466 C   0  0  0  0  0  0  0  0  0  0  0  0
    4.5893   -4.3022    0.4374 C   0  0  1  0  0  0  0  0  0  0  0  0
    4.7475   -5.2475   -0.5804 O   0  0  0  0  0  0  0  0  0  0  0  0
    3.5362   -2.3710   -2.6553 C   0  0  0  0  0  0  0  0  0  0  0  0
    2.2700   -3.1920   -2.6752 C   0  0  0  0  0  0  0  0  0  0  0  0
    3.4227   -1.2041   -3.6150 C   0  0  0  0  0  0  0  0  0  0  0  0
    3.5268   -6.9976    1.0917 H   0  0  0  0  0  0  0  0  0  0  0  0
    3.9523   -6.8305    2.7870 H   0  0  0  0  0  0  0  0  0  0  0  0
    5.2211   -6.8258    1.5743 H   0  0  0  0  0  0  0  0  0  0  0  0
    4.7054   -4.6127    2.5556 H   0  0  0  0  0  0  0  0  0  0  0  0
    1.9780   -4.8120    1.2289 H   0  0  0  0  0  0  0  0  0  0  0  0
    2.3027   -4.9572    2.9539 H   0  0  0  0  0  0  0  0  0  0  0  0
    1.6100   -2.6475    2.4102 H   0  0  0  0  0  0  0  0  0  0  0  0
    3.2494   -2.6880    2.9990 H   0  0  0  0  0  0  0  0  0  0  0  0
    2.2016   -2.1682    0.2269 H   0  0  0  0  0  0  0  0  0  0  0  0
    2.7060   -0.3378    1.0664 H   0  0  0  0  0  0  0  0  0  0  0  0
    4.5374   -1.1904   -1.2470 H   0  0  0  0  0  0  0  0  0  0  0  0
    4.7718   -4.0984   -2.6400 H   0  0  0  0  0  0  0  0  0  0  0  0
    6.9901   -3.2090   -2.8353 H   0  0  0  0  0  0  0  0  0  0  0  0
    6.4976   -1.6511   -2.2186 H   0  0  0  0  0  0  0  0  0  0  0  0
    7.1169   -4.2080   -0.6919 H   0  0  0  0  0  0  0  0  0  0  0  0
    7.5533   -2.5930   -0.3097 H   0  0  0  0  0  0  0  0  0  0  0  0
    6.9584   -3.2020    1.9735 H   0  0  0  0  0  0  0  0  0  0  0  0
    5.3780   -2.5242    2.4215 H   0  0  0  0  0  0  0  0  0  0  0  0
    6.4796   -1.5561    1.4372 H   0  0  0  0  0  0  0  0  0  0  0  0
    3.9543   -5.2653   -1.0728 H   0  0  0  0  0  0  0  0  0  0  0  0
    2.0856   -3.6085   -3.6649 H   0  0  0  0  0  0  0  0  0  0  0  0
    1.4179   -2.5985   -2.3578 H   0  0  0  0  0  0  0  0  0  0  0  0
    2.3694   -4.0018   -1.9564 H   0  0  0  0  0  0  0  0  0  0  0  0
    3.2239   -1.5598   -4.6259 H   0  0  0  0  0  0  0  0  0  0  0  0
    4.3456   -0.6320   -3.6062 H   0  0  0  0  0  0  0  0  0  0  0  0
    2.6139   -0.5472   -3.2960 H   0  0  0  0  0  0  0  0  0  0  0  0
  1  2  1  0
  1 19  1  0
  1 20  1  0
  1 21  1  0
  2 14  1  0
  2  3  1  0
  2 22  1  1
  3  4  1  0
  3 23  1  0
  3 24  1  0
  4  5  1  0
  4 25  1  0
  4 26  1  0
  5  6  1  0
  5  7  1  0
  5 27  1  6
  6 28  1  0
  7 12  1  1
  7 14  1  0
  7  8  1  0
  8 16  1  0
  8  9  1  0
  8 29  1  1
  9 10  1  0
  9 16  1  0
  9 30  1  1
 10 11  1  0
 10 31  1  0
 10 32  1  0
 11 12  1  0
 11 33  1  0
 11 34  1  0
 12 13  1  1
 12 14  1  0
 13 35  1  0
 13 36  1  0
 13 37  1  0
 14 15  1  6
 15 38  1  0
 16 17  1  0
 16 18  1  0
 17 39  1  0
 17 40  1  0
 17 41  1  0
 18 42  1  0
 18 43  1  0
 18 44  1  0
M  END
>  <i_m_ct_stereo_status>  (94) 
1

>  <s_m_source_file>  (94) 
/var/tmp/pbs.5076255.sched01/tmppfua8s0c/0korcpw03.sdf

>  <i_m_source_file_index>  (94) 
38

>  <i_lp_mmshare_version>  (94) 
48012

>  <i_f3d_flags>  (94) 
0

>  <s_epik_input>  (94) 
W09IXVtDQEBIXTFbQ0gyXVtDSDJdW0NAQEhdKFtDSDNdKVtDQF0yKFtPSF0pW0NAQF0zKFtDSDNdKVtDSDJdW0NIMl1bQ0BASF0oW0NAQEhdNFtDQEBdMTIzKUM0KFtDSDNdKVtDSDNd

>  <s_epik_cmdline>  (94) 
J2VwaWtfcHl0aG9uJywgJy1waHQnLCAnMi4wJywgJy1waCcsICc3LjAnLCAnLXRuJywgJzgnLCAnLW1hJywgJzIwMCcsICctaW1hZScsICc8aW5maWxlLm1hZT4nLCAnLW9tYWUnLCAnPG91dGZpbGUubWFlPic=

>  <r_lp_tautomer_probability>  (94) 
1

>  <r_epik_Ionization_Penalty>  (94) 
5.91997e-06

>  <r_epik_Ionization_Penalty_Charging>  (94) 
0

>  <r_epik_Ionization_Penalty_Neutral>  (94) 
5.91997e-06

>  <r_epik_State_Penalty>  (94) 
-0

>  <r_epik_Charging_Adjusted_Penalty>  (94) 
0

>  <i_epik_Tot_Q>  (94) 
0

>  <i_epik_Tot_abs_Q>  (94) 
0

>  <s_lp_Force_Field>  (94) 
OPLS3e

>  <r_lp_Energy>  (94) 
119.917

>  <b_lp_Chiralities_Consistent>  (94) 
1

>  <s_lp_Variant>  (94) 
23:0-1

>  <s_i_glide_gridfile>  (94) 
pfpi4k_grid

>  <i_i_glide_lignum>  (94) 
38

>  <i_i_glide_rotatable_bonds>  (94) 
2

>  <r_i_docking_score>  (94) 
-4.46814

>  <r_i_glide_ligand_efficiency>  (94) 
-0.24823

>  <r_i_glide_ligand_efficiency_sa>  (94) 
-0.650547

>  <r_i_glide_ligand_efficiency_ln>  (94) 
-1.14851

>  <r_i_glide_gscore>  (94) 
-4.46814

>  <r_i_glide_lipo>  (94) 
-0.859499

>  <r_i_glide_hbond>  (94) 
-0.289686

>  <r_i_glide_metal>  (94) 
-0

>  <r_i_glide_rewards>  (94) 
-1.70198

>  <r_i_glide_evdw>  (94) 
-21.5423

>  <r_i_glide_ecoul>  (94) 
-3.59908

>  <r_i_glide_erotb>  (94) 
0

>  <r_i_glide_esite>  (94) 
0

>  <r_i_glide_emodel>  (94) 
-30.3507

>  <r_i_glide_energy>  (94) 
-25.1414

>  <r_i_glide_einternal>  (94) 
1.42881

>  <r_i_glide_intrahb_reward>  (94) 
-0

>  <i_i_glide_confnum>  (94) 
2

>  <i_i_glide_posenum>  (94) 
18

>  <r_i_glide_eff_state_penalty>  (94) 
0

>  <ligand_id>  (94) 
23

>  <original_smiles>  (94) 
CC1CCC(O)C23C4C(CCC2(C)C13O)C4(C)C

>  <smiles>  (94) 
[H]OC1([H])C([H])([H])C([H])([H])C([H])(C([H])([H])[H])C2(O[H])C3(C([H])([H])[H])C([H])([H])C([H])([H])C4([H])C([H])(C4(C([H])([H])[H])C([H])([H])[H])C123

$$$$
24:0:0
     RDKit          3D

 50 56  0  0  1  0  0  0  0  0999 V2000
    8.3733   -3.2912   -0.7776 C   0  0  0  0  0  0  0  0  0  0  0  0
    7.2957   -2.6910    0.1162 C   0  0  0  0  0  0  0  0  0  0  0  0
    7.2802   -1.4970    0.3800 O   0  0  0  0  0  0  0  0  0  0  0  0
    6.4141   -3.6131    0.5504 O   0  0  0  0  0  0  0  0  0  0  0  0
    5.3338   -3.2360    1.4106 C   0  0  2  0  0  0  0  0  0  0  0  0
    4.8524   -4.4639    2.2573 C   0  0  2  0  0  0  0  0  0  0  0  0
    3.6511   -5.1447    1.5146 C   0  0  1  0  0  0  0  0  0  0  0  0
    2.5626   -4.7897    2.5177 C   0  0  1  0  0  0  0  0  0  0  0  0
    3.0748   -5.0608    3.9282 C   0  0  0  0  0  0  0  0  0  0  0  0
    4.0300   -3.9695    3.4330 C   0  0  2  0  0  0  0  0  0  0  0  0
    2.7571   -3.3014    2.8610 C   0  0  2  0  0  0  0  0  0  0  0  0
    1.8792   -2.4467    3.7677 C   0  0  0  0  0  0  0  0  0  0  0  0
    2.4807   -1.0442    3.6018 C   0  0  0  0  0  0  0  0  0  0  0  0
    3.1372   -1.0135    2.2646 N   0  0  2  0  0  0  0  0  0  0  0  0
    2.6909    0.1349    1.4337 C   0  0  0  0  0  0  0  0  0  0  0  0
    2.9286   -2.3613    1.6657 C   0  0  1  0  0  0  0  0  0  0  0  0
    4.0178   -2.9069    0.6726 C   0  0  1  0  0  0  0  0  0  0  0  0
    3.8962   -2.3112   -0.7043 C   0  0  0  0  0  0  0  0  0  0  0  0
    4.5312   -1.1978   -1.2679 C   0  0  0  0  0  0  0  0  0  0  0  0
    4.1852   -0.8368   -2.5856 C   0  0  0  0  0  0  0  0  0  0  0  0
    3.2118   -1.5758   -3.2949 C   0  0  0  0  0  0  0  0  0  0  0  0
    2.6022   -2.7066   -2.7280 C   0  0  0  0  0  0  0  0  0  0  0  0
    2.9671   -3.0720   -1.4182 C   0  0  0  0  0  0  0  0  0  0  0  0
    2.5206   -4.2180   -0.7167 N   0  0  0  0  0  0  0  0  0  0  0  0
    3.6312   -4.3151    0.2317 C   0  0  2  0  0  0  0  0  0  0  0  0
    7.9314   -3.8333   -1.6134 H   0  0  0  0  0  0  0  0  0  0  0  0
    8.9875   -3.9711   -0.1896 H   0  0  0  0  0  0  0  0  0  0  0  0
    9.0105   -2.4993   -1.1754 H   0  0  0  0  0  0  0  0  0  0  0  0
    5.6511   -2.4146    2.0648 H   0  0  0  0  0  0  0  0  0  0  0  0
    5.6592   -5.1430    2.5536 H   0  0  0  0  0  0  0  0  0  0  0  0
    3.7798   -6.2168    1.3557 H   0  0  0  0  0  0  0  0  0  0  0  0
    1.5409   -5.1008    2.3056 H   0  0  0  0  0  0  0  0  0  0  0  0
    2.4082   -4.8163    4.7508 H   0  0  0  0  0  0  0  0  0  0  0  0
    3.5470   -6.0404    4.0439 H   0  0  0  0  0  0  0  0  0  0  0  0
    4.5373   -3.4054    4.2144 H   0  0  0  0  0  0  0  0  0  0  0  0
    0.8469   -2.4552    3.4047 H   0  0  0  0  0  0  0  0  0  0  0  0
    1.8698   -2.7404    4.8203 H   0  0  0  0  0  0  0  0  0  0  0  0
    1.7240   -0.2648    3.7247 H   0  0  0  0  0  0  0  0  0  0  0  0
    3.2500   -0.8740    4.3571 H   0  0  0  0  0  0  0  0  0  0  0  0
    1.6155    0.0863    1.2211 H   0  0  0  0  0  0  0  0  0  0  0  0
    3.2444    0.1622    0.4947 H   0  0  0  0  0  0  0  0  0  0  0  0
    2.8966    1.0682    1.9695 H   0  0  0  0  0  0  0  0  0  0  0  0
    1.9783   -2.3262    1.1336 H   0  0  0  0  0  0  0  0  0  0  0  0
    5.2452   -0.6081   -0.7181 H   0  0  0  0  0  0  0  0  0  0  0  0
    4.6124    0.0436   -3.0220 H   0  0  0  0  0  0  0  0  0  0  0  0
    2.8959   -1.2275   -4.2606 H   0  0  0  0  0  0  0  0  0  0  0  0
    1.8536   -3.2708   -3.2637 H   0  0  0  0  0  0  0  0  0  0  0  0
    2.4074   -5.0113   -1.3504 H   0  0  0  0  0  0  0  0  0  0  0  0
    4.4479   -4.7309   -0.3612 H   0  0  0  0  0  0  0  0  0  0  0  0
    4.1327   -0.9105    2.4298 H   0  0  0  0  0  0  0  0  0  0  0  0
  1  2  1  0
  1 26  1  0
  1 27  1  0
  1 28  1  0
  2  3  2  0
  2  4  1  0
  4  5  1  0
  5 17  1  0
  5  6  1  0
  5 29  1  1
  6 10  1  0
  6  7  1  0
  6 30  1  1
  7 25  1  0
  7  8  1  0
  7 31  1  6
  8 11  1  0
  8  9  1  0
  8 32  1  6
  9 10  1  0
  9 33  1  0
  9 34  1  0
 10 11  1  0
 10 35  1  1
 11 16  1  0
 11 12  1  1
 12 13  1  0
 12 36  1  0
 12 37  1  0
 13 14  1  0
 13 38  1  0
 13 39  1  0
 14 15  1  0
 14 16  1  0
 14 50  1  1
 15 40  1  0
 15 41  1  0
 15 42  1  0
 16 17  1  0
 16 43  1  6
 17 25  1  0
 17 18  1  6
 18 23  2  0
 18 19  1  0
 19 20  2  0
 19 44  1  0
 20 21  1  0
 20 45  1  0
 21 22  2  0
 21 46  1  0
 22 23  1  0
 22 47  1  0
 23 24  1  0
 24 25  1  0
 24 48  1  0
 25 49  1  6
M  CHG  1  14   1
M  END
>  <i_m_ct_stereo_status>  (95) 
1

>  <s_m_source_file>  (95) 
/var/tmp/pbs.5076255.sched01/tmppfua8s0c/0korcpw03.sdf

>  <i_m_source_file_index>  (95) 
39

>  <i_lp_mmshare_version>  (95) 
48012

>  <i_f3d_flags>  (95) 
0

>  <s_epik_input>  (95) 
W0NAQF0xMjNbQ0BIXTRbQ0BASF01W0NASF0oW0NAQEhdMVtDSDJdNClbQ0BASF0oT0MoPU8pW0NIM10pW0NAQF02KFtDQEBIXTNOKFtDSDNdKVtDSDJdW0NIMl0yKWM3YyhbTkhdW0NASF01NilbY0hdW2NIXVtjSF1bY0hdNw==

>  <s_epik_cmdline>  (95) 
J2VwaWtfcHl0aG9uJywgJy1waHQnLCAnMi4wJywgJy1waCcsICc3LjAnLCAnLXRuJywgJzgnLCAnLW1hJywgJzIwMCcsICctaW1hZScsICc8aW5maWxlLm1hZT4nLCAnLW9tYWUnLCAnPG91dGZpbGUubWFlPic=

>  <r_epik_Ionization_Penalty>  (95) 
0.00625091

>  <r_epik_Ionization_Penalty_Charging>  (95) 
0.00273886

>  <r_epik_Ionization_Penalty_Neutral>  (95) 
0.00351205

>  <r_epik_State_Penalty>  (95) 
0.00539483

>  <r_epik_Charging_Adjusted_Penalty>  (95) 
0.00813369

>  <i_epik_Tot_Q>  (95) 
1

>  <i_epik_Tot_abs_Q>  (95) 
1

>  <s_epik_Chemistry_Notes>  (95) 
This compound has an ester and may undergo hydrolysis at high or low pH.

>  <s_lp_Force_Field>  (95) 
OPLS3e

>  <r_lp_Energy>  (95) 
86.2028

>  <b_lp_Chiralities_Consistent>  (95) 
1

>  <s_lp_Variant>  (95) 
24:0-1

>  <s_i_glide_gridfile>  (95) 
pfpi4k_grid

>  <i_i_glide_lignum>  (95) 
39

>  <i_i_glide_rotatable_bonds>  (95) 
2

>  <r_i_docking_score>  (95) 
-3.9098

>  <r_i_glide_ligand_efficiency>  (95) 
-0.156392

>  <r_i_glide_ligand_efficiency_sa>  (95) 
-0.457293

>  <r_i_glide_ligand_efficiency_ln>  (95) 
-0.92674

>  <r_i_glide_gscore>  (95) 
-3.9098

>  <r_i_glide_lipo>  (95) 
-0.243307

>  <r_i_glide_hbond>  (95) 
-0.354801

>  <r_i_glide_metal>  (95) 
-0

>  <r_i_glide_rewards>  (95) 
-1.24345

>  <r_i_glide_evdw>  (95) 
-24.5226

>  <r_i_glide_ecoul>  (95) 
-6.28186

>  <r_i_glide_erotb>  (95) 
0.165982

>  <r_i_glide_esite>  (95) 
-0.065813

>  <r_i_glide_emodel>  (95) 
-37.8603

>  <r_i_glide_energy>  (95) 
-30.8044

>  <r_i_glide_einternal>  (95) 
0.578468

>  <r_i_glide_intrahb_reward>  (95) 
-0

>  <i_i_glide_confnum>  (95) 
4

>  <i_i_glide_posenum>  (95) 
16

>  <r_i_glide_eff_state_penalty>  (95) 
0

>  <ligand_id>  (95) 
24

>  <original_smiles>  (95) 
CC(=O)OC1C2C3C4CC2C42CCN(C)C2C12c1ccccc1NC32

>  <smiles>  (95) 
[H]c1c([H])c([H])c2c(c1[H])N([H])C1([H])C3([H])C4([H])C([H])(OC(=O)C([H])([H])[H])C21C1([H])C2(C([H])([H])C([H])([H])[N+]1([H])C([H])([H])[H])C4([H])C([H])([H])C32[H]

$$$$
24:0:1
     RDKit          3D

 50 56  0  0  1  0  0  0  0  0999 V2000
    7.0883   -1.2928    0.8893 C   0  0  0  0  0  0  0  0  0  0  0  0
    7.2444   -2.6879    0.2320 C   0  0  0  0  0  0  0  0  0  0  0  0
    8.1091   -2.9331   -0.6034 O   0  0  0  0  0  0  0  0  0  0  0  0
    6.3340   -3.5919    0.6240 O   0  0  0  0  0  0  0  0  0  0  0  0
    5.2301   -3.2724    1.4673 C   0  0  2  0  0  0  0  0  0  0  0  0
    4.7471   -4.5087    2.2906 C   0  0  2  0  0  0  0  0  0  0  0  0
    3.5474   -5.1686    1.5343 C   0  0  1  0  0  0  0  0  0  0  0  0
    2.4514   -4.7802    2.5275 C   0  0  1  0  0  0  0  0  0  0  0  0
    2.9377   -5.0472    3.9454 C   0  0  0  0  0  0  0  0  0  0  0  0
    3.9118   -3.9824    3.4572 C   0  0  2  0  0  0  0  0  0  0  0  0
    2.6674   -3.2952    2.8562 C   0  0  2  0  0  0  0  0  0  0  0  0
    1.7782   -2.4274    3.7505 C   0  0  0  0  0  0  0  0  0  0  0  0
    2.3890   -1.0280    3.5997 C   0  0  0  0  0  0  0  0  0  0  0  0
    3.0709   -1.0092    2.2642 N   0  0  2  0  0  0  0  0  0  0  0  0
    2.6503    0.1458    1.4175 C   0  0  0  0  0  0  0  0  0  0  0  0
    2.8605   -2.3631    1.6568 C   0  0  1  0  0  0  0  0  0  0  0  0
    3.9435   -2.9109    0.6837 C   0  0  1  0  0  0  0  0  0  0  0  0
    3.8587   -2.3037   -0.7145 C   0  0  0  0  0  0  0  0  0  0  0  0
    4.5214   -1.1700   -1.2795 C   0  0  0  0  0  0  0  0  0  0  0  0
    4.1611   -0.8699   -2.6325 C   0  0  0  0  0  0  0  0  0  0  0  0
    3.2020   -1.6207   -3.3353 C   0  0  0  0  0  0  0  0  0  0  0  0
    2.5722   -2.7401   -2.7643 C   0  0  0  0  0  0  0  0  0  0  0  0
    2.9375   -3.0762   -1.4260 C   0  0  0  0  0  0  0  0  0  0  0  0
    2.4680   -4.2207   -0.7249 N   0  0  0  0  0  0  0  0  0  0  0  0
    3.5478   -4.3276    0.2443 C   0  0  2  0  0  0  0  0  0  0  0  0
    7.2522   -1.3594    1.9726 H   0  0  0  0  0  0  0  0  0  0  0  0
    6.1235   -0.8837    0.7322 H   0  0  0  0  0  0  0  0  0  0  0  0
    7.8558   -0.6153    0.4912 H   0  0  0  0  0  0  0  0  0  0  0  0
    5.4997   -2.5043    2.1938 H   0  0  0  0  0  0  0  0  0  0  0  0
    5.5483   -5.1885    2.6118 H   0  0  0  0  0  0  0  0  0  0  0  0
    3.6712   -6.2421    1.3815 H   0  0  0  0  0  0  0  0  0  0  0  0
    1.4377   -5.0765    2.3049 H   0  0  0  0  0  0  0  0  0  0  0  0
    2.2599   -4.7801    4.7601 H   0  0  0  0  0  0  0  0  0  0  0  0
    3.4038   -6.0270    4.0733 H   0  0  0  0  0  0  0  0  0  0  0  0
    4.4137   -3.4186    4.2322 H   0  0  0  0  0  0  0  0  0  0  0  0
    0.7507   -2.4212    3.3740 H   0  0  0  0  0  0  0  0  0  0  0  0
    1.7493   -2.7064    4.8097 H   0  0  0  0  0  0  0  0  0  0  0  0
    1.6425   -0.2372    3.6941 H   0  0  0  0  0  0  0  0  0  0  0  0
    3.1487   -0.8522    4.3533 H   0  0  0  0  0  0  0  0  0  0  0  0
    1.5776    0.1096    1.1877 H   0  0  0  0  0  0  0  0  0  0  0  0
    3.2222    0.1571    0.4942 H   0  0  0  0  0  0  0  0  0  0  0  0
    2.8558    1.0733    1.9546 H   0  0  0  0  0  0  0  0  0  0  0  0
    1.9123   -2.3142    1.1230 H   0  0  0  0  0  0  0  0  0  0  0  0
    5.2133   -0.5497   -0.7749 H   0  0  0  0  0  0  0  0  0  0  0  0
    4.5889    0.0109   -3.0711 H   0  0  0  0  0  0  0  0  0  0  0  0
    2.8805   -1.2704   -4.3179 H   0  0  0  0  0  0  0  0  0  0  0  0
    1.8190   -3.3177   -3.2870 H   0  0  0  0  0  0  0  0  0  0  0  0
    2.3619   -5.0195   -1.3720 H   0  0  0  0  0  0  0  0  0  0  0  0
    4.3804   -4.7421   -0.3226 H   0  0  0  0  0  0  0  0  0  0  0  0
    4.0610   -0.9097    2.4503 H   0  0  0  0  0  0  0  0  0  0  0  0
  1  2  1  0
  1 26  1  0
  1 27  1  0
  1 28  1  0
  2  3  2  0
  2  4  1  0
  4  5  1  0
  5 17  1  0
  5  6  1  0
  5 29  1  1
  6 10  1  0
  6  7  1  0
  6 30  1  1
  7 25  1  0
  7  8  1  0
  7 31  1  6
  8 11  1  0
  8  9  1  0
  8 32  1  6
  9 10  1  0
  9 33  1  0
  9 34  1  0
 10 11  1  0
 10 35  1  1
 11 16  1  0
 11 12  1  1
 12 13  1  0
 12 36  1  0
 12 37  1  0
 13 14  1  0
 13 38  1  0
 13 39  1  0
 14 15  1  0
 14 16  1  0
 14 50  1  1
 15 40  1  0
 15 41  1  0
 15 42  1  0
 16 17  1  0
 16 43  1  6
 17 25  1  0
 17 18  1  6
 18 23  2  0
 18 19  1  0
 19 20  2  0
 19 44  1  0
 20 21  1  0
 20 45  1  0
 21 22  2  0
 21 46  1  0
 22 23  1  0
 22 47  1  0
 23 24  1  0
 24 25  1  0
 24 48  1  0
 25 49  1  6
M  CHG  1  14   1
M  END
>  <i_m_ct_stereo_status>  (96) 
1

>  <s_m_source_file>  (96) 
/var/tmp/pbs.5076255.sched01/tmppfua8s0c/0korcpw03.sdf

>  <i_m_source_file_index>  (96) 
39

>  <i_lp_mmshare_version>  (96) 
48012

>  <i_f3d_flags>  (96) 
0

>  <s_epik_input>  (96) 
W0NAQF0xMjNbQ0BIXTRbQ0BASF01W0NASF0oW0NAQEhdMVtDSDJdNClbQ0BASF0oT0MoPU8pW0NIM10pW0NAQF02KFtDQEBIXTNOKFtDSDNdKVtDSDJdW0NIMl0yKWM3YyhbTkhdW0NASF01NilbY0hdW2NIXVtjSF1bY0hdNw==

>  <s_epik_cmdline>  (96) 
J2VwaWtfcHl0aG9uJywgJy1waHQnLCAnMi4wJywgJy1waCcsICc3LjAnLCAnLXRuJywgJzgnLCAnLW1hJywgJzIwMCcsICctaW1hZScsICc8aW5maWxlLm1hZT4nLCAnLW9tYWUnLCAnPG91dGZpbGUubWFlPic=

>  <r_epik_Ionization_Penalty>  (96) 
0.00625091

>  <r_epik_Ionization_Penalty_Charging>  (96) 
0.00273886

>  <r_epik_Ionization_Penalty_Neutral>  (96) 
0.00351205

>  <r_epik_State_Penalty>  (96) 
0.00539483

>  <r_epik_Charging_Adjusted_Penalty>  (96) 
0.00813369

>  <i_epik_Tot_Q>  (96) 
1

>  <i_epik_Tot_abs_Q>  (96) 
1

>  <s_epik_Chemistry_Notes>  (96) 
This compound has an ester and may undergo hydrolysis at high or low pH.

>  <s_lp_Force_Field>  (96) 
OPLS3e

>  <r_lp_Energy>  (96) 
86.2028

>  <b_lp_Chiralities_Consistent>  (96) 
1

>  <s_lp_Variant>  (96) 
24:0-1

>  <s_i_glide_gridfile>  (96) 
pfpi4k_grid

>  <i_i_glide_lignum>  (96) 
39

>  <i_i_glide_rotatable_bonds>  (96) 
2

>  <r_i_docking_score>  (96) 
-3.88357

>  <r_i_glide_ligand_efficiency>  (96) 
-0.155343

>  <r_i_glide_ligand_efficiency_sa>  (96) 
-0.454225

>  <r_i_glide_ligand_efficiency_ln>  (96) 
-0.920523

>  <r_i_glide_gscore>  (96) 
-3.88357

>  <r_i_glide_lipo>  (96) 
-0.24833

>  <r_i_glide_hbond>  (96) 
-0.32

>  <r_i_glide_metal>  (96) 
-0

>  <r_i_glide_rewards>  (96) 
-1.26896

>  <r_i_glide_evdw>  (96) 
-22.9742

>  <r_i_glide_ecoul>  (96) 
-6.631

>  <r_i_glide_erotb>  (96) 
0.165982

>  <r_i_glide_esite>  (96) 
-0.0689056

>  <r_i_glide_emodel>  (96) 
-33.0062

>  <r_i_glide_energy>  (96) 
-29.6052

>  <r_i_glide_einternal>  (96) 
5.88424

>  <r_i_glide_intrahb_reward>  (96) 
-0

>  <i_i_glide_confnum>  (96) 
2

>  <i_i_glide_posenum>  (96) 
24

>  <r_i_glide_eff_state_penalty>  (96) 
0

>  <ligand_id>  (96) 
24

>  <original_smiles>  (96) 
CC(=O)OC1C2C3C4CC2C42CCN(C)C2C12c1ccccc1NC32

>  <smiles>  (96) 
[H]c1c([H])c([H])c2c(c1[H])N([H])C1([H])C3([H])C4([H])C([H])(OC(=O)C([H])([H])[H])C21C1([H])C2(C([H])([H])C([H])([H])[N+]1([H])C([H])([H])[H])C4([H])C([H])([H])C32[H]

$$$$
24:0:2
     RDKit          3D

 50 56  0  0  1  0  0  0  0  0999 V2000
    8.5777   -3.8524   -1.7406 C   0  0  0  0  0  0  0  0  0  0  0  0
    7.8175   -3.0704   -0.6775 C   0  0  0  0  0  0  0  0  0  0  0  0
    8.1797   -1.9467   -0.3239 O   0  0  0  0  0  0  0  0  0  0  0  0
    6.7462   -3.7290   -0.2282 O   0  0  0  0  0  0  0  0  0  0  0  0
    5.9271   -3.1500    0.7830 C   0  0  2  0  0  0  0  0  0  0  0  0
    5.5400   -4.2282    1.8388 C   0  0  2  0  0  0  0  0  0  0  0  0
    4.1610   -4.8428    1.4503 C   0  0  1  0  0  0  0  0  0  0  0  0
    3.3523   -4.2790    2.6070 C   0  0  1  0  0  0  0  0  0  0  0  0
    4.1228   -4.4326    3.9149 C   0  0  0  0  0  0  0  0  0  0  0  0
    5.0440   -3.5259    3.0936 C   0  0  2  0  0  0  0  0  0  0  0  0
    3.7318   -2.7923    2.7325 C   0  0  2  0  0  0  0  0  0  0  0  0
    3.1491   -1.7336    3.6780 C   0  0  0  0  0  0  0  0  0  0  0  0
    3.8193   -0.4426    3.1969 C   0  0  0  0  0  0  0  0  0  0  0  0
    4.1563   -0.6512    1.7806 N   0  0  2  0  0  0  0  0  0  0  0  0
    3.6339    0.3964    0.9292 C   0  0  0  0  0  0  0  0  0  0  0  0
    3.7124   -2.0114    1.4309 C   0  0  1  0  0  0  0  0  0  0  0  0
    4.5285   -2.7421    0.2968 C   0  0  1  0  0  0  0  0  0  0  0  0
    4.1609   -2.3105   -1.0887 C   0  0  0  0  0  0  0  0  0  0  0  0
    4.7765   -1.3442   -1.9081 C   0  0  0  0  0  0  0  0  0  0  0  0
    4.1787   -1.0746   -3.1543 C   0  0  0  0  0  0  0  0  0  0  0  0
    3.0152   -1.7610   -3.5556 C   0  0  0  0  0  0  0  0  0  0  0  0
    2.4365   -2.7695   -2.7459 C   0  0  0  0  0  0  0  0  0  0  0  0
    3.0213   -3.0302   -1.4905 C   0  0  0  0  0  0  0  0  0  0  0  0
    2.6543   -4.0319   -0.5748 N   0  0  0  0  0  0  0  0  0  0  0  0
    3.9397   -4.1437    0.1224 C   0  0  2  0  0  0  0  0  0  0  0  0
    7.9293   -4.0510   -2.5997 H   0  0  0  0  0  0  0  0  0  0  0  0
    9.0233   -4.7665   -1.3438 H   0  0  0  0  0  0  0  0  0  0  0  0
    9.4056   -3.2841   -2.1799 H   0  0  0  0  0  0  0  0  0  0  0  0
    6.4118   -2.2940    1.2643 H   0  0  0  0  0  0  0  0  0  0  0  0
    6.3367   -4.9412    2.0566 H   0  0  0  0  0  0  0  0  0  0  0  0
    4.1574   -5.9270    1.4149 H   0  0  0  0  0  0  0  0  0  0  0  0
    2.2839   -4.4701    2.6562 H   0  0  0  0  0  0  0  0  0  0  0  0
    3.6708   -4.0174    4.8227 H   0  0  0  0  0  0  0  0  0  0  0  0
    4.5286   -5.4357    4.0528 H   0  0  0  0  0  0  0  0  0  0  0  0
    5.7405   -2.9210    3.6764 H   0  0  0  0  0  0  0  0  0  0  0  0
    2.0623   -1.6703    3.5304 H   0  0  0  0  0  0  0  0  0  0  0  0
    3.3441   -1.9122    4.7411 H   0  0  0  0  0  0  0  0  0  0  0  0
    3.1813    0.4182    3.3788 H   0  0  0  0  0  0  0  0  0  0  0  0
    4.7321   -0.2678    3.7590 H   0  0  0  0  0  0  0  0  0  0  0  0
    2.5393    0.4263    0.8575 H   0  0  0  0  0  0  0  0  0  0  0  0
    4.1119    0.2521   -0.0298 H   0  0  0  0  0  0  0  0  0  0  0  0
    3.9376    1.3458    1.3067 H   0  0  0  0  0  0  0  0  0  0  0  0
    2.6858   -1.9369    1.0841 H   0  0  0  0  0  0  0  0  0  0  0  0
    5.6640   -0.8207   -1.5928 H   0  0  0  0  0  0  0  0  0  0  0  0
    4.5753   -0.3047   -3.7992 H   0  0  0  0  0  0  0  0  0  0  0  0
    2.5198   -1.4948   -4.4782 H   0  0  0  0  0  0  0  0  0  0  0  0
    1.5365   -3.2893   -3.0446 H   0  0  0  0  0  0  0  0  0  0  0  0
    2.3227   -4.8605   -1.0704 H   0  0  0  0  0  0  0  0  0  0  0  0
    4.5602   -4.7132   -0.5815 H   0  0  0  0  0  0  0  0  0  0  0  0
    5.1519   -0.6227    1.7181 H   0  0  0  0  0  0  0  0  0  0  0  0
  1  2  1  0
  1 26  1  0
  1 27  1  0
  1 28  1  0
  2  3  2  0
  2  4  1  0
  4  5  1  0
  5 17  1  0
  5  6  1  0
  5 29  1  1
  6 10  1  0
  6  7  1  0
  6 30  1  1
  7 25  1  0
  7  8  1  0
  7 31  1  6
  8 11  1  0
  8  9  1  0
  8 32  1  1
  9 10  1  0
  9 33  1  0
  9 34  1  0
 10 11  1  0
 10 35  1  1
 11 16  1  0
 11 12  1  1
 12 13  1  0
 12 36  1  0
 12 37  1  0
 13 14  1  0
 13 38  1  0
 13 39  1  0
 14 15  1  0
 14 16  1  0
 14 50  1  1
 15 40  1  0
 15 41  1  0
 15 42  1  0
 16 17  1  0
 16 43  1  6
 17 25  1  0
 17 18  1  6
 18 23  2  0
 18 19  1  0
 19 20  2  0
 19 44  1  0
 20 21  1  0
 20 45  1  0
 21 22  2  0
 21 46  1  0
 22 23  1  0
 22 47  1  0
 23 24  1  0
 24 25  1  0
 24 48  1  0
 25 49  1  6
M  CHG  1  14   1
M  END
>  <i_m_ct_stereo_status>  (97) 
1

>  <s_m_source_file>  (97) 
/var/tmp/pbs.5076255.sched01/tmppfua8s0c/0korcpw03.sdf

>  <i_m_source_file_index>  (97) 
39

>  <i_lp_mmshare_version>  (97) 
48012

>  <i_f3d_flags>  (97) 
0

>  <s_epik_input>  (97) 
W0NAQF0xMjNbQ0BIXTRbQ0BASF01W0NASF0oW0NAQEhdMVtDSDJdNClbQ0BASF0oT0MoPU8pW0NIM10pW0NAQF02KFtDQEBIXTNOKFtDSDNdKVtDSDJdW0NIMl0yKWM3YyhbTkhdW0NASF01NilbY0hdW2NIXVtjSF1bY0hdNw==

>  <s_epik_cmdline>  (97) 
J2VwaWtfcHl0aG9uJywgJy1waHQnLCAnMi4wJywgJy1waCcsICc3LjAnLCAnLXRuJywgJzgnLCAnLW1hJywgJzIwMCcsICctaW1hZScsICc8aW5maWxlLm1hZT4nLCAnLW9tYWUnLCAnPG91dGZpbGUubWFlPic=

>  <r_epik_Ionization_Penalty>  (97) 
0.00625091

>  <r_epik_Ionization_Penalty_Charging>  (97) 
0.00273886

>  <r_epik_Ionization_Penalty_Neutral>  (97) 
0.00351205

>  <r_epik_State_Penalty>  (97) 
0.00539483

>  <r_epik_Charging_Adjusted_Penalty>  (97) 
0.00813369

>  <i_epik_Tot_Q>  (97) 
1

>  <i_epik_Tot_abs_Q>  (97) 
1

>  <s_epik_Chemistry_Notes>  (97) 
This compound has an ester and may undergo hydrolysis at high or low pH.

>  <s_lp_Force_Field>  (97) 
OPLS3e

>  <r_lp_Energy>  (97) 
86.2028

>  <b_lp_Chiralities_Consistent>  (97) 
1

>  <s_lp_Variant>  (97) 
24:0-1

>  <s_i_glide_gridfile>  (97) 
pfpi4k_grid

>  <i_i_glide_lignum>  (97) 
39

>  <i_i_glide_rotatable_bonds>  (97) 
2

>  <r_i_docking_score>  (97) 
-3.74771

>  <r_i_glide_ligand_efficiency>  (97) 
-0.149908

>  <r_i_glide_ligand_efficiency_sa>  (97) 
-0.438335

>  <r_i_glide_ligand_efficiency_ln>  (97) 
-0.88832

>  <r_i_glide_gscore>  (97) 
-3.74771

>  <r_i_glide_lipo>  (97) 
-0.537468

>  <r_i_glide_hbond>  (97) 
-0.352471

>  <r_i_glide_metal>  (97) 
-0

>  <r_i_glide_rewards>  (97) 
-1.21512

>  <r_i_glide_evdw>  (97) 
-18.9747

>  <r_i_glide_ecoul>  (97) 
-5.41689

>  <r_i_glide_erotb>  (97) 
0.165982

>  <r_i_glide_esite>  (97) 
-0.0473627

>  <r_i_glide_emodel>  (97) 
-31.2194

>  <r_i_glide_energy>  (97) 
-24.3915

>  <r_i_glide_einternal>  (97) 
0.570333

>  <r_i_glide_intrahb_reward>  (97) 
-0

>  <i_i_glide_confnum>  (97) 
4

>  <i_i_glide_posenum>  (97) 
27

>  <r_i_glide_eff_state_penalty>  (97) 
0

>  <ligand_id>  (97) 
24

>  <original_smiles>  (97) 
CC(=O)OC1C2C3C4CC2C42CCN(C)C2C12c1ccccc1NC32

>  <smiles>  (97) 
[H]c1c([H])c([H])c2c(c1[H])N([H])C1([H])C3([H])C4([H])C([H])(OC(=O)C([H])([H])[H])C21C1([H])C2(C([H])([H])C([H])([H])[N+]1([H])C([H])([H])[H])C4([H])C([H])([H])C32[H]

$$$$
25:0:0
     RDKit          3D

 20 20  0  0  1  0  0  0  0  0999 V2000
    1.1205   -4.7174    7.0726 C   0  0  0  0  0  0  0  0  0  0  0  0
    0.9977   -6.1909    6.9406 C   0  0  0  0  0  0  0  0  0  0  0  0
    0.1993   -6.7639    6.0365 N   0  0  0  0  0  0  0  0  0  0  0  0
    0.2664   -8.1642    6.0428 C   0  0  0  0  0  0  0  0  0  0  0  0
   -0.5636   -8.9735    5.0894 C   0  0  0  0  0  0  0  0  0  0  0  0
   -0.6299   -8.1791    3.4130 S   0  0  0  0  0  0  0  0  0  0  0  0
   -1.3224   -9.5048    2.3605 C   0  0  0  0  0  0  0  0  0  0  0  0
   -1.6032   -7.0730    3.4276 O   0  0  0  0  0  0  0  0  0  0  0  0
    0.7428   -7.9184    2.9576 O   0  0  0  0  0  0  0  0  0  0  0  0
    1.1023   -8.6440    7.0304 C   0  0  0  0  0  0  0  0  0  0  0  0
    1.8647   -7.3590    7.9264 S   0  0  0  0  0  0  0  0  0  0  0  0
    0.4628   -4.2386    6.3444 H   0  0  0  0  0  0  0  0  0  0  0  0
    2.1473   -4.4055    6.8686 H   0  0  0  0  0  0  0  0  0  0  0  0
    0.8239   -4.4048    8.0767 H   0  0  0  0  0  0  0  0  0  0  0  0
   -0.1839   -9.9930    4.9822 H   0  0  0  0  0  0  0  0  0  0  0  0
   -1.5840   -9.0457    5.4518 H   0  0  0  0  0  0  0  0  0  0  0  0
   -1.3872   -9.1359    1.3387 H   0  0  0  0  0  0  0  0  0  0  0  0
   -2.3130   -9.7799    2.7143 H   0  0  0  0  0  0  0  0  0  0  0  0
   -0.6548  -10.3665    2.3784 H   0  0  0  0  0  0  0  0  0  0  0  0
    1.3183   -9.6708    7.2850 H   0  0  0  0  0  0  0  0  0  0  0  0
  1  2  1  0
  1 12  1  0
  1 13  1  0
  1 14  1  0
  2 11  1  0
  2  3  2  0
  3  4  1  0
  4  5  1  0
  4 10  2  0
  5  6  1  0
  5 15  1  0
  5 16  1  0
  6  7  1  0
  6  8  2  0
  6  9  2  0
  7 17  1  0
  7 18  1  0
  7 19  1  0
 10 11  1  0
 10 20  1  0
M  END
>  <i_m_ct_stereo_status>  (98) 
1

>  <s_m_source_file>  (98) 
/var/tmp/pbs.5076255.sched01/tmppfua8s0c/0korcpw03.sdf

>  <i_m_source_file_index>  (98) 
40

>  <i_lp_mmshare_version>  (98) 
48012

>  <i_f3d_flags>  (98) 
0

>  <s_epik_input>  (98) 
W0NIM11jMW5jKFtjSF1zMSlbQ0gyXVMoPU8pKD1PKVtDSDNd

>  <s_epik_cmdline>  (98) 
J2VwaWtfcHl0aG9uJywgJy1waHQnLCAnMi4wJywgJy1waCcsICc3LjAnLCAnLXRuJywgJzgnLCAnLW1hJywgJzIwMCcsICctaW1hZScsICc8aW5maWxlLm1hZT4nLCAnLW9tYWUnLCAnPG91dGZpbGUubWFlPic=

>  <r_lp_tautomer_probability>  (98) 
1

>  <r_epik_Ionization_Penalty>  (98) 
3.65678e-06

>  <r_epik_Ionization_Penalty_Charging>  (98) 
0

>  <r_epik_Ionization_Penalty_Neutral>  (98) 
3.65678e-06

>  <r_epik_State_Penalty>  (98) 
-0

>  <r_epik_Charging_Adjusted_Penalty>  (98) 
0

>  <i_epik_Tot_Q>  (98) 
0

>  <i_epik_Tot_abs_Q>  (98) 
0

>  <s_lp_Force_Field>  (98) 
OPLS3e

>  <r_lp_Energy>  (98) 
-7.86867

>  <b_lp_Chiralities_Consistent>  (98) 
1

>  <s_lp_Variant>  (98) 
25:0-1

>  <s_i_glide_gridfile>  (98) 
pfpi4k_grid

>  <i_i_glide_lignum>  (98) 
40

>  <i_i_glide_rotatable_bonds>  (98) 
2

>  <r_i_docking_score>  (98) 
-3.60694

>  <r_i_glide_ligand_efficiency>  (98) 
-0.327904

>  <r_i_glide_ligand_efficiency_sa>  (98) 
-0.729251

>  <r_i_glide_ligand_efficiency_ln>  (98) 
-1.06152

>  <r_i_glide_gscore>  (98) 
-3.60694

>  <r_i_glide_lipo>  (98) 
-0.258461

>  <r_i_glide_hbond>  (98) 
0

>  <r_i_glide_metal>  (98) 
-0

>  <r_i_glide_rewards>  (98) 
-2.10496

>  <r_i_glide_evdw>  (98) 
-13.8237

>  <r_i_glide_ecoul>  (98) 
-5.54834

>  <r_i_glide_erotb>  (98) 
0.439756

>  <r_i_glide_esite>  (98) 
-0.159843

>  <r_i_glide_emodel>  (98) 
-24.7729

>  <r_i_glide_energy>  (98) 
-19.3721

>  <r_i_glide_einternal>  (98) 
0.947977

>  <r_i_glide_intrahb_reward>  (98) 
-0

>  <i_i_glide_confnum>  (98) 
3

>  <i_i_glide_posenum>  (98) 
1

>  <r_i_glide_eff_state_penalty>  (98) 
0

>  <ligand_id>  (98) 
25

>  <original_smiles>  (98) 
Cc1nc(CS(C)(=O)=O)cs1

>  <smiles>  (98) 
[H]c1sc(C([H])([H])[H])nc1C([H])([H])S(=O)(=O)C([H])([H])[H]

$$$$
25:0:1
     RDKit          3D

 20 20  0  0  1  0  0  0  0  0999 V2000
    0.8147   -2.5529    4.2524 C   0  0  0  0  0  0  0  0  0  0  0  0
    0.6252   -3.8854    4.8878 C   0  0  0  0  0  0  0  0  0  0  0  0
    0.6263   -5.0289    4.1971 N   0  0  0  0  0  0  0  0  0  0  0  0
    0.4171   -6.1561    4.9947 C   0  0  0  0  0  0  0  0  0  0  0  0
    0.4456   -7.5171    4.3633 C   0  0  0  0  0  0  0  0  0  0  0  0
   -0.8618   -7.6757    3.0616 S   0  0  0  0  0  0  0  0  0  0  0  0
   -0.6642   -9.4157    2.4997 C   0  0  0  0  0  0  0  0  0  0  0  0
   -2.1857   -7.5398    3.6892 O   0  0  0  0  0  0  0  0  0  0  0  0
   -0.5291   -6.7770    1.9407 O   0  0  0  0  0  0  0  0  0  0  0  0
    0.2755   -5.8401    6.3255 C   0  0  0  0  0  0  0  0  0  0  0  0
    0.3746   -4.1218    6.6125 S   0  0  0  0  0  0  0  0  0  0  0  0
    0.9273   -2.6841    3.1795 H   0  0  0  0  0  0  0  0  0  0  0  0
    1.7110   -2.0659    4.6376 H   0  0  0  0  0  0  0  0  0  0  0  0
   -0.0522   -1.9179    4.4328 H   0  0  0  0  0  0  0  0  0  0  0  0
    1.4110   -7.6813    3.8865 H   0  0  0  0  0  0  0  0  0  0  0  0
    0.3070   -8.3200    5.0893 H   0  0  0  0  0  0  0  0  0  0  0  0
   -1.3906   -9.6215    1.7131 H   0  0  0  0  0  0  0  0  0  0  0  0
   -0.8410  -10.0935    3.3378 H   0  0  0  0  0  0  0  0  0  0  0  0
    0.3396   -9.5687    2.0982 H   0  0  0  0  0  0  0  0  0  0  0  0
    0.1588   -6.5064    7.1651 H   0  0  0  0  0  0  0  0  0  0  0  0
  1  2  1  0
  1 12  1  0
  1 13  1  0
  1 14  1  0
  2 11  1  0
  2  3  2  0
  3  4  1  0
  4  5  1  0
  4 10  2  0
  5  6  1  0
  5 15  1  0
  5 16  1  0
  6  7  1  0
  6  8  2  0
  6  9  2  0
  7 17  1  0
  7 18  1  0
  7 19  1  0
 10 11  1  0
 10 20  1  0
M  END
>  <i_m_ct_stereo_status>  (99) 
1

>  <s_m_source_file>  (99) 
/var/tmp/pbs.5076255.sched01/tmppfua8s0c/0korcpw03.sdf

>  <i_m_source_file_index>  (99) 
40

>  <i_lp_mmshare_version>  (99) 
48012

>  <i_f3d_flags>  (99) 
0

>  <s_epik_input>  (99) 
W0NIM11jMW5jKFtjSF1zMSlbQ0gyXVMoPU8pKD1PKVtDSDNd

>  <s_epik_cmdline>  (99) 
J2VwaWtfcHl0aG9uJywgJy1waHQnLCAnMi4wJywgJy1waCcsICc3LjAnLCAnLXRuJywgJzgnLCAnLW1hJywgJzIwMCcsICctaW1hZScsICc8aW5maWxlLm1hZT4nLCAnLW9tYWUnLCAnPG91dGZpbGUubWFlPic=

>  <r_lp_tautomer_probability>  (99) 
1

>  <r_epik_Ionization_Penalty>  (99) 
3.65678e-06

>  <r_epik_Ionization_Penalty_Charging>  (99) 
0

>  <r_epik_Ionization_Penalty_Neutral>  (99) 
3.65678e-06

>  <r_epik_State_Penalty>  (99) 
-0

>  <r_epik_Charging_Adjusted_Penalty>  (99) 
0

>  <i_epik_Tot_Q>  (99) 
0

>  <i_epik_Tot_abs_Q>  (99) 
0

>  <s_lp_Force_Field>  (99) 
OPLS3e

>  <r_lp_Energy>  (99) 
-7.86867

>  <b_lp_Chiralities_Consistent>  (99) 
1

>  <s_lp_Variant>  (99) 
25:0-1

>  <s_i_glide_gridfile>  (99) 
pfpi4k_grid

>  <i_i_glide_lignum>  (99) 
40

>  <i_i_glide_rotatable_bonds>  (99) 
2

>  <r_i_docking_score>  (99) 
-3.60287

>  <r_i_glide_ligand_efficiency>  (99) 
-0.327534

>  <r_i_glide_ligand_efficiency_sa>  (99) 
-0.728429

>  <r_i_glide_ligand_efficiency_ln>  (99) 
-1.06032

>  <r_i_glide_gscore>  (99) 
-3.60287

>  <r_i_glide_lipo>  (99) 
-0.15501

>  <r_i_glide_hbond>  (99) 
0

>  <r_i_glide_metal>  (99) 
-0

>  <r_i_glide_rewards>  (99) 
-2.10496

>  <r_i_glide_evdw>  (99) 
-14.9179

>  <r_i_glide_ecoul>  (99) 
-5.4066

>  <r_i_glide_erotb>  (99) 
0.439756

>  <r_i_glide_esite>  (99) 
-0.225775

>  <r_i_glide_emodel>  (99) 
-26.0549

>  <r_i_glide_energy>  (99) 
-20.3245

>  <r_i_glide_einternal>  (99) 
0.244595

>  <r_i_glide_intrahb_reward>  (99) 
-0

>  <i_i_glide_confnum>  (99) 
2

>  <i_i_glide_posenum>  (99) 
27

>  <r_i_glide_eff_state_penalty>  (99) 
0

>  <ligand_id>  (99) 
25

>  <original_smiles>  (99) 
Cc1nc(CS(C)(=O)=O)cs1

>  <smiles>  (99) 
[H]c1sc(C([H])([H])[H])nc1C([H])([H])S(=O)(=O)C([H])([H])[H]

$$$$
25:0:2
     RDKit          3D

 20 20  0  0  1  0  0  0  0  0999 V2000
    1.1777   -4.5865    6.3897 C   0  0  0  0  0  0  0  0  0  0  0  0
    1.0356   -6.0604    6.2550 C   0  0  0  0  0  0  0  0  0  0  0  0
    0.1157   -6.6204    5.4715 N   0  0  0  0  0  0  0  0  0  0  0  0
    0.2133   -8.0105    5.4172 C   0  0  0  0  0  0  0  0  0  0  0  0
   -0.7311   -8.7752    4.5427 C   0  0  0  0  0  0  0  0  0  0  0  0
   -0.7972   -8.1403    2.7984 S   0  0  0  0  0  0  0  0  0  0  0  0
    0.8574   -8.5900    2.1444 C   0  0  0  0  0  0  0  0  0  0  0  0
   -1.8116   -8.9224    2.0782 O   0  0  0  0  0  0  0  0  0  0  0  0
   -0.8902   -6.6701    2.7714 O   0  0  0  0  0  0  0  0  0  0  0  0
    1.1678   -8.5096    6.2730 C   0  0  0  0  0  0  0  0  0  0  0  0
    2.0402   -7.2393    7.0898 S   0  0  0  0  0  0  0  0  0  0  0  0
    0.4382   -4.0912    5.7639 H   0  0  0  0  0  0  0  0  0  0  0  0
    2.1673   -4.2652    6.0642 H   0  0  0  0  0  0  0  0  0  0  0  0
    1.0154   -4.2868    7.4236 H   0  0  0  0  0  0  0  0  0  0  0  0
   -0.4930   -9.8387    4.5049 H   0  0  0  0  0  0  0  0  0  0  0  0
   -1.7382   -8.7208    4.9422 H   0  0  0  0  0  0  0  0  0  0  0  0
    0.9211   -8.2544    1.1122 H   0  0  0  0  0  0  0  0  0  0  0  0
    0.9690   -9.6728    2.1627 H   0  0  0  0  0  0  0  0  0  0  0  0
    1.6397   -8.1124    2.7357 H   0  0  0  0  0  0  0  0  0  0  0  0
    1.4023   -9.5450    6.4785 H   0  0  0  0  0  0  0  0  0  0  0  0
  1  2  1  0
  1 12  1  0
  1 13  1  0
  1 14  1  0
  2 11  1  0
  2  3  2  0
  3  4  1  0
  4  5  1  0
  4 10  2  0
  5  6  1  0
  5 15  1  0
  5 16  1  0
  6  7  1  0
  6  8  2  0
  6  9  2  0
  7 17  1  0
  7 18  1  0
  7 19  1  0
 10 11  1  0
 10 20  1  0
M  END
>  <i_m_ct_stereo_status>  (100) 
1

>  <s_m_source_file>  (100) 
/var/tmp/pbs.5076255.sched01/tmppfua8s0c/0korcpw03.sdf

>  <i_m_source_file_index>  (100) 
40

>  <i_lp_mmshare_version>  (100) 
48012

>  <i_f3d_flags>  (100) 
0

>  <s_epik_input>  (100) 
W0NIM11jMW5jKFtjSF1zMSlbQ0gyXVMoPU8pKD1PKVtDSDNd

>  <s_epik_cmdline>  (100) 
J2VwaWtfcHl0aG9uJywgJy1waHQnLCAnMi4wJywgJy1waCcsICc3LjAnLCAnLXRuJywgJzgnLCAnLW1hJywgJzIwMCcsICctaW1hZScsICc8aW5maWxlLm1hZT4nLCAnLW9tYWUnLCAnPG91dGZpbGUubWFlPic=

>  <r_lp_tautomer_probability>  (100) 
1

>  <r_epik_Ionization_Penalty>  (100) 
3.65678e-06

>  <r_epik_Ionization_Penalty_Charging>  (100) 
0

>  <r_epik_Ionization_Penalty_Neutral>  (100) 
3.65678e-06

>  <r_epik_State_Penalty>  (100) 
-0

>  <r_epik_Charging_Adjusted_Penalty>  (100) 
0

>  <i_epik_Tot_Q>  (100) 
0

>  <i_epik_Tot_abs_Q>  (100) 
0

>  <s_lp_Force_Field>  (100) 
OPLS3e

>  <r_lp_Energy>  (100) 
-7.86867

>  <b_lp_Chiralities_Consistent>  (100) 
1

>  <s_lp_Variant>  (100) 
25:0-1

>  <s_i_glide_gridfile>  (100) 
pfpi4k_grid

>  <i_i_glide_lignum>  (100) 
40

>  <i_i_glide_rotatable_bonds>  (100) 
2

>  <r_i_docking_score>  (100) 
-3.54521

>  <r_i_glide_ligand_efficiency>  (100) 
-0.322292

>  <r_i_glide_ligand_efficiency_sa>  (100) 
-0.716771

>  <r_i_glide_ligand_efficiency_ln>  (100) 
-1.04336

>  <r_i_glide_gscore>  (100) 
-3.54521

>  <r_i_glide_lipo>  (100) 
0

>  <r_i_glide_hbond>  (100) 
0

>  <r_i_glide_metal>  (100) 
-0

>  <r_i_glide_rewards>  (100) 
-2.10496

>  <r_i_glide_evdw>  (100) 
-12.7796

>  <r_i_glide_ecoul>  (100) 
-7.21722

>  <r_i_glide_erotb>  (100) 
0.439756

>  <r_i_glide_esite>  (100) 
-0.15845

>  <r_i_glide_emodel>  (100) 
-25.0845

>  <r_i_glide_energy>  (100) 
-19.9968

>  <r_i_glide_einternal>  (100) 
1.03246

>  <r_i_glide_intrahb_reward>  (100) 
-0

>  <i_i_glide_confnum>  (100) 
3

>  <i_i_glide_posenum>  (100) 
22

>  <r_i_glide_eff_state_penalty>  (100) 
0

>  <ligand_id>  (100) 
25

>  <original_smiles>  (100) 
Cc1nc(CS(C)(=O)=O)cs1

>  <smiles>  (100) 
[H]c1sc(C([H])([H])[H])nc1C([H])([H])S(=O)(=O)C([H])([H])[H]

$$$$
26:0:0
     RDKit          3D

 44 47  0  0  1  0  0  0  0  0999 V2000
    5.6465   -0.6556    2.1802 C   0  0  0  0  0  0  0  0  0  0  0  0
    4.6916   -1.5325    1.3528 C   0  0  2  0  0  0  0  0  0  0  0  0
    3.6032   -0.6652    0.6704 C   0  0  0  0  0  0  0  0  0  0  0  0
    2.5731   -0.0821    1.6588 C   0  0  0  0  0  0  0  0  0  0  0  0
    1.8643   -1.1920    2.4611 C   0  0  2  0  0  0  0  0  0  0  0  0
    0.8516   -0.6941    3.4991 C   0  0  0  0  0  0  0  0  0  0  0  0
    0.4389    0.6553    3.5953 C   0  0  0  0  0  0  0  0  0  0  0  0
   -0.4733    1.0473    4.5957 C   0  0  0  0  0  0  0  0  0  0  0  0
   -0.9906    0.0981    5.5021 C   0  0  0  0  0  0  0  0  0  0  0  0
   -1.8664    0.4839    6.4786 O   0  0  0  0  0  0  0  0  0  0  0  0
   -0.5881   -1.2449    5.4038 C   0  0  0  0  0  0  0  0  0  0  0  0
    0.3302   -1.6372    4.4080 C   0  0  0  0  0  0  0  0  0  0  0  0
    0.7545   -3.0853    4.2715 C   0  0  0  0  0  0  0  0  0  0  0  0
    2.2555   -3.2597    3.9883 C   0  0  0  0  0  0  0  0  0  0  0  0
    2.8972   -2.1206    3.1513 C   0  0  1  0  0  0  0  0  0  0  0  0
    4.0272   -2.6297    2.2099 C   0  0  1  0  0  0  0  0  0  0  0  0
    3.6437   -3.7372    1.2066 C   0  0  0  0  0  0  0  0  0  0  0  0
    4.6014   -3.5890    0.0103 C   0  0  0  0  0  0  0  0  0  0  0  0
    5.4902   -2.3803    0.3347 C   0  0  1  0  0  0  0  0  0  0  0  0
    5.9086   -1.6723   -0.8178 O   0  0  0  0  0  0  0  0  0  0  0  0
    6.1343    0.0705    1.5318 H   0  0  0  0  0  0  0  0  0  0  0  0
    6.4269   -1.2552    2.6471 H   0  0  0  0  0  0  0  0  0  0  0  0
    5.1333   -0.1160    2.9758 H   0  0  0  0  0  0  0  0  0  0  0  0
    4.0774    0.1442    0.1161 H   0  0  0  0  0  0  0  0  0  0  0  0
    3.0621   -1.2552   -0.0714 H   0  0  0  0  0  0  0  0  0  0  0  0
    3.0561    0.6334    2.3249 H   0  0  0  0  0  0  0  0  0  0  0  0
    1.8326    0.4785    1.0859 H   0  0  0  0  0  0  0  0  0  0  0  0
    1.3029   -1.7922    1.7477 H   0  0  0  0  0  0  0  0  0  0  0  0
    0.8162    1.4078    2.9189 H   0  0  0  0  0  0  0  0  0  0  0  0
   -0.7689    2.0840    4.6653 H   0  0  0  0  0  0  0  0  0  0  0  0
   -2.0305    1.4171    6.4481 H   0  0  0  0  0  0  0  0  0  0  0  0
   -0.9799   -1.9789    6.0919 H   0  0  0  0  0  0  0  0  0  0  0  0
    0.4425   -3.6718    5.1354 H   0  0  0  0  0  0  0  0  0  0  0  0
    0.2168   -3.4779    3.4141 H   0  0  0  0  0  0  0  0  0  0  0  0
    2.7746   -3.2922    4.9435 H   0  0  0  0  0  0  0  0  0  0  0  0
    2.4227   -4.2402    3.5430 H   0  0  0  0  0  0  0  0  0  0  0  0
    3.3911   -1.4753    3.8805 H   0  0  0  0  0  0  0  0  0  0  0  0
    4.8044   -3.0552    2.8476 H   0  0  0  0  0  0  0  0  0  0  0  0
    3.7340   -4.7252    1.6621 H   0  0  0  0  0  0  0  0  0  0  0  0
    2.6094   -3.6247    0.8719 H   0  0  0  0  0  0  0  0  0  0  0  0
    5.2008   -4.4884   -0.1415 H   0  0  0  0  0  0  0  0  0  0  0  0
    4.0209   -3.4331   -0.9002 H   0  0  0  0  0  0  0  0  0  0  0  0
    6.3886   -2.7610    0.8235 H   0  0  0  0  0  0  0  0  0  0  0  0
    5.1293   -1.3889   -1.2781 H   0  0  0  0  0  0  0  0  0  0  0  0
  2  1  1  1
  1 21  1  0
  1 22  1  0
  1 23  1  0
  2 16  1  0
  2 19  1  0
  2  3  1  0
  3  4  1  0
  3 24  1  0
  3 25  1  0
  4  5  1  0
  4 26  1  0
  4 27  1  0
  5 15  1  0
  5  6  1  0
  5 28  1  6
  6 12  2  0
  6  7  1  0
  7  8  2  0
  7 29  1  0
  8  9  1  0
  8 30  1  0
  9 10  1  0
  9 11  2  0
 10 31  1  0
 11 12  1  0
 11 32  1  0
 12 13  1  0
 13 14  1  0
 13 33  1  0
 13 34  1  0
 14 15  1  0
 14 35  1  0
 14 36  1  0
 15 16  1  0
 15 37  1  1
 16 17  1  0
 16 38  1  1
 17 18  1  0
 17 39  1  0
 17 40  1  0
 18 19  1  0
 18 41  1  0
 18 42  1  0
 19 20  1  0
 19 43  1  1
 20 44  1  0
M  END
>  <i_m_ct_stereo_status>  (101) 
1

>  <s_m_source_file>  (101) 
/var/tmp/pbs.5076255.sched01/tmppfua8s0c/0korcpw03.sdf

>  <i_m_source_file_index>  (101) 
41

>  <i_lp_mmshare_version>  (101) 
48012

>  <i_f3d_flags>  (101) 
0

>  <s_epik_input>  (101) 
W09IXVtDQEBIXTFbQ0gyXVtDSDJdW0NAQEhdKFtDQEBdMTJbQ0gzXSlbQ0BIXTNbQ0BIXShbQ0gyXVtDSDJdMiljNGMoW0NIMl1bQ0gyXTMpW2NIXWMoW09IXSlbY0hdW2NIXTQ=

>  <s_epik_cmdline>  (101) 
J2VwaWtfcHl0aG9uJywgJy1waHQnLCAnMi4wJywgJy1waCcsICc3LjAnLCAnLXRuJywgJzgnLCAnLW1hJywgJzIwMCcsICctaW1hZScsICc8aW5maWxlLm1hZT4nLCAnLW9tYWUnLCAnPG91dGZpbGUubWFlPic=

>  <r_lp_tautomer_probability>  (101) 
1

>  <r_epik_Ionization_Penalty>  (101) 
0.000144805

>  <r_epik_Ionization_Penalty_Charging>  (101) 
0

>  <r_epik_Ionization_Penalty_Neutral>  (101) 
0.000144805

>  <r_epik_State_Penalty>  (101) 
-0

>  <r_epik_Charging_Adjusted_Penalty>  (101) 
0

>  <i_epik_Tot_Q>  (101) 
0

>  <i_epik_Tot_abs_Q>  (101) 
0

>  <s_lp_Force_Field>  (101) 
OPLS3e

>  <r_lp_Energy>  (101) 
35.5411

>  <b_lp_Chiralities_Consistent>  (101) 
1

>  <s_lp_Variant>  (101) 
26:0-1

>  <s_i_glide_gridfile>  (101) 
pfpi4k_grid

>  <i_i_glide_lignum>  (101) 
41

>  <i_i_glide_rotatable_bonds>  (101) 
2

>  <r_i_docking_score>  (101) 
-3.67883

>  <r_i_glide_ligand_efficiency>  (101) 
-0.183941

>  <r_i_glide_ligand_efficiency_sa>  (101) 
-0.499294

>  <r_i_glide_ligand_efficiency_ln>  (101) 
-0.920689

>  <r_i_glide_gscore>  (101) 
-3.67883

>  <r_i_glide_lipo>  (101) 
-0.211598

>  <r_i_glide_hbond>  (101) 
-0.200182

>  <r_i_glide_metal>  (101) 
-0

>  <r_i_glide_rewards>  (101) 
-1.55194

>  <r_i_glide_evdw>  (101) 
-20.1101

>  <r_i_glide_ecoul>  (101) 
-4.73066

>  <r_i_glide_erotb>  (101) 
0

>  <r_i_glide_esite>  (101) 
0

>  <r_i_glide_emodel>  (101) 
-31.1471

>  <r_i_glide_energy>  (101) 
-24.8408

>  <r_i_glide_einternal>  (101) 
0.00188345

>  <r_i_glide_intrahb_reward>  (101) 
-0

>  <i_i_glide_confnum>  (101) 
2

>  <i_i_glide_posenum>  (101) 
29

>  <r_i_glide_eff_state_penalty>  (101) 
0

>  <ligand_id>  (101) 
26

>  <original_smiles>  (101) 
CC12CCC3c4ccc(O)cc4CCC3C1CCC2O

>  <smiles>  (101) 
[H]Oc1c([H])c([H])c2c(c1[H])C([H])([H])C([H])([H])C1([H])C2([H])C([H])([H])C([H])([H])C2(C([H])([H])[H])C([H])(O[H])C([H])([H])C([H])([H])C12[H]

$$$$
26:0:1
     RDKit          3D

 44 47  0  0  1  0  0  0  0  0999 V2000
    4.0077   -1.2935    1.3691 C   0  0  0  0  0  0  0  0  0  0  0  0
    3.7713   -1.5761    2.8690 C   0  0  2  0  0  0  0  0  0  0  0  0
    2.3359   -2.1184    3.1159 C   0  0  0  0  0  0  0  0  0  0  0  0
    1.2410   -1.0520    2.9245 C   0  0  0  0  0  0  0  0  0  0  0  0
    1.4627    0.1643    3.8466 C   0  0  2  0  0  0  0  0  0  0  0  0
    0.4357    1.2914    3.6904 C   0  0  0  0  0  0  0  0  0  0  0  0
   -0.7288    1.1751    2.9003 C   0  0  0  0  0  0  0  0  0  0  0  0
   -1.6146    2.2607    2.7807 C   0  0  0  0  0  0  0  0  0  0  0  0
   -1.3455    3.4780    3.4355 C   0  0  0  0  0  0  0  0  0  0  0  0
   -2.1938    4.5353    3.2804 O   0  0  0  0  0  0  0  0  0  0  0  0
   -0.1874    3.6002    4.2241 C   0  0  0  0  0  0  0  0  0  0  0  0
    0.6950    2.5098    4.3526 C   0  0  0  0  0  0  0  0  0  0  0  0
    1.9339    2.6123    5.2196 C   0  0  0  0  0  0  0  0  0  0  0  0
    3.1793    1.9725    4.5762 C   0  0  0  0  0  0  0  0  0  0  0  0
    2.8923    0.7422    3.6731 C   0  0  1  0  0  0  0  0  0  0  0  0
    4.0192   -0.3266    3.7407 C   0  0  1  0  0  0  0  0  0  0  0  0
    4.3601   -0.8766    5.1420 C   0  0  0  0  0  0  0  0  0  0  0  0
    4.9174   -2.2914    4.9265 C   0  0  0  0  0  0  0  0  0  0  0  0
    4.8587   -2.5297    3.4147 C   0  0  1  0  0  0  0  0  0  0  0  0
    4.6380   -3.8911    3.1117 O   0  0  0  0  0  0  0  0  0  0  0  0
    3.8750   -2.1981    0.7746 H   0  0  0  0  0  0  0  0  0  0  0  0
    5.0194   -0.9272    1.1891 H   0  0  0  0  0  0  0  0  0  0  0  0
    3.3206   -0.5427    0.9813 H   0  0  0  0  0  0  0  0  0  0  0  0
    2.1390   -2.9642    2.4567 H   0  0  0  0  0  0  0  0  0  0  0  0
    2.2569   -2.5133    4.1302 H   0  0  0  0  0  0  0  0  0  0  0  0
    1.2043   -0.7409    1.8799 H   0  0  0  0  0  0  0  0  0  0  0  0
    0.2756   -1.5051    3.1468 H   0  0  0  0  0  0  0  0  0  0  0  0
    1.3685   -0.1870    4.8717 H   0  0  0  0  0  0  0  0  0  0  0  0
   -0.9556    0.2697    2.3615 H   0  0  0  0  0  0  0  0  0  0  0  0
   -2.4916    2.1629    2.1590 H   0  0  0  0  0  0  0  0  0  0  0  0
   -2.7646    4.3971    2.5375 H   0  0  0  0  0  0  0  0  0  0  0  0
    0.0276    4.5358    4.7172 H   0  0  0  0  0  0  0  0  0  0  0  0
    2.1279    3.6480    5.4977 H   0  0  0  0  0  0  0  0  0  0  0  0
    1.7006    2.0793    6.1433 H   0  0  0  0  0  0  0  0  0  0  0  0
    3.6614    2.7238    3.9506 H   0  0  0  0  0  0  0  0  0  0  0  0
    3.9047    1.7495    5.3569 H   0  0  0  0  0  0  0  0  0  0  0  0
    2.9093    1.1249    2.6502 H   0  0  0  0  0  0  0  0  0  0  0  0
    4.9306    0.1477    3.3718 H   0  0  0  0  0  0  0  0  0  0  0  0
    5.0914   -0.2432    5.6459 H   0  0  0  0  0  0  0  0  0  0  0  0
    3.4721   -0.9240    5.7774 H   0  0  0  0  0  0  0  0  0  0  0  0
    5.9338   -2.3962    5.3073 H   0  0  0  0  0  0  0  0  0  0  0  0
    4.3025   -3.0130    5.4652 H   0  0  0  0  0  0  0  0  0  0  0  0
    5.8218   -2.2430    2.9902 H   0  0  0  0  0  0  0  0  0  0  0  0
    5.3847   -4.3884    3.4131 H   0  0  0  0  0  0  0  0  0  0  0  0
  2  1  1  6
  1 21  1  0
  1 22  1  0
  1 23  1  0
  2 16  1  0
  2 19  1  0
  2  3  1  0
  3  4  1  0
  3 24  1  0
  3 25  1  0
  4  5  1  0
  4 26  1  0
  4 27  1  0
  5 15  1  0
  5  6  1  0
  5 28  1  1
  6 12  2  0
  6  7  1  0
  7  8  2  0
  7 29  1  0
  8  9  1  0
  8 30  1  0
  9 10  1  0
  9 11  2  0
 10 31  1  0
 11 12  1  0
 11 32  1  0
 12 13  1  0
 13 14  1  0
 13 33  1  0
 13 34  1  0
 14 15  1  0
 14 35  1  0
 14 36  1  0
 15 16  1  0
 15 37  1  6
 16 17  1  0
 16 38  1  6
 17 18  1  0
 17 39  1  0
 17 40  1  0
 18 19  1  0
 18 41  1  0
 18 42  1  0
 19 20  1  0
 19 43  1  6
 20 44  1  0
M  END
>  <i_m_ct_stereo_status>  (102) 
1

>  <s_m_source_file>  (102) 
/var/tmp/pbs.5076255.sched01/tmppfua8s0c/0korcpw03.sdf

>  <i_m_source_file_index>  (102) 
41

>  <i_lp_mmshare_version>  (102) 
48012

>  <i_f3d_flags>  (102) 
0

>  <s_epik_input>  (102) 
W09IXVtDQEBIXTFbQ0gyXVtDSDJdW0NAQEhdKFtDQEBdMTJbQ0gzXSlbQ0BIXTNbQ0BIXShbQ0gyXVtDSDJdMiljNGMoW0NIMl1bQ0gyXTMpW2NIXWMoW09IXSlbY0hdW2NIXTQ=

>  <s_epik_cmdline>  (102) 
J2VwaWtfcHl0aG9uJywgJy1waHQnLCAnMi4wJywgJy1waCcsICc3LjAnLCAnLXRuJywgJzgnLCAnLW1hJywgJzIwMCcsICctaW1hZScsICc8aW5maWxlLm1hZT4nLCAnLW9tYWUnLCAnPG91dGZpbGUubWFlPic=

>  <r_lp_tautomer_probability>  (102) 
1

>  <r_epik_Ionization_Penalty>  (102) 
0.000144805

>  <r_epik_Ionization_Penalty_Charging>  (102) 
0

>  <r_epik_Ionization_Penalty_Neutral>  (102) 
0.000144805

>  <r_epik_State_Penalty>  (102) 
-0

>  <r_epik_Charging_Adjusted_Penalty>  (102) 
0

>  <i_epik_Tot_Q>  (102) 
0

>  <i_epik_Tot_abs_Q>  (102) 
0

>  <s_lp_Force_Field>  (102) 
OPLS3e

>  <r_lp_Energy>  (102) 
35.5411

>  <b_lp_Chiralities_Consistent>  (102) 
1

>  <s_lp_Variant>  (102) 
26:0-1

>  <s_i_glide_gridfile>  (102) 
pfpi4k_grid

>  <i_i_glide_lignum>  (102) 
41

>  <i_i_glide_rotatable_bonds>  (102) 
2

>  <r_i_docking_score>  (102) 
-3.04216

>  <r_i_glide_ligand_efficiency>  (102) 
-0.152108

>  <r_i_glide_ligand_efficiency_sa>  (102) 
-0.412885

>  <r_i_glide_ligand_efficiency_ln>  (102) 
-0.761352

>  <r_i_glide_gscore>  (102) 
-3.04216

>  <r_i_glide_lipo>  (102) 
-0.102092

>  <r_i_glide_hbond>  (102) 
-0.16

>  <r_i_glide_metal>  (102) 
-0

>  <r_i_glide_rewards>  (102) 
-1.55194

>  <r_i_glide_evdw>  (102) 
-17.9181

>  <r_i_glide_ecoul>  (102) 
-2.21479

>  <r_i_glide_erotb>  (102) 
0

>  <r_i_glide_esite>  (102) 
0

>  <r_i_glide_emodel>  (102) 
-25.0075

>  <r_i_glide_energy>  (102) 
-20.1329

>  <r_i_glide_einternal>  (102) 
0.569644

>  <r_i_glide_intrahb_reward>  (102) 
-0

>  <i_i_glide_confnum>  (102) 
2

>  <i_i_glide_posenum>  (102) 
32

>  <r_i_glide_eff_state_penalty>  (102) 
0

>  <ligand_id>  (102) 
26

>  <original_smiles>  (102) 
CC12CCC3c4ccc(O)cc4CCC3C1CCC2O

>  <smiles>  (102) 
[H]Oc1c([H])c([H])c2c(c1[H])C([H])([H])C([H])([H])C1([H])C2([H])C([H])([H])C([H])([H])C2(C([H])([H])[H])C([H])(O[H])C([H])([H])C([H])([H])C12[H]

$$$$
26:0:2
     RDKit          3D

 44 47  0  0  1  0  0  0  0  0999 V2000
    4.9100   -0.5882    3.5559 C   0  0  0  0  0  0  0  0  0  0  0  0
    4.1158   -1.2024    4.7294 C   0  0  2  0  0  0  0  0  0  0  0  0
    2.8626   -1.9677    4.2225 C   0  0  0  0  0  0  0  0  0  0  0  0
    1.7571   -1.0411    3.6823 C   0  0  0  0  0  0  0  0  0  0  0  0
    1.3006   -0.0183    4.7459 C   0  0  2  0  0  0  0  0  0  0  0  0
    0.2314    0.9736    4.2718 C   0  0  0  0  0  0  0  0  0  0  0  0
   -0.4242    0.8709    3.0248 C   0  0  0  0  0  0  0  0  0  0  0  0
   -1.3812    1.8327    2.6419 C   0  0  0  0  0  0  0  0  0  0  0  0
   -1.6743    2.9206    3.4919 C   0  0  0  0  0  0  0  0  0  0  0  0
   -2.5752    3.8720    3.1083 O   0  0  0  0  0  0  0  0  0  0  0  0
   -1.0277    3.0255    4.7370 C   0  0  0  0  0  0  0  0  0  0  0  0
   -0.0818    2.0534    5.1257 C   0  0  0  0  0  0  0  0  0  0  0  0
    0.6085    2.1392    6.4694 C   0  0  0  0  0  0  0  0  0  0  0  0
    2.1132    1.8157    6.3957 C   0  0  0  0  0  0  0  0  0  0  0  0
    2.5099    0.7670    5.3195 C   0  0  1  0  0  0  0  0  0  0  0  0
    3.6959   -0.1340    5.7635 C   0  0  1  0  0  0  0  0  0  0  0  0
    3.5127   -0.9069    7.0865 C   0  0  0  0  0  0  0  0  0  0  0  0
    4.3948   -2.1622    6.9800 C   0  0  0  0  0  0  0  0  0  0  0  0
    5.0364   -2.0983    5.5898 C   0  0  1  0  0  0  0  0  0  0  0  0
    5.2997   -3.3752    5.0451 O   0  0  0  0  0  0  0  0  0  0  0  0
    5.2425   -1.3597    2.8617 H   0  0  0  0  0  0  0  0  0  0  0  0
    5.7982   -0.0619    3.9064 H   0  0  0  0  0  0  0  0  0  0  0  0
    4.3155    0.1304    2.9917 H   0  0  0  0  0  0  0  0  0  0  0  0
    3.1504   -2.6777    3.4477 H   0  0  0  0  0  0  0  0  0  0  0  0
    2.4406   -2.5648    5.0326 H   0  0  0  0  0  0  0  0  0  0  0  0
    2.1076   -0.5293    2.7856 H   0  0  0  0  0  0  0  0  0  0  0  0
    0.9094   -1.6539    3.3739 H   0  0  0  0  0  0  0  0  0  0  0  0
    0.8507   -0.5810    5.5625 H   0  0  0  0  0  0  0  0  0  0  0  0
   -0.2003    0.0714    2.3364 H   0  0  0  0  0  0  0  0  0  0  0  0
   -1.8733    1.7362    1.6859 H   0  0  0  0  0  0  0  0  0  0  0  0
   -2.8574    3.7421    2.2152 H   0  0  0  0  0  0  0  0  0  0  0  0
   -1.2575    3.8557    5.3904 H   0  0  0  0  0  0  0  0  0  0  0  0
    0.4418    3.1130    6.9303 H   0  0  0  0  0  0  0  0  0  0  0  0
    0.1221    1.4024    7.1096 H   0  0  0  0  0  0  0  0  0  0  0  0
    2.6466    2.7346    6.1608 H   0  0  0  0  0  0  0  0  0  0  0  0
    2.4625    1.5364    7.3899 H   0  0  0  0  0  0  0  0  0  0  0  0
    2.8808    1.3491    4.4731 H   0  0  0  0  0  0  0  0  0  0  0  0
    4.5532    0.5232    5.9168 H   0  0  0  0  0  0  0  0  0  0  0  0
    3.8013   -0.2975    7.9449 H   0  0  0  0  0  0  0  0  0  0  0  0
    2.4701   -1.1996    7.2344 H   0  0  0  0  0  0  0  0  0  0  0  0
    5.1583   -2.1897    7.7588 H   0  0  0  0  0  0  0  0  0  0  0  0
    3.7802   -3.0543    7.0998 H   0  0  0  0  0  0  0  0  0  0  0  0
    5.9987   -1.5970    5.7045 H   0  0  0  0  0  0  0  0  0  0  0  0
    4.4855   -3.8497    4.9757 H   0  0  0  0  0  0  0  0  0  0  0  0
  2  1  1  6
  1 21  1  0
  1 22  1  0
  1 23  1  0
  2 16  1  0
  2 19  1  0
  2  3  1  0
  3  4  1  0
  3 24  1  0
  3 25  1  0
  4  5  1  0
  4 26  1  0
  4 27  1  0
  5 15  1  0
  5  6  1  0
  5 28  1  1
  6 12  2  0
  6  7  1  0
  7  8  2  0
  7 29  1  0
  8  9  1  0
  8 30  1  0
  9 10  1  0
  9 11  2  0
 10 31  1  0
 11 12  1  0
 11 32  1  0
 12 13  1  0
 13 14  1  0
 13 33  1  0
 13 34  1  0
 14 15  1  0
 14 35  1  0
 14 36  1  0
 15 16  1  0
 15 37  1  6
 16 17  1  0
 16 38  1  1
 17 18  1  0
 17 39  1  0
 17 40  1  0
 18 19  1  0
 18 41  1  0
 18 42  1  0
 19 20  1  0
 19 43  1  1
 20 44  1  0
M  END
>  <i_m_ct_stereo_status>  (103) 
1

>  <s_m_source_file>  (103) 
/var/tmp/pbs.5076255.sched01/tmppfua8s0c/0korcpw03.sdf

>  <i_m_source_file_index>  (103) 
41

>  <i_lp_mmshare_version>  (103) 
48012

>  <i_f3d_flags>  (103) 
0

>  <s_epik_input>  (103) 
W09IXVtDQEBIXTFbQ0gyXVtDSDJdW0NAQEhdKFtDQEBdMTJbQ0gzXSlbQ0BIXTNbQ0BIXShbQ0gyXVtDSDJdMiljNGMoW0NIMl1bQ0gyXTMpW2NIXWMoW09IXSlbY0hdW2NIXTQ=

>  <s_epik_cmdline>  (103) 
J2VwaWtfcHl0aG9uJywgJy1waHQnLCAnMi4wJywgJy1waCcsICc3LjAnLCAnLXRuJywgJzgnLCAnLW1hJywgJzIwMCcsICctaW1hZScsICc8aW5maWxlLm1hZT4nLCAnLW9tYWUnLCAnPG91dGZpbGUubWFlPic=

>  <r_lp_tautomer_probability>  (103) 
1

>  <r_epik_Ionization_Penalty>  (103) 
0.000144805

>  <r_epik_Ionization_Penalty_Charging>  (103) 
0

>  <r_epik_Ionization_Penalty_Neutral>  (103) 
0.000144805

>  <r_epik_State_Penalty>  (103) 
-0

>  <r_epik_Charging_Adjusted_Penalty>  (103) 
0

>  <i_epik_Tot_Q>  (103) 
0

>  <i_epik_Tot_abs_Q>  (103) 
0

>  <s_lp_Force_Field>  (103) 
OPLS3e

>  <r_lp_Energy>  (103) 
35.5411

>  <b_lp_Chiralities_Consistent>  (103) 
1

>  <s_lp_Variant>  (103) 
26:0-1

>  <s_i_glide_gridfile>  (103) 
pfpi4k_grid

>  <i_i_glide_lignum>  (103) 
41

>  <i_i_glide_rotatable_bonds>  (103) 
2

>  <r_i_docking_score>  (103) 
-2.65359

>  <r_i_glide_ligand_efficiency>  (103) 
-0.132679

>  <r_i_glide_ligand_efficiency_sa>  (103) 
-0.360147

>  <r_i_glide_ligand_efficiency_ln>  (103) 
-0.664105

>  <r_i_glide_gscore>  (103) 
-2.65359

>  <r_i_glide_lipo>  (103) 
-0.128027

>  <r_i_glide_hbond>  (103) 
0

>  <r_i_glide_metal>  (103) 
-0

>  <r_i_glide_rewards>  (103) 
-1.55194

>  <r_i_glide_evdw>  (103) 
-15.5634

>  <r_i_glide_ecoul>  (103) 
-1.30299

>  <r_i_glide_erotb>  (103) 
0

>  <r_i_glide_esite>  (103) 
0

>  <r_i_glide_emodel>  (103) 
-21.3815

>  <r_i_glide_energy>  (103) 
-16.8664

>  <r_i_glide_einternal>  (103) 
0.0527607

>  <r_i_glide_intrahb_reward>  (103) 
-0

>  <i_i_glide_confnum>  (103) 
1

>  <i_i_glide_posenum>  (103) 
14

>  <r_i_glide_eff_state_penalty>  (103) 
0

>  <ligand_id>  (103) 
26

>  <original_smiles>  (103) 
CC12CCC3c4ccc(O)cc4CCC3C1CCC2O

>  <smiles>  (103) 
[H]Oc1c([H])c([H])c2c(c1[H])C([H])([H])C([H])([H])C1([H])C2([H])C([H])([H])C([H])([H])C2(C([H])([H])[H])C([H])(O[H])C([H])([H])C([H])([H])C12[H]

$$$$
27:0:0
     RDKit          3D

 30 36  0  0  1  0  0  0  0  0999 V2000
    3.3123   -2.8883    1.0710 C   0  0  0  0  0  0  0  0  0  0  0  0
    3.4449   -3.9082   -0.1794 C   0  0  2  0  0  0  0  0  0  0  0  0
    5.0452   -4.2328    0.0061 C   0  0  1  0  0  0  0  0  0  0  0  0
    6.1407   -3.4714   -0.7513 C   0  0  2  0  0  0  0  0  0  0  0  0
    6.2386   -2.1486    0.3936 C   0  0  0  0  0  0  0  0  0  0  0  0
    5.0981   -1.0985   -0.1783 C   0  0  2  0  0  0  0  0  0  0  0  0
    3.7201   -1.5635    0.3858 C   0  0  1  0  0  0  0  0  0  0  0  0
    3.5105   -2.6756   -0.5613 C   0  0  1  0  0  0  0  0  0  0  0  0
    3.0438   -3.1011   -1.7311 C   0  0  1  0  0  0  0  0  0  0  0  0
    4.1412   -2.2194   -2.7228 C   0  0  1  0  0  0  0  0  0  0  0  0
    4.9788   -1.1206   -1.8334 C   0  0  2  0  0  0  0  0  0  0  0  0
    5.8228   -2.2592   -1.8341 C   0  0  2  0  0  0  0  0  0  0  0  0
    5.5486   -3.1327   -2.5179 C   0  0  2  0  0  0  0  0  0  0  0  0
    4.8198   -3.5719   -1.0838 C   0  0  1  0  0  0  0  0  0  0  0  0
    3.9314   -3.1628    1.9333 H   0  0  0  0  0  0  0  0  0  0  0  0
    2.2700   -2.8283    1.4126 H   0  0  0  0  0  0  0  0  0  0  0  0
    2.8532   -4.8232   -0.0187 H   0  0  0  0  0  0  0  0  0  0  0  0
    5.2419   -5.3045   -0.0822 H   0  0  0  0  0  0  0  0  0  0  0  0
    7.0898   -4.0287   -0.7247 H   0  0  0  0  0  0  0  0  0  0  0  0
    6.0634   -2.4405    1.4303 H   0  0  0  0  0  0  0  0  0  0  0  0
    7.2212   -1.6755    0.3358 H   0  0  0  0  0  0  0  0  0  0  0  0
    5.3019   -0.0903    0.1978 H   0  0  0  0  0  0  0  0  0  0  0  0
    2.9461   -0.7911    0.4925 H   0  0  0  0  0  0  0  0  0  0  0  0
    2.9263   -1.8392   -1.0075 H   0  0  0  0  0  0  0  0  0  0  0  0
    1.9612   -3.0435   -1.9561 H   0  0  0  0  0  0  0  0  0  0  0  0
    3.8837   -1.9418   -3.7306 H   0  0  0  0  0  0  0  0  0  0  0  0
    5.4210   -0.2967   -2.3867 H   0  0  0  0  0  0  0  0  0  0  0  0
    6.9027   -2.0810   -2.0899 H   0  0  0  0  0  0  0  0  0  0  0  0
    6.1937   -3.2861   -3.3872 H   0  0  0  0  0  0  0  0  0  0  0  0
    4.5804   -4.6075   -1.6916 H   0  0  0  0  0  0  0  0  0  0  0  0
  1  7  1  0
  1  2  1  0
  1 15  1  0
  1 16  1  0
  2  9  1  0
  2  3  1  0
  2 17  1  1
  3 14  1  0
  3  4  1  0
  3 18  1  6
  4 13  1  0
  4  5  1  0
  4 19  1  6
  5  6  1  0
  5 20  1  0
  5 21  1  0
  6 11  1  0
  6  7  1  0
  6 22  1  1
  7  8  1  0
  7 23  1  6
  8 14  1  0
  8  9  1  0
  8 24  1  1
  9 10  1  0
  9 25  1  6
 10 13  1  0
 10 11  1  0
 10 26  1  6
 11 12  1  0
 11 27  1  6
 12 13  1  0
 12 14  1  0
 12 28  1  1
 13 29  1  6
 14 30  1  6
M  END
>  <i_m_ct_stereo_status>  (104) 
1

>  <s_m_source_file>  (104) 
/var/tmp/pbs.5076255.sched01/tmppfua8s0c/0korcpw03.sdf

>  <i_m_source_file_index>  (104) 
42

>  <i_lp_mmshare_version>  (104) 
48012

>  <i_f3d_flags>  (104) 
0

>  <s_epik_input>  (104) 
W0NASF0xMltDQEBIXTNbQ0BASF00W0NASF0oW0NIMl01KVtDQEhdKFtDSDJdNilbQ0hdMltDQEhdN1tDQEBIXTRbQ0BASF0zW0NAQEhdNVtDQEhdMVtDQEBIXTY3

>  <s_epik_cmdline>  (104) 
J2VwaWtfcHl0aG9uJywgJy1waHQnLCAnMi4wJywgJy1waCcsICc3LjAnLCAnLXRuJywgJzgnLCAnLW1hJywgJzIwMCcsICctaW1hZScsICc8aW5maWxlLm1hZT4nLCAnLW9tYWUnLCAnPG91dGZpbGUubWFlPic=

>  <r_lp_tautomer_probability>  (104) 
1

>  <r_epik_Ionization_Penalty>  (104) 
0

>  <r_epik_Ionization_Penalty_Charging>  (104) 
0

>  <r_epik_Ionization_Penalty_Neutral>  (104) 
0

>  <r_epik_State_Penalty>  (104) 
-0

>  <r_epik_Charging_Adjusted_Penalty>  (104) 
0

>  <i_epik_Tot_Q>  (104) 
0

>  <i_epik_Tot_abs_Q>  (104) 
0

>  <s_lp_Force_Field>  (104) 
OPLS3e

>  <r_lp_Energy>  (104) 
912.217

>  <b_lp_Chiralities_Consistent>  (104) 
1

>  <s_lp_Variant>  (104) 
27:0-1

>  <s_i_glide_gridfile>  (104) 
pfpi4k_grid

>  <i_i_glide_lignum>  (104) 
42

>  <i_i_glide_rotatable_bonds>  (104) 
0

>  <r_i_docking_score>  (104) 
-3.87675

>  <r_i_glide_ligand_efficiency>  (104) 
-0.276911

>  <r_i_glide_ligand_efficiency_sa>  (104) 
-0.667395

>  <r_i_glide_ligand_efficiency_ln>  (104) 
-1.06532

>  <r_i_glide_gscore>  (104) 
-3.87675

>  <r_i_glide_lipo>  (104) 
-0.569617

>  <r_i_glide_hbond>  (104) 
0

>  <r_i_glide_metal>  (104) 
-0

>  <r_i_glide_rewards>  (104) 
-2.15266

>  <r_i_glide_evdw>  (104) 
-20.8406

>  <r_i_glide_ecoul>  (104) 
-0.749654

>  <r_i_glide_erotb>  (104) 
0

>  <r_i_glide_esite>  (104) 
0

>  <r_i_glide_emodel>  (104) 
-25.7633

>  <r_i_glide_energy>  (104) 
-21.5903

>  <r_i_glide_einternal>  (104) 
0

>  <r_i_glide_intrahb_reward>  (104) 
-0

>  <i_i_glide_confnum>  (104) 
2

>  <i_i_glide_posenum>  (104) 
8

>  <r_i_glide_eff_state_penalty>  (104) 
0

>  <ligand_id>  (104) 
27

>  <original_smiles>  (104) 
C1C2C3C4CC5C1C1C2C2C5C(C42)C31

>  <smiles>  (104) 
[H]C1([H])C2([H])C3([H])C4([H])C([H])([H])C5([H])C1([H])C1([H])C2([H])C2([H])C5([H])C([H])(C42[H])C31[H]

$$$$
27:0:1
     RDKit          3D

 30 36  0  0  1  0  0  0  0  0999 V2000
    4.9230   -3.6208    2.1187 C   0  0  0  0  0  0  0  0  0  0  0  0
    4.4635   -4.4620    0.8103 C   0  0  2  0  0  0  0  0  0  0  0  0
    5.9271   -4.5078    0.0784 C   0  0  1  0  0  0  0  0  0  0  0  0
    6.3736   -3.4848   -0.9773 C   0  0  2  0  0  0  0  0  0  0  0  0
    6.9522   -2.3023    0.1849 C   0  0  0  0  0  0  0  0  0  0  0  0
    5.5778   -1.4124    0.4802 C   0  0  2  0  0  0  0  0  0  0  0  0
    4.7639   -2.1728    1.5807 C   0  0  1  0  0  0  0  0  0  0  0  0
    4.1876   -3.1968    0.6949 C   0  0  1  0  0  0  0  0  0  0  0  0
    3.2175   -3.5783   -0.1366 C   0  0  1  0  0  0  0  0  0  0  0  0
    3.5254   -2.4193   -1.3744 C   0  0  1  0  0  0  0  0  0  0  0  0
    4.5889   -1.2809   -0.8515 C   0  0  2  0  0  0  0  0  0  0  0  0
    5.4006   -2.2451   -1.4749 C   0  0  2  0  0  0  0  0  0  0  0  0
    4.9114   -3.0743   -2.0912 C   0  0  2  0  0  0  0  0  0  0  0  0
    5.0888   -3.7850   -0.5799 C   0  0  1  0  0  0  0  0  0  0  0  0
    5.9369   -3.8752    2.4648 H   0  0  0  0  0  0  0  0  0  0  0  0
    4.2200   -3.7940    2.9488 H   0  0  0  0  0  0  0  0  0  0  0  0
    4.1440   -5.4805    1.0828 H   0  0  0  0  0  0  0  0  0  0  0  0
    6.1420   -5.5146   -0.2908 H   0  0  0  0  0  0  0  0  0  0  0  0
    7.2347   -3.8438   -1.5473 H   0  0  0  0  0  0  0  0  0  0  0  0
    7.3762   -2.7430    1.0904 H   0  0  0  0  0  0  0  0  0  0  0  0
    7.7050   -1.6609   -0.2825 H   0  0  0  0  0  0  0  0  0  0  0  0
    5.8553   -0.4261    0.8764 H   0  0  0  0  0  0  0  0  0  0  0  0
    4.0943   -1.5694    2.2154 H   0  0  0  0  0  0  0  0  0  0  0  0
    3.3805   -2.4348    0.7749 H   0  0  0  0  0  0  0  0  0  0  0  0
    2.1861   -3.6836    0.2480 H   0  0  0  0  0  0  0  0  0  0  0  0
    2.7411   -2.0794   -2.0397 H   0  0  0  0  0  0  0  0  0  0  0  0
    4.5994   -0.3498   -1.4300 H   0  0  0  0  0  0  0  0  0  0  0  0
    6.1522   -1.8201   -2.1974 H   0  0  0  0  0  0  0  0  0  0  0  0
    5.0082   -2.9723   -3.1755 H   0  0  0  0  0  0  0  0  0  0  0  0
    4.6656   -4.7749   -1.1672 H   0  0  0  0  0  0  0  0  0  0  0  0
  1  7  1  0
  1  2  1  0
  1 15  1  0
  1 16  1  0
  2  9  1  0
  2  3  1  0
  2 17  1  1
  3 14  1  0
  3  4  1  0
  3 18  1  6
  4 13  1  0
  4  5  1  0
  4 19  1  6
  5  6  1  0
  5 20  1  0
  5 21  1  0
  6 11  1  0
  6  7  1  0
  6 22  1  1
  7  8  1  0
  7 23  1  1
  8 14  1  0
  8  9  1  0
  8 24  1  1
  9 10  1  0
  9 25  1  1
 10 13  1  0
 10 11  1  0
 10 26  1  6
 11 12  1  0
 11 27  1  6
 12 13  1  0
 12 14  1  0
 12 28  1  6
 13 29  1  6
 14 30  1  6
M  END
>  <i_m_ct_stereo_status>  (105) 
1

>  <s_m_source_file>  (105) 
/var/tmp/pbs.5076255.sched01/tmppfua8s0c/0korcpw03.sdf

>  <i_m_source_file_index>  (105) 
42

>  <i_lp_mmshare_version>  (105) 
48012

>  <i_f3d_flags>  (105) 
0

>  <s_epik_input>  (105) 
W0NASF0xMltDQEBIXTNbQ0BASF00W0NASF0oW0NIMl01KVtDQEhdKFtDSDJdNilbQ0hdMltDQEhdN1tDQEBIXTRbQ0BASF0zW0NAQEhdNVtDQEhdMVtDQEBIXTY3

>  <s_epik_cmdline>  (105) 
J2VwaWtfcHl0aG9uJywgJy1waHQnLCAnMi4wJywgJy1waCcsICc3LjAnLCAnLXRuJywgJzgnLCAnLW1hJywgJzIwMCcsICctaW1hZScsICc8aW5maWxlLm1hZT4nLCAnLW9tYWUnLCAnPG91dGZpbGUubWFlPic=

>  <r_lp_tautomer_probability>  (105) 
1

>  <r_epik_Ionization_Penalty>  (105) 
0

>  <r_epik_Ionization_Penalty_Charging>  (105) 
0

>  <r_epik_Ionization_Penalty_Neutral>  (105) 
0

>  <r_epik_State_Penalty>  (105) 
-0

>  <r_epik_Charging_Adjusted_Penalty>  (105) 
0

>  <i_epik_Tot_Q>  (105) 
0

>  <i_epik_Tot_abs_Q>  (105) 
0

>  <s_lp_Force_Field>  (105) 
OPLS3e

>  <r_lp_Energy>  (105) 
912.217

>  <b_lp_Chiralities_Consistent>  (105) 
1

>  <s_lp_Variant>  (105) 
27:0-1

>  <s_i_glide_gridfile>  (105) 
pfpi4k_grid

>  <i_i_glide_lignum>  (105) 
42

>  <i_i_glide_rotatable_bonds>  (105) 
0

>  <r_i_docking_score>  (105) 
-3.56206

>  <r_i_glide_ligand_efficiency>  (105) 
-0.254433

>  <r_i_glide_ligand_efficiency_sa>  (105) 
-0.613219

>  <r_i_glide_ligand_efficiency_ln>  (105) 
-0.978841

>  <r_i_glide_gscore>  (105) 
-3.56206

>  <r_i_glide_lipo>  (105) 
-0.580706

>  <r_i_glide_hbond>  (105) 
0

>  <r_i_glide_metal>  (105) 
-0

>  <r_i_glide_rewards>  (105) 
-2.15266

>  <r_i_glide_evdw>  (105) 
-17.5828

>  <r_i_glide_ecoul>  (105) 
0.336275

>  <r_i_glide_erotb>  (105) 
0

>  <r_i_glide_esite>  (105) 
0

>  <r_i_glide_emodel>  (105) 
-21.0523

>  <r_i_glide_energy>  (105) 
-17.2465

>  <r_i_glide_einternal>  (105) 
0

>  <r_i_glide_intrahb_reward>  (105) 
-0

>  <i_i_glide_confnum>  (105) 
1

>  <i_i_glide_posenum>  (105) 
6

>  <r_i_glide_eff_state_penalty>  (105) 
0

>  <ligand_id>  (105) 
27

>  <original_smiles>  (105) 
C1C2C3C4CC5C1C1C2C2C5C(C42)C31

>  <smiles>  (105) 
[H]C1([H])C2([H])C3([H])C4([H])C([H])([H])C5([H])C1([H])C1([H])C2([H])C2([H])C5([H])C([H])(C42[H])C31[H]

$$$$
27:0:2
     RDKit          3D

 30 36  0  0  1  0  0  0  0  0999 V2000
    4.7622   -3.3612   -2.9250 C   0  0  0  0  0  0  0  0  0  0  0  0
    3.6596   -2.3317   -2.3395 C   0  0  2  0  0  0  0  0  0  0  0  0
    4.7084   -1.1737   -1.8446 C   0  0  1  0  0  0  0  0  0  0  0  0
    5.2479   -1.0989   -0.4015 C   0  0  2  0  0  0  0  0  0  0  0  0
    6.5665   -2.2427   -0.6738 C   0  0  0  0  0  0  0  0  0  0  0  0
    5.8360   -3.6895   -0.3238 C   0  0  2  0  0  0  0  0  0  0  0  0
    5.0991   -4.1422   -1.6302 C   0  0  1  0  0  0  0  0  0  0  0  0
    3.9227   -3.2697   -1.4899 C   0  0  1  0  0  0  0  0  0  0  0  0
    2.7074   -3.0643   -1.0026 C   0  0  1  0  0  0  0  0  0  0  0  0
    3.1374   -3.0577    0.6617 C   0  0  1  0  0  0  0  0  0  0  0  0
    4.6805   -3.5824    0.8694 C   0  0  2  0  0  0  0  0  0  0  0  0
    4.8071   -2.1855    0.7783 C   0  0  2  0  0  0  0  0  0  0  0  0
    3.8693   -1.5435    0.8089 C   0  0  2  0  0  0  0  0  0  0  0  0
    4.1108   -1.7465   -0.8466 C   0  0  1  0  0  0  0  0  0  0  0  0
    5.6218   -2.8739   -3.3975 H   0  0  0  0  0  0  0  0  0  0  0  0
    4.3015   -4.0391   -3.6606 H   0  0  0  0  0  0  0  0  0  0  0  0
    3.0118   -1.9331   -3.1436 H   0  0  0  0  0  0  0  0  0  0  0  0
    4.3626   -0.1738   -2.1335 H   0  0  0  0  0  0  0  0  0  0  0  0
    5.6809   -0.1119   -0.1900 H   0  0  0  0  0  0  0  0  0  0  0  0
    6.9887   -2.2291   -1.6725 H   0  0  0  0  0  0  0  0  0  0  0  0
    7.3597   -2.0727    0.0593 H   0  0  0  0  0  0  0  0  0  0  0  0
    6.5972   -4.4430   -0.0877 H   0  0  0  0  0  0  0  0  0  0  0  0
    4.9802   -5.2341   -1.7591 H   0  0  0  0  0  0  0  0  0  0  0  0
    3.5773   -4.2477   -1.0826 H   0  0  0  0  0  0  0  0  0  0  0  0
    1.8716   -3.7079   -1.3360 H   0  0  0  0  0  0  0  0  0  0  0  0
    2.4311   -3.3224    1.4387 H   0  0  0  0  0  0  0  0  0  0  0  0
    4.9395   -3.9180    1.8768 H   0  0  0  0  0  0  0  0  0  0  0  0
    5.4657   -1.7241    1.5595 H   0  0  0  0  0  0  0  0  0  0  0  0
    3.7193   -0.9902    1.7382 H   0  0  0  0  0  0  0  0  0  0  0  0
    3.1686   -0.9794   -0.9289 H   0  0  0  0  0  0  0  0  0  0  0  0
  1  7  1  0
  1  2  1  0
  1 15  1  0
  1 16  1  0
  2  9  1  0
  2  3  1  0
  2 17  1  6
  3 14  1  0
  3  4  1  0
  3 18  1  6
  4 13  1  0
  4  5  1  0
  4 19  1  1
  5  6  1  0
  5 20  1  0
  5 21  1  0
  6 11  1  0
  6  7  1  0
  6 22  1  1
  7  8  1  0
  7 23  1  6
  8 14  1  0
  8  9  1  0
  8 24  1  6
  9 10  1  0
  9 25  1  1
 10 13  1  0
 10 11  1  0
 10 26  1  1
 11 12  1  0
 11 27  1  1
 12 13  1  0
 12 14  1  0
 12 28  1  6
 13 29  1  1
 14 30  1  1
M  END
>  <i_m_ct_stereo_status>  (106) 
1

>  <s_m_source_file>  (106) 
/var/tmp/pbs.5076255.sched01/tmppfua8s0c/0korcpw03.sdf

>  <i_m_source_file_index>  (106) 
42

>  <i_lp_mmshare_version>  (106) 
48012

>  <i_f3d_flags>  (106) 
0

>  <s_epik_input>  (106) 
W0NASF0xMltDQEBIXTNbQ0BASF00W0NASF0oW0NIMl01KVtDQEhdKFtDSDJdNilbQ0hdMltDQEhdN1tDQEBIXTRbQ0BASF0zW0NAQEhdNVtDQEhdMVtDQEBIXTY3

>  <s_epik_cmdline>  (106) 
J2VwaWtfcHl0aG9uJywgJy1waHQnLCAnMi4wJywgJy1waCcsICc3LjAnLCAnLXRuJywgJzgnLCAnLW1hJywgJzIwMCcsICctaW1hZScsICc8aW5maWxlLm1hZT4nLCAnLW9tYWUnLCAnPG91dGZpbGUubWFlPic=

>  <r_lp_tautomer_probability>  (106) 
1

>  <r_epik_Ionization_Penalty>  (106) 
0

>  <r_epik_Ionization_Penalty_Charging>  (106) 
0

>  <r_epik_Ionization_Penalty_Neutral>  (106) 
0

>  <r_epik_State_Penalty>  (106) 
-0

>  <r_epik_Charging_Adjusted_Penalty>  (106) 
0

>  <i_epik_Tot_Q>  (106) 
0

>  <i_epik_Tot_abs_Q>  (106) 
0

>  <s_lp_Force_Field>  (106) 
OPLS3e

>  <r_lp_Energy>  (106) 
912.217

>  <b_lp_Chiralities_Consistent>  (106) 
1

>  <s_lp_Variant>  (106) 
27:0-1

>  <s_i_glide_gridfile>  (106) 
pfpi4k_grid

>  <i_i_glide_lignum>  (106) 
42

>  <i_i_glide_rotatable_bonds>  (106) 
0

>  <r_i_docking_score>  (106) 
-3.41518

>  <r_i_glide_ligand_efficiency>  (106) 
-0.243941

>  <r_i_glide_ligand_efficiency_sa>  (106) 
-0.587933

>  <r_i_glide_ligand_efficiency_ln>  (106) 
-0.938479

>  <r_i_glide_gscore>  (106) 
-3.41518

>  <r_i_glide_lipo>  (106) 
-0.254195

>  <r_i_glide_hbond>  (106) 
0

>  <r_i_glide_metal>  (106) 
-0

>  <r_i_glide_rewards>  (106) 
-2.15266

>  <r_i_glide_evdw>  (106) 
-18.8602

>  <r_i_glide_ecoul>  (106) 
-0.435442

>  <r_i_glide_erotb>  (106) 
0

>  <r_i_glide_esite>  (106) 
0

>  <r_i_glide_emodel>  (106) 
-23.0243

>  <r_i_glide_energy>  (106) 
-19.2956

>  <r_i_glide_einternal>  (106) 
0

>  <r_i_glide_intrahb_reward>  (106) 
-0

>  <i_i_glide_confnum>  (106) 
2

>  <i_i_glide_posenum>  (106) 
9

>  <r_i_glide_eff_state_penalty>  (106) 
0

>  <ligand_id>  (106) 
27

>  <original_smiles>  (106) 
C1C2C3C4CC5C1C1C2C2C5C(C42)C31

>  <smiles>  (106) 
[H]C1([H])C2([H])C3([H])C4([H])C([H])([H])C5([H])C1([H])C1([H])C2([H])C2([H])C5([H])C([H])(C42[H])C31[H]

$$$$
28:0:0
     RDKit          3D

 89 95  0  0  1  0  0  0  0  0999 V2000
    6.2808   -9.4913    8.6823 C   0  0  0  0  0  0  0  0  0  0  0  0
    5.8768   -9.1151    7.2253 C   0  0  1  0  0  0  0  0  0  0  0  0
    5.7580  -10.4622    6.4256 C   0  0  0  0  0  0  0  0  0  0  0  0
    6.8941  -11.0567    5.4698 C   0  0  0  0  0  0  0  0  0  0  0  0
    7.8236  -10.3670    4.3498 C   0  0  0  0  0  0  0  0  0  0  0  0
    7.6931   -8.9809    3.5726 C   0  0  1  0  0  0  0  0  0  0  0  0
    6.4537   -8.9006    2.6181 C   0  0  0  0  0  0  0  0  0  0  0  0
    5.1428   -8.7898    3.4347 C   0  0  1  0  0  0  0  0  0  0  0  0
    4.8284  -10.1384    3.6659 O   0  0  0  0  0  0  0  0  0  0  0  0
    5.4232   -7.7476    4.5141 C   0  0  2  0  0  0  0  0  0  0  0  0
    5.1225   -6.5470    3.8089 O   0  0  0  0  0  0  0  0  0  0  0  0
    4.2962   -6.7281    2.8228 C   0  0  0  0  0  0  0  0  0  0  0  0
    3.9477   -5.8901    1.9917 O   0  0  0  0  0  0  0  0  0  0  0  0
    3.7910   -8.1600    2.9243 C   0  0  1  0  0  0  0  0  0  0  0  0
    3.5908   -8.6491    1.4605 C   0  0  0  0  0  0  0  0  0  0  0  0
    2.4627   -8.2055    3.9768 C   0  0  1  0  0  0  0  0  0  0  0  0
    1.9990   -6.7928    4.4087 C   0  0  0  0  0  0  0  0  0  0  0  0
    0.7514   -6.2892    4.4043 C   0  0  0  0  0  0  0  0  0  0  0  0
   -0.3583   -7.0589    3.8577 C   0  0  0  0  0  0  0  0  0  0  0  0
   -1.5279   -6.8532    4.1738 O   0  0  0  0  0  0  0  0  0  0  0  0
    0.0003   -8.0693    2.7730 C   0  0  0  0  0  0  0  0  0  0  0  0
   -1.2564   -8.9113    2.4037 C   0  0  0  0  0  0  0  0  0  0  0  0
    0.3436   -7.2279    1.5180 C   0  0  0  0  0  0  0  0  0  0  0  0
    1.2299   -8.9538    3.2354 C   0  0  2  0  0  0  0  0  0  0  0  0
    0.8618  -10.1538    4.1257 C   0  0  1  0  0  0  0  0  0  0  0  0
    1.6038  -11.2920    3.7216 O   0  0  0  0  0  0  0  0  0  0  0  0
    1.2416   -9.7537    5.5306 C   0  0  2  0  0  0  0  0  0  0  0  0
    0.2421   -9.0385    6.0471 F   0  0  0  0  0  0  0  0  0  0  0  0
    2.5824   -8.9875    5.4285 C   0  0  2  0  0  0  0  0  0  0  0  0
    3.1084   -8.4741    6.9324 C   0  0  0  0  0  0  0  0  0  0  0  0
    2.2064   -7.3327    7.4924 C   0  0  0  0  0  0  0  0  0  0  0  0
    2.8315   -9.6353    7.9368 C   0  0  0  0  0  0  0  0  0  0  0  0
    4.6503   -8.0550    7.2963 C   0  0  2  0  0  0  0  0  0  0  0  0
    5.0571   -6.5356    6.9600 C   0  0  0  0  0  0  0  0  0  0  0  0
    6.3996   -6.2666    6.1780 C   0  0  0  0  0  0  0  0  0  0  0  0
    6.7448   -7.5456    5.3714 C   0  0  1  0  0  0  0  0  0  0  0  0
    7.0741   -8.4390    6.6107 C   0  0  0  0  0  0  0  0  0  0  0  0
    7.9524   -7.6407    4.3749 C   0  0  0  0  0  0  0  0  0  0  0  0
    9.3630   -7.6385    5.0395 C   0  0  0  0  0  0  0  0  0  0  0  0
    8.0615   -6.4040    3.4322 C   0  0  0  0  0  0  0  0  0  0  0  0
    7.1655  -10.1286    8.6984 H   0  0  0  0  0  0  0  0  0  0  0  0
    5.4830  -10.0259    9.2010 H   0  0  0  0  0  0  0  0  0  0  0  0
    6.5139   -8.6070    9.2796 H   0  0  0  0  0  0  0  0  0  0  0  0
    5.6362  -11.2424    7.1802 H   0  0  0  0  0  0  0  0  0  0  0  0
    4.8045  -10.5592    5.9633 H   0  0  0  0  0  0  0  0  0  0  0  0
    7.5981  -11.5536    6.1435 H   0  0  0  0  0  0  0  0  0  0  0  0
    6.4110  -11.8992    4.9728 H   0  0  0  0  0  0  0  0  0  0  0  0
    8.8312  -10.3934    4.7588 H   0  0  0  0  0  0  0  0  0  0  0  0
    7.8891  -11.1210    3.5644 H   0  0  0  0  0  0  0  0  0  0  0  0
    8.5418   -9.0138    2.8871 H   0  0  0  0  0  0  0  0  0  0  0  0
    6.5665   -8.0603    1.9362 H   0  0  0  0  0  0  0  0  0  0  0  0
    6.4332   -9.7631    1.9524 H   0  0  0  0  0  0  0  0  0  0  0  0
    4.6330  -10.5546    2.8395 H   0  0  0  0  0  0  0  0  0  0  0  0
    4.5831   -7.8735    5.1291 H   0  0  0  0  0  0  0  0  0  0  0  0
    3.4728   -9.7319    1.3979 H   0  0  0  0  0  0  0  0  0  0  0  0
    4.4411   -8.3969    0.8199 H   0  0  0  0  0  0  0  0  0  0  0  0
    2.7358   -8.1821    0.9844 H   0  0  0  0  0  0  0  0  0  0  0  0
    2.7608   -6.1449    4.8109 H   0  0  0  0  0  0  0  0  0  0  0  0
    0.5418   -5.2978    4.7721 H   0  0  0  0  0  0  0  0  0  0  0  0
   -1.0039   -9.7402    1.7420 H   0  0  0  0  0  0  0  0  0  0  0  0
   -1.9982   -8.3058    1.8852 H   0  0  0  0  0  0  0  0  0  0  0  0
   -1.7739   -9.3220    3.2731 H   0  0  0  0  0  0  0  0  0  0  0  0
    0.5159   -7.8537    0.6398 H   0  0  0  0  0  0  0  0  0  0  0  0
    1.2370   -6.6191    1.6536 H   0  0  0  0  0  0  0  0  0  0  0  0
   -0.4762   -6.5662    1.2458 H   0  0  0  0  0  0  0  0  0  0  0  0
    1.5128   -9.4501    2.3114 H   0  0  0  0  0  0  0  0  0  0  0  0
   -0.1835  -10.4524    4.0949 H   0  0  0  0  0  0  0  0  0  0  0  0
    1.3989  -12.0061    4.3063 H   0  0  0  0  0  0  0  0  0  0  0  0
    1.3204  -10.6519    6.1381 H   0  0  0  0  0  0  0  0  0  0  0  0
    3.1785   -9.8385    5.2156 H   0  0  0  0  0  0  0  0  0  0  0  0
    2.4680   -7.0992    8.5234 H   0  0  0  0  0  0  0  0  0  0  0  0
    1.1540   -7.5932    7.5247 H   0  0  0  0  0  0  0  0  0  0  0  0
    2.2711   -6.3946    6.9514 H   0  0  0  0  0  0  0  0  0  0  0  0
    3.2072   -9.4300    8.9375 H   0  0  0  0  0  0  0  0  0  0  0  0
    3.2682  -10.5803    7.6211 H   0  0  0  0  0  0  0  0  0  0  0  0
    1.7691   -9.8157    8.0904 H   0  0  0  0  0  0  0  0  0  0  0  0
    4.5675   -7.9083    8.3728 H   0  0  0  0  0  0  0  0  0  0  0  0
    4.2782   -6.1051    6.3372 H   0  0  0  0  0  0  0  0  0  0  0  0
    5.0310   -5.9210    7.8600 H   0  0  0  0  0  0  0  0  0  0  0  0
    6.3105   -5.3815    5.5482 H   0  0  0  0  0  0  0  0  0  0  0  0
    7.1875   -5.9728    6.8744 H   0  0  0  0  0  0  0  0  0  0  0  0
    7.5804   -7.8777    7.3974 H   0  0  0  0  0  0  0  0  0  0  0  0
    7.8653   -9.1536    6.4723 H   0  0  0  0  0  0  0  0  0  0  0  0
    9.4683   -6.8017    5.7319 H   0  0  0  0  0  0  0  0  0  0  0  0
   10.1495   -7.5293    4.2872 H   0  0  0  0  0  0  0  0  0  0  0  0
    9.6259   -8.5445    5.5808 H   0  0  0  0  0  0  0  0  0  0  0  0
    8.1983   -5.4891    4.0091 H   0  0  0  0  0  0  0  0  0  0  0  0
    7.2110   -6.2316    2.7844 H   0  0  0  0  0  0  0  0  0  0  0  0
    8.9182   -6.4899    2.7585 H   0  0  0  0  0  0  0  0  0  0  0  0
  2  1  1  1
  1 41  1  0
  1 42  1  0
  1 43  1  0
  2 33  1  0
  2 37  1  0
  2  3  1  0
  3  4  1  0
  3 44  1  0
  3 45  1  0
  4  5  1  0
  4 46  1  0
  4 47  1  0
  5  6  1  0
  5 48  1  0
  5 49  1  0
  6 38  1  0
  6  7  1  0
  6 50  1  6
  7  8  1  0
  7 51  1  0
  7 52  1  0
  8 14  1  0
  8  9  1  1
  8 10  1  0
  9 53  1  0
 10 36  1  0
 10 11  1  0
 10 54  1  1
 11 12  1  0
 12 13  2  0
 12 14  1  0
 14 15  1  6
 14 16  1  0
 15 55  1  0
 15 56  1  0
 15 57  1  0
 16 24  1  0
 16 29  1  0
 16 17  1  1
 17 18  2  0
 17 58  1  0
 18 19  1  0
 18 59  1  0
 19 20  2  0
 19 21  1  0
 21 22  1  0
 21 23  1  0
 21 24  1  0
 22 60  1  0
 22 61  1  0
 22 62  1  0
 23 63  1  0
 23 64  1  0
 23 65  1  0
 24 25  1  0
 24 66  1  6
 25 26  1  0
 25 27  1  0
 25 67  1  1
 26 68  1  0
 27 28  1  0
 27 29  1  0
 27 69  1  1
 29 30  1  0
 29 70  1  6
 30 31  1  0
 30 32  1  0
 30 33  1  0
 31 71  1  0
 31 72  1  0
 31 73  1  0
 32 74  1  0
 32 75  1  0
 32 76  1  0
 33 34  1  0
 33 77  1  1
 34 35  1  0
 34 78  1  0
 34 79  1  0
 36 35  1  1
 35 80  1  0
 35 81  1  0
 36 37  1  0
 36 38  1  0
 37 82  1  0
 37 83  1  0
 38 39  1  0
 38 40  1  0
 39 84  1  0
 39 85  1  0
 39 86  1  0
 40 87  1  0
 40 88  1  0
 40 89  1  0
M  END
>  <i_m_ct_stereo_status>  (107) 
1

>  <s_m_source_file>  (107) 
/var/tmp/pbs.5076255.sched01/tmpazi1eam_/42934yjxx2.sdf

>  <i_m_source_file_index>  (107) 
1

>  <i_lp_mmshare_version>  (107) 
48012

>  <i_f3d_flags>  (107) 
0

>  <s_epik_input>  (107) 
Tz1DMU9bQ0BASF0oW0NAQF0yKFtPSF0pW0NAXTEoW0NAQF0zNDUpW0NIM10pW0NAQF02N1tDSDJdW0NIMl1bQ0hdKFtDQF0oW0NIM10pKFtDSDJdNilbQ0gyXVtDSDJdW0NIMl1bQ0BASF0oW0NIMl0yKUM3KFtDSDNdKVtDSDNdKUMoW0NIM10pKFtDSDNdKVtDQEhdNVtDQEBIXShGKVtDQEhdKFtPSF0pW0NASF00QyhbQ0gzXSkoW0NIM10pQyg9TylbQ0hdPVtDSF0z

>  <s_epik_cmdline>  (107) 
J2VwaWtfcHl0aG9uJywgJy1waHQnLCAnMi4wJywgJy1waCcsICc3LjAnLCAnLXRuJywgJzgnLCAnLW1hJywgJzIwMCcsICctaW1hZScsICc8aW5maWxlLm1hZT4nLCAnLW9tYWUnLCAnPG91dGZpbGUubWFlPic=

>  <r_lp_tautomer_probability>  (107) 
1

>  <r_epik_Ionization_Penalty>  (107) 
3.45864e-06

>  <r_epik_Ionization_Penalty_Charging>  (107) 
0

>  <r_epik_Ionization_Penalty_Neutral>  (107) 
3.45864e-06

>  <r_epik_State_Penalty>  (107) 
-0

>  <r_epik_Charging_Adjusted_Penalty>  (107) 
0

>  <i_epik_Tot_Q>  (107) 
0

>  <i_epik_Tot_abs_Q>  (107) 
0

>  <s_epik_Chemistry_Notes>  (107) 
This compound has an ester and may undergo hydrolysis at high or low pH.

>  <s_lp_Force_Field>  (107) 
OPLS3e

>  <r_lp_Energy>  (107) 
261.847

>  <b_lp_Chiralities_Consistent>  (107) 
1

>  <s_lp_Variant>  (107) 
28:0-1

>  <s_i_glide_gridfile>  (107) 
pfpi4k_grid

>  <i_i_glide_lignum>  (107) 
1

>  <i_i_glide_rotatable_bonds>  (107) 
2

>  <r_i_docking_score>  (107) 
-2.29291

>  <r_i_glide_ligand_efficiency>  (107) 
-0.0573228

>  <r_i_glide_ligand_efficiency_sa>  (107) 
-0.196041

>  <r_i_glide_ligand_efficiency_ln>  (107) 
-0.489011

>  <r_i_glide_gscore>  (107) 
-2.29291

>  <r_i_glide_lipo>  (107) 
-0.227336

>  <r_i_glide_hbond>  (107) 
-0.00489192

>  <r_i_glide_metal>  (107) 
-0

>  <r_i_glide_rewards>  (107) 
0

>  <r_i_glide_evdw>  (107) 
-32.093

>  <r_i_glide_ecoul>  (107) 
-2.32256

>  <r_i_glide_erotb>  (107) 
0

>  <r_i_glide_esite>  (107) 
-0.10765

>  <r_i_glide_emodel>  (107) 
-39.3658

>  <r_i_glide_energy>  (107) 
-34.4156

>  <r_i_glide_einternal>  (107) 
0.335578

>  <r_i_glide_intrahb_reward>  (107) 
-0

>  <i_i_glide_confnum>  (107) 
2

>  <i_i_glide_posenum>  (107) 
5

>  <r_i_glide_eff_state_penalty>  (107) 
0

>  <ligand_id>  (107) 
28

>  <original_smiles>  (107) 
CC12CCCC3CC4(O)C5OC(=O)C4(C)C46C=CC(=O)C(C)(C)C4C(O)C(F)C6C(C)(C)C1CCC5(C2)C3(C)C

>  <smiles>  (107) 
[H]OC1([H])C([H])(F)C2([H])C3(C([H])=C([H])C(=O)C(C([H])([H])[H])(C([H])([H])[H])C13[H])C1(C([H])([H])[H])C(=O)OC3([H])C1(O[H])C([H])([H])C1([H])C([H])([H])C([H])([H])C([H])([H])C4(C([H])([H])[H])C([H])([H])C3(C([H])([H])C([H])([H])C4([H])C2(C([H])([H])[H])C([H])([H])[H])C1(C([H])([H])[H])C([H])([H])[H]

$$$$
28:0:1
     RDKit          3D

 89 95  0  0  1  0  0  0  0  0999 V2000
    6.6535   -4.0903    6.1866 C   0  0  0  0  0  0  0  0  0  0  0  0
    5.6663   -4.6729    5.1405 C   0  0  1  0  0  0  0  0  0  0  0  0
    6.4494   -5.7268    4.2673 C   0  0  0  0  0  0  0  0  0  0  0  0
    6.9787   -5.5401    2.7565 C   0  0  0  0  0  0  0  0  0  0  0  0
    6.3349   -4.7477    1.5026 C   0  0  0  0  0  0  0  0  0  0  0  0
    4.8177   -4.3892    1.1501 C   0  0  1  0  0  0  0  0  0  0  0  0
    3.8951   -5.6444    0.9627 C   0  0  0  0  0  0  0  0  0  0  0  0
    3.6422   -6.3448    2.3175 C   0  0  1  0  0  0  0  0  0  0  0  0
    4.7341   -7.2165    2.3990 O   0  0  0  0  0  0  0  0  0  0  0  0
    3.2870   -5.2257    3.2912 C   0  0  2  0  0  0  0  0  0  0  0  0
    1.8862   -5.0850    3.0513 O   0  0  0  0  0  0  0  0  0  0  0  0
    1.3490   -6.1634    2.5890 C   0  0  0  0  0  0  0  0  0  0  0  0
    0.1869   -6.3002    2.1783 O   0  0  0  0  0  0  0  0  0  0  0  0
    2.4086   -7.2526    2.6706 C   0  0  1  0  0  0  0  0  0  0  0  0
    2.1411   -8.1373    1.4494 C   0  0  0  0  0  0  0  0  0  0  0  0
    2.3655   -7.9612    4.1944 C   0  0  1  0  0  0  0  0  0  0  0  0
    1.1912   -7.4184    5.0317 C   0  0  0  0  0  0  0  0  0  0  0  0
    0.2779   -8.1189    5.7207 C   0  0  0  0  0  0  0  0  0  0  0  0
    0.2708   -9.5771    5.6959 C   0  0  0  0  0  0  0  0  0  0  0  0
   -0.1483  -10.2279    6.6246 O   0  0  0  0  0  0  0  0  0  0  0  0
    0.8255  -10.1935    4.3792 C   0  0  0  0  0  0  0  0  0  0  0  0
    0.9067  -11.7430    4.4530 C   0  0  0  0  0  0  0  0  0  0  0  0
   -0.1652   -9.8807    3.2365 C   0  0  0  0  0  0  0  0  0  0  0  0
    2.2226   -9.5679    4.0237 C   0  0  2  0  0  0  0  0  0  0  0  0
    3.4372  -10.1862    4.7396 C   0  0  1  0  0  0  0  0  0  0  0  0
    4.5115  -10.3099    3.8187 O   0  0  0  0  0  0  0  0  0  0  0  0
    3.8140   -9.2135    5.8246 C   0  0  2  0  0  0  0  0  0  0  0  0
    3.0533   -9.4598    6.8901 F   0  0  0  0  0  0  0  0  0  0  0  0
    3.6342   -7.7940    5.2267 C   0  0  2  0  0  0  0  0  0  0  0  0
    3.9825   -6.6147    6.3528 C   0  0  0  0  0  0  0  0  0  0  0  0
    2.9040   -6.5446    7.4780 C   0  0  0  0  0  0  0  0  0  0  0  0
    5.2436   -7.0947    7.1327 C   0  0  0  0  0  0  0  0  0  0  0  0
    4.3405   -5.0655    5.9871 C   0  0  2  0  0  0  0  0  0  0  0  0
    3.0971   -4.0628    5.7873 C   0  0  0  0  0  0  0  0  0  0  0  0
    3.0649   -3.1358    4.5177 C   0  0  0  0  0  0  0  0  0  0  0  0
    3.9553   -3.7927    3.4239 C   0  0  1  0  0  0  0  0  0  0  0  0
    5.3011   -3.5924    4.1688 C   0  0  0  0  0  0  0  0  0  0  0  0
    4.1083   -3.2247    1.9692 C   0  0  0  0  0  0  0  0  0  0  0  0
    4.9018   -1.8833    1.8545 C   0  0  0  0  0  0  0  0  0  0  0  0
    2.7477   -2.8076    1.3370 C   0  0  0  0  0  0  0  0  0  0  0  0
    7.5580   -3.7428    5.7091 H   0  0  0  0  0  0  0  0  0  0  0  0
    6.9762   -4.8084    6.9247 H   0  0  0  0  0  0  0  0  0  0  0  0
    6.2543   -3.2446    6.7295 H   0  0  0  0  0  0  0  0  0  0  0  0
    7.3646   -5.9388    4.8176 H   0  0  0  0  0  0  0  0  0  0  0  0
    5.9906   -6.6804    4.3300 H   0  0  0  0  0  0  0  0  0  0  0  0
    8.0096   -5.1712    2.8518 H   0  0  0  0  0  0  0  0  0  0  0  0
    7.1629   -6.5589    2.3900 H   0  0  0  0  0  0  0  0  0  0  0  0
    6.8999   -3.8257    1.3884 H   0  0  0  0  0  0  0  0  0  0  0  0
    6.6678   -5.3261    0.6384 H   0  0  0  0  0  0  0  0  0  0  0  0
    4.8831   -3.9788    0.1395 H   0  0  0  0  0  0  0  0  0  0  0  0
    2.9658   -5.3573    0.4701 H   0  0  0  0  0  0  0  0  0  0  0  0
    4.3564   -6.3308    0.2550 H   0  0  0  0  0  0  0  0  0  0  0  0
    4.7938   -7.5612    3.2732 H   0  0  0  0  0  0  0  0  0  0  0  0
    3.3070   -5.7408    4.2047 H   0  0  0  0  0  0  0  0  0  0  0  0
    2.9839   -8.7810    1.1865 H   0  0  0  0  0  0  0  0  0  0  0  0
    1.9213   -7.4786    0.6057 H   0  0  0  0  0  0  0  0  0  0  0  0
    1.2523   -8.7495    1.5278 H   0  0  0  0  0  0  0  0  0  0  0  0
    1.0900   -6.3511    5.1082 H   0  0  0  0  0  0  0  0  0  0  0  0
   -0.4962   -7.6490    6.2872 H   0  0  0  0  0  0  0  0  0  0  0  0
    1.4194  -12.1680    3.5850 H   0  0  0  0  0  0  0  0  0  0  0  0
   -0.0767  -12.2029    4.4982 H   0  0  0  0  0  0  0  0  0  0  0  0
    1.4372  -12.0986    5.3275 H   0  0  0  0  0  0  0  0  0  0  0  0
    0.0971  -10.4273    2.3234 H   0  0  0  0  0  0  0  0  0  0  0  0
   -0.2286   -8.8168    3.0061 H   0  0  0  0  0  0  0  0  0  0  0  0
   -1.1764  -10.1867    3.4725 H   0  0  0  0  0  0  0  0  0  0  0  0
    2.3756   -9.9201    3.0021 H   0  0  0  0  0  0  0  0  0  0  0  0
    3.2726  -11.1769    5.1529 H   0  0  0  0  0  0  0  0  0  0  0  0
    4.2633  -10.9558    3.1715 H   0  0  0  0  0  0  0  0  0  0  0  0
    4.8387   -9.4322    6.1222 H   0  0  0  0  0  0  0  0  0  0  0  0
    4.4863   -7.8358    4.5980 H   0  0  0  0  0  0  0  0  0  0  0  0
    3.2156   -5.8692    8.2725 H   0  0  0  0  0  0  0  0  0  0  0  0
    2.7325   -7.4953    7.9693 H   0  0  0  0  0  0  0  0  0  0  0  0
    1.9281   -6.1901    7.1583 H   0  0  0  0  0  0  0  0  0  0  0  0
    5.6003   -6.3521    7.8423 H   0  0  0  0  0  0  0  0  0  0  0  0
    6.0744   -7.3355    6.4743 H   0  0  0  0  0  0  0  0  0  0  0  0
    5.0469   -7.9691    7.7468 H   0  0  0  0  0  0  0  0  0  0  0  0
    4.5953   -4.6965    6.9817 H   0  0  0  0  0  0  0  0  0  0  0  0
    2.1920   -4.6596    5.7295 H   0  0  0  0  0  0  0  0  0  0  0  0
    2.9484   -3.4565    6.6795 H   0  0  0  0  0  0  0  0  0  0  0  0
    2.0411   -2.9607    4.1784 H   0  0  0  0  0  0  0  0  0  0  0  0
    3.3954   -2.1280    4.7753 H   0  0  0  0  0  0  0  0  0  0  0  0
    5.3566   -2.6353    4.6897 H   0  0  0  0  0  0  0  0  0  0  0  0
    6.1288   -3.4041    3.4943 H   0  0  0  0  0  0  0  0  0  0  0  0
    4.5103   -1.1346    2.5502 H   0  0  0  0  0  0  0  0  0  0  0  0
    4.8083   -1.4581    0.8509 H   0  0  0  0  0  0  0  0  0  0  0  0
    5.9770   -1.9549    2.0231 H   0  0  0  0  0  0  0  0  0  0  0  0
    2.2584   -2.0363    1.9314 H   0  0  0  0  0  0  0  0  0  0  0  0
    2.0399   -3.6155    1.2315 H   0  0  0  0  0  0  0  0  0  0  0  0
    2.8766   -2.4027    0.3301 H   0  0  0  0  0  0  0  0  0  0  0  0
  2  1  1  1
  1 41  1  0
  1 42  1  0
  1 43  1  0
  2 33  1  0
  2 37  1  0
  2  3  1  0
  3  4  1  0
  3 44  1  0
  3 45  1  0
  4  5  1  0
  4 46  1  0
  4 47  1  0
  5  6  1  0
  5 48  1  0
  5 49  1  0
  6 38  1  0
  6  7  1  0
  6 50  1  6
  7  8  1  0
  7 51  1  0
  7 52  1  0
  8 14  1  0
  8  9  1  1
  8 10  1  0
  9 53  1  0
 10 36  1  0
 10 11  1  0
 10 54  1  1
 11 12  1  0
 12 13  2  0
 12 14  1  0
 14 15  1  6
 14 16  1  0
 15 55  1  0
 15 56  1  0
 15 57  1  0
 16 24  1  0
 16 29  1  0
 16 17  1  1
 17 18  2  0
 17 58  1  0
 18 19  1  0
 18 59  1  0
 19 20  2  0
 19 21  1  0
 21 22  1  0
 21 23  1  0
 21 24  1  0
 22 60  1  0
 22 61  1  0
 22 62  1  0
 23 63  1  0
 23 64  1  0
 23 65  1  0
 24 25  1  0
 24 66  1  6
 25 26  1  0
 25 27  1  0
 25 67  1  1
 26 68  1  0
 27 28  1  0
 27 29  1  0
 27 69  1  1
 29 30  1  0
 29 70  1  6
 30 31  1  0
 30 32  1  0
 30 33  1  0
 31 71  1  0
 31 72  1  0
 31 73  1  0
 32 74  1  0
 32 75  1  0
 32 76  1  0
 33 34  1  0
 33 77  1  1
 34 35  1  0
 34 78  1  0
 34 79  1  0
 36 35  1  1
 35 80  1  0
 35 81  1  0
 36 37  1  0
 36 38  1  0
 37 82  1  0
 37 83  1  0
 38 39  1  0
 38 40  1  0
 39 84  1  0
 39 85  1  0
 39 86  1  0
 40 87  1  0
 40 88  1  0
 40 89  1  0
M  END
>  <i_m_ct_stereo_status>  (108) 
1

>  <s_m_source_file>  (108) 
/var/tmp/pbs.5076255.sched01/tmpazi1eam_/42934yjxx2.sdf

>  <i_m_source_file_index>  (108) 
1

>  <i_lp_mmshare_version>  (108) 
48012

>  <i_f3d_flags>  (108) 
0

>  <s_epik_input>  (108) 
Tz1DMU9bQ0BASF0oW0NAQF0yKFtPSF0pW0NAXTEoW0NAQF0zNDUpW0NIM10pW0NAQF02N1tDSDJdW0NIMl1bQ0hdKFtDQF0oW0NIM10pKFtDSDJdNilbQ0gyXVtDSDJdW0NIMl1bQ0BASF0oW0NIMl0yKUM3KFtDSDNdKVtDSDNdKUMoW0NIM10pKFtDSDNdKVtDQEhdNVtDQEBIXShGKVtDQEhdKFtPSF0pW0NASF00QyhbQ0gzXSkoW0NIM10pQyg9TylbQ0hdPVtDSF0z

>  <s_epik_cmdline>  (108) 
J2VwaWtfcHl0aG9uJywgJy1waHQnLCAnMi4wJywgJy1waCcsICc3LjAnLCAnLXRuJywgJzgnLCAnLW1hJywgJzIwMCcsICctaW1hZScsICc8aW5maWxlLm1hZT4nLCAnLW9tYWUnLCAnPG91dGZpbGUubWFlPic=

>  <r_lp_tautomer_probability>  (108) 
1

>  <r_epik_Ionization_Penalty>  (108) 
3.45864e-06

>  <r_epik_Ionization_Penalty_Charging>  (108) 
0

>  <r_epik_Ionization_Penalty_Neutral>  (108) 
3.45864e-06

>  <r_epik_State_Penalty>  (108) 
-0

>  <r_epik_Charging_Adjusted_Penalty>  (108) 
0

>  <i_epik_Tot_Q>  (108) 
0

>  <i_epik_Tot_abs_Q>  (108) 
0

>  <s_epik_Chemistry_Notes>  (108) 
This compound has an ester and may undergo hydrolysis at high or low pH.

>  <s_lp_Force_Field>  (108) 
OPLS3e

>  <r_lp_Energy>  (108) 
261.847

>  <b_lp_Chiralities_Consistent>  (108) 
1

>  <s_lp_Variant>  (108) 
28:0-1

>  <s_i_glide_gridfile>  (108) 
pfpi4k_grid

>  <i_i_glide_lignum>  (108) 
1

>  <i_i_glide_rotatable_bonds>  (108) 
2

>  <r_i_docking_score>  (108) 
-1.95704

>  <r_i_glide_ligand_efficiency>  (108) 
-0.0489261

>  <r_i_glide_ligand_efficiency_sa>  (108) 
-0.167325

>  <r_i_glide_ligand_efficiency_ln>  (108) 
-0.41738

>  <r_i_glide_gscore>  (108) 
-1.95704

>  <r_i_glide_lipo>  (108) 
-0.281192

>  <r_i_glide_hbond>  (108) 
-0.216781

>  <r_i_glide_metal>  (108) 
-0

>  <r_i_glide_rewards>  (108) 
0

>  <r_i_glide_evdw>  (108) 
-18.9416

>  <r_i_glide_ecoul>  (108) 
-2.394

>  <r_i_glide_erotb>  (108) 
0

>  <r_i_glide_esite>  (108) 
-0.15289

>  <r_i_glide_emodel>  (108) 
-24.6083

>  <r_i_glide_energy>  (108) 
-21.3356

>  <r_i_glide_einternal>  (108) 
0.3392

>  <r_i_glide_intrahb_reward>  (108) 
-0

>  <i_i_glide_confnum>  (108) 
2

>  <i_i_glide_posenum>  (108) 
2

>  <r_i_glide_eff_state_penalty>  (108) 
0

>  <ligand_id>  (108) 
28

>  <original_smiles>  (108) 
CC12CCCC3CC4(O)C5OC(=O)C4(C)C46C=CC(=O)C(C)(C)C4C(O)C(F)C6C(C)(C)C1CCC5(C2)C3(C)C

>  <smiles>  (108) 
[H]OC1([H])C([H])(F)C2([H])C3(C([H])=C([H])C(=O)C(C([H])([H])[H])(C([H])([H])[H])C13[H])C1(C([H])([H])[H])C(=O)OC3([H])C1(O[H])C([H])([H])C1([H])C([H])([H])C([H])([H])C([H])([H])C4(C([H])([H])[H])C([H])([H])C3(C([H])([H])C([H])([H])C4([H])C2(C([H])([H])[H])C([H])([H])[H])C1(C([H])([H])[H])C([H])([H])[H]

$$$$
28:0:2
     RDKit          3D

 89 95  0  0  1  0  0  0  0  0999 V2000
    6.3650  -10.0169    8.8370 C   0  0  0  0  0  0  0  0  0  0  0  0
    5.9306   -9.6920    7.3759 C   0  0  1  0  0  0  0  0  0  0  0  0
    5.5060  -11.0544    6.7160 C   0  0  0  0  0  0  0  0  0  0  0  0
    6.4386  -11.9364    5.7641 C   0  0  0  0  0  0  0  0  0  0  0  0
    7.3930  -11.5327    4.5343 C   0  0  0  0  0  0  0  0  0  0  0  0
    7.4614  -10.2192    3.6341 C   0  0  1  0  0  0  0  0  0  0  0  0
    6.1979   -9.9789    2.7439 C   0  0  0  0  0  0  0  0  0  0  0  0
    4.9971   -9.5482    3.6143 C   0  0  1  0  0  0  0  0  0  0  0  0
    4.4645  -10.7892    3.9865 O   0  0  0  0  0  0  0  0  0  0  0  0
    5.5419   -8.4935    4.5770 C   0  0  2  0  0  0  0  0  0  0  0  0
    5.4169   -7.3180    3.7812 O   0  0  0  0  0  0  0  0  0  0  0  0
    4.5131   -7.4205    2.8521 C   0  0  0  0  0  0  0  0  0  0  0  0
    4.2688   -6.6029    1.9633 O   0  0  0  0  0  0  0  0  0  0  0  0
    3.7594   -8.7156    3.1175 C   0  0  1  0  0  0  0  0  0  0  0  0
    3.3610   -9.2729    1.7198 C   0  0  0  0  0  0  0  0  0  0  0  0
    2.5353   -8.4143    4.2413 C   0  0  1  0  0  0  0  0  0  0  0  0
    2.3795   -6.9092    4.5626 C   0  0  0  0  0  0  0  0  0  0  0  0
    1.2517   -6.1798    4.5738 C   0  0  0  0  0  0  0  0  0  0  0  0
   -0.0152   -6.7751    4.1779 C   0  0  0  0  0  0  0  0  0  0  0  0
   -1.0929   -6.3597    4.5872 O   0  0  0  0  0  0  0  0  0  0  0  0
    0.0582   -7.9119    3.1631 C   0  0  0  0  0  0  0  0  0  0  0  0
   -1.3580   -8.5300    2.9347 C   0  0  0  0  0  0  0  0  0  0  0  0
    0.4495   -7.2710    1.8120 C   0  0  0  0  0  0  0  0  0  0  0  0
    1.1406   -8.9682    3.6338 C   0  0  2  0  0  0  0  0  0  0  0  0
    0.6285   -9.9868    4.6516 C   0  0  1  0  0  0  0  0  0  0  0  0
    1.0909  -11.2864    4.3282 O   0  0  0  0  0  0  0  0  0  0  0  0
    1.1595   -9.5667    5.9928 C   0  0  2  0  0  0  0  0  0  0  0  0
    0.3435   -8.6440    6.4981 F   0  0  0  0  0  0  0  0  0  0  0  0
    2.6082   -9.0845    5.7528 C   0  0  2  0  0  0  0  0  0  0  0  0
    3.3181   -8.5610    7.1760 C   0  0  0  0  0  0  0  0  0  0  0  0
    2.6877   -7.2256    7.6729 C   0  0  0  0  0  0  0  0  0  0  0  0
    2.8995   -9.5609    8.2993 C   0  0  0  0  0  0  0  0  0  0  0  0
    4.9322   -8.4140    7.4135 C   0  0  2  0  0  0  0  0  0  0  0  0
    5.5889   -7.0337    6.9119 C   0  0  0  0  0  0  0  0  0  0  0  0
    6.8950   -7.0930    6.0348 C   0  0  0  0  0  0  0  0  0  0  0  0
    6.9347   -8.4785    5.3385 C   0  0  1  0  0  0  0  0  0  0  0  0
    7.1843   -9.3124    6.6359 C   0  0  0  0  0  0  0  0  0  0  0  0
    8.0217   -8.8866    4.2899 C   0  0  0  0  0  0  0  0  0  0  0  0
    9.4532   -9.0916    4.8775 C   0  0  0  0  0  0  0  0  0  0  0  0
    8.2722   -7.7714    3.2314 C   0  0  0  0  0  0  0  0  0  0  0  0
    7.1149  -10.8075    8.8641 H   0  0  0  0  0  0  0  0  0  0  0  0
    5.5211  -10.3433    9.4473 H   0  0  0  0  0  0  0  0  0  0  0  0
    6.8006   -9.1457    9.3319 H   0  0  0  0  0  0  0  0  0  0  0  0
    5.2945  -11.7315    7.5457 H   0  0  0  0  0  0  0  0  0  0  0  0
    4.5220  -11.0067    6.3130 H   0  0  0  0  0  0  0  0  0  0  0  0
    7.0881  -12.4996    6.4416 H   0  0  0  0  0  0  0  0  0  0  0  0
    5.7723  -12.7094    5.3752 H   0  0  0  0  0  0  0  0  0  0  0  0
    8.4062  -11.7126    4.8843 H   0  0  0  0  0  0  0  0  0  0  0  0
    7.2625  -12.3478    3.8215 H   0  0  0  0  0  0  0  0  0  0  0  0
    8.2175  -10.4937    2.9009 H   0  0  0  0  0  0  0  0  0  0  0  0
    6.4218   -9.2367    1.9813 H   0  0  0  0  0  0  0  0  0  0  0  0
    5.9719  -10.8723    2.1611 H   0  0  0  0  0  0  0  0  0  0  0  0
    4.3026  -11.2956    3.2032 H   0  0  0  0  0  0  0  0  0  0  0  0
    4.7393   -8.4049    5.2465 H   0  0  0  0  0  0  0  0  0  0  0  0
    3.0417  -10.3139    1.7729 H   0  0  0  0  0  0  0  0  0  0  0  0
    4.1957   -9.2498    1.0121 H   0  0  0  0  0  0  0  0  0  0  0  0
    2.5732   -8.6967    1.2459 H   0  0  0  0  0  0  0  0  0  0  0  0
    3.2715   -6.3882    4.8687 H   0  0  0  0  0  0  0  0  0  0  0  0
    1.2479   -5.1415    4.8609 H   0  0  0  0  0  0  0  0  0  0  0  0
   -1.3147   -9.4464    2.3453 H   0  0  0  0  0  0  0  0  0  0  0  0
   -2.0173   -7.8405    2.4096 H   0  0  0  0  0  0  0  0  0  0  0  0
   -1.8808   -8.7595    3.8661 H   0  0  0  0  0  0  0  0  0  0  0  0
    0.4273   -8.0055    1.0061 H   0  0  0  0  0  0  0  0  0  0  0  0
    1.4489   -6.8317    1.8423 H   0  0  0  0  0  0  0  0  0  0  0  0
   -0.2490   -6.4817    1.5330 H   0  0  0  0  0  0  0  0  0  0  0  0
    1.2562   -9.5853    2.7471 H   0  0  0  0  0  0  0  0  0  0  0  0
   -0.4473  -10.0249    4.6915 H   0  0  0  0  0  0  0  0  0  0  0  0
    0.6062  -11.6043    3.5824 H   0  0  0  0  0  0  0  0  0  0  0  0
    1.1004  -10.4179    6.6604 H   0  0  0  0  0  0  0  0  0  0  0  0
    3.0141  -10.0518    5.5931 H   0  0  0  0  0  0  0  0  0  0  0  0
    3.0616   -6.9598    8.6595 H   0  0  0  0  0  0  0  0  0  0  0  0
    1.6099   -7.2758    7.7858 H   0  0  0  0  0  0  0  0  0  0  0  0
    2.8861   -6.3653    7.0412 H   0  0  0  0  0  0  0  0  0  0  0  0
    3.3796   -9.3488    9.2536 H   0  0  0  0  0  0  0  0  0  0  0  0
    3.1308  -10.5945    8.0503 H   0  0  0  0  0  0  0  0  0  0  0  0
    1.8358   -9.5206    8.5251 H   0  0  0  0  0  0  0  0  0  0  0  0
    4.9568   -8.1654    8.4748 H   0  0  0  0  0  0  0  0  0  0  0  0
    4.8613   -6.5160    6.2929 H   0  0  0  0  0  0  0  0  0  0  0  0
    5.7435   -6.3535    7.7474 H   0  0  0  0  0  0  0  0  0  0  0  0
    6.9271   -6.2657    5.3271 H   0  0  0  0  0  0  0  0  0  0  0  0
    7.7757   -6.8981    6.6521 H   0  0  0  0  0  0  0  0  0  0  0  0
    7.8431   -8.7937    7.3337 H   0  0  0  0  0  0  0  0  0  0  0  0
    7.8179  -10.1738    6.5226 H   0  0  0  0  0  0  0  0  0  0  0  0
    9.7619   -8.2370    5.4831 H   0  0  0  0  0  0  0  0  0  0  0  0
   10.1940   -9.1810    4.0843 H   0  0  0  0  0  0  0  0  0  0  0  0
    9.5915   -9.9875    5.4818 H   0  0  0  0  0  0  0  0  0  0  0  0
    8.6412   -6.8594    3.6990 H   0  0  0  0  0  0  0  0  0  0  0  0
    7.4206   -7.4854    2.6283 H   0  0  0  0  0  0  0  0  0  0  0  0
    9.0122   -8.0933    2.5032 H   0  0  0  0  0  0  0  0  0  0  0  0
  2  1  1  1
  1 41  1  0
  1 42  1  0
  1 43  1  0
  2 33  1  0
  2 37  1  0
  2  3  1  0
  3  4  1  0
  3 44  1  0
  3 45  1  0
  4  5  1  0
  4 46  1  0
  4 47  1  0
  5  6  1  0
  5 48  1  0
  5 49  1  0
  6 38  1  0
  6  7  1  0
  6 50  1  6
  7  8  1  0
  7 51  1  0
  7 52  1  0
  8 14  1  0
  8  9  1  1
  8 10  1  0
  9 53  1  0
 10 36  1  0
 10 11  1  0
 10 54  1  1
 11 12  1  0
 12 13  2  0
 12 14  1  0
 14 15  1  6
 14 16  1  0
 15 55  1  0
 15 56  1  0
 15 57  1  0
 16 24  1  0
 16 29  1  0
 16 17  1  1
 17 18  2  0
 17 58  1  0
 18 19  1  0
 18 59  1  0
 19 20  2  0
 19 21  1  0
 21 22  1  0
 21 23  1  0
 21 24  1  0
 22 60  1  0
 22 61  1  0
 22 62  1  0
 23 63  1  0
 23 64  1  0
 23 65  1  0
 24 25  1  0
 24 66  1  6
 25 26  1  0
 25 27  1  0
 25 67  1  1
 26 68  1  0
 27 28  1  0
 27 29  1  0
 27 69  1  1
 29 30  1  0
 29 70  1  6
 30 31  1  0
 30 32  1  0
 30 33  1  0
 31 71  1  0
 31 72  1  0
 31 73  1  0
 32 74  1  0
 32 75  1  0
 32 76  1  0
 33 34  1  0
 33 77  1  1
 34 35  1  0
 34 78  1  0
 34 79  1  0
 36 35  1  1
 35 80  1  0
 35 81  1  0
 36 37  1  0
 36 38  1  0
 37 82  1  0
 37 83  1  0
 38 39  1  0
 38 40  1  0
 39 84  1  0
 39 85  1  0
 39 86  1  0
 40 87  1  0
 40 88  1  0
 40 89  1  0
M  END
>  <i_m_ct_stereo_status>  (109) 
1

>  <s_m_source_file>  (109) 
/var/tmp/pbs.5076255.sched01/tmpazi1eam_/42934yjxx2.sdf

>  <i_m_source_file_index>  (109) 
1

>  <i_lp_mmshare_version>  (109) 
48012

>  <i_f3d_flags>  (109) 
0

>  <s_epik_input>  (109) 
Tz1DMU9bQ0BASF0oW0NAQF0yKFtPSF0pW0NAXTEoW0NAQF0zNDUpW0NIM10pW0NAQF02N1tDSDJdW0NIMl1bQ0hdKFtDQF0oW0NIM10pKFtDSDJdNilbQ0gyXVtDSDJdW0NIMl1bQ0BASF0oW0NIMl0yKUM3KFtDSDNdKVtDSDNdKUMoW0NIM10pKFtDSDNdKVtDQEhdNVtDQEBIXShGKVtDQEhdKFtPSF0pW0NASF00QyhbQ0gzXSkoW0NIM10pQyg9TylbQ0hdPVtDSF0z

>  <s_epik_cmdline>  (109) 
J2VwaWtfcHl0aG9uJywgJy1waHQnLCAnMi4wJywgJy1waCcsICc3LjAnLCAnLXRuJywgJzgnLCAnLW1hJywgJzIwMCcsICctaW1hZScsICc8aW5maWxlLm1hZT4nLCAnLW9tYWUnLCAnPG91dGZpbGUubWFlPic=

>  <r_lp_tautomer_probability>  (109) 
1

>  <r_epik_Ionization_Penalty>  (109) 
3.45864e-06

>  <r_epik_Ionization_Penalty_Charging>  (109) 
0

>  <r_epik_Ionization_Penalty_Neutral>  (109) 
3.45864e-06

>  <r_epik_State_Penalty>  (109) 
-0

>  <r_epik_Charging_Adjusted_Penalty>  (109) 
0

>  <i_epik_Tot_Q>  (109) 
0

>  <i_epik_Tot_abs_Q>  (109) 
0

>  <s_epik_Chemistry_Notes>  (109) 
This compound has an ester and may undergo hydrolysis at high or low pH.

>  <s_lp_Force_Field>  (109) 
OPLS3e

>  <r_lp_Energy>  (109) 
261.847

>  <b_lp_Chiralities_Consistent>  (109) 
1

>  <s_lp_Variant>  (109) 
28:0-1

>  <s_i_glide_gridfile>  (109) 
pfpi4k_grid

>  <i_i_glide_lignum>  (109) 
1

>  <i_i_glide_rotatable_bonds>  (109) 
2

>  <r_i_docking_score>  (109) 
-1.81953

>  <r_i_glide_ligand_efficiency>  (109) 
-0.0454883

>  <r_i_glide_ligand_efficiency_sa>  (109) 
-0.155568

>  <r_i_glide_ligand_efficiency_ln>  (109) 
-0.388053

>  <r_i_glide_gscore>  (109) 
-1.81953

>  <r_i_glide_lipo>  (109) 
-0.0258253

>  <r_i_glide_hbond>  (109) 
0

>  <r_i_glide_metal>  (109) 
-0

>  <r_i_glide_rewards>  (109) 
0

>  <r_i_glide_evdw>  (109) 
-27.6239

>  <r_i_glide_ecoul>  (109) 
-2.22359

>  <r_i_glide_erotb>  (109) 
0

>  <r_i_glide_esite>  (109) 
-0.0789738

>  <r_i_glide_emodel>  (109) 
-33.4626

>  <r_i_glide_energy>  (109) 
-29.8475

>  <r_i_glide_einternal>  (109) 
0.422582

>  <r_i_glide_intrahb_reward>  (109) 
-0

>  <i_i_glide_confnum>  (109) 
2

>  <i_i_glide_posenum>  (109) 
1

>  <r_i_glide_eff_state_penalty>  (109) 
0

>  <ligand_id>  (109) 
28

>  <original_smiles>  (109) 
CC12CCCC3CC4(O)C5OC(=O)C4(C)C46C=CC(=O)C(C)(C)C4C(O)C(F)C6C(C)(C)C1CCC5(C2)C3(C)C

>  <smiles>  (109) 
[H]OC1([H])C([H])(F)C2([H])C3(C([H])=C([H])C(=O)C(C([H])([H])[H])(C([H])([H])[H])C13[H])C1(C([H])([H])[H])C(=O)OC3([H])C1(O[H])C([H])([H])C1([H])C([H])([H])C([H])([H])C([H])([H])C4(C([H])([H])[H])C([H])([H])C3(C([H])([H])C([H])([H])C4([H])C2(C([H])([H])[H])C([H])([H])[H])C1(C([H])([H])[H])C([H])([H])[H]

$$$$
28:1:0
     RDKit          3D

 89 95  0  0  1  0  0  0  0  0999 V2000
    5.9096  -10.7040    5.3919 C   0  0  0  0  0  0  0  0  0  0  0  0
    4.8059   -9.6782    5.0328 C   0  0  1  0  0  0  0  0  0  0  0  0
    4.4692   -8.7769    6.2886 C   0  0  0  0  0  0  0  0  0  0  0  0
    3.0547   -8.6951    7.0515 C   0  0  0  0  0  0  0  0  0  0  0  0
    1.5672   -9.1496    6.6367 C   0  0  0  0  0  0  0  0  0  0  0  0
    0.7980   -9.0488    5.2410 C   0  0  1  0  0  0  0  0  0  0  0  0
    0.7547   -7.5960    4.6381 C   0  0  0  0  0  0  0  0  0  0  0  0
    2.0914   -7.2125    3.9373 C   0  0  1  0  0  0  0  0  0  0  0  0
    2.8567   -6.7988    5.0104 O   0  0  0  0  0  0  0  0  0  0  0  0
    2.4232   -8.4007    3.0579 C   0  0  2  0  0  0  0  0  0  0  0  0
    1.6420   -8.1152    1.9104 O   0  0  0  0  0  0  0  0  0  0  0  0
    1.4989   -6.8061    1.7464 C   0  0  0  0  0  0  0  0  0  0  0  0
    0.8020   -6.2558    0.8937 O   0  0  0  0  0  0  0  0  0  0  0  0
    2.2941   -6.0931    2.8608 C   0  0  1  0  0  0  0  0  0  0  0  0
    1.4318   -4.8882    3.3264 C   0  0  0  0  0  0  0  0  0  0  0  0
    3.8984   -5.7481    2.3975 C   0  0  1  0  0  0  0  0  0  0  0  0
    4.2023   -6.3302    0.9959 C   0  0  0  0  0  0  0  0  0  0  0  0
    4.6802   -5.6881   -0.0873 C   0  0  0  0  0  0  0  0  0  0  0  0
    4.9185   -4.2539   -0.0853 C   0  0  0  0  0  0  0  0  0  0  0  0
    5.6811   -3.7027   -0.8837 O   0  0  0  0  0  0  0  0  0  0  0  0
    4.1031   -3.4337    0.9150 C   0  0  0  0  0  0  0  0  0  0  0  0
    4.6093   -1.9631    0.9451 C   0  0  0  0  0  0  0  0  0  0  0  0
    2.6714   -3.3468    0.3464 C   0  0  0  0  0  0  0  0  0  0  0  0
    4.1167   -4.1398    2.3350 C   0  0  2  0  0  0  0  0  0  0  0  0
    5.3744   -3.8342    3.1706 C   0  0  1  0  0  0  0  0  0  0  0  0
    5.0361   -3.4529    4.4922 O   0  0  0  0  0  0  0  0  0  0  0  0
    6.1968   -5.0930    3.1860 C   0  0  2  0  0  0  0  0  0  0  0  0
    6.9194   -5.1191    2.0664 F   0  0  0  0  0  0  0  0  0  0  0  0
    5.2015   -6.2533    3.3060 C   0  0  2  0  0  0  0  0  0  0  0  0
    6.0312   -7.6945    3.3331 C   0  0  0  0  0  0  0  0  0  0  0  0
    6.8498   -7.9528    2.0362 C   0  0  0  0  0  0  0  0  0  0  0  0
    7.1379   -7.6473    4.4219 C   0  0  0  0  0  0  0  0  0  0  0  0
    5.1587   -8.9847    3.6571 C   0  0  1  0  0  0  0  0  0  0  0  0
    4.7158   -9.9024    2.4099 C   0  0  0  0  0  0  0  0  0  0  0  0
    3.2556  -10.5352    2.4757 C   0  0  0  0  0  0  0  0  0  0  0  0
    2.5130   -9.8818    3.6437 C   0  0  1  0  0  0  0  0  0  0  0  0
    3.5148  -10.4391    4.7601 C   0  0  0  0  0  0  0  0  0  0  0  0
    1.0635  -10.1817    4.1433 C   0  0  0  0  0  0  0  0  0  0  0  0
    0.8702  -11.6126    4.7060 C   0  0  0  0  0  0  0  0  0  0  0  0
    0.0049  -10.1514    2.9999 C   0  0  0  0  0  0  0  0  0  0  0  0
    5.5799  -11.3757    6.1876 H   0  0  0  0  0  0  0  0  0  0  0  0
    6.8296  -10.2295    5.7298 H   0  0  0  0  0  0  0  0  0  0  0  0
    6.1573  -11.3252    4.5290 H   0  0  0  0  0  0  0  0  0  0  0  0
    5.1823   -9.0644    7.0631 H   0  0  0  0  0  0  0  0  0  0  0  0
    4.7978   -7.7620    6.0974 H   0  0  0  0  0  0  0  0  0  0  0  0
    3.2296   -9.2546    7.9761 H   0  0  0  0  0  0  0  0  0  0  0  0
    2.9782   -7.6753    7.4308 H   0  0  0  0  0  0  0  0  0  0  0  0
    1.4456  -10.1672    7.0012 H   0  0  0  0  0  0  0  0  0  0  0  0
    0.9366   -8.6047    7.3410 H   0  0  0  0  0  0  0  0  0  0  0  0
   -0.2341   -9.2370    5.5434 H   0  0  0  0  0  0  0  0  0  0  0  0
   -0.0819   -7.5157    3.9429 H   0  0  0  0  0  0  0  0  0  0  0  0
    0.5101   -6.8757    5.4236 H   0  0  0  0  0  0  0  0  0  0  0  0
    2.9022   -7.5284    5.6169 H   0  0  0  0  0  0  0  0  0  0  0  0
    3.3168   -8.1545    2.5377 H   0  0  0  0  0  0  0  0  0  0  0  0
    1.8151   -4.4394    4.2461 H   0  0  0  0  0  0  0  0  0  0  0  0
    0.3977   -5.1798    3.5306 H   0  0  0  0  0  0  0  0  0  0  0  0
    1.3544   -4.1107    2.5672 H   0  0  0  0  0  0  0  0  0  0  0  0
    4.0415   -7.3823    0.8697 H   0  0  0  0  0  0  0  0  0  0  0  0
    4.8672   -6.2248   -1.0050 H   0  0  0  0  0  0  0  0  0  0  0  0
    4.1686   -1.3986    1.7673 H   0  0  0  0  0  0  0  0  0  0  0  0
    4.3524   -1.4356    0.0235 H   0  0  0  0  0  0  0  0  0  0  0  0
    5.6943   -1.8867    1.0237 H   0  0  0  0  0  0  0  0  0  0  0  0
    2.0447   -2.6832    0.9488 H   0  0  0  0  0  0  0  0  0  0  0  0
    2.2046   -4.3269    0.2929 H   0  0  0  0  0  0  0  0  0  0  0  0
    2.6627   -2.9459   -0.6730 H   0  0  0  0  0  0  0  0  0  0  0  0
    3.3669   -3.5743    2.8779 H   0  0  0  0  0  0  0  0  0  0  0  0
    5.9754   -3.0180    2.7907 H   0  0  0  0  0  0  0  0  0  0  0  0
    4.5381   -4.1551    4.8907 H   0  0  0  0  0  0  0  0  0  0  0  0
    6.8958   -5.0643    4.0178 H   0  0  0  0  0  0  0  0  0  0  0  0
    4.9203   -6.1133    4.3410 H   0  0  0  0  0  0  0  0  0  0  0  0
    7.2875   -8.9491    2.0459 H   0  0  0  0  0  0  0  0  0  0  0  0
    7.6963   -7.2779    1.9365 H   0  0  0  0  0  0  0  0  0  0  0  0
    6.2756   -7.8621    1.1211 H   0  0  0  0  0  0  0  0  0  0  0  0
    7.6398   -8.6065    4.5133 H   0  0  0  0  0  0  0  0  0  0  0  0
    6.7690   -7.3688    5.4048 H   0  0  0  0  0  0  0  0  0  0  0  0
    7.9375   -6.9506    4.1802 H   0  0  0  0  0  0  0  0  0  0  0  0
    4.4531   -8.2746    3.9742 H   0  0  0  0  0  0  0  0  0  0  0  0
    4.7365   -9.3229    1.4868 H   0  0  0  0  0  0  0  0  0  0  0  0
    5.4438  -10.6980    2.2389 H   0  0  0  0  0  0  0  0  0  0  0  0
    2.7311  -10.3766    1.5288 H   0  0  0  0  0  0  0  0  0  0  0  0
    3.3155  -11.6210    2.5585 H   0  0  0  0  0  0  0  0  0  0  0  0
    3.7956  -11.4720    4.5339 H   0  0  0  0  0  0  0  0  0  0  0  0
    3.0878  -10.6978    5.7080 H   0  0  0  0  0  0  0  0  0  0  0  0
    1.1731  -12.3632    3.9772 H   0  0  0  0  0  0  0  0  0  0  0  0
   -0.1673  -11.8164    4.9716 H   0  0  0  0  0  0  0  0  0  0  0  0
    1.4194  -11.8215    5.6150 H   0  0  0  0  0  0  0  0  0  0  0  0
    0.3533  -10.6974    2.1208 H   0  0  0  0  0  0  0  0  0  0  0  0
   -0.3129   -9.1678    2.6782 H   0  0  0  0  0  0  0  0  0  0  0  0
   -0.9322  -10.6177    3.2958 H   0  0  0  0  0  0  0  0  0  0  0  0
  2  1  1  1
  1 41  1  0
  1 42  1  0
  1 43  1  0
  2 33  1  0
  2 37  1  0
  2  3  1  0
  3  4  1  0
  3 44  1  0
  3 45  1  0
  4  5  1  0
  4 46  1  0
  4 47  1  0
  5  6  1  0
  5 48  1  0
  5 49  1  0
  6 38  1  0
  6  7  1  0
  6 50  1  1
  7  8  1  0
  7 51  1  0
  7 52  1  0
  8 14  1  0
  8  9  1  1
  8 10  1  0
  9 53  1  0
 10 36  1  0
 10 11  1  0
 10 54  1  6
 11 12  1  0
 12 13  2  0
 12 14  1  0
 14 15  1  1
 14 16  1  0
 15 55  1  0
 15 56  1  0
 15 57  1  0
 16 24  1  0
 16 29  1  0
 16 17  1  6
 17 18  2  0
 17 58  1  0
 18 19  1  0
 18 59  1  0
 19 20  2  0
 19 21  1  0
 21 22  1  0
 21 23  1  0
 21 24  1  0
 22 60  1  0
 22 61  1  0
 22 62  1  0
 23 63  1  0
 23 64  1  0
 23 65  1  0
 24 25  1  0
 24 66  1  1
 25 26  1  0
 25 27  1  0
 25 67  1  6
 26 68  1  0
 27 28  1  0
 27 29  1  0
 27 69  1  1
 29 30  1  0
 29 70  1  1
 30 31  1  0
 30 32  1  0
 30 33  1  0
 31 71  1  0
 31 72  1  0
 31 73  1  0
 32 74  1  0
 32 75  1  0
 32 76  1  0
 33 34  1  0
 33 77  1  6
 34 35  1  0
 34 78  1  0
 34 79  1  0
 36 35  1  6
 35 80  1  0
 35 81  1  0
 36 37  1  0
 36 38  1  0
 37 82  1  0
 37 83  1  0
 38 39  1  0
 38 40  1  0
 39 84  1  0
 39 85  1  0
 39 86  1  0
 40 87  1  0
 40 88  1  0
 40 89  1  0
M  END
>  <i_m_ct_stereo_status>  (110) 
1

>  <s_m_source_file>  (110) 
/var/tmp/pbs.5076255.sched01/tmpazi1eam_/42934yjxx2.sdf

>  <i_m_source_file_index>  (110) 
2

>  <i_lp_mmshare_version>  (110) 
48012

>  <i_f3d_flags>  (110) 
0

>  <s_epik_input>  (110) 
Tz1DMU9bQ0BASF0oW0NAQF0yKFtPSF0pW0NAXTEoW0NAQF0zNDUpW0NIM10pW0NAQF02N1tDSDJdW0NIMl1bQ0hdKFtDQF0oW0NIM10pKFtDSDJdNilbQ0gyXVtDSDJdW0NIMl1bQ0BASF0oW0NIMl0yKUM3KFtDSDNdKVtDSDNdKUMoW0NIM10pKFtDSDNdKVtDQEhdNVtDQEBIXShGKVtDQEhdKFtPSF0pW0NASF00QyhbQ0gzXSkoW0NIM10pQyg9TylbQ0hdPVtDSF0z

>  <s_epik_cmdline>  (110) 
J2VwaWtfcHl0aG9uJywgJy1waHQnLCAnMi4wJywgJy1waCcsICc3LjAnLCAnLXRuJywgJzgnLCAnLW1hJywgJzIwMCcsICctaW1hZScsICc8aW5maWxlLm1hZT4nLCAnLW9tYWUnLCAnPG91dGZpbGUubWFlPic=

>  <r_lp_tautomer_probability>  (110) 
1

>  <r_epik_Ionization_Penalty>  (110) 
3.45864e-06

>  <r_epik_Ionization_Penalty_Charging>  (110) 
0

>  <r_epik_Ionization_Penalty_Neutral>  (110) 
3.45864e-06

>  <r_epik_State_Penalty>  (110) 
-0

>  <r_epik_Charging_Adjusted_Penalty>  (110) 
0

>  <i_epik_Tot_Q>  (110) 
0

>  <i_epik_Tot_abs_Q>  (110) 
0

>  <s_epik_Chemistry_Notes>  (110) 
This compound has an ester and may undergo hydrolysis at high or low pH.

>  <s_lp_Force_Field>  (110) 
OPLS3e

>  <r_lp_Energy>  (110) 
292.319

>  <b_lp_Chiralities_Consistent>  (110) 
1

>  <s_lp_Variant>  (110) 
28:0-2

>  <s_i_glide_gridfile>  (110) 
pfpi4k_grid

>  <i_i_glide_lignum>  (110) 
2

>  <i_i_glide_rotatable_bonds>  (110) 
2

>  <r_i_docking_score>  (110) 
-2.72792

>  <r_i_glide_ligand_efficiency>  (110) 
-0.068198

>  <r_i_glide_ligand_efficiency_sa>  (110) 
-0.233234

>  <r_i_glide_ligand_efficiency_ln>  (110) 
-0.581785

>  <r_i_glide_gscore>  (110) 
-2.72792

>  <r_i_glide_lipo>  (110) 
-0.244957

>  <r_i_glide_hbond>  (110) 
-0.16

>  <r_i_glide_metal>  (110) 
-0

>  <r_i_glide_rewards>  (110) 
-0.127509

>  <r_i_glide_evdw>  (110) 
-29.2384

>  <r_i_glide_ecoul>  (110) 
-4.60627

>  <r_i_glide_erotb>  (110) 
0

>  <r_i_glide_esite>  (110) 
-0.0425966

>  <r_i_glide_emodel>  (110) 
-39.2391

>  <r_i_glide_energy>  (110) 
-33.8446

>  <r_i_glide_einternal>  (110) 
0.0181352

>  <r_i_glide_intrahb_reward>  (110) 
-0

>  <i_i_glide_confnum>  (110) 
2

>  <i_i_glide_posenum>  (110) 
1

>  <r_i_glide_eff_state_penalty>  (110) 
0

>  <ligand_id>  (110) 
28

>  <original_smiles>  (110) 
CC12CCCC3CC4(O)C5OC(=O)C4(C)C46C=CC(=O)C(C)(C)C4C(O)C(F)C6C(C)(C)C1CCC5(C2)C3(C)C

>  <smiles>  (110) 
[H]OC1([H])C([H])(F)C2([H])C3(C([H])=C([H])C(=O)C(C([H])([H])[H])(C([H])([H])[H])C13[H])C1(C([H])([H])[H])C(=O)OC3([H])C1(O[H])C([H])([H])C1([H])C([H])([H])C([H])([H])C([H])([H])C4(C([H])([H])[H])C([H])([H])C3(C([H])([H])C([H])([H])C4([H])C2(C([H])([H])[H])C([H])([H])[H])C1(C([H])([H])[H])C([H])([H])[H]

$$$$
28:1:1
     RDKit          3D

 89 95  0  0  1  0  0  0  0  0999 V2000
    5.9168  -10.7099    5.3503 C   0  0  0  0  0  0  0  0  0  0  0  0
    4.8126   -9.6809    5.0020 C   0  0  1  0  0  0  0  0  0  0  0  0
    4.4802   -8.7837    6.2602 C   0  0  0  0  0  0  0  0  0  0  0  0
    3.0704   -8.7060    7.0290 C   0  0  0  0  0  0  0  0  0  0  0  0
    1.5807   -9.1585    6.6231 C   0  0  0  0  0  0  0  0  0  0  0  0
    0.8037   -9.0461    5.2336 C   0  0  1  0  0  0  0  0  0  0  0  0
    0.7643   -7.5856    4.6414 C   0  0  0  0  0  0  0  0  0  0  0  0
    2.0980   -7.1929    3.9420 C   0  0  1  0  0  0  0  0  0  0  0  0
    2.8677   -6.7523    5.0080 O   0  0  0  0  0  0  0  0  0  0  0  0
    2.4257   -8.3842    3.0630 C   0  0  2  0  0  0  0  0  0  0  0  0
    1.6425   -8.1108    1.9169 O   0  0  0  0  0  0  0  0  0  0  0  0
    1.4892   -6.8029    1.7398 C   0  0  0  0  0  0  0  0  0  0  0  0
    0.7896   -6.2621    0.8855 O   0  0  0  0  0  0  0  0  0  0  0  0
    2.2969   -6.0817    2.8564 C   0  0  1  0  0  0  0  0  0  0  0  0
    1.4352   -4.8770    3.3277 C   0  0  0  0  0  0  0  0  0  0  0  0
    3.8993   -5.7386    2.3878 C   0  0  1  0  0  0  0  0  0  0  0  0
    4.1925   -6.3123    0.9841 C   0  0  0  0  0  0  0  0  0  0  0  0
    4.6636   -5.6710   -0.0997 C   0  0  0  0  0  0  0  0  0  0  0  0
    4.9070   -4.2326   -0.0983 C   0  0  0  0  0  0  0  0  0  0  0  0
    5.6634   -3.6846   -0.8938 O   0  0  0  0  0  0  0  0  0  0  0  0
    4.0976   -3.4179    0.9127 C   0  0  0  0  0  0  0  0  0  0  0  0
    4.6063   -1.9474    0.9472 C   0  0  0  0  0  0  0  0  0  0  0  0
    2.6636   -3.3257    0.3547 C   0  0  0  0  0  0  0  0  0  0  0  0
    4.1222   -4.1289    2.3290 C   0  0  2  0  0  0  0  0  0  0  0  0
    5.3831   -3.8279    3.1585 C   0  0  1  0  0  0  0  0  0  0  0  0
    5.0314   -3.4888    4.4893 O   0  0  0  0  0  0  0  0  0  0  0  0
    6.2086   -5.0871    3.1603 C   0  0  2  0  0  0  0  0  0  0  0  0
    6.9254   -5.1080    2.0364 F   0  0  0  0  0  0  0  0  0  0  0  0
    5.2078   -6.2444    3.2859 C   0  0  2  0  0  0  0  0  0  0  0  0
    6.0320   -7.6889    3.3031 C   0  0  0  0  0  0  0  0  0  0  0  0
    6.8423   -7.9456    2.0002 C   0  0  0  0  0  0  0  0  0  0  0  0
    7.1437   -7.6485    4.3860 C   0  0  0  0  0  0  0  0  0  0  0  0
    5.1583   -8.9780    3.6293 C   0  0  1  0  0  0  0  0  0  0  0  0
    4.7059   -9.8950    2.3823 C   0  0  0  0  0  0  0  0  0  0  0  0
    3.2497  -10.5228    2.4670 C   0  0  0  0  0  0  0  0  0  0  0  0
    2.5122   -9.8712    3.6361 C   0  0  1  0  0  0  0  0  0  0  0  0
    3.5203  -10.4386    4.7402 C   0  0  0  0  0  0  0  0  0  0  0  0
    1.0616  -10.1736    4.1325 C   0  0  0  0  0  0  0  0  0  0  0  0
    0.8761  -11.6098    4.6855 C   0  0  0  0  0  0  0  0  0  0  0  0
   -0.0012  -10.1376    2.9915 C   0  0  0  0  0  0  0  0  0  0  0  0
    5.5902  -11.3858    6.1430 H   0  0  0  0  0  0  0  0  0  0  0  0
    6.8382  -10.2384    5.6871 H   0  0  0  0  0  0  0  0  0  0  0  0
    6.1592  -11.3277    4.4828 H   0  0  0  0  0  0  0  0  0  0  0  0
    5.1972   -9.0744    7.0294 H   0  0  0  0  0  0  0  0  0  0  0  0
    4.7985   -7.7651    6.0713 H   0  0  0  0  0  0  0  0  0  0  0  0
    3.2506   -9.2635    7.9519 H   0  0  0  0  0  0  0  0  0  0  0  0
    2.9944   -7.6820    7.3957 H   0  0  0  0  0  0  0  0  0  0  0  0
    1.4570  -10.1771    6.9835 H   0  0  0  0  0  0  0  0  0  0  0  0
    0.9570   -8.6113    7.3323 H   0  0  0  0  0  0  0  0  0  0  0  0
   -0.2274   -9.2332    5.5400 H   0  0  0  0  0  0  0  0  0  0  0  0
   -0.0739   -7.5017    3.9502 H   0  0  0  0  0  0  0  0  0  0  0  0
    0.5255   -6.8757    5.4329 H   0  0  0  0  0  0  0  0  0  0  0  0
    3.7719   -6.8111    4.7548 H   0  0  0  0  0  0  0  0  0  0  0  0
    3.3123   -8.1424    2.5231 H   0  0  0  0  0  0  0  0  0  0  0  0
    1.8272   -4.4342    4.2464 H   0  0  0  0  0  0  0  0  0  0  0  0
    0.4030   -5.1700    3.5399 H   0  0  0  0  0  0  0  0  0  0  0  0
    1.3556   -4.0966    2.5742 H   0  0  0  0  0  0  0  0  0  0  0  0
    4.0295   -7.3652    0.8478 H   0  0  0  0  0  0  0  0  0  0  0  0
    4.8472   -6.1994   -1.0218 H   0  0  0  0  0  0  0  0  0  0  0  0
    4.1709   -1.3883    1.7764 H   0  0  0  0  0  0  0  0  0  0  0  0
    4.3431   -1.4172    0.0301 H   0  0  0  0  0  0  0  0  0  0  0  0
    5.6917   -1.8733    1.0197 H   0  0  0  0  0  0  0  0  0  0  0  0
    2.0417   -2.6658    0.9639 H   0  0  0  0  0  0  0  0  0  0  0  0
    2.1947   -4.3048    0.2999 H   0  0  0  0  0  0  0  0  0  0  0  0
    2.6501   -2.9188   -0.6603 H   0  0  0  0  0  0  0  0  0  0  0  0
    3.3763   -3.5680    2.8823 H   0  0  0  0  0  0  0  0  0  0  0  0
    5.9866   -3.0077    2.7851 H   0  0  0  0  0  0  0  0  0  0  0  0
    5.8233   -3.3005    4.9683 H   0  0  0  0  0  0  0  0  0  0  0  0
    6.9099   -5.0620    3.9923 H   0  0  0  0  0  0  0  0  0  0  0  0
    4.9510   -6.0971    4.3248 H   0  0  0  0  0  0  0  0  0  0  0  0
    7.2791   -8.9449    2.0026 H   0  0  0  0  0  0  0  0  0  0  0  0
    7.6896   -7.2719    1.8952 H   0  0  0  0  0  0  0  0  0  0  0  0
    6.2621   -7.8520    1.0875 H   0  0  0  0  0  0  0  0  0  0  0  0
    7.6411   -8.6126    4.4688 H   0  0  0  0  0  0  0  0  0  0  0  0
    6.7795   -7.3756    5.3721 H   0  0  0  0  0  0  0  0  0  0  0  0
    7.9428   -6.9536    4.1403 H   0  0  0  0  0  0  0  0  0  0  0  0
    4.4557   -8.2715    3.9566 H   0  0  0  0  0  0  0  0  0  0  0  0
    4.7191   -9.3159    1.4612 H   0  0  0  0  0  0  0  0  0  0  0  0
    5.4293  -10.6914    2.2060 H   0  0  0  0  0  0  0  0  0  0  0  0
    2.7177  -10.3570    1.5307 H   0  0  0  0  0  0  0  0  0  0  0  0
    3.3014  -11.6117    2.5421 H   0  0  0  0  0  0  0  0  0  0  0  0
    3.7952  -11.4710    4.5080 H   0  0  0  0  0  0  0  0  0  0  0  0
    3.0984  -10.7042    5.6873 H   0  0  0  0  0  0  0  0  0  0  0  0
    1.1686  -12.3532    3.9465 H   0  0  0  0  0  0  0  0  0  0  0  0
   -0.1623  -11.8135    4.9583 H   0  0  0  0  0  0  0  0  0  0  0  0
    1.4357  -11.8328    5.5854 H   0  0  0  0  0  0  0  0  0  0  0  0
    0.3431  -10.6792    2.1094 H   0  0  0  0  0  0  0  0  0  0  0  0
   -0.3191   -9.1530    2.6759 H   0  0  0  0  0  0  0  0  0  0  0  0
   -0.9361  -10.6020    3.2888 H   0  0  0  0  0  0  0  0  0  0  0  0
  2  1  1  1
  1 41  1  0
  1 42  1  0
  1 43  1  0
  2 33  1  0
  2 37  1  0
  2  3  1  0
  3  4  1  0
  3 44  1  0
  3 45  1  0
  4  5  1  0
  4 46  1  0
  4 47  1  0
  5  6  1  0
  5 48  1  0
  5 49  1  0
  6 38  1  0
  6  7  1  0
  6 50  1  1
  7  8  1  0
  7 51  1  0
  7 52  1  0
  8 14  1  0
  8  9  1  1
  8 10  1  0
  9 53  1  0
 10 36  1  0
 10 11  1  0
 10 54  1  6
 11 12  1  0
 12 13  2  0
 12 14  1  0
 14 15  1  1
 14 16  1  0
 15 55  1  0
 15 56  1  0
 15 57  1  0
 16 24  1  0
 16 29  1  0
 16 17  1  6
 17 18  2  0
 17 58  1  0
 18 19  1  0
 18 59  1  0
 19 20  2  0
 19 21  1  0
 21 22  1  0
 21 23  1  0
 21 24  1  0
 22 60  1  0
 22 61  1  0
 22 62  1  0
 23 63  1  0
 23 64  1  0
 23 65  1  0
 24 25  1  0
 24 66  1  1
 25 26  1  0
 25 27  1  0
 25 67  1  6
 26 68  1  0
 27 28  1  0
 27 29  1  0
 27 69  1  1
 29 30  1  0
 29 70  1  1
 30 31  1  0
 30 32  1  0
 30 33  1  0
 31 71  1  0
 31 72  1  0
 31 73  1  0
 32 74  1  0
 32 75  1  0
 32 76  1  0
 33 34  1  0
 33 77  1  1
 34 35  1  0
 34 78  1  0
 34 79  1  0
 36 35  1  6
 35 80  1  0
 35 81  1  0
 36 37  1  0
 36 38  1  0
 37 82  1  0
 37 83  1  0
 38 39  1  0
 38 40  1  0
 39 84  1  0
 39 85  1  0
 39 86  1  0
 40 87  1  0
 40 88  1  0
 40 89  1  0
M  END
>  <i_m_ct_stereo_status>  (111) 
1

>  <s_m_source_file>  (111) 
/var/tmp/pbs.5076255.sched01/tmpazi1eam_/42934yjxx2.sdf

>  <i_m_source_file_index>  (111) 
2

>  <i_lp_mmshare_version>  (111) 
48012

>  <i_f3d_flags>  (111) 
0

>  <s_epik_input>  (111) 
Tz1DMU9bQ0BASF0oW0NAQF0yKFtPSF0pW0NAXTEoW0NAQF0zNDUpW0NIM10pW0NAQF02N1tDSDJdW0NIMl1bQ0hdKFtDQF0oW0NIM10pKFtDSDJdNilbQ0gyXVtDSDJdW0NIMl1bQ0BASF0oW0NIMl0yKUM3KFtDSDNdKVtDSDNdKUMoW0NIM10pKFtDSDNdKVtDQEhdNVtDQEBIXShGKVtDQEhdKFtPSF0pW0NASF00QyhbQ0gzXSkoW0NIM10pQyg9TylbQ0hdPVtDSF0z

>  <s_epik_cmdline>  (111) 
J2VwaWtfcHl0aG9uJywgJy1waHQnLCAnMi4wJywgJy1waCcsICc3LjAnLCAnLXRuJywgJzgnLCAnLW1hJywgJzIwMCcsICctaW1hZScsICc8aW5maWxlLm1hZT4nLCAnLW9tYWUnLCAnPG91dGZpbGUubWFlPic=

>  <r_lp_tautomer_probability>  (111) 
1

>  <r_epik_Ionization_Penalty>  (111) 
3.45864e-06

>  <r_epik_Ionization_Penalty_Charging>  (111) 
0

>  <r_epik_Ionization_Penalty_Neutral>  (111) 
3.45864e-06

>  <r_epik_State_Penalty>  (111) 
-0

>  <r_epik_Charging_Adjusted_Penalty>  (111) 
0

>  <i_epik_Tot_Q>  (111) 
0

>  <i_epik_Tot_abs_Q>  (111) 
0

>  <s_epik_Chemistry_Notes>  (111) 
This compound has an ester and may undergo hydrolysis at high or low pH.

>  <s_lp_Force_Field>  (111) 
OPLS3e

>  <r_lp_Energy>  (111) 
292.319

>  <b_lp_Chiralities_Consistent>  (111) 
1

>  <s_lp_Variant>  (111) 
28:0-2

>  <s_i_glide_gridfile>  (111) 
pfpi4k_grid

>  <i_i_glide_lignum>  (111) 
2

>  <i_i_glide_rotatable_bonds>  (111) 
2

>  <r_i_docking_score>  (111) 
-2.67274

>  <r_i_glide_ligand_efficiency>  (111) 
-0.0668184

>  <r_i_glide_ligand_efficiency_sa>  (111) 
-0.228516

>  <r_i_glide_ligand_efficiency_ln>  (111) 
-0.570016

>  <r_i_glide_gscore>  (111) 
-2.67274

>  <r_i_glide_lipo>  (111) 
-0.24845

>  <r_i_glide_hbond>  (111) 
-0.16

>  <r_i_glide_metal>  (111) 
-0

>  <r_i_glide_rewards>  (111) 
-0.128825

>  <r_i_glide_evdw>  (111) 
-29.4516

>  <r_i_glide_ecoul>  (111) 
-4.13136

>  <r_i_glide_erotb>  (111) 
0

>  <r_i_glide_esite>  (111) 
-0.0431778

>  <r_i_glide_emodel>  (111) 
-38.638

>  <r_i_glide_energy>  (111) 
-33.583

>  <r_i_glide_einternal>  (111) 
0.366801

>  <r_i_glide_intrahb_reward>  (111) 
-0

>  <i_i_glide_confnum>  (111) 
1

>  <i_i_glide_posenum>  (111) 
15

>  <r_i_glide_eff_state_penalty>  (111) 
0

>  <ligand_id>  (111) 
28

>  <original_smiles>  (111) 
CC12CCCC3CC4(O)C5OC(=O)C4(C)C46C=CC(=O)C(C)(C)C4C(O)C(F)C6C(C)(C)C1CCC5(C2)C3(C)C

>  <smiles>  (111) 
[H]OC1([H])C([H])(F)C2([H])C3(C([H])=C([H])C(=O)C(C([H])([H])[H])(C([H])([H])[H])C13[H])C1(C([H])([H])[H])C(=O)OC3([H])C1(O[H])C([H])([H])C1([H])C([H])([H])C([H])([H])C([H])([H])C4(C([H])([H])[H])C([H])([H])C3(C([H])([H])C([H])([H])C4([H])C2(C([H])([H])[H])C([H])([H])[H])C1(C([H])([H])[H])C([H])([H])[H]

$$$$
28:1:2
     RDKit          3D

 89 95  0  0  1  0  0  0  0  0999 V2000
    5.9080  -10.6988    5.4121 C   0  0  0  0  0  0  0  0  0  0  0  0
    4.8059   -9.6746    5.0437 C   0  0  1  0  0  0  0  0  0  0  0  0
    4.4640   -8.7700    6.2970 C   0  0  0  0  0  0  0  0  0  0  0  0
    3.0462   -8.6865    7.0538 C   0  0  0  0  0  0  0  0  0  0  0  0
    1.5606   -9.1416    6.6331 C   0  0  0  0  0  0  0  0  0  0  0  0
    0.7988   -9.0446    5.2324 C   0  0  1  0  0  0  0  0  0  0  0  0
    0.7569   -7.5934    4.6263 C   0  0  0  0  0  0  0  0  0  0  0  0
    2.0968   -7.2130    3.9289 C   0  0  1  0  0  0  0  0  0  0  0  0
    2.8546   -6.8005    5.0073 O   0  0  0  0  0  0  0  0  0  0  0  0
    2.4318   -8.4023    3.0534 C   0  0  2  0  0  0  0  0  0  0  0  0
    1.6567   -8.1159    1.9028 O   0  0  0  0  0  0  0  0  0  0  0  0
    1.5141   -6.8079    1.7356 C   0  0  0  0  0  0  0  0  0  0  0  0
    0.8211   -6.2552    0.8809 O   0  0  0  0  0  0  0  0  0  0  0  0
    2.3070   -6.0935    2.8556 C   0  0  1  0  0  0  0  0  0  0  0  0
    1.4408   -4.8868    3.3112 C   0  0  0  0  0  0  0  0  0  0  0  0
    3.9106   -5.7486    2.3974 C   0  0  1  0  0  0  0  0  0  0  0  0
    4.2222   -6.3334    0.9973 C   0  0  0  0  0  0  0  0  0  0  0  0
    4.7045   -5.6974   -0.0822 C   0  0  0  0  0  0  0  0  0  0  0  0
    4.9445   -4.2615   -0.0861 C   0  0  0  0  0  0  0  0  0  0  0  0
    5.7100   -3.7121   -0.8790 O   0  0  0  0  0  0  0  0  0  0  0  0
    4.1237   -3.4393    0.9096 C   0  0  0  0  0  0  0  0  0  0  0  0
    4.6306   -1.9677    0.9372 C   0  0  0  0  0  0  0  0  0  0  0  0
    2.6948   -3.3540    0.3338 C   0  0  0  0  0  0  0  0  0  0  0  0
    4.1326   -4.1398    2.3303 C   0  0  2  0  0  0  0  0  0  0  0  0
    5.3878   -3.8324    3.1717 C   0  0  1  0  0  0  0  0  0  0  0  0
    5.0225   -3.4693    4.4909 O   0  0  0  0  0  0  0  0  0  0  0  0
    6.2049   -5.0940    3.1916 C   0  0  2  0  0  0  0  0  0  0  0  0
    6.9310   -5.1233    2.0713 F   0  0  0  0  0  0  0  0  0  0  0  0
    5.2078   -6.2518    3.3128 C   0  0  2  0  0  0  0  0  0  0  0  0
    6.0385   -7.6940    3.3466 C   0  0  0  0  0  0  0  0  0  0  0  0
    6.8640   -7.9555    2.0546 C   0  0  0  0  0  0  0  0  0  0  0  0
    7.1409   -7.6446    4.4404 C   0  0  0  0  0  0  0  0  0  0  0  0
    5.1653   -8.9844    3.6693 C   0  0  1  0  0  0  0  0  0  0  0  0
    4.7282   -9.9061    2.4198 C   0  0  0  0  0  0  0  0  0  0  0  0
    3.2660  -10.5366    2.4754 C   0  0  0  0  0  0  0  0  0  0  0  0
    2.5202   -9.8812    3.6436 C   0  0  1  0  0  0  0  0  0  0  0  0
    3.5160  -10.4364    4.7676 C   0  0  0  0  0  0  0  0  0  0  0  0
    1.0689  -10.1805    4.1412 C   0  0  0  0  0  0  0  0  0  0  0  0
    0.8742  -11.6100    4.7040 C   0  0  0  0  0  0  0  0  0  0  0  0
    0.0148  -10.1522    2.9950 C   0  0  0  0  0  0  0  0  0  0  0  0
    5.5752  -11.3687    6.2082 H   0  0  0  0  0  0  0  0  0  0  0  0
    6.8271  -10.2236    5.7534 H   0  0  0  0  0  0  0  0  0  0  0  0
    6.1604  -11.3222    4.5523 H   0  0  0  0  0  0  0  0  0  0  0  0
    5.1740   -9.0545    7.0762 H   0  0  0  0  0  0  0  0  0  0  0  0
    4.7930   -7.7549    6.1049 H   0  0  0  0  0  0  0  0  0  0  0  0
    3.2167   -9.2429    7.9811 H   0  0  0  0  0  0  0  0  0  0  0  0
    2.9678   -7.6652    7.4294 H   0  0  0  0  0  0  0  0  0  0  0  0
    1.4367  -10.1586    6.9987 H   0  0  0  0  0  0  0  0  0  0  0  0
    0.9265   -8.5943    7.3326 H   0  0  0  0  0  0  0  0  0  0  0  0
   -0.2348   -9.2315    5.5309 H   0  0  0  0  0  0  0  0  0  0  0  0
   -0.0767   -7.5142    3.9266 H   0  0  0  0  0  0  0  0  0  0  0  0
    0.5091   -6.8706    5.4079 H   0  0  0  0  0  0  0  0  0  0  0  0
    2.9002   -7.5296    5.6149 H   0  0  0  0  0  0  0  0  0  0  0  0
    3.3295   -8.1558    2.5388 H   0  0  0  0  0  0  0  0  0  0  0  0
    1.8225   -4.4371    4.2314 H   0  0  0  0  0  0  0  0  0  0  0  0
    0.4067   -5.1778    3.5115 H   0  0  0  0  0  0  0  0  0  0  0  0
    1.3692   -4.1119    2.5499 H   0  0  0  0  0  0  0  0  0  0  0  0
    4.0620   -7.3871    0.8731 H   0  0  0  0  0  0  0  0  0  0  0  0
    4.8971   -6.2344   -1.0003 H   0  0  0  0  0  0  0  0  0  0  0  0
    4.1854   -1.4012    1.7565 H   0  0  0  0  0  0  0  0  0  0  0  0
    4.3773   -1.4437    0.0133 H   0  0  0  0  0  0  0  0  0  0  0  0
    5.7149   -1.8912    1.0200 H   0  0  0  0  0  0  0  0  0  0  0  0
    2.0656   -2.6887    0.9309 H   0  0  0  0  0  0  0  0  0  0  0  0
    2.2229   -4.3320    0.2805 H   0  0  0  0  0  0  0  0  0  0  0  0
    2.6914   -2.9563   -0.6856 H   0  0  0  0  0  0  0  0  0  0  0  0
    3.3816   -3.5757    2.8751 H   0  0  0  0  0  0  0  0  0  0  0  0
    5.9942   -3.0170    2.7930 H   0  0  0  0  0  0  0  0  0  0  0  0
    5.8133   -3.2937    4.9813 H   0  0  0  0  0  0  0  0  0  0  0  0
    6.8998   -5.0705    4.0303 H   0  0  0  0  0  0  0  0  0  0  0  0
    4.9178   -6.1053    4.3454 H   0  0  0  0  0  0  0  0  0  0  0  0
    7.3025   -8.9519    2.0691 H   0  0  0  0  0  0  0  0  0  0  0  0
    7.7111   -7.2813    1.9568 H   0  0  0  0  0  0  0  0  0  0  0  0
    6.2951   -7.8683    1.1362 H   0  0  0  0  0  0  0  0  0  0  0  0
    7.6423   -8.6036    4.5365 H   0  0  0  0  0  0  0  0  0  0  0  0
    6.7677   -7.3635    5.4206 H   0  0  0  0  0  0  0  0  0  0  0  0
    7.9423   -6.9494    4.2006 H   0  0  0  0  0  0  0  0  0  0  0  0
    4.4587   -8.2745    3.9814 H   0  0  0  0  0  0  0  0  0  0  0  0
    4.7556   -9.3274    1.4975 H   0  0  0  0  0  0  0  0  0  0  0  0
    5.4587  -10.7007    2.2558 H   0  0  0  0  0  0  0  0  0  0  0  0
    2.7493  -10.3819    1.5288 H   0  0  0  0  0  0  0  0  0  0  0  0
    3.3284  -11.6225    2.5639 H   0  0  0  0  0  0  0  0  0  0  0  0
    3.7986  -11.4689    4.5441 H   0  0  0  0  0  0  0  0  0  0  0  0
    3.0844  -10.6917    5.7116 H   0  0  0  0  0  0  0  0  0  0  0  0
    1.1763  -12.3619    3.9774 H   0  0  0  0  0  0  0  0  0  0  0  0
   -0.1672  -11.8133    4.9666 H   0  0  0  0  0  0  0  0  0  0  0  0
    1.4180  -11.8207    5.6156 H   0  0  0  0  0  0  0  0  0  0  0  0
    0.3622  -10.7026    2.1195 H   0  0  0  0  0  0  0  0  0  0  0  0
   -0.3011   -9.1707    2.6682 H   0  0  0  0  0  0  0  0  0  0  0  0
   -0.9231  -10.6148    3.2949 H   0  0  0  0  0  0  0  0  0  0  0  0
  2  1  1  1
  1 41  1  0
  1 42  1  0
  1 43  1  0
  2 33  1  0
  2 37  1  0
  2  3  1  0
  3  4  1  0
  3 44  1  0
  3 45  1  0
  4  5  1  0
  4 46  1  0
  4 47  1  0
  5  6  1  0
  5 48  1  0
  5 49  1  0
  6 38  1  0
  6  7  1  0
  6 50  1  1
  7  8  1  0
  7 51  1  0
  7 52  1  0
  8 14  1  0
  8  9  1  1
  8 10  1  0
  9 53  1  0
 10 36  1  0
 10 11  1  0
 10 54  1  6
 11 12  1  0
 12 13  2  0
 12 14  1  0
 14 15  1  1
 14 16  1  0
 15 55  1  0
 15 56  1  0
 15 57  1  0
 16 24  1  0
 16 29  1  0
 16 17  1  6
 17 18  2  0
 17 58  1  0
 18 19  1  0
 18 59  1  0
 19 20  2  0
 19 21  1  0
 21 22  1  0
 21 23  1  0
 21 24  1  0
 22 60  1  0
 22 61  1  0
 22 62  1  0
 23 63  1  0
 23 64  1  0
 23 65  1  0
 24 25  1  0
 24 66  1  1
 25 26  1  0
 25 27  1  0
 25 67  1  6
 26 68  1  0
 27 28  1  0
 27 29  1  0
 27 69  1  1
 29 30  1  0
 29 70  1  1
 30 31  1  0
 30 32  1  0
 30 33  1  0
 31 71  1  0
 31 72  1  0
 31 73  1  0
 32 74  1  0
 32 75  1  0
 32 76  1  0
 33 34  1  0
 33 77  1  6
 34 35  1  0
 34 78  1  0
 34 79  1  0
 36 35  1  6
 35 80  1  0
 35 81  1  0
 36 37  1  0
 36 38  1  0
 37 82  1  0
 37 83  1  0
 38 39  1  0
 38 40  1  0
 39 84  1  0
 39 85  1  0
 39 86  1  0
 40 87  1  0
 40 88  1  0
 40 89  1  0
M  END
>  <i_m_ct_stereo_status>  (112) 
1

>  <s_m_source_file>  (112) 
/var/tmp/pbs.5076255.sched01/tmpazi1eam_/42934yjxx2.sdf

>  <i_m_source_file_index>  (112) 
2

>  <i_lp_mmshare_version>  (112) 
48012

>  <i_f3d_flags>  (112) 
0

>  <s_epik_input>  (112) 
Tz1DMU9bQ0BASF0oW0NAQF0yKFtPSF0pW0NAXTEoW0NAQF0zNDUpW0NIM10pW0NAQF02N1tDSDJdW0NIMl1bQ0hdKFtDQF0oW0NIM10pKFtDSDJdNilbQ0gyXVtDSDJdW0NIMl1bQ0BASF0oW0NIMl0yKUM3KFtDSDNdKVtDSDNdKUMoW0NIM10pKFtDSDNdKVtDQEhdNVtDQEBIXShGKVtDQEhdKFtPSF0pW0NASF00QyhbQ0gzXSkoW0NIM10pQyg9TylbQ0hdPVtDSF0z

>  <s_epik_cmdline>  (112) 
J2VwaWtfcHl0aG9uJywgJy1waHQnLCAnMi4wJywgJy1waCcsICc3LjAnLCAnLXRuJywgJzgnLCAnLW1hJywgJzIwMCcsICctaW1hZScsICc8aW5maWxlLm1hZT4nLCAnLW9tYWUnLCAnPG91dGZpbGUubWFlPic=

>  <r_lp_tautomer_probability>  (112) 
1

>  <r_epik_Ionization_Penalty>  (112) 
3.45864e-06

>  <r_epik_Ionization_Penalty_Charging>  (112) 
0

>  <r_epik_Ionization_Penalty_Neutral>  (112) 
3.45864e-06

>  <r_epik_State_Penalty>  (112) 
-0

>  <r_epik_Charging_Adjusted_Penalty>  (112) 
0

>  <i_epik_Tot_Q>  (112) 
0

>  <i_epik_Tot_abs_Q>  (112) 
0

>  <s_epik_Chemistry_Notes>  (112) 
This compound has an ester and may undergo hydrolysis at high or low pH.

>  <s_lp_Force_Field>  (112) 
OPLS3e

>  <r_lp_Energy>  (112) 
292.319

>  <b_lp_Chiralities_Consistent>  (112) 
1

>  <s_lp_Variant>  (112) 
28:0-2

>  <s_i_glide_gridfile>  (112) 
pfpi4k_grid

>  <i_i_glide_lignum>  (112) 
2

>  <i_i_glide_rotatable_bonds>  (112) 
2

>  <r_i_docking_score>  (112) 
-2.65727

>  <r_i_glide_ligand_efficiency>  (112) 
-0.0664317

>  <r_i_glide_ligand_efficiency_sa>  (112) 
-0.227193

>  <r_i_glide_ligand_efficiency_ln>  (112) 
-0.566717

>  <r_i_glide_gscore>  (112) 
-2.65727

>  <r_i_glide_lipo>  (112) 
-0.246708

>  <r_i_glide_hbond>  (112) 
-0.16

>  <r_i_glide_metal>  (112) 
-0

>  <r_i_glide_rewards>  (112) 
-0.130359

>  <r_i_glide_evdw>  (112) 
-29.2763

>  <r_i_glide_ecoul>  (112) 
-4.09464

>  <r_i_glide_erotb>  (112) 
0

>  <r_i_glide_esite>  (112) 
-0.04219

>  <r_i_glide_emodel>  (112) 
-38.4706

>  <r_i_glide_energy>  (112) 
-33.371

>  <r_i_glide_einternal>  (112) 
0.339204

>  <r_i_glide_intrahb_reward>  (112) 
-0

>  <i_i_glide_confnum>  (112) 
2

>  <i_i_glide_posenum>  (112) 
21

>  <r_i_glide_eff_state_penalty>  (112) 
0

>  <ligand_id>  (112) 
28

>  <original_smiles>  (112) 
CC12CCCC3CC4(O)C5OC(=O)C4(C)C46C=CC(=O)C(C)(C)C4C(O)C(F)C6C(C)(C)C1CCC5(C2)C3(C)C

>  <smiles>  (112) 
[H]OC1([H])C([H])(F)C2([H])C3(C([H])=C([H])C(=O)C(C([H])([H])[H])(C([H])([H])[H])C13[H])C1(C([H])([H])[H])C(=O)OC3([H])C1(O[H])C([H])([H])C1([H])C([H])([H])C([H])([H])C([H])([H])C4(C([H])([H])[H])C([H])([H])C3(C([H])([H])C([H])([H])C4([H])C2(C([H])([H])[H])C([H])([H])[H])C1(C([H])([H])[H])C([H])([H])[H]

$$$$
29:0:0
     RDKit          3D

 62 68  0  0  1  0  0  0  0  0999 V2000
    4.5071   -3.8734    7.1313 C   0  0  0  0  0  0  0  0  0  0  0  0
    3.4411   -3.3358    6.1463 C   0  0  2  0  0  0  0  0  0  0  0  0
    2.0632   -4.0559    6.3925 C   0  0  0  0  0  0  0  0  0  0  0  0
    1.9519   -4.8837    7.2932 O   0  0  0  0  0  0  0  0  0  0  0  0
    0.8052   -3.7483    5.5453 C   0  0  0  0  0  0  0  0  0  0  0  0
    1.0190   -4.3968    4.1964 C   0  0  0  0  0  0  0  0  0  0  0  0
    1.7857   -3.8355    3.2421 C   0  0  0  0  0  0  0  0  0  0  0  0
    2.9025   -4.7560    2.6903 C   0  0  2  0  0  0  0  0  0  0  0  0
    3.9402   -4.7043    3.8970 C   0  0  0  0  0  0  0  0  0  0  0  0
    4.0422   -3.2729    4.6784 C   0  0  1  0  0  0  0  0  0  0  0  0
    3.4724   -2.0245    3.8629 C   0  0  2  0  0  0  0  0  0  0  0  0
    2.2447   -1.5657    4.4357 O   0  0  0  0  0  0  0  0  0  0  0  0
    2.1103   -2.3606    3.2558 C   0  0  2  0  0  0  0  0  0  0  0  0
    4.4692   -0.9276    3.1166 C   0  0  2  0  0  0  0  0  0  0  0  0
    5.0651    0.0054    4.1872 C   0  0  0  0  0  0  0  0  0  0  0  0
    3.6418   -0.0658    2.1382 C   0  0  0  0  0  0  0  0  0  0  0  0
    3.3369   -0.8259    0.8399 C   0  0  0  0  0  0  0  0  0  0  0  0
    3.8437   -2.3175    0.8776 C   0  0  2  0  0  0  0  0  0  0  0  0
    5.1355   -2.7150    1.7718 C   0  0  1  0  0  0  0  0  0  0  0  0
    6.1935   -3.8369    1.4547 C   0  0  0  0  0  0  0  0  0  0  0  0
    5.5504   -4.9652    0.6797 C   0  0  0  0  0  0  0  0  0  0  0  0
    4.1938   -4.4826    0.1896 C   0  0  1  0  0  0  0  0  0  0  0  0
    3.1263   -4.9073    1.1909 O   0  0  0  0  0  0  0  0  0  0  0  0
    4.2496   -2.9304   -0.3640 C   0  0  1  0  0  0  0  0  0  0  0  0
    3.2417   -2.7647   -1.5201 C   0  0  0  0  0  0  0  0  0  0  0  0
    5.5779   -2.0008   -0.6056 C   0  0  0  0  0  0  0  0  0  0  0  0
    6.1296   -1.0733    0.6670 C   0  0  0  0  0  0  0  0  0  0  0  0
    5.6948   -1.4777    2.1839 C   0  0  1  0  0  0  0  0  0  0  0  0
    4.1902   -3.7487    8.1683 H   0  0  0  0  0  0  0  0  0  0  0  0
    5.4498   -3.3360    7.0269 H   0  0  0  0  0  0  0  0  0  0  0  0
    4.7089   -4.9336    6.9713 H   0  0  0  0  0  0  0  0  0  0  0  0
    3.2686   -2.3090    6.4639 H   0  0  0  0  0  0  0  0  0  0  0  0
   -0.0644   -4.2091    6.0158 H   0  0  0  0  0  0  0  0  0  0  0  0
    0.6022   -2.6828    5.4887 H   0  0  0  0  0  0  0  0  0  0  0  0
    0.9677   -5.4775    4.2551 H   0  0  0  0  0  0  0  0  0  0  0  0
    2.4889   -5.7608    2.8025 H   0  0  0  0  0  0  0  0  0  0  0  0
    3.6491   -5.4723    4.6162 H   0  0  0  0  0  0  0  0  0  0  0  0
    4.9185   -5.0650    3.5787 H   0  0  0  0  0  0  0  0  0  0  0  0
    5.1060   -3.0707    4.7998 H   0  0  0  0  0  0  0  0  0  0  0  0
    1.5894   -1.7992    2.4910 H   0  0  0  0  0  0  0  0  0  0  0  0
    5.7012    0.7649    3.7316 H   0  0  0  0  0  0  0  0  0  0  0  0
    5.6788   -0.5427    4.9025 H   0  0  0  0  0  0  0  0  0  0  0  0
    4.2857    0.5263    4.7456 H   0  0  0  0  0  0  0  0  0  0  0  0
    2.7275    0.3086    2.6006 H   0  0  0  0  0  0  0  0  0  0  0  0
    4.2101    0.8247    1.8692 H   0  0  0  0  0  0  0  0  0  0  0  0
    2.2601   -0.8026    0.6700 H   0  0  0  0  0  0  0  0  0  0  0  0
    3.7459   -0.2704   -0.0037 H   0  0  0  0  0  0  0  0  0  0  0  0
    2.9055   -2.7738    1.1069 H   0  0  0  0  0  0  0  0  0  0  0  0
    4.8545   -3.2255    2.5724 H   0  0  0  0  0  0  0  0  0  0  0  0
    7.0725   -3.4748    0.9227 H   0  0  0  0  0  0  0  0  0  0  0  0
    6.6131   -4.2398    2.3776 H   0  0  0  0  0  0  0  0  0  0  0  0
    6.1871   -5.2294   -0.1654 H   0  0  0  0  0  0  0  0  0  0  0  0
    5.4393   -5.8681    1.2834 H   0  0  0  0  0  0  0  0  0  0  0  0
    3.9780   -5.0985   -0.6834 H   0  0  0  0  0  0  0  0  0  0  0  0
    3.5914   -3.2828   -2.4127 H   0  0  0  0  0  0  0  0  0  0  0  0
    3.0878   -1.7183   -1.7872 H   0  0  0  0  0  0  0  0  0  0  0  0
    2.2672   -3.1776   -1.2578 H   0  0  0  0  0  0  0  0  0  0  0  0
    6.3797   -2.6250   -0.9995 H   0  0  0  0  0  0  0  0  0  0  0  0
    5.3706   -1.3045   -1.4205 H   0  0  0  0  0  0  0  0  0  0  0  0
    7.2189   -1.1282    0.6362 H   0  0  0  0  0  0  0  0  0  0  0  0
    5.9274   -0.0187    0.4860 H   0  0  0  0  0  0  0  0  0  0  0  0
    6.5783   -1.6270    2.7981 H   0  0  0  0  0  0  0  0  0  0  0  0
  1  2  1  0
  1 29  1  0
  1 30  1  0
  1 31  1  0
  2 10  1  0
  2  3  1  0
  2 32  1  1
  3  4  2  0
  3  5  1  0
  5  6  1  0
  5 33  1  0
  5 34  1  0
  6  7  2  3
  6 35  1  0
  7 13  1  0
  7  8  1  0
  8 23  1  0
  8  9  1  0
  8 36  1  1
  9 10  1  0
  9 37  1  0
  9 38  1  0
 10 11  1  0
 10 39  1  1
 11 13  1  0
 11 12  1  1
 11 14  1  0
 12 13  1  0
 13 40  1  6
 14 28  1  0
 14 15  1  1
 14 16  1  0
 15 41  1  0
 15 42  1  0
 15 43  1  0
 16 17  1  0
 16 44  1  0
 16 45  1  0
 17 18  1  0
 17 46  1  0
 17 47  1  0
 18 24  1  0
 18 19  1  0
 18 48  1  1
 19 28  1  0
 19 20  1  0
 19 49  1  1
 20 21  1  0
 20 50  1  0
 20 51  1  0
 21 22  1  0
 21 52  1  0
 21 53  1  0
 22 23  1  0
 22 24  1  0
 22 54  1  6
 24 25  1  6
 24 26  1  0
 25 55  1  0
 25 56  1  0
 25 57  1  0
 26 27  1  0
 26 58  1  0
 26 59  1  0
 27 28  1  0
 27 60  1  0
 27 61  1  0
 28 62  1  1
M  END
>  <i_m_ct_stereo_status>  (113) 
1

>  <s_m_source_file>  (113) 
/var/tmp/pbs.5076255.sched01/tmpazi1eam_/42934yjxx2.sdf

>  <i_m_source_file_index>  (113) 
3

>  <i_lp_mmshare_version>  (113) 
48012

>  <i_f3d_flags>  (113) 
0

>  <s_epik_input>  (113) 
W0NAQF0xMjNbQ0BIXTRbQ0BIXShbQ0gzXSlDKD1PKVtDSDJdL1tDSF09QyhbQ0BIXTJPMSkvW0NASF0oW0NIMl00KU9bQ0BIXTVbQ0BAXTYoW0NIM10pW0NASF03W0NAQEhdKFtDSDJdW0NIMl01KVtDQEBIXShbQ0gyXVtDSDJdNilbQ0BAXTMoW0NIM10pW0NIMl1bQ0gyXTc=

>  <s_epik_cmdline>  (113) 
J2VwaWtfcHl0aG9uJywgJy1waHQnLCAnMi4wJywgJy1waCcsICc3LjAnLCAnLXRuJywgJzgnLCAnLW1hJywgJzIwMCcsICctaW1hZScsICc8aW5maWxlLm1hZT4nLCAnLW9tYWUnLCAnPG91dGZpbGUubWFlPic=

>  <r_lp_tautomer_probability>  (113) 
1

>  <r_epik_Ionization_Penalty>  (113) 
1.38253e-11

>  <r_epik_Ionization_Penalty_Charging>  (113) 
0

>  <r_epik_Ionization_Penalty_Neutral>  (113) 
1.38253e-11

>  <r_epik_State_Penalty>  (113) 
-0

>  <r_epik_Charging_Adjusted_Penalty>  (113) 
0

>  <i_epik_Tot_Q>  (113) 
0

>  <i_epik_Tot_abs_Q>  (113) 
0

>  <s_lp_Force_Field>  (113) 
OPLS3e

>  <r_lp_Energy>  (113) 
291.602

>  <b_lp_Chiralities_Consistent>  (113) 
1

>  <s_lp_Variant>  (113) 
29:0-1

>  <s_i_glide_gridfile>  (113) 
pfpi4k_grid

>  <i_i_glide_lignum>  (113) 
3

>  <i_i_glide_rotatable_bonds>  (113) 
0

>  <r_i_docking_score>  (113) 
-2.64646

>  <r_i_glide_ligand_efficiency>  (113) 
-0.0945164

>  <r_i_glide_ligand_efficiency_sa>  (113) 
-0.287007

>  <r_i_glide_ligand_efficiency_ln>  (113) 
-0.61088

>  <r_i_glide_gscore>  (113) 
-2.64646

>  <r_i_glide_lipo>  (113) 
-0.634092

>  <r_i_glide_hbond>  (113) 
0

>  <r_i_glide_metal>  (113) 
-0

>  <r_i_glide_rewards>  (113) 
-0.800893

>  <r_i_glide_evdw>  (113) 
-22.3005

>  <r_i_glide_ecoul>  (113) 
-0.642981

>  <r_i_glide_erotb>  (113) 
0

>  <r_i_glide_esite>  (113) 
-1.29417e-07

>  <r_i_glide_emodel>  (113) 
-26.5338

>  <r_i_glide_energy>  (113) 
-22.9435

>  <r_i_glide_einternal>  (113) 
0

>  <r_i_glide_intrahb_reward>  (113) 
-0

>  <i_i_glide_confnum>  (113) 
1

>  <i_i_glide_posenum>  (113) 
16

>  <r_i_glide_eff_state_penalty>  (113) 
0

>  <ligand_id>  (113) 
29

>  <original_smiles>  (113) 
CC1C(=O)CC=C2C3CC1C1(OC21)C1(C)CCC2C4CCC(O3)C2(C)CCC41

>  <smiles>  (113) 
[H]C1=C2C3([H])OC4([H])C([H])([H])C([H])([H])C5([H])C6([H])C([H])([H])C([H])([H])C(C([H])([H])[H])(C5([H])C([H])([H])C([H])([H])C46C([H])([H])[H])C4(OC24[H])C([H])(C3([H])[H])C([H])(C([H])([H])[H])C(=O)C1([H])[H]

$$$$
29:0:1
     RDKit          3D

 62 68  0  0  1  0  0  0  0  0999 V2000
    4.8635   -4.6598    6.8155 C   0  0  0  0  0  0  0  0  0  0  0  0
    3.6989   -4.1279    5.9442 C   0  0  2  0  0  0  0  0  0  0  0  0
    2.4362   -5.0556    6.0999 C   0  0  0  0  0  0  0  0  0  0  0  0
    2.4702   -6.0158    6.8655 O   0  0  0  0  0  0  0  0  0  0  0  0
    1.1168   -4.7957    5.3329 C   0  0  0  0  0  0  0  0  0  0  0  0
    1.3574   -5.1990    3.8951 C   0  0  0  0  0  0  0  0  0  0  0  0
    2.0072   -4.4018    3.0247 C   0  0  0  0  0  0  0  0  0  0  0  0
    3.2142   -5.0732    2.3225 C   0  0  2  0  0  0  0  0  0  0  0  0
    4.2831   -5.0638    3.5043 C   0  0  0  0  0  0  0  0  0  0  0  0
    4.2283   -3.7658    4.4947 C   0  0  1  0  0  0  0  0  0  0  0  0
    3.4735   -2.4959    3.8907 C   0  0  2  0  0  0  0  0  0  0  0  0
    2.2139   -2.2963    4.5490 O   0  0  0  0  0  0  0  0  0  0  0  0
    2.1417   -2.9183    3.2603 C   0  0  2  0  0  0  0  0  0  0  0  0
    4.2924   -1.1762    3.3078 C   0  0  2  0  0  0  0  0  0  0  0  0
    4.8009   -0.3418    4.4986 C   0  0  0  0  0  0  0  0  0  0  0  0
    3.3299   -0.2901    2.4861 C   0  0  0  0  0  0  0  0  0  0  0  0
    3.0748   -0.8870    1.0919 C   0  0  0  0  0  0  0  0  0  0  0  0
    3.7671   -2.2878    0.8917 C   0  0  2  0  0  0  0  0  0  0  0  0
    5.1334   -2.6371    1.6935 C   0  0  1  0  0  0  0  0  0  0  0  0
    6.3166   -3.5424    1.1909 C   0  0  0  0  0  0  0  0  0  0  0  0
    5.7921   -4.6185    0.2680 C   0  0  0  0  0  0  0  0  0  0  0  0
    4.3701   -4.2560   -0.1245 C   0  0  1  0  0  0  0  0  0  0  0  0
    3.4018   -4.9651    0.8140 O   0  0  0  0  0  0  0  0  0  0  0  0
    4.2052   -2.6498   -0.4368 C   0  0  1  0  0  0  0  0  0  0  0  0
    3.1509   -2.4542   -1.5447 C   0  0  0  0  0  0  0  0  0  0  0  0
    5.3856   -1.5230   -0.5542 C   0  0  0  0  0  0  0  0  0  0  0  0
    5.8598   -0.7367    0.8368 C   0  0  0  0  0  0  0  0  0  0  0  0
    5.5413   -1.4126    2.2831 C   0  0  1  0  0  0  0  0  0  0  0  0
    4.5719   -4.7363    7.8654 H   0  0  0  0  0  0  0  0  0  0  0  0
    5.7243   -3.9921    6.7793 H   0  0  0  0  0  0  0  0  0  0  0  0
    5.1942   -5.6477    6.4918 H   0  0  0  0  0  0  0  0  0  0  0  0
    3.4077   -3.1932    6.4193 H   0  0  0  0  0  0  0  0  0  0  0  0
    0.3342   -5.4337    5.7450 H   0  0  0  0  0  0  0  0  0  0  0  0
    0.7747   -3.7715    5.4470 H   0  0  0  0  0  0  0  0  0  0  0  0
    1.4475   -6.2723    3.7864 H   0  0  0  0  0  0  0  0  0  0  0  0
    2.9437   -6.1300    2.2847 H   0  0  0  0  0  0  0  0  0  0  0  0
    4.1258   -5.9640    4.1013 H   0  0  0  0  0  0  0  0  0  0  0  0
    5.2867   -5.2363    3.1157 H   0  0  0  0  0  0  0  0  0  0  0  0
    5.2632   -3.4429    4.6263 H   0  0  0  0  0  0  0  0  0  0  0  0
    1.5260   -2.3166    2.6029 H   0  0  0  0  0  0  0  0  0  0  0  0
    5.3132    0.5581    4.1540 H   0  0  0  0  0  0  0  0  0  0  0  0
    5.5063   -0.9049    5.1090 H   0  0  0  0  0  0  0  0  0  0  0  0
    3.9816   -0.0227    5.1437 H   0  0  0  0  0  0  0  0  0  0  0  0
    2.3937   -0.1092    3.0160 H   0  0  0  0  0  0  0  0  0  0  0  0
    3.7731    0.6992    2.3511 H   0  0  0  0  0  0  0  0  0  0  0  0
    2.0031   -0.9791    0.9352 H   0  0  0  0  0  0  0  0  0  0  0  0
    3.3709   -0.1663    0.3337 H   0  0  0  0  0  0  0  0  0  0  0  0
    2.9032   -2.8939    1.0641 H   0  0  0  0  0  0  0  0  0  0  0  0
    4.9523   -3.2953    2.4111 H   0  0  0  0  0  0  0  0  0  0  0  0
    7.1125   -2.9907    0.6949 H   0  0  0  0  0  0  0  0  0  0  0  0
    6.8283   -4.0106    2.0359 H   0  0  0  0  0  0  0  0  0  0  0  0
    6.4192   -4.6556   -0.6216 H   0  0  0  0  0  0  0  0  0  0  0  0
    5.8248   -5.6089    0.7234 H   0  0  0  0  0  0  0  0  0  0  0  0
    4.2128   -4.7582   -1.0814 H   0  0  0  0  0  0  0  0  0  0  0  0
    3.5308   -2.7836   -2.5116 H   0  0  0  0  0  0  0  0  0  0  0  0
    2.8702   -1.4053   -1.6515 H   0  0  0  0  0  0  0  0  0  0  0  0
    2.2411   -3.0172   -1.3306 H   0  0  0  0  0  0  0  0  0  0  0  0
    6.2465   -1.9644   -1.0565 H   0  0  0  0  0  0  0  0  0  0  0  0
    5.0600   -0.7418   -1.2454 H   0  0  0  0  0  0  0  0  0  0  0  0
    6.9448   -0.6574    0.7752 H   0  0  0  0  0  0  0  0  0  0  0  0
    5.5251    0.3002    0.8236 H   0  0  0  0  0  0  0  0  0  0  0  0
    6.4608   -1.5355    2.8531 H   0  0  0  0  0  0  0  0  0  0  0  0
  1  2  1  0
  1 29  1  0
  1 30  1  0
  1 31  1  0
  2 10  1  0
  2  3  1  0
  2 32  1  1
  3  4  2  0
  3  5  1  0
  5  6  1  0
  5 33  1  0
  5 34  1  0
  6  7  2  3
  6 35  1  0
  7 13  1  0
  7  8  1  0
  8 23  1  0
  8  9  1  0
  8 36  1  6
  9 10  1  0
  9 37  1  0
  9 38  1  0
 10 11  1  0
 10 39  1  1
 11 13  1  0
 11 12  1  1
 11 14  1  0
 12 13  1  0
 13 40  1  6
 14 28  1  0
 14 15  1  1
 14 16  1  0
 15 41  1  0
 15 42  1  0
 15 43  1  0
 16 17  1  0
 16 44  1  0
 16 45  1  0
 17 18  1  0
 17 46  1  0
 17 47  1  0
 18 24  1  0
 18 19  1  0
 18 48  1  1
 19 28  1  0
 19 20  1  0
 19 49  1  1
 20 21  1  0
 20 50  1  0
 20 51  1  0
 21 22  1  0
 21 52  1  0
 21 53  1  0
 22 23  1  0
 22 24  1  0
 22 54  1  6
 24 25  1  6
 24 26  1  0
 25 55  1  0
 25 56  1  0
 25 57  1  0
 26 27  1  0
 26 58  1  0
 26 59  1  0
 27 28  1  0
 27 60  1  0
 27 61  1  0
 28 62  1  1
M  END
>  <i_m_ct_stereo_status>  (114) 
1

>  <s_m_source_file>  (114) 
/var/tmp/pbs.5076255.sched01/tmpazi1eam_/42934yjxx2.sdf

>  <i_m_source_file_index>  (114) 
3

>  <i_lp_mmshare_version>  (114) 
48012

>  <i_f3d_flags>  (114) 
0

>  <s_epik_input>  (114) 
W0NAQF0xMjNbQ0BIXTRbQ0BIXShbQ0gzXSlDKD1PKVtDSDJdL1tDSF09QyhbQ0BIXTJPMSkvW0NASF0oW0NIMl00KU9bQ0BIXTVbQ0BAXTYoW0NIM10pW0NASF03W0NAQEhdKFtDSDJdW0NIMl01KVtDQEBIXShbQ0gyXVtDSDJdNilbQ0BAXTMoW0NIM10pW0NIMl1bQ0gyXTc=

>  <s_epik_cmdline>  (114) 
J2VwaWtfcHl0aG9uJywgJy1waHQnLCAnMi4wJywgJy1waCcsICc3LjAnLCAnLXRuJywgJzgnLCAnLW1hJywgJzIwMCcsICctaW1hZScsICc8aW5maWxlLm1hZT4nLCAnLW9tYWUnLCAnPG91dGZpbGUubWFlPic=

>  <r_lp_tautomer_probability>  (114) 
1

>  <r_epik_Ionization_Penalty>  (114) 
1.38253e-11

>  <r_epik_Ionization_Penalty_Charging>  (114) 
0

>  <r_epik_Ionization_Penalty_Neutral>  (114) 
1.38253e-11

>  <r_epik_State_Penalty>  (114) 
-0

>  <r_epik_Charging_Adjusted_Penalty>  (114) 
0

>  <i_epik_Tot_Q>  (114) 
0

>  <i_epik_Tot_abs_Q>  (114) 
0

>  <s_lp_Force_Field>  (114) 
OPLS3e

>  <r_lp_Energy>  (114) 
291.602

>  <b_lp_Chiralities_Consistent>  (114) 
1

>  <s_lp_Variant>  (114) 
29:0-1

>  <s_i_glide_gridfile>  (114) 
pfpi4k_grid

>  <i_i_glide_lignum>  (114) 
3

>  <i_i_glide_rotatable_bonds>  (114) 
0

>  <r_i_docking_score>  (114) 
-2.48825

>  <r_i_glide_ligand_efficiency>  (114) 
-0.0888661

>  <r_i_glide_ligand_efficiency_sa>  (114) 
-0.26985

>  <r_i_glide_ligand_efficiency_ln>  (114) 
-0.574361

>  <r_i_glide_gscore>  (114) 
-2.48825

>  <r_i_glide_lipo>  (114) 
-0.530741

>  <r_i_glide_hbond>  (114) 
0

>  <r_i_glide_metal>  (114) 
-0

>  <r_i_glide_rewards>  (114) 
-0.800893

>  <r_i_glide_evdw>  (114) 
-21.7299

>  <r_i_glide_ecoul>  (114) 
-0.467476

>  <r_i_glide_erotb>  (114) 
0

>  <r_i_glide_esite>  (114) 
0

>  <r_i_glide_emodel>  (114) 
-25.5567

>  <r_i_glide_energy>  (114) 
-22.1973

>  <r_i_glide_einternal>  (114) 
0

>  <r_i_glide_intrahb_reward>  (114) 
-0

>  <i_i_glide_confnum>  (114) 
2

>  <i_i_glide_posenum>  (114) 
34

>  <r_i_glide_eff_state_penalty>  (114) 
0

>  <ligand_id>  (114) 
29

>  <original_smiles>  (114) 
CC1C(=O)CC=C2C3CC1C1(OC21)C1(C)CCC2C4CCC(O3)C2(C)CCC41

>  <smiles>  (114) 
[H]C1=C2C3([H])OC4([H])C([H])([H])C([H])([H])C5([H])C6([H])C([H])([H])C([H])([H])C(C([H])([H])[H])(C5([H])C([H])([H])C([H])([H])C46C([H])([H])[H])C4(OC24[H])C([H])(C3([H])[H])C([H])(C([H])([H])[H])C(=O)C1([H])[H]

$$$$
29:0:2
     RDKit          3D

 62 68  0  0  1  0  0  0  0  0999 V2000
    4.4118   -8.8021    2.5396 C   0  0  0  0  0  0  0  0  0  0  0  0
    4.9261   -7.4734    3.1483 C   0  0  2  0  0  0  0  0  0  0  0  0
    4.4224   -7.3170    4.6295 C   0  0  0  0  0  0  0  0  0  0  0  0
    3.7450   -8.2061    5.1433 O   0  0  0  0  0  0  0  0  0  0  0  0
    4.7588   -6.0850    5.5008 C   0  0  0  0  0  0  0  0  0  0  0  0
    3.8947   -4.9476    4.9922 C   0  0  0  0  0  0  0  0  0  0  0  0
    4.2058   -4.2567    3.8835 C   0  0  0  0  0  0  0  0  0  0  0  0
    3.0925   -4.1993    2.8203 C   0  0  2  0  0  0  0  0  0  0  0  0
    3.1922   -5.6654    2.1981 C   0  0  0  0  0  0  0  0  0  0  0  0
    4.6971   -6.2917    2.1157 C   0  0  1  0  0  0  0  0  0  0  0  0
    5.8655   -5.2230    2.1886 C   0  0  2  0  0  0  0  0  0  0  0  0
    6.5413   -5.3309    3.4561 O   0  0  0  0  0  0  0  0  0  0  0  0
    5.5949   -4.2512    3.3297 C   0  0  2  0  0  0  0  0  0  0  0  0
    6.7160   -4.7441    0.8454 C   0  0  2  0  0  0  0  0  0  0  0  0
    7.7732   -5.8149    0.5570 C   0  0  0  0  0  0  0  0  0  0  0  0
    7.5029   -3.4839    1.1147 C   0  0  0  0  0  0  0  0  0  0  0  0
    6.6282   -2.2027    1.1772 C   0  0  0  0  0  0  0  0  0  0  0  0
    5.1232   -2.5465    0.9845 C   0  0  2  0  0  0  0  0  0  0  0  0
    4.7177   -3.8357    0.1269 C   0  0  1  0  0  0  0  0  0  0  0  0
    3.4755   -3.9998   -0.7738 C   0  0  0  0  0  0  0  0  0  0  0  0
    2.3614   -3.1885   -0.2605 C   0  0  0  0  0  0  0  0  0  0  0  0
    2.8831   -2.2295    0.7989 C   0  0  1  0  0  0  0  0  0  0  0  0
    2.7110   -2.8775    2.1651 O   0  0  0  0  0  0  0  0  0  0  0  0
    4.3062   -1.5752    0.3211 C   0  0  1  0  0  0  0  0  0  0  0  0
    4.4427   -0.1572    0.9017 C   0  0  0  0  0  0  0  0  0  0  0  0
    5.0208   -1.6935   -1.1557 C   0  0  0  0  0  0  0  0  0  0  0  0
    6.0284   -2.9915   -1.4356 C   0  0  0  0  0  0  0  0  0  0  0  0
    5.8886   -4.3059   -0.4816 C   0  0  1  0  0  0  0  0  0  0  0  0
    4.7243   -9.6616    3.1412 H   0  0  0  0  0  0  0  0  0  0  0  0
    4.8111   -8.9617    1.5367 H   0  0  0  0  0  0  0  0  0  0  0  0
    3.3234   -8.8220    2.4735 H   0  0  0  0  0  0  0  0  0  0  0  0
    6.0006   -7.6165    3.2389 H   0  0  0  0  0  0  0  0  0  0  0  0
    4.4821   -6.2862    6.5332 H   0  0  0  0  0  0  0  0  0  0  0  0
    5.8212   -5.8573    5.5037 H   0  0  0  0  0  0  0  0  0  0  0  0
    2.8492   -5.0834    5.2417 H   0  0  0  0  0  0  0  0  0  0  0  0
    2.1724   -4.2589    3.4028 H   0  0  0  0  0  0  0  0  0  0  0  0
    2.5801   -6.3151    2.8288 H   0  0  0  0  0  0  0  0  0  0  0  0
    2.6717   -5.7176    1.2478 H   0  0  0  0  0  0  0  0  0  0  0  0
    4.7852   -6.7361    1.1178 H   0  0  0  0  0  0  0  0  0  0  0  0
    6.0775   -3.2940    3.4573 H   0  0  0  0  0  0  0  0  0  0  0  0
    8.4059   -5.5225   -0.2917 H   0  0  0  0  0  0  0  0  0  0  0  0
    7.2630   -6.7187    0.2923 H   0  0  0  0  0  0  0  0  0  0  0  0
    8.4137   -6.0379    1.4035 H   0  0  0  0  0  0  0  0  0  0  0  0
    8.0852   -3.6975    2.0285 H   0  0  0  0  0  0  0  0  0  0  0  0
    8.2652   -3.3196    0.3492 H   0  0  0  0  0  0  0  0  0  0  0  0
    6.7426   -1.6651    2.1228 H   0  0  0  0  0  0  0  0  0  0  0  0
    7.0038   -1.4691    0.4511 H   0  0  0  0  0  0  0  0  0  0  0  0
    4.8234   -2.4947    2.0098 H   0  0  0  0  0  0  0  0  0  0  0  0
    4.3542   -4.5410    0.7194 H   0  0  0  0  0  0  0  0  0  0  0  0
    3.6273   -3.7984   -1.8330 H   0  0  0  0  0  0  0  0  0  0  0  0
    3.1407   -5.0402   -0.7253 H   0  0  0  0  0  0  0  0  0  0  0  0
    1.8967   -2.6659   -1.1090 H   0  0  0  0  0  0  0  0  0  0  0  0
    1.6279   -3.8618    0.1272 H   0  0  0  0  0  0  0  0  0  0  0  0
    2.1857   -1.3917    0.8805 H   0  0  0  0  0  0  0  0  0  0  0  0
    3.7670    0.5289    0.3990 H   0  0  0  0  0  0  0  0  0  0  0  0
    5.4477    0.2406    0.7715 H   0  0  0  0  0  0  0  0  0  0  0  0
    4.1858   -0.1330    1.9583 H   0  0  0  0  0  0  0  0  0  0  0  0
    4.2462   -1.6473   -1.9311 H   0  0  0  0  0  0  0  0  0  0  0  0
    5.5981   -0.7839   -1.3436 H   0  0  0  0  0  0  0  0  0  0  0  0
    5.8379   -3.3218   -2.4568 H   0  0  0  0  0  0  0  0  0  0  0  0
    7.0672   -2.6553   -1.4786 H   0  0  0  0  0  0  0  0  0  0  0  0
    5.6553   -5.1982   -1.0593 H   0  0  0  0  0  0  0  0  0  0  0  0
  1  2  1  0
  1 29  1  0
  1 30  1  0
  1 31  1  0
  2 10  1  0
  2  3  1  0
  2 32  1  1
  3  4  2  0
  3  5  1  0
  5  6  1  0
  5 33  1  0
  5 34  1  0
  6  7  2  3
  6 35  1  0
  7 13  1  0
  7  8  1  0
  8 23  1  0
  8  9  1  0
  8 36  1  1
  9 10  1  0
  9 37  1  0
  9 38  1  0
 10 11  1  0
 10 39  1  6
 11 13  1  0
 11 12  1  1
 11 14  1  0
 12 13  1  0
 13 40  1  6
 14 28  1  0
 14 15  1  6
 14 16  1  0
 15 41  1  0
 15 42  1  0
 15 43  1  0
 16 17  1  0
 16 44  1  0
 16 45  1  0
 17 18  1  0
 17 46  1  0
 17 47  1  0
 18 24  1  0
 18 19  1  0
 18 48  1  1
 19 28  1  0
 19 20  1  0
 19 49  1  1
 20 21  1  0
 20 50  1  0
 20 51  1  0
 21 22  1  0
 21 52  1  0
 21 53  1  0
 22 23  1  0
 22 24  1  0
 22 54  1  1
 24 25  1  1
 24 26  1  0
 25 55  1  0
 25 56  1  0
 25 57  1  0
 26 27  1  0
 26 58  1  0
 26 59  1  0
 27 28  1  0
 27 60  1  0
 27 61  1  0
 28 62  1  6
M  END
>  <i_m_ct_stereo_status>  (115) 
1

>  <s_m_source_file>  (115) 
/var/tmp/pbs.5076255.sched01/tmpazi1eam_/42934yjxx2.sdf

>  <i_m_source_file_index>  (115) 
3

>  <i_lp_mmshare_version>  (115) 
48012

>  <i_f3d_flags>  (115) 
0

>  <s_epik_input>  (115) 
W0NAQF0xMjNbQ0BIXTRbQ0BIXShbQ0gzXSlDKD1PKVtDSDJdL1tDSF09QyhbQ0BIXTJPMSkvW0NASF0oW0NIMl00KU9bQ0BIXTVbQ0BAXTYoW0NIM10pW0NASF03W0NAQEhdKFtDSDJdW0NIMl01KVtDQEBIXShbQ0gyXVtDSDJdNilbQ0BAXTMoW0NIM10pW0NIMl1bQ0gyXTc=

>  <s_epik_cmdline>  (115) 
J2VwaWtfcHl0aG9uJywgJy1waHQnLCAnMi4wJywgJy1waCcsICc3LjAnLCAnLXRuJywgJzgnLCAnLW1hJywgJzIwMCcsICctaW1hZScsICc8aW5maWxlLm1hZT4nLCAnLW9tYWUnLCAnPG91dGZpbGUubWFlPic=

>  <r_lp_tautomer_probability>  (115) 
1

>  <r_epik_Ionization_Penalty>  (115) 
1.38253e-11

>  <r_epik_Ionization_Penalty_Charging>  (115) 
0

>  <r_epik_Ionization_Penalty_Neutral>  (115) 
1.38253e-11

>  <r_epik_State_Penalty>  (115) 
-0

>  <r_epik_Charging_Adjusted_Penalty>  (115) 
0

>  <i_epik_Tot_Q>  (115) 
0

>  <i_epik_Tot_abs_Q>  (115) 
0

>  <s_lp_Force_Field>  (115) 
OPLS3e

>  <r_lp_Energy>  (115) 
291.602

>  <b_lp_Chiralities_Consistent>  (115) 
1

>  <s_lp_Variant>  (115) 
29:0-1

>  <s_i_glide_gridfile>  (115) 
pfpi4k_grid

>  <i_i_glide_lignum>  (115) 
3

>  <i_i_glide_rotatable_bonds>  (115) 
0

>  <r_i_docking_score>  (115) 
-1.66438

>  <r_i_glide_ligand_efficiency>  (115) 
-0.0594423

>  <r_i_glide_ligand_efficiency_sa>  (115) 
-0.180502

>  <r_i_glide_ligand_efficiency_ln>  (115) 
-0.384189

>  <r_i_glide_gscore>  (115) 
-1.66438

>  <r_i_glide_lipo>  (115) 
-0.608182

>  <r_i_glide_hbond>  (115) 
0

>  <r_i_glide_metal>  (115) 
-0

>  <r_i_glide_rewards>  (115) 
-0.800893

>  <r_i_glide_evdw>  (115) 
-5.61875

>  <r_i_glide_ecoul>  (115) 
0.170859

>  <r_i_glide_erotb>  (115) 
0

>  <r_i_glide_esite>  (115) 
0

>  <r_i_glide_emodel>  (115) 
-6.3978

>  <r_i_glide_energy>  (115) 
-5.4479

>  <r_i_glide_einternal>  (115) 
0

>  <r_i_glide_intrahb_reward>  (115) 
-0

>  <i_i_glide_confnum>  (115) 
2

>  <i_i_glide_posenum>  (115) 
1

>  <r_i_glide_eff_state_penalty>  (115) 
0

>  <ligand_id>  (115) 
29

>  <original_smiles>  (115) 
CC1C(=O)CC=C2C3CC1C1(OC21)C1(C)CCC2C4CCC(O3)C2(C)CCC41

>  <smiles>  (115) 
[H]C1=C2C3([H])OC4([H])C([H])([H])C([H])([H])C5([H])C6([H])C([H])([H])C([H])([H])C(C([H])([H])[H])(C5([H])C([H])([H])C([H])([H])C46C([H])([H])[H])C4(OC24[H])C([H])(C3([H])[H])C([H])(C([H])([H])[H])C(=O)C1([H])[H]

$$$$
29:1:0
     RDKit          3D

 62 68  0  0  1  0  0  0  0  0999 V2000
    5.3053   -1.3144    2.6439 C   0  0  0  0  0  0  0  0  0  0  0  0
    5.6667   -2.5928    1.8548 C   0  0  2  0  0  0  0  0  0  0  0  0
    5.6584   -2.2475    0.3215 C   0  0  0  0  0  0  0  0  0  0  0  0
    6.5174   -1.4823   -0.1153 O   0  0  0  0  0  0  0  0  0  0  0  0
    4.6103   -2.7971   -0.6779 C   0  0  0  0  0  0  0  0  0  0  0  0
    4.8451   -4.2836   -0.7888 C   0  0  0  0  0  0  0  0  0  0  0  0
    4.3287   -5.1642    0.0869 C   0  0  0  0  0  0  0  0  0  0  0  0
    3.0123   -4.9086    0.8793 C   0  0  2  0  0  0  0  0  0  0  0  0
    3.3675   -3.8057    1.9430 C   0  0  0  0  0  0  0  0  0  0  0  0
    4.9045   -3.8519    2.4345 C   0  0  1  0  0  0  0  0  0  0  0  0
    5.6530   -5.2718    2.2410 C   0  0  2  0  0  0  0  0  0  0  0  0
    6.6342   -5.1896    1.1926 O   0  0  0  0  0  0  0  0  0  0  0  0
    5.4155   -5.8562    0.8383 C   0  0  2  0  0  0  0  0  0  0  0  0
    5.8733   -6.3394    3.5061 C   0  0  2  0  0  0  0  0  0  0  0  0
    7.0429   -5.8559    4.3791 C   0  0  0  0  0  0  0  0  0  0  0  0
    6.2462   -7.7390    2.9557 C   0  0  0  0  0  0  0  0  0  0  0  0
    5.0120   -8.4854    2.4066 C   0  0  0  0  0  0  0  0  0  0  0  0
    3.7112   -7.5921    2.4531 C   0  0  2  0  0  0  0  0  0  0  0  0
    3.5467   -6.4579    3.5996 C   0  0  1  0  0  0  0  0  0  0  0  0
    2.2040   -5.9925    4.2816 C   0  0  0  0  0  0  0  0  0  0  0  0
    1.0455   -6.1360    3.3161 C   0  0  0  0  0  0  0  0  0  0  0  0
    1.5212   -6.9723    2.1368 C   0  0  1  0  0  0  0  0  0  0  0  0
    1.9764   -6.0239    1.0277 O   0  0  0  0  0  0  0  0  0  0  0  0
    2.4445   -8.2509    2.6294 C   0  0  1  0  0  0  0  0  0  0  0  0
    2.2194   -9.4524    1.6905 C   0  0  0  0  0  0  0  0  0  0  0  0
    2.7174   -8.7605    4.1647 C   0  0  0  0  0  0  0  0  0  0  0  0
    4.0024   -8.0945    4.9990 C   0  0  0  0  0  0  0  0  0  0  0  0
    4.6158   -6.6648    4.5059 C   0  0  1  0  0  0  0  0  0  0  0  0
    6.0078   -0.5063    2.4311 H   0  0  0  0  0  0  0  0  0  0  0  0
    5.3427   -1.4864    3.7198 H   0  0  0  0  0  0  0  0  0  0  0  0
    4.3051   -0.9533    2.4007 H   0  0  0  0  0  0  0  0  0  0  0  0
    6.7154   -2.7786    2.0751 H   0  0  0  0  0  0  0  0  0  0  0  0
    3.5929   -2.5377   -0.4035 H   0  0  0  0  0  0  0  0  0  0  0  0
    4.7836   -2.3474   -1.6540 H   0  0  0  0  0  0  0  0  0  0  0  0
    5.8303   -4.4988   -1.1703 H   0  0  0  0  0  0  0  0  0  0  0  0
    2.4419   -4.3434    0.1400 H   0  0  0  0  0  0  0  0  0  0  0  0
    3.1341   -2.8230    1.5385 H   0  0  0  0  0  0  0  0  0  0  0  0
    2.6646   -3.8217    2.7730 H   0  0  0  0  0  0  0  0  0  0  0  0
    4.8834   -3.7026    3.5158 H   0  0  0  0  0  0  0  0  0  0  0  0
    5.6287   -6.8624    0.5022 H   0  0  0  0  0  0  0  0  0  0  0  0
    7.2442   -6.5478    5.1969 H   0  0  0  0  0  0  0  0  0  0  0  0
    6.8187   -4.8896    4.8334 H   0  0  0  0  0  0  0  0  0  0  0  0
    7.9629   -5.7570    3.8003 H   0  0  0  0  0  0  0  0  0  0  0  0
    7.0436   -7.6838    2.2129 H   0  0  0  0  0  0  0  0  0  0  0  0
    6.6632   -8.3409    3.7668 H   0  0  0  0  0  0  0  0  0  0  0  0
    5.1998   -8.8150    1.3858 H   0  0  0  0  0  0  0  0  0  0  0  0
    4.8963   -9.4286    2.9413 H   0  0  0  0  0  0  0  0  0  0  0  0
    3.6951   -7.2870    1.4276 H   0  0  0  0  0  0  0  0  0  0  0  0
    3.6570   -5.5638    3.2011 H   0  0  0  0  0  0  0  0  0  0  0  0
    1.9744   -6.5179    5.2075 H   0  0  0  0  0  0  0  0  0  0  0  0
    2.2813   -4.9543    4.6094 H   0  0  0  0  0  0  0  0  0  0  0  0
    0.2178   -6.6366    3.8233 H   0  0  0  0  0  0  0  0  0  0  0  0
    0.6721   -5.1688    2.9778 H   0  0  0  0  0  0  0  0  0  0  0  0
    0.6137   -7.4123    1.7201 H   0  0  0  0  0  0  0  0  0  0  0  0
    1.2288   -9.8776    1.8554 H   0  0  0  0  0  0  0  0  0  0  0  0
    2.9482  -10.2507    1.8476 H   0  0  0  0  0  0  0  0  0  0  0  0
    2.2845   -9.1575    0.6444 H   0  0  0  0  0  0  0  0  0  0  0  0
    1.7965   -8.6646    4.7417 H   0  0  0  0  0  0  0  0  0  0  0  0
    2.8891   -9.8395    4.1502 H   0  0  0  0  0  0  0  0  0  0  0  0
    3.6535   -7.9491    6.0221 H   0  0  0  0  0  0  0  0  0  0  0  0
    4.8005   -8.8281    5.1126 H   0  0  0  0  0  0  0  0  0  0  0  0
    4.5847   -5.9303    5.3136 H   0  0  0  0  0  0  0  0  0  0  0  0
  1  2  1  0
  1 29  1  0
  1 30  1  0
  1 31  1  0
  2 10  1  0
  2  3  1  0
  2 32  1  1
  3  4  2  0
  3  5  1  0
  5  6  1  0
  5 33  1  0
  5 34  1  0
  6  7  2  3
  6 35  1  0
  7 13  1  0
  7  8  1  0
  8 23  1  0
  8  9  1  0
  8 36  1  6
  9 10  1  0
  9 37  1  0
  9 38  1  0
 10 11  1  0
 10 39  1  1
 11 13  1  0
 11 12  1  6
 11 14  1  0
 12 13  1  0
 13 40  1  1
 14 28  1  0
 14 15  1  1
 14 16  1  0
 15 41  1  0
 15 42  1  0
 15 43  1  0
 16 17  1  0
 16 44  1  0
 16 45  1  0
 17 18  1  0
 17 46  1  0
 17 47  1  0
 18 24  1  0
 18 19  1  0
 18 48  1  6
 19 28  1  0
 19 20  1  0
 19 49  1  6
 20 21  1  0
 20 50  1  0
 20 51  1  0
 21 22  1  0
 21 52  1  0
 21 53  1  0
 22 23  1  0
 22 24  1  0
 22 54  1  6
 24 25  1  6
 24 26  1  0
 25 55  1  0
 25 56  1  0
 25 57  1  0
 26 27  1  0
 26 58  1  0
 26 59  1  0
 27 28  1  0
 27 60  1  0
 27 61  1  0
 28 62  1  1
M  END
>  <i_m_ct_stereo_status>  (116) 
1

>  <s_m_source_file>  (116) 
/var/tmp/pbs.5076255.sched01/tmpazi1eam_/42934yjxx2.sdf

>  <i_m_source_file_index>  (116) 
4

>  <i_lp_mmshare_version>  (116) 
48012

>  <i_f3d_flags>  (116) 
0

>  <s_epik_input>  (116) 
W0NAQF0xMjNbQ0BIXTRbQ0BIXShbQ0gzXSlDKD1PKVtDSDJdL1tDSF09QyhbQ0BIXTJPMSkvW0NASF0oW0NIMl00KU9bQ0BIXTVbQ0BAXTYoW0NIM10pW0NASF03W0NAQEhdKFtDSDJdW0NIMl01KVtDQEBIXShbQ0gyXVtDSDJdNilbQ0BAXTMoW0NIM10pW0NIMl1bQ0gyXTc=

>  <s_epik_cmdline>  (116) 
J2VwaWtfcHl0aG9uJywgJy1waHQnLCAnMi4wJywgJy1waCcsICc3LjAnLCAnLXRuJywgJzgnLCAnLW1hJywgJzIwMCcsICctaW1hZScsICc8aW5maWxlLm1hZT4nLCAnLW9tYWUnLCAnPG91dGZpbGUubWFlPic=

>  <r_lp_tautomer_probability>  (116) 
1

>  <r_epik_Ionization_Penalty>  (116) 
1.38253e-11

>  <r_epik_Ionization_Penalty_Charging>  (116) 
0

>  <r_epik_Ionization_Penalty_Neutral>  (116) 
1.38253e-11

>  <r_epik_State_Penalty>  (116) 
-0

>  <r_epik_Charging_Adjusted_Penalty>  (116) 
0

>  <i_epik_Tot_Q>  (116) 
0

>  <i_epik_Tot_abs_Q>  (116) 
0

>  <s_lp_Force_Field>  (116) 
OPLS3e

>  <r_lp_Energy>  (116) 
299.746

>  <b_lp_Chiralities_Consistent>  (116) 
1

>  <s_lp_Variant>  (116) 
29:0-2

>  <s_i_glide_gridfile>  (116) 
pfpi4k_grid

>  <i_i_glide_lignum>  (116) 
4

>  <i_i_glide_rotatable_bonds>  (116) 
0

>  <r_i_docking_score>  (116) 
-2.9333

>  <r_i_glide_ligand_efficiency>  (116) 
-0.104761

>  <r_i_glide_ligand_efficiency_sa>  (116) 
-0.318115

>  <r_i_glide_ligand_efficiency_ln>  (116) 
-0.677092

>  <r_i_glide_gscore>  (116) 
-2.9333

>  <r_i_glide_lipo>  (116) 
-0.407153

>  <r_i_glide_hbond>  (116) 
-0.069408

>  <r_i_glide_metal>  (116) 
-0

>  <r_i_glide_rewards>  (116) 
-0.856626

>  <r_i_glide_evdw>  (116) 
-24.782

>  <r_i_glide_ecoul>  (116) 
-2.40675

>  <r_i_glide_erotb>  (116) 
0

>  <r_i_glide_esite>  (116) 
0

>  <r_i_glide_emodel>  (116) 
-32.2807

>  <r_i_glide_energy>  (116) 
-27.1888

>  <r_i_glide_einternal>  (116) 
0

>  <r_i_glide_intrahb_reward>  (116) 
-0

>  <i_i_glide_confnum>  (116) 
2

>  <i_i_glide_posenum>  (116) 
17

>  <r_i_glide_eff_state_penalty>  (116) 
0

>  <ligand_id>  (116) 
29

>  <original_smiles>  (116) 
CC1C(=O)CC=C2C3CC1C1(OC21)C1(C)CCC2C4CCC(O3)C2(C)CCC41

>  <smiles>  (116) 
[H]C1=C2C3([H])OC4([H])C([H])([H])C([H])([H])C5([H])C6([H])C([H])([H])C([H])([H])C(C([H])([H])[H])(C5([H])C([H])([H])C([H])([H])C46C([H])([H])[H])C4(OC24[H])C([H])(C3([H])[H])C([H])(C([H])([H])[H])C(=O)C1([H])[H]

$$$$
29:1:1
     RDKit          3D

 62 68  0  0  1  0  0  0  0  0999 V2000
    2.3282   -3.0608   -2.1821 C   0  0  0  0  0  0  0  0  0  0  0  0
    3.4150   -2.3848   -1.3130 C   0  0  2  0  0  0  0  0  0  0  0  0
    4.7894   -2.5549   -2.0419 C   0  0  0  0  0  0  0  0  0  0  0  0
    4.9528   -1.9828   -3.1162 O   0  0  0  0  0  0  0  0  0  0  0  0
    5.9500   -3.4427   -1.5252 C   0  0  0  0  0  0  0  0  0  0  0  0
    6.4727   -2.8161   -0.2549 C   0  0  0  0  0  0  0  0  0  0  0  0
    5.8879   -3.0364    0.9362 C   0  0  0  0  0  0  0  0  0  0  0  0
    5.1013   -4.3394    1.2778 C   0  0  2  0  0  0  0  0  0  0  0  0
    3.7601   -4.2549    0.4591 C   0  0  0  0  0  0  0  0  0  0  0  0
    3.2450   -2.7461    0.2154 C   0  0  1  0  0  0  0  0  0  0  0  0
    3.8021   -1.6458    1.2626 C   0  0  2  0  0  0  0  0  0  0  0  0
    4.7533   -0.7705    0.6224 O   0  0  0  0  0  0  0  0  0  0  0  0
    5.3175   -1.7721    1.4825 C   0  0  2  0  0  0  0  0  0  0  0  0
    2.8716   -1.0843    2.5289 C   0  0  2  0  0  0  0  0  0  0  0  0
    1.8672   -0.0516    1.9975 C   0  0  0  0  0  0  0  0  0  0  0  0
    3.7701   -0.3652    3.5634 C   0  0  0  0  0  0  0  0  0  0  0  0
    4.5479   -1.3695    4.4434 C   0  0  0  0  0  0  0  0  0  0  0  0
    4.3046   -2.8612    3.9933 C   0  0  2  0  0  0  0  0  0  0  0  0
    2.8949   -3.2809    3.3103 C   0  0  1  0  0  0  0  0  0  0  0  0
    2.1578   -4.6661    3.4384 C   0  0  0  0  0  0  0  0  0  0  0  0
    3.1655   -5.7844    3.6234 C   0  0  0  0  0  0  0  0  0  0  0  0
    4.5153   -5.1490    3.9335 C   0  0  1  0  0  0  0  0  0  0  0  0
    5.3104   -5.0072    2.6368 O   0  0  0  0  0  0  0  0  0  0  0  0
    4.3664   -3.8926    4.9933 C   0  0  1  0  0  0  0  0  0  0  0  0
    5.6120   -3.8290    5.9011 C   0  0  0  0  0  0  0  0  0  0  0  0
    3.0239   -3.4222    5.8139 C   0  0  0  0  0  0  0  0  0  0  0  0
    1.9899   -2.3338    5.0732 C   0  0  0  0  0  0  0  0  0  0  0  0
    2.0437   -2.1577    3.4493 C   0  0  1  0  0  0  0  0  0  0  0  0
    2.2820   -2.6173   -3.1774 H   0  0  0  0  0  0  0  0  0  0  0  0
    1.3374   -2.9783   -1.7467 H   0  0  0  0  0  0  0  0  0  0  0  0
    2.5007   -4.1213   -2.2910 H   0  0  0  0  0  0  0  0  0  0  0  0
    3.2092   -1.3159   -1.3719 H   0  0  0  0  0  0  0  0  0  0  0  0
    5.6524   -4.4804   -1.4068 H   0  0  0  0  0  0  0  0  0  0  0  0
    6.7494   -3.4389   -2.2657 H   0  0  0  0  0  0  0  0  0  0  0  0
    6.8522   -1.8205   -0.4279 H   0  0  0  0  0  0  0  0  0  0  0  0
    5.6725   -5.0763    0.7128 H   0  0  0  0  0  0  0  0  0  0  0  0
    3.8848   -4.7667   -0.4917 H   0  0  0  0  0  0  0  0  0  0  0  0
    2.9952   -4.8918    0.8958 H   0  0  0  0  0  0  0  0  0  0  0  0
    2.1661   -2.7560    0.3815 H   0  0  0  0  0  0  0  0  0  0  0  0
    5.9142   -1.3009    2.2535 H   0  0  0  0  0  0  0  0  0  0  0  0
    1.2515    0.3586    2.7956 H   0  0  0  0  0  0  0  0  0  0  0  0
    1.1788   -0.5113    1.2899 H   0  0  0  0  0  0  0  0  0  0  0  0
    2.3601    0.7787    1.4915 H   0  0  0  0  0  0  0  0  0  0  0  0
    4.4420    0.3482    3.0858 H   0  0  0  0  0  0  0  0  0  0  0  0
    3.1412    0.2376    4.2202 H   0  0  0  0  0  0  0  0  0  0  0  0
    5.6121   -1.1383    4.4068 H   0  0  0  0  0  0  0  0  0  0  0  0
    4.3014   -1.1961    5.4939 H   0  0  0  0  0  0  0  0  0  0  0  0
    5.2062   -2.9947    3.4380 H   0  0  0  0  0  0  0  0  0  0  0  0
    3.0267   -3.4407    2.3466 H   0  0  0  0  0  0  0  0  0  0  0  0
    1.4208   -4.7074    4.2411 H   0  0  0  0  0  0  0  0  0  0  0  0
    1.5574   -4.8667    2.5509 H   0  0  0  0  0  0  0  0  0  0  0  0
    2.8539   -6.4225    4.4535 H   0  0  0  0  0  0  0  0  0  0  0  0
    3.2426   -6.4273    2.7446 H   0  0  0  0  0  0  0  0  0  0  0  0
    5.0693   -5.9205    4.4699 H   0  0  0  0  0  0  0  0  0  0  0  0
    5.6048   -4.6546    6.6163 H   0  0  0  0  0  0  0  0  0  0  0  0
    5.6596   -2.9031    6.4786 H   0  0  0  0  0  0  0  0  0  0  0  0
    6.5309   -3.9045    5.3180 H   0  0  0  0  0  0  0  0  0  0  0  0
    2.4735   -4.3115    6.1325 H   0  0  0  0  0  0  0  0  0  0  0  0
    3.3311   -2.9600    6.7582 H   0  0  0  0  0  0  0  0  0  0  0  0
    0.9803   -2.6655    5.3170 H   0  0  0  0  0  0  0  0  0  0  0  0
    2.0603   -1.3594    5.5580 H   0  0  0  0  0  0  0  0  0  0  0  0
    1.0673   -2.3605    3.0011 H   0  0  0  0  0  0  0  0  0  0  0  0
  1  2  1  0
  1 29  1  0
  1 30  1  0
  1 31  1  0
  2 10  1  0
  2  3  1  0
  2 32  1  1
  3  4  2  0
  3  5  1  0
  5  6  1  0
  5 33  1  0
  5 34  1  0
  6  7  2  3
  6 35  1  0
  7 13  1  0
  7  8  1  0
  8 23  1  0
  8  9  1  0
  8 36  1  6
  9 10  1  0
  9 37  1  0
  9 38  1  0
 10 11  1  0
 10 39  1  1
 11 13  1  0
 11 12  1  6
 11 14  1  0
 12 13  1  0
 13 40  1  1
 14 28  1  0
 14 15  1  6
 14 16  1  0
 15 41  1  0
 15 42  1  0
 15 43  1  0
 16 17  1  0
 16 44  1  0
 16 45  1  0
 17 18  1  0
 17 46  1  0
 17 47  1  0
 18 24  1  0
 18 19  1  0
 18 48  1  6
 19 28  1  0
 19 20  1  0
 19 49  1  6
 20 21  1  0
 20 50  1  0
 20 51  1  0
 21 22  1  0
 21 52  1  0
 21 53  1  0
 22 23  1  0
 22 24  1  0
 22 54  1  1
 24 25  1  1
 24 26  1  0
 25 55  1  0
 25 56  1  0
 25 57  1  0
 26 27  1  0
 26 58  1  0
 26 59  1  0
 27 28  1  0
 27 60  1  0
 27 61  1  0
 28 62  1  6
M  END
>  <i_m_ct_stereo_status>  (117) 
1

>  <s_m_source_file>  (117) 
/var/tmp/pbs.5076255.sched01/tmpazi1eam_/42934yjxx2.sdf

>  <i_m_source_file_index>  (117) 
4

>  <i_lp_mmshare_version>  (117) 
48012

>  <i_f3d_flags>  (117) 
0

>  <s_epik_input>  (117) 
W0NAQF0xMjNbQ0BIXTRbQ0BIXShbQ0gzXSlDKD1PKVtDSDJdL1tDSF09QyhbQ0BIXTJPMSkvW0NASF0oW0NIMl00KU9bQ0BIXTVbQ0BAXTYoW0NIM10pW0NASF03W0NAQEhdKFtDSDJdW0NIMl01KVtDQEBIXShbQ0gyXVtDSDJdNilbQ0BAXTMoW0NIM10pW0NIMl1bQ0gyXTc=

>  <s_epik_cmdline>  (117) 
J2VwaWtfcHl0aG9uJywgJy1waHQnLCAnMi4wJywgJy1waCcsICc3LjAnLCAnLXRuJywgJzgnLCAnLW1hJywgJzIwMCcsICctaW1hZScsICc8aW5maWxlLm1hZT4nLCAnLW9tYWUnLCAnPG91dGZpbGUubWFlPic=

>  <r_lp_tautomer_probability>  (117) 
1

>  <r_epik_Ionization_Penalty>  (117) 
1.38253e-11

>  <r_epik_Ionization_Penalty_Charging>  (117) 
0

>  <r_epik_Ionization_Penalty_Neutral>  (117) 
1.38253e-11

>  <r_epik_State_Penalty>  (117) 
-0

>  <r_epik_Charging_Adjusted_Penalty>  (117) 
0

>  <i_epik_Tot_Q>  (117) 
0

>  <i_epik_Tot_abs_Q>  (117) 
0

>  <s_lp_Force_Field>  (117) 
OPLS3e

>  <r_lp_Energy>  (117) 
299.746

>  <b_lp_Chiralities_Consistent>  (117) 
1

>  <s_lp_Variant>  (117) 
29:0-2

>  <s_i_glide_gridfile>  (117) 
pfpi4k_grid

>  <i_i_glide_lignum>  (117) 
4

>  <i_i_glide_rotatable_bonds>  (117) 
0

>  <r_i_docking_score>  (117) 
-2.87211

>  <r_i_glide_ligand_efficiency>  (117) 
-0.102575

>  <r_i_glide_ligand_efficiency_sa>  (117) 
-0.311479

>  <r_i_glide_ligand_efficiency_ln>  (117) 
-0.662967

>  <r_i_glide_gscore>  (117) 
-2.87211

>  <r_i_glide_lipo>  (117) 
-0.491525

>  <r_i_glide_hbond>  (117) 
0

>  <r_i_glide_metal>  (117) 
-0

>  <r_i_glide_rewards>  (117) 
-0.844808

>  <r_i_glide_evdw>  (117) 
-24.853

>  <r_i_glide_ecoul>  (117) 
-1.95417

>  <r_i_glide_erotb>  (117) 
0

>  <r_i_glide_esite>  (117) 
0

>  <r_i_glide_emodel>  (117) 
-31.7684

>  <r_i_glide_energy>  (117) 
-26.8072

>  <r_i_glide_einternal>  (117) 
0

>  <r_i_glide_intrahb_reward>  (117) 
-0

>  <i_i_glide_confnum>  (117) 
1

>  <i_i_glide_posenum>  (117) 
5

>  <r_i_glide_eff_state_penalty>  (117) 
0

>  <ligand_id>  (117) 
29

>  <original_smiles>  (117) 
CC1C(=O)CC=C2C3CC1C1(OC21)C1(C)CCC2C4CCC(O3)C2(C)CCC41

>  <smiles>  (117) 
[H]C1=C2C3([H])OC4([H])C([H])([H])C([H])([H])C5([H])C6([H])C([H])([H])C([H])([H])C(C([H])([H])[H])(C5([H])C([H])([H])C([H])([H])C46C([H])([H])[H])C4(OC24[H])C([H])(C3([H])[H])C([H])(C([H])([H])[H])C(=O)C1([H])[H]

$$$$
29:1:2
     RDKit          3D

 62 68  0  0  1  0  0  0  0  0999 V2000
    3.1733   -2.9067   -1.9071 C   0  0  0  0  0  0  0  0  0  0  0  0
    4.0921   -2.2612   -0.8498 C   0  0  2  0  0  0  0  0  0  0  0  0
    5.5693   -2.6829   -1.1731 C   0  0  0  0  0  0  0  0  0  0  0  0
    6.0857   -2.2557   -2.1988 O   0  0  0  0  0  0  0  0  0  0  0  0
    6.4254   -3.6282   -0.2961 C   0  0  0  0  0  0  0  0  0  0  0  0
    6.6868   -2.9005    0.9990 C   0  0  0  0  0  0  0  0  0  0  0  0
    5.8019   -2.9089    2.0102 C   0  0  0  0  0  0  0  0  0  0  0  0
    4.7864   -4.0659    2.2533 C   0  0  2  0  0  0  0  0  0  0  0  0
    3.7165   -3.9363    1.1061 C   0  0  0  0  0  0  0  0  0  0  0  0
    3.4905   -2.4172    0.6040 C   0  0  1  0  0  0  0  0  0  0  0  0
    3.9140   -1.2676    1.6565 C   0  0  2  0  0  0  0  0  0  0  0  0
    5.1021   -0.5845    1.2175 O   0  0  0  0  0  0  0  0  0  0  0  0
    5.2963   -1.5318    2.2749 C   0  0  2  0  0  0  0  0  0  0  0  0
    2.7849   -0.4613    2.5810 C   0  0  2  0  0  0  0  0  0  0  0  0
    2.0973    0.5991    1.7078 C   0  0  0  0  0  0  0  0  0  0  0  0
    3.4874    0.2739    3.7490 C   0  0  0  0  0  0  0  0  0  0  0  0
    3.8763   -0.6927    4.8885 C   0  0  0  0  0  0  0  0  0  0  0  0
    3.5522   -2.1928    4.5242 C   0  0  2  0  0  0  0  0  0  0  0  0
    2.3176   -2.5372    3.5355 C   0  0  1  0  0  0  0  0  0  0  0  0
    1.3958   -3.8109    3.5886 C   0  0  0  0  0  0  0  0  0  0  0  0
    2.1561   -5.0009    4.1320 C   0  0  0  0  0  0  0  0  0  0  0  0
    3.4563   -4.4821    4.7262 C   0  0  1  0  0  0  0  0  0  0  0  0
    4.5581   -4.5836    3.6724 O   0  0  0  0  0  0  0  0  0  0  0  0
    3.2181   -3.0963    5.5939 C   0  0  1  0  0  0  0  0  0  0  0  0
    4.1958   -3.0610    6.7869 C   0  0  0  0  0  0  0  0  0  0  0  0
    1.7890   -2.3863    5.9846 C   0  0  0  0  0  0  0  0  0  0  0  0
    1.1326   -1.2913    4.9048 C   0  0  0  0  0  0  0  0  0  0  0  0
    1.6173   -1.3215    3.3451 C   0  0  1  0  0  0  0  0  0  0  0  0
    3.4398   -2.5885   -2.9163 H   0  0  0  0  0  0  0  0  0  0  0  0
    2.1280   -2.6451   -1.7563 H   0  0  0  0  0  0  0  0  0  0  0  0
    3.2383   -3.9904   -1.8747 H   0  0  0  0  0  0  0  0  0  0  0  0
    4.0639   -1.1914   -1.0557 H   0  0  0  0  0  0  0  0  0  0  0  0
    5.9732   -4.6072   -0.1668 H   0  0  0  0  0  0  0  0  0  0  0  0
    7.3804   -3.7995   -0.7907 H   0  0  0  0  0  0  0  0  0  0  0  0
    7.2379   -1.9845    0.8370 H   0  0  0  0  0  0  0  0  0  0  0  0
    5.3736   -4.9267    1.9284 H   0  0  0  0  0  0  0  0  0  0  0  0
    4.0047   -4.5693    0.2700 H   0  0  0  0  0  0  0  0  0  0  0  0
    2.7881   -4.4288    1.3793 H   0  0  0  0  0  0  0  0  0  0  0  0
    2.4124   -2.2919    0.4792 H   0  0  0  0  0  0  0  0  0  0  0  0
    5.7404   -1.0455    3.1333 H   0  0  0  0  0  0  0  0  0  0  0  0
    1.3647    1.1714    2.2785 H   0  0  0  0  0  0  0  0  0  0  0  0
    1.5589    0.1433    0.8828 H   0  0  0  0  0  0  0  0  0  0  0  0
    2.8119    1.3049    1.2856 H   0  0  0  0  0  0  0  0  0  0  0  0
    4.3456    0.8503    3.4049 H   0  0  0  0  0  0  0  0  0  0  0  0
    2.8016    1.0165    4.1636 H   0  0  0  0  0  0  0  0  0  0  0  0
    4.9373   -0.5900    5.1154 H   0  0  0  0  0  0  0  0  0  0  0  0
    3.4004   -0.3702    5.8153 H   0  0  0  0  0  0  0  0  0  0  0  0
    4.5373   -2.4930    4.2378 H   0  0  0  0  0  0  0  0  0  0  0  0
    2.6645   -2.8233    2.6588 H   0  0  0  0  0  0  0  0  0  0  0  0
    0.4778   -3.6708    4.1563 H   0  0  0  0  0  0  0  0  0  0  0  0
    1.0239   -4.0542    2.5942 H   0  0  0  0  0  0  0  0  0  0  0  0
    1.5569   -5.4936    4.9014 H   0  0  0  0  0  0  0  0  0  0  0  0
    2.3591   -5.7481    3.3648 H   0  0  0  0  0  0  0  0  0  0  0  0
    3.7479   -5.2397    5.4566 H   0  0  0  0  0  0  0  0  0  0  0  0
    3.8981   -3.7888    7.5430 H   0  0  0  0  0  0  0  0  0  0  0  0
    4.2210   -2.0841    7.2716 H   0  0  0  0  0  0  0  0  0  0  0  0
    5.2118   -3.3028    6.4725 H   0  0  0  0  0  0  0  0  0  0  0  0
    1.0613   -3.1643    6.2256 H   0  0  0  0  0  0  0  0  0  0  0  0
    1.9103   -1.8514    6.9303 H   0  0  0  0  0  0  0  0  0  0  0  0
    0.0583   -1.4764    4.9003 H   0  0  0  0  0  0  0  0  0  0  0  0
    1.2099   -0.2785    5.3019 H   0  0  0  0  0  0  0  0  0  0  0  0
    0.7664   -1.4654    2.6755 H   0  0  0  0  0  0  0  0  0  0  0  0
  1  2  1  0
  1 29  1  0
  1 30  1  0
  1 31  1  0
  2 10  1  0
  2  3  1  0
  2 32  1  6
  3  4  2  0
  3  5  1  0
  5  6  1  0
  5 33  1  0
  5 34  1  0
  6  7  2  3
  6 35  1  0
  7 13  1  0
  7  8  1  0
  8 23  1  0
  8  9  1  0
  8 36  1  6
  9 10  1  0
  9 37  1  0
  9 38  1  0
 10 11  1  0
 10 39  1  6
 11 13  1  0
 11 12  1  6
 11 14  1  0
 12 13  1  0
 13 40  1  1
 14 28  1  0
 14 15  1  6
 14 16  1  0
 15 41  1  0
 15 42  1  0
 15 43  1  0
 16 17  1  0
 16 44  1  0
 16 45  1  0
 17 18  1  0
 17 46  1  0
 17 47  1  0
 18 24  1  0
 18 19  1  0
 18 48  1  6
 19 28  1  0
 19 20  1  0
 19 49  1  6
 20 21  1  0
 20 50  1  0
 20 51  1  0
 21 22  1  0
 21 52  1  0
 21 53  1  0
 22 23  1  0
 22 24  1  0
 22 54  1  1
 24 25  1  1
 24 26  1  0
 25 55  1  0
 25 56  1  0
 25 57  1  0
 26 27  1  0
 26 58  1  0
 26 59  1  0
 27 28  1  0
 27 60  1  0
 27 61  1  0
 28 62  1  6
M  END
>  <i_m_ct_stereo_status>  (118) 
1

>  <s_m_source_file>  (118) 
/var/tmp/pbs.5076255.sched01/tmpazi1eam_/42934yjxx2.sdf

>  <i_m_source_file_index>  (118) 
4

>  <i_lp_mmshare_version>  (118) 
48012

>  <i_f3d_flags>  (118) 
0

>  <s_epik_input>  (118) 
W0NAQF0xMjNbQ0BIXTRbQ0BIXShbQ0gzXSlDKD1PKVtDSDJdL1tDSF09QyhbQ0BIXTJPMSkvW0NASF0oW0NIMl00KU9bQ0BIXTVbQ0BAXTYoW0NIM10pW0NASF03W0NAQEhdKFtDSDJdW0NIMl01KVtDQEBIXShbQ0gyXVtDSDJdNilbQ0BAXTMoW0NIM10pW0NIMl1bQ0gyXTc=

>  <s_epik_cmdline>  (118) 
J2VwaWtfcHl0aG9uJywgJy1waHQnLCAnMi4wJywgJy1waCcsICc3LjAnLCAnLXRuJywgJzgnLCAnLW1hJywgJzIwMCcsICctaW1hZScsICc8aW5maWxlLm1hZT4nLCAnLW9tYWUnLCAnPG91dGZpbGUubWFlPic=

>  <r_lp_tautomer_probability>  (118) 
1

>  <r_epik_Ionization_Penalty>  (118) 
1.38253e-11

>  <r_epik_Ionization_Penalty_Charging>  (118) 
0

>  <r_epik_Ionization_Penalty_Neutral>  (118) 
1.38253e-11

>  <r_epik_State_Penalty>  (118) 
-0

>  <r_epik_Charging_Adjusted_Penalty>  (118) 
0

>  <i_epik_Tot_Q>  (118) 
0

>  <i_epik_Tot_abs_Q>  (118) 
0

>  <s_lp_Force_Field>  (118) 
OPLS3e

>  <r_lp_Energy>  (118) 
299.746

>  <b_lp_Chiralities_Consistent>  (118) 
1

>  <s_lp_Variant>  (118) 
29:0-2

>  <s_i_glide_gridfile>  (118) 
pfpi4k_grid

>  <i_i_glide_lignum>  (118) 
4

>  <i_i_glide_rotatable_bonds>  (118) 
0

>  <r_i_docking_score>  (118) 
-2.68974

>  <r_i_glide_ligand_efficiency>  (118) 
-0.0960623

>  <r_i_glide_ligand_efficiency_sa>  (118) 
-0.291702

>  <r_i_glide_ligand_efficiency_ln>  (118) 
-0.620872

>  <r_i_glide_gscore>  (118) 
-2.68974

>  <r_i_glide_lipo>  (118) 
-0.344455

>  <r_i_glide_hbond>  (118) 
-0.0144512

>  <r_i_glide_metal>  (118) 
-0

>  <r_i_glide_rewards>  (118) 
-0.800893

>  <r_i_glide_evdw>  (118) 
-23.7752

>  <r_i_glide_ecoul>  (118) 
-2.22686

>  <r_i_glide_erotb>  (118) 
0

>  <r_i_glide_esite>  (118) 
-0.00715736

>  <r_i_glide_emodel>  (118) 
-30.6463

>  <r_i_glide_energy>  (118) 
-26.002

>  <r_i_glide_einternal>  (118) 
0

>  <r_i_glide_intrahb_reward>  (118) 
-0

>  <i_i_glide_confnum>  (118) 
1

>  <i_i_glide_posenum>  (118) 
1

>  <r_i_glide_eff_state_penalty>  (118) 
0

>  <ligand_id>  (118) 
29

>  <original_smiles>  (118) 
CC1C(=O)CC=C2C3CC1C1(OC21)C1(C)CCC2C4CCC(O3)C2(C)CCC41

>  <smiles>  (118) 
[H]C1=C2C3([H])OC4([H])C([H])([H])C([H])([H])C5([H])C6([H])C([H])([H])C([H])([H])C(C([H])([H])[H])(C5([H])C([H])([H])C([H])([H])C46C([H])([H])[H])C4(OC24[H])C([H])(C3([H])[H])C([H])(C([H])([H])[H])C(=O)C1([H])[H]

$$$$
32:0:0
     RDKit          3D

 57 63  0  0  1  0  0  0  0  0999 V2000
   -2.0532    2.1602    8.6425 C   0  0  0  0  0  0  0  0  0  0  0  0
   -1.5413    3.0860    7.5203 C   0  0  2  0  0  0  0  0  0  0  0  0
   -2.5358    3.1121    6.2797 C   0  0  0  0  0  0  0  0  0  0  0  0
   -2.0263    2.6139    4.8833 C   0  0  0  0  0  0  0  0  0  0  0  0
   -0.5226    2.3984    5.0165 C   0  0  2  0  0  0  0  0  0  0  0  0
    0.5817    2.5847    4.0041 C   0  0  1  0  0  0  0  0  0  0  0  0
    1.2769    3.8105    3.4367 C   0  0  0  0  0  0  0  0  0  0  0  0
    2.6239    3.6307    3.5141 C   0  0  0  0  0  0  0  0  0  0  0  0
    2.8820    2.4918    4.3776 C   0  0  0  0  0  0  0  0  0  0  0  0
    1.7272    2.5785    5.0339 C   0  0  0  0  0  0  0  0  0  0  0  0
    1.3493    3.4218    6.3999 C   0  0  1  0  0  0  0  0  0  0  0  0
    1.4357    4.9873    6.2749 C   0  0  0  0  0  0  0  0  0  0  0  0
   -0.0062    2.7621    7.2038 C   0  0  2  0  0  0  0  0  0  0  0  0
   -0.1255    1.4795    6.3421 C   0  0  2  0  0  0  0  0  0  0  0  0
    1.1131    0.9428    7.2594 C   0  0  0  0  0  0  0  0  0  0  0  0
   -0.7555    0.0253    6.2883 C   0  0  1  0  0  0  0  0  0  0  0  0
   -2.1486   -0.0556    6.0815 O   0  0  0  0  0  0  0  0  0  0  0  0
   -0.0597   -0.9173    5.2223 C   0  0  2  0  0  0  0  0  0  0  0  0
    0.9814   -1.7678    5.7378 O   0  0  0  0  0  0  0  0  0  0  0  0
    1.3942   -0.9819    4.6198 C   0  0  2  0  0  0  0  0  0  0  0  0
    2.5754    0.0025    4.8565 C   0  0  1  0  0  0  0  0  0  0  0  0
    3.8406    0.0524    4.1999 O   0  0  0  0  0  0  0  0  0  0  0  0
    2.9185    1.0633    3.7920 C   0  0  2  0  0  0  0  0  0  0  0  0
    2.6823    0.8205    2.3092 C   0  0  0  0  0  0  0  0  0  0  0  0
    1.4675    1.5102    1.7148 C   0  0  0  0  0  0  0  0  0  0  0  0
    0.3233    1.7327    2.7093 C   0  0  1  0  0  0  0  0  0  0  0  0
   -0.3981    0.5466    2.8587 O   0  0  0  0  0  0  0  0  0  0  0  0
   -2.0898    1.1219    8.3344 H   0  0  0  0  0  0  0  0  0  0  0  0
   -3.0575    2.4356    8.9689 H   0  0  0  0  0  0  0  0  0  0  0  0
   -1.4048    2.2080    9.5210 H   0  0  0  0  0  0  0  0  0  0  0  0
   -1.6722    4.0528    8.0287 H   0  0  0  0  0  0  0  0  0  0  0  0
   -3.4728    2.6219    6.5348 H   0  0  0  0  0  0  0  0  0  0  0  0
   -2.8114    4.1413    6.1317 H   0  0  0  0  0  0  0  0  0  0  0  0
   -2.5462    1.7306    4.5346 H   0  0  0  0  0  0  0  0  0  0  0  0
   -2.2520    3.3512    4.1080 H   0  0  0  0  0  0  0  0  0  0  0  0
   -0.5274    3.4868    5.0791 H   0  0  0  0  0  0  0  0  0  0  0  0
    0.7756    4.5994    2.9198 H   0  0  0  0  0  0  0  0  0  0  0  0
    3.3646    4.3143    3.1269 H   0  0  0  0  0  0  0  0  0  0  0  0
    2.1954    3.3042    7.0688 H   0  0  0  0  0  0  0  0  0  0  0  0
    2.4182    5.3073    5.9276 H   0  0  0  0  0  0  0  0  0  0  0  0
    1.2898    5.4661    7.2480 H   0  0  0  0  0  0  0  0  0  0  0  0
    0.6880    5.4186    5.6033 H   0  0  0  0  0  0  0  0  0  0  0  0
   -0.2430    3.7696    6.9378 H   0  0  0  0  0  0  0  0  0  0  0  0
    1.3379   -0.1126    7.2395 H   0  0  0  0  0  0  0  0  0  0  0  0
    0.8685    1.0346    8.3208 H   0  0  0  0  0  0  0  0  0  0  0  0
    2.1119    1.3479    7.2079 H   0  0  0  0  0  0  0  0  0  0  0  0
   -0.6788   -0.4865    7.2502 H   0  0  0  0  0  0  0  0  0  0  0  0
   -2.3279    0.3719    5.2487 H   0  0  0  0  0  0  0  0  0  0  0  0
   -0.7893   -1.4735    4.6362 H   0  0  0  0  0  0  0  0  0  0  0  0
    1.4600   -1.5648    3.7041 H   0  0  0  0  0  0  0  0  0  0  0  0
    2.9034    0.0579    5.8751 H   0  0  0  0  0  0  0  0  0  0  0  0
    3.5886    1.0661    1.7495 H   0  0  0  0  0  0  0  0  0  0  0  0
    2.5584   -0.2559    2.1667 H   0  0  0  0  0  0  0  0  0  0  0  0
    1.7891    2.4562    1.2828 H   0  0  0  0  0  0  0  0  0  0  0  0
    1.1110    0.9328    0.8647 H   0  0  0  0  0  0  0  0  0  0  0  0
   -0.3796    2.3393    2.1387 H   0  0  0  0  0  0  0  0  0  0  0  0
   -0.6631    0.3059    1.9846 H   0  0  0  0  0  0  0  0  0  0  0  0
  1  2  1  0
  1 28  1  0
  1 29  1  0
  1 30  1  0
  2 13  1  0
  2  3  1  0
  2 31  1  1
  3  4  1  0
  3 32  1  0
  3 33  1  0
  4  5  1  0
  4 34  1  0
  4 35  1  0
  5 14  1  0
  5  6  1  0
  5 36  1  1
  6 10  1  0
  6 26  1  0
  6  7  1  6
  7  8  2  0
  7 37  1  0
  8  9  1  0
  8 38  1  0
  9 23  1  0
  9 10  2  0
 10 11  1  0
 11 12  1  0
 11 13  1  0
 11 39  1  1
 12 40  1  0
 12 41  1  0
 12 42  1  0
 13 14  1  0
 13 43  1  1
 14 15  1  6
 14 16  1  0
 15 44  1  0
 15 45  1  0
 15 46  1  0
 16 17  1  0
 16 18  1  0
 16 47  1  1
 17 48  1  0
 18 20  1  0
 18 19  1  0
 18 49  1  6
 19 20  1  0
 20 21  1  0
 20 50  1  6
 21 23  1  0
 21 22  1  0
 21 51  1  1
 23 22  1  6
 23 24  1  0
 24 25  1  0
 24 52  1  0
 24 53  1  0
 25 26  1  0
 25 54  1  0
 25 55  1  0
 26 27  1  0
 26 56  1  6
 27 57  1  0
M  END
>  <i_m_ct_stereo_status>  (119) 
1

>  <s_m_source_file>  (119) 
/var/tmp/pbs.5076255.sched01/tmpazi1eam_/42934yjxx2.sdf

>  <i_m_source_file_index>  (119) 
8

>  <i_lp_mmshare_version>  (119) 
48012

>  <i_f3d_flags>  (119) 
1

>  <s_epik_input>  (119) 
W0NIMl0xW0NIMl1bQ0BASF0oW0NIM10pW0NASF0oW0NAQF0yKFtDQEhdMVtDQEBdMzQ1KVtDSDNdKVtDQEhdKFtDSDNdKUM0PUMoW0NIXT1bQ0hdMylDNihbQ0gyXVtDSDJdW0NASF01W09IXSlbQ0BIXShPNilbQ0BASF03W0NAQEhdKE83KVtDQEBIXTJbT0hd

>  <s_epik_cmdline>  (119) 
J2VwaWtfcHl0aG9uJywgJy1waHQnLCAnMi4wJywgJy1waCcsICc3LjAnLCAnLXRuJywgJzgnLCAnLW1hJywgJzIwMCcsICctaW1hZScsICc8aW5maWxlLm1hZT4nLCAnLW9tYWUnLCAnPG91dGZpbGUubWFlPic=

>  <r_lp_tautomer_probability>  (119) 
1

>  <r_epik_Ionization_Penalty>  (119) 
1.45913e-07

>  <r_epik_Ionization_Penalty_Charging>  (119) 
0

>  <r_epik_Ionization_Penalty_Neutral>  (119) 
1.45913e-07

>  <r_epik_State_Penalty>  (119) 
-0

>  <r_epik_Charging_Adjusted_Penalty>  (119) 
0

>  <i_epik_Tot_Q>  (119) 
0

>  <i_epik_Tot_abs_Q>  (119) 
0

>  <s_lp_Force_Field>  (119) 
OPLS3e

>  <r_lp_Energy>  (119) 
456.062

>  <b_lp_Chiralities_Consistent>  (119) 
1

>  <s_lp_Variant>  (119) 
32:0-1

>  <s_i_glide_gridfile>  (119) 
pfpi4k_grid

>  <i_i_glide_lignum>  (119) 
8

>  <i_i_glide_rotatable_bonds>  (119) 
2

>  <r_i_docking_score>  (119) 
-3.08985

>  <r_i_glide_ligand_efficiency>  (119) 
-0.114439

>  <r_i_glide_ligand_efficiency_sa>  (119) 
-0.343316

>  <r_i_glide_ligand_efficiency_ln>  (119) 
-0.719266

>  <r_i_glide_gscore>  (119) 
-3.08985

>  <r_i_glide_lipo>  (119) 
-0.164262

>  <r_i_glide_hbond>  (119) 
-0.16

>  <r_i_glide_metal>  (119) 
-0

>  <r_i_glide_rewards>  (119) 
-0.883078

>  <r_i_glide_evdw>  (119) 
-22.6499

>  <r_i_glide_ecoul>  (119) 
-5.0001

>  <r_i_glide_erotb>  (119) 
0

>  <r_i_glide_esite>  (119) 
0

>  <r_i_glide_emodel>  (119) 
-33.1776

>  <r_i_glide_energy>  (119) 
-27.6499

>  <r_i_glide_einternal>  (119) 
0.346635

>  <r_i_glide_intrahb_reward>  (119) 
-0

>  <i_i_glide_confnum>  (119) 
1

>  <i_i_glide_posenum>  (119) 
7

>  <r_i_glide_eff_state_penalty>  (119) 
0

>  <ligand_id>  (119) 
32

>  <original_smiles>  (119) 
CC1CCC2C34C=CC5=C3C(C)C1C2(C)C(O)C1OC1C1OC51CCC4O

>  <smiles>  (119) 
[H]OC1([H])C([H])([H])C([H])([H])C23OC2([H])C2([H])OC2([H])C([H])(O[H])C2(C([H])([H])[H])C4([H])C([H])([H])C([H])([H])C([H])(C([H])([H])[H])C2([H])C([H])(C([H])([H])[H])C2=C3C([H])=C([H])C214

$$$$
32:0:1
     RDKit          3D

 57 63  0  0  1  0  0  0  0  0999 V2000
   -2.0541    2.2071    8.5912 C   0  0  0  0  0  0  0  0  0  0  0  0
   -1.5156    3.1056    7.4615 C   0  0  2  0  0  0  0  0  0  0  0  0
   -2.4889    3.1084    6.2007 C   0  0  0  0  0  0  0  0  0  0  0  0
   -1.9641    2.5716    4.8207 C   0  0  0  0  0  0  0  0  0  0  0  0
   -0.4683    2.3519    4.9837 C   0  0  2  0  0  0  0  0  0  0  0  0
    0.6469    2.5057    3.9829 C   0  0  1  0  0  0  0  0  0  0  0  0
    1.3538    3.7148    3.3982 C   0  0  0  0  0  0  0  0  0  0  0  0
    2.7023    3.5321    3.4970 C   0  0  0  0  0  0  0  0  0  0  0  0
    2.9408    2.4115    4.3904 C   0  0  0  0  0  0  0  0  0  0  0  0
    1.7824    2.5223    5.0275 C   0  0  0  0  0  0  0  0  0  0  0  0
    1.3859    3.4006    6.3706 C   0  0  1  0  0  0  0  0  0  0  0  0
    1.4835    4.9609    6.2068 C   0  0  0  0  0  0  0  0  0  0  0  0
    0.0187    2.7644    7.1695 C   0  0  2  0  0  0  0  0  0  0  0  0
   -0.0968    1.4625    6.3362 C   0  0  2  0  0  0  0  0  0  0  0  0
    1.1269    0.9429    7.2831 C   0  0  0  0  0  0  0  0  0  0  0  0
   -0.7312    0.0094    6.3106 C   0  0  1  0  0  0  0  0  0  0  0  0
   -2.1226   -0.0722    6.0783 O   0  0  0  0  0  0  0  0  0  0  0  0
   -0.0223   -0.9669    5.2821 C   0  0  2  0  0  0  0  0  0  0  0  0
    1.0072   -1.8049    5.8332 O   0  0  0  0  0  0  0  0  0  0  0  0
    1.4407   -1.0509    4.7020 C   0  0  2  0  0  0  0  0  0  0  0  0
    2.6209   -0.0612    4.9297 C   0  0  1  0  0  0  0  0  0  0  0  0
    3.8944   -0.0326    4.2879 O   0  0  0  0  0  0  0  0  0  0  0  0
    2.9835    0.9694    3.8403 C   0  0  2  0  0  0  0  0  0  0  0  0
    2.7670    0.6940    2.3610 C   0  0  0  0  0  0  0  0  0  0  0  0
    1.5580    1.3672    1.7311 C   0  0  0  0  0  0  0  0  0  0  0  0
    0.3980    1.6274    2.7006 C   0  0  1  0  0  0  0  0  0  0  0  0
   -0.3355    0.4546    2.9000 O   0  0  0  0  0  0  0  0  0  0  0  0
   -2.0917    1.1629    8.3068 H   0  0  0  0  0  0  0  0  0  0  0  0
   -3.0619    2.4944    8.8975 H   0  0  0  0  0  0  0  0  0  0  0  0
   -1.4184    2.2722    9.4745 H   0  0  0  0  0  0  0  0  0  0  0  0
   -1.6509    4.0850    7.9431 H   0  0  0  0  0  0  0  0  0  0  0  0
   -3.4408    2.6414    6.4588 H   0  0  0  0  0  0  0  0  0  0  0  0
   -2.7585    4.1390    6.0177 H   0  0  0  0  0  0  0  0  0  0  0  0
   -2.4929    1.6871    4.5019 H   0  0  0  0  0  0  0  0  0  0  0  0
   -2.1816    3.2909    4.0242 H   0  0  0  0  0  0  0  0  0  0  0  0
   -0.4692    3.4434    5.0191 H   0  0  0  0  0  0  0  0  0  0  0  0
    0.8643    4.4994    2.8685 H   0  0  0  0  0  0  0  0  0  0  0  0
    3.4454    4.2090    3.1048 H   0  0  0  0  0  0  0  0  0  0  0  0
    2.2218    3.2934    7.0524 H   0  0  0  0  0  0  0  0  0  0  0  0
    2.4716    5.2678    5.8672 H   0  0  0  0  0  0  0  0  0  0  0  0
    1.3263    5.4634    7.1658 H   0  0  0  0  0  0  0  0  0  0  0  0
    0.7476    5.3794    5.5154 H   0  0  0  0  0  0  0  0  0  0  0  0
   -0.2102    3.7682    6.8757 H   0  0  0  0  0  0  0  0  0  0  0  0
    1.3469   -0.1136    7.2935 H   0  0  0  0  0  0  0  0  0  0  0  0
    0.8685    1.0629    8.3382 H   0  0  0  0  0  0  0  0  0  0  0  0
    2.1280    1.3418    7.2378 H   0  0  0  0  0  0  0  0  0  0  0  0
   -0.6714   -0.4762    7.2864 H   0  0  0  0  0  0  0  0  0  0  0  0
   -2.2863    0.3143    5.2345 H   0  0  0  0  0  0  0  0  0  0  0  0
   -0.7478   -1.5354    4.7019 H   0  0  0  0  0  0  0  0  0  0  0  0
    1.5229   -1.6622    3.8055 H   0  0  0  0  0  0  0  0  0  0  0  0
    2.9367    0.0172    5.9506 H   0  0  0  0  0  0  0  0  0  0  0  0
    3.6844    0.9297    1.8122 H   0  0  0  0  0  0  0  0  0  0  0  0
    2.6476   -0.3842    2.2424 H   0  0  0  0  0  0  0  0  0  0  0  0
    1.8911    2.3005    1.2827 H   0  0  0  0  0  0  0  0  0  0  0  0
    1.2153    0.7744    0.8862 H   0  0  0  0  0  0  0  0  0  0  0  0
   -0.2907    2.2218    2.1041 H   0  0  0  0  0  0  0  0  0  0  0  0
    0.2750   -0.2071    3.1780 H   0  0  0  0  0  0  0  0  0  0  0  0
  1  2  1  0
  1 28  1  0
  1 29  1  0
  1 30  1  0
  2 13  1  0
  2  3  1  0
  2 31  1  1
  3  4  1  0
  3 32  1  0
  3 33  1  0
  4  5  1  0
  4 34  1  0
  4 35  1  0
  5 14  1  0
  5  6  1  0
  5 36  1  1
  6 10  1  0
  6 26  1  0
  6  7  1  6
  7  8  2  0
  7 37  1  0
  8  9  1  0
  8 38  1  0
  9 23  1  0
  9 10  2  0
 10 11  1  0
 11 12  1  0
 11 13  1  0
 11 39  1  1
 12 40  1  0
 12 41  1  0
 12 42  1  0
 13 14  1  0
 13 43  1  1
 14 15  1  6
 14 16  1  0
 15 44  1  0
 15 45  1  0
 15 46  1  0
 16 17  1  0
 16 18  1  0
 16 47  1  1
 17 48  1  0
 18 20  1  0
 18 19  1  0
 18 49  1  6
 19 20  1  0
 20 21  1  0
 20 50  1  6
 21 23  1  0
 21 22  1  0
 21 51  1  1
 23 22  1  6
 23 24  1  0
 24 25  1  0
 24 52  1  0
 24 53  1  0
 25 26  1  0
 25 54  1  0
 25 55  1  0
 26 27  1  0
 26 56  1  6
 27 57  1  0
M  END
>  <i_m_ct_stereo_status>  (120) 
1

>  <s_m_source_file>  (120) 
/var/tmp/pbs.5076255.sched01/tmpazi1eam_/42934yjxx2.sdf

>  <i_m_source_file_index>  (120) 
8

>  <i_lp_mmshare_version>  (120) 
48012

>  <i_f3d_flags>  (120) 
1

>  <s_epik_input>  (120) 
W0NIMl0xW0NIMl1bQ0BASF0oW0NIM10pW0NASF0oW0NAQF0yKFtDQEhdMVtDQEBdMzQ1KVtDSDNdKVtDQEhdKFtDSDNdKUM0PUMoW0NIXT1bQ0hdMylDNihbQ0gyXVtDSDJdW0NASF01W09IXSlbQ0BIXShPNilbQ0BASF03W0NAQEhdKE83KVtDQEBIXTJbT0hd

>  <s_epik_cmdline>  (120) 
J2VwaWtfcHl0aG9uJywgJy1waHQnLCAnMi4wJywgJy1waCcsICc3LjAnLCAnLXRuJywgJzgnLCAnLW1hJywgJzIwMCcsICctaW1hZScsICc8aW5maWxlLm1hZT4nLCAnLW9tYWUnLCAnPG91dGZpbGUubWFlPic=

>  <r_lp_tautomer_probability>  (120) 
1

>  <r_epik_Ionization_Penalty>  (120) 
1.45913e-07

>  <r_epik_Ionization_Penalty_Charging>  (120) 
0

>  <r_epik_Ionization_Penalty_Neutral>  (120) 
1.45913e-07

>  <r_epik_State_Penalty>  (120) 
-0

>  <r_epik_Charging_Adjusted_Penalty>  (120) 
0

>  <i_epik_Tot_Q>  (120) 
0

>  <i_epik_Tot_abs_Q>  (120) 
0

>  <s_lp_Force_Field>  (120) 
OPLS3e

>  <r_lp_Energy>  (120) 
456.062

>  <b_lp_Chiralities_Consistent>  (120) 
1

>  <s_lp_Variant>  (120) 
32:0-1

>  <s_i_glide_gridfile>  (120) 
pfpi4k_grid

>  <i_i_glide_lignum>  (120) 
8

>  <i_i_glide_rotatable_bonds>  (120) 
2

>  <r_i_docking_score>  (120) 
-3.08924

>  <r_i_glide_ligand_efficiency>  (120) 
-0.114416

>  <r_i_glide_ligand_efficiency_sa>  (120) 
-0.343248

>  <r_i_glide_ligand_efficiency_ln>  (120) 
-0.719123

>  <r_i_glide_gscore>  (120) 
-3.08924

>  <r_i_glide_lipo>  (120) 
-0.167218

>  <r_i_glide_hbond>  (120) 
-0.16

>  <r_i_glide_metal>  (120) 
-0

>  <r_i_glide_rewards>  (120) 
-0.883078

>  <r_i_glide_evdw>  (120) 
-22.4971

>  <r_i_glide_ecoul>  (120) 
-5.02724

>  <r_i_glide_erotb>  (120) 
0

>  <r_i_glide_esite>  (120) 
0

>  <r_i_glide_emodel>  (120) 
-33.1701

>  <r_i_glide_energy>  (120) 
-27.5243

>  <r_i_glide_einternal>  (120) 
0.0929622

>  <r_i_glide_intrahb_reward>  (120) 
-0

>  <i_i_glide_confnum>  (120) 
1

>  <i_i_glide_posenum>  (120) 
29

>  <r_i_glide_eff_state_penalty>  (120) 
0

>  <ligand_id>  (120) 
32

>  <original_smiles>  (120) 
CC1CCC2C34C=CC5=C3C(C)C1C2(C)C(O)C1OC1C1OC51CCC4O

>  <smiles>  (120) 
[H]OC1([H])C([H])([H])C([H])([H])C23OC2([H])C2([H])OC2([H])C([H])(O[H])C2(C([H])([H])[H])C4([H])C([H])([H])C([H])([H])C([H])(C([H])([H])[H])C2([H])C([H])(C([H])([H])[H])C2=C3C([H])=C([H])C214

$$$$
32:0:2
     RDKit          3D

 57 63  0  0  1  0  0  0  0  0999 V2000
   -2.0873    3.1720    5.6274 C   0  0  0  0  0  0  0  0  0  0  0  0
   -0.9236    3.0712    4.6139 C   0  0  2  0  0  0  0  0  0  0  0  0
   -1.3597    2.3447    3.2667 C   0  0  0  0  0  0  0  0  0  0  0  0
   -0.6718    0.9884    2.8851 C   0  0  0  0  0  0  0  0  0  0  0  0
    0.5046    0.7985    3.8355 C   0  0  2  0  0  0  0  0  0  0  0  0
    1.8546    0.1692    3.5995 C   0  0  1  0  0  0  0  0  0  0  0  0
    3.1078    0.6327    2.8785 C   0  0  0  0  0  0  0  0  0  0  0  0
    4.1814    0.4582    3.6887 C   0  0  0  0  0  0  0  0  0  0  0  0
    3.6968    0.2066    5.0442 C   0  0  0  0  0  0  0  0  0  0  0  0
    2.5207    0.7808    4.8572 C   0  0  0  0  0  0  0  0  0  0  0  0
    2.0686    2.3517    5.1011 C   0  0  1  0  0  0  0  0  0  0  0  0
    2.7762    3.4167    4.1787 C   0  0  0  0  0  0  0  0  0  0  0  0
    0.3894    2.5093    5.3397 C   0  0  2  0  0  0  0  0  0  0  0  0
    0.0722    0.9935    5.4315 C   0  0  2  0  0  0  0  0  0  0  0  0
    0.6547    1.1326    6.9513 C   0  0  0  0  0  0  0  0  0  0  0  0
   -0.9963   -0.0706    5.9108 C   0  0  1  0  0  0  0  0  0  0  0  0
   -2.1716   -0.1970    5.1459 O   0  0  0  0  0  0  0  0  0  0  0  0
   -0.4088   -1.5265    6.0780 C   0  0  2  0  0  0  0  0  0  0  0  0
   -0.0021   -1.8772    7.4200 O   0  0  0  0  0  0  0  0  0  0  0  0
    1.0214   -2.0869    6.4369 C   0  0  2  0  0  0  0  0  0  0  0  0
    2.3364   -1.2796    6.6154 C   0  0  1  0  0  0  0  0  0  0  0  0
    3.6652   -1.7783    6.7722 O   0  0  0  0  0  0  0  0  0  0  0  0
    3.3768   -1.2405    5.4722 C   0  0  2  0  0  0  0  0  0  0  0  0
    3.5736   -2.4112    4.5150 C   0  0  0  0  0  0  0  0  0  0  0  0
    2.9806   -2.2283    3.1233 C   0  0  0  0  0  0  0  0  0  0  0  0
    1.7431   -1.3125    3.1002 C   0  0  1  0  0  0  0  0  0  0  0  0
    0.6185   -2.0278    3.5379 O   0  0  0  0  0  0  0  0  0  0  0  0
   -2.4172    2.2065    5.9955 H   0  0  0  0  0  0  0  0  0  0  0  0
   -2.9619    3.6607    5.1952 H   0  0  0  0  0  0  0  0  0  0  0  0
   -1.7839    3.7540    6.4985 H   0  0  0  0  0  0  0  0  0  0  0  0
   -0.8362    4.1330    4.3414 H   0  0  0  0  0  0  0  0  0  0  0  0
   -2.4426    2.2101    3.2446 H   0  0  0  0  0  0  0  0  0  0  0  0
   -1.1445    3.0387    2.4513 H   0  0  0  0  0  0  0  0  0  0  0  0
   -1.3701    0.1615    2.9071 H   0  0  0  0  0  0  0  0  0  0  0  0
   -0.3406    1.0127    1.8425 H   0  0  0  0  0  0  0  0  0  0  0  0
    0.8942    1.6388    3.2656 H   0  0  0  0  0  0  0  0  0  0  0  0
    3.1303    0.9254    1.8440 H   0  0  0  0  0  0  0  0  0  0  0  0
    5.2075    0.6551    3.4252 H   0  0  0  0  0  0  0  0  0  0  0  0
    2.5475    2.6653    6.0278 H   0  0  0  0  0  0  0  0  0  0  0  0
    3.8624    3.3466    4.2476 H   0  0  0  0  0  0  0  0  0  0  0  0
    2.5206    4.4395    4.4795 H   0  0  0  0  0  0  0  0  0  0  0  0
    2.5081    3.3308    3.1201 H   0  0  0  0  0  0  0  0  0  0  0  0
    0.6476    3.0858    4.4714 H   0  0  0  0  0  0  0  0  0  0  0  0
    0.4558    0.3296    7.6473 H   0  0  0  0  0  0  0  0  0  0  0  0
    0.1340    1.9333    7.4866 H   0  0  0  0  0  0  0  0  0  0  0  0
    1.6902    1.3293    7.1824 H   0  0  0  0  0  0  0  0  0  0  0  0
   -1.4477    0.2084    6.8665 H   0  0  0  0  0  0  0  0  0  0  0  0
   -1.9656    0.0593    4.2584 H   0  0  0  0  0  0  0  0  0  0  0  0
   -1.0605   -2.2803    5.6404 H   0  0  0  0  0  0  0  0  0  0  0  0
    1.1531   -3.1314    6.1861 H   0  0  0  0  0  0  0  0  0  0  0  0
    2.3185   -0.5774    7.4175 H   0  0  0  0  0  0  0  0  0  0  0  0
    4.6385   -2.6643    4.4562 H   0  0  0  0  0  0  0  0  0  0  0  0
    3.0988   -3.2911    4.9632 H   0  0  0  0  0  0  0  0  0  0  0  0
    3.7651   -1.8516    2.4662 H   0  0  0  0  0  0  0  0  0  0  0  0
    2.7292   -3.2027    2.7067 H   0  0  0  0  0  0  0  0  0  0  0  0
    1.5353   -1.2123    2.0363 H   0  0  0  0  0  0  0  0  0  0  0  0
   -0.1291   -1.6415    3.1212 H   0  0  0  0  0  0  0  0  0  0  0  0
  1  2  1  0
  1 28  1  0
  1 29  1  0
  1 30  1  0
  2 13  1  0
  2  3  1  0
  2 31  1  6
  3  4  1  0
  3 32  1  0
  3 33  1  0
  4  5  1  0
  4 34  1  0
  4 35  1  0
  5 14  1  0
  5  6  1  0
  5 36  1  6
  6 10  1  0
  6 26  1  0
  6  7  1  6
  7  8  2  0
  7 37  1  0
  8  9  1  0
  8 38  1  0
  9 23  1  0
  9 10  2  0
 10 11  1  0
 11 12  1  0
 11 13  1  0
 11 39  1  1
 12 40  1  0
 12 41  1  0
 12 42  1  0
 13 14  1  0
 13 43  1  1
 14 15  1  1
 14 16  1  0
 15 44  1  0
 15 45  1  0
 15 46  1  0
 16 17  1  0
 16 18  1  0
 16 47  1  1
 17 48  1  0
 18 20  1  0
 18 19  1  0
 18 49  1  6
 19 20  1  0
 20 21  1  0
 20 50  1  6
 21 23  1  0
 21 22  1  0
 21 51  1  1
 23 22  1  1
 23 24  1  0
 24 25  1  0
 24 52  1  0
 24 53  1  0
 25 26  1  0
 25 54  1  0
 25 55  1  0
 26 27  1  0
 26 56  1  6
 27 57  1  0
M  END
>  <i_m_ct_stereo_status>  (121) 
1

>  <s_m_source_file>  (121) 
/var/tmp/pbs.5076255.sched01/tmpazi1eam_/42934yjxx2.sdf

>  <i_m_source_file_index>  (121) 
8

>  <i_lp_mmshare_version>  (121) 
48012

>  <i_f3d_flags>  (121) 
1

>  <s_epik_input>  (121) 
W0NIMl0xW0NIMl1bQ0BASF0oW0NIM10pW0NASF0oW0NAQF0yKFtDQEhdMVtDQEBdMzQ1KVtDSDNdKVtDQEhdKFtDSDNdKUM0PUMoW0NIXT1bQ0hdMylDNihbQ0gyXVtDSDJdW0NASF01W09IXSlbQ0BIXShPNilbQ0BASF03W0NAQEhdKE83KVtDQEBIXTJbT0hd

>  <s_epik_cmdline>  (121) 
J2VwaWtfcHl0aG9uJywgJy1waHQnLCAnMi4wJywgJy1waCcsICc3LjAnLCAnLXRuJywgJzgnLCAnLW1hJywgJzIwMCcsICctaW1hZScsICc8aW5maWxlLm1hZT4nLCAnLW9tYWUnLCAnPG91dGZpbGUubWFlPic=

>  <r_lp_tautomer_probability>  (121) 
1

>  <r_epik_Ionization_Penalty>  (121) 
1.45913e-07

>  <r_epik_Ionization_Penalty_Charging>  (121) 
0

>  <r_epik_Ionization_Penalty_Neutral>  (121) 
1.45913e-07

>  <r_epik_State_Penalty>  (121) 
-0

>  <r_epik_Charging_Adjusted_Penalty>  (121) 
0

>  <i_epik_Tot_Q>  (121) 
0

>  <i_epik_Tot_abs_Q>  (121) 
0

>  <s_lp_Force_Field>  (121) 
OPLS3e

>  <r_lp_Energy>  (121) 
456.062

>  <b_lp_Chiralities_Consistent>  (121) 
1

>  <s_lp_Variant>  (121) 
32:0-1

>  <s_i_glide_gridfile>  (121) 
pfpi4k_grid

>  <i_i_glide_lignum>  (121) 
8

>  <i_i_glide_rotatable_bonds>  (121) 
2

>  <r_i_docking_score>  (121) 
-2.78312

>  <r_i_glide_ligand_efficiency>  (121) 
-0.103079

>  <r_i_glide_ligand_efficiency_sa>  (121) 
-0.309236

>  <r_i_glide_ligand_efficiency_ln>  (121) 
-0.647865

>  <r_i_glide_gscore>  (121) 
-2.78312

>  <r_i_glide_lipo>  (121) 
-0.0542888

>  <r_i_glide_hbond>  (121) 
-0.0128276

>  <r_i_glide_metal>  (121) 
-0

>  <r_i_glide_rewards>  (121) 
-0.883078

>  <r_i_glide_evdw>  (121) 
-22.1494

>  <r_i_glide_ecoul>  (121) 
-4.83638

>  <r_i_glide_erotb>  (121) 
0

>  <r_i_glide_esite>  (121) 
0

>  <r_i_glide_emodel>  (121) 
-31.2706

>  <r_i_glide_energy>  (121) 
-26.9858

>  <r_i_glide_einternal>  (121) 
1.09141

>  <r_i_glide_intrahb_reward>  (121) 
-0

>  <i_i_glide_confnum>  (121) 
2

>  <i_i_glide_posenum>  (121) 
9

>  <r_i_glide_eff_state_penalty>  (121) 
0

>  <ligand_id>  (121) 
32

>  <original_smiles>  (121) 
CC1CCC2C34C=CC5=C3C(C)C1C2(C)C(O)C1OC1C1OC51CCC4O

>  <smiles>  (121) 
[H]OC1([H])C([H])([H])C([H])([H])C23OC2([H])C2([H])OC2([H])C([H])(O[H])C2(C([H])([H])[H])C4([H])C([H])([H])C([H])([H])C([H])(C([H])([H])[H])C2([H])C([H])(C([H])([H])[H])C2=C3C([H])=C([H])C214

$$$$
32:1:0
     RDKit          3D

 57 63  0  0  1  0  0  0  0  0999 V2000
    4.3570   -2.7833   -2.3358 C   0  0  0  0  0  0  0  0  0  0  0  0
    5.1059   -2.4349   -1.0382 C   0  0  2  0  0  0  0  0  0  0  0  0
    6.4123   -3.2515   -0.9258 C   0  0  0  0  0  0  0  0  0  0  0  0
    7.0976   -3.2327    0.4573 C   0  0  0  0  0  0  0  0  0  0  0  0
    6.1119   -3.1958    1.6691 C   0  0  2  0  0  0  0  0  0  0  0  0
    5.5822   -4.6066    2.1940 C   0  0  1  0  0  0  0  0  0  0  0  0
    5.6352   -4.7035    3.6980 C   0  0  0  0  0  0  0  0  0  0  0  0
    4.4239   -4.8507    4.1773 C   0  0  0  0  0  0  0  0  0  0  0  0
    3.5573   -4.7964    3.0339 C   0  0  0  0  0  0  0  0  0  0  0  0
    4.1727   -4.4912    1.9018 C   0  0  0  0  0  0  0  0  0  0  0  0
    3.8014   -4.0816    0.4616 C   0  0  1  0  0  0  0  0  0  0  0  0
    2.4000   -4.2881   -0.0442 C   0  0  0  0  0  0  0  0  0  0  0  0
    4.2237   -2.5840    0.2420 C   0  0  1  0  0  0  0  0  0  0  0  0
    4.9740   -2.0621    1.5056 C   0  0  2  0  0  0  0  0  0  0  0  0
    5.6824   -0.6887    1.2574 C   0  0  0  0  0  0  0  0  0  0  0  0
    3.9797   -1.8518    2.8062 C   0  0  1  0  0  0  0  0  0  0  0  0
    4.0395   -0.5075    3.2810 O   0  0  0  0  0  0  0  0  0  0  0  0
    2.4254   -2.1344    2.7446 C   0  0  2  0  0  0  0  0  0  0  0  0
    1.9979   -2.3380    4.1174 O   0  0  0  0  0  0  0  0  0  0  0  0
    1.3290   -3.2172    3.2297 C   0  0  2  0  0  0  0  0  0  0  0  0
    1.3500   -4.7891    3.4297 C   0  0  1  0  0  0  0  0  0  0  0  0
    1.3652   -5.4545    2.1762 O   0  0  0  0  0  0  0  0  0  0  0  0
    2.5287   -5.6627    2.9779 C   0  0  1  0  0  0  0  0  0  0  0  0
    3.1476   -7.0686    2.8041 C   0  0  0  0  0  0  0  0  0  0  0  0
    4.4373   -7.1260    1.7926 C   0  0  0  0  0  0  0  0  0  0  0  0
    5.7640   -6.1384    1.7741 C   0  0  1  0  0  0  0  0  0  0  0  0
    6.3330   -6.2526    0.5020 O   0  0  0  0  0  0  0  0  0  0  0  0
    4.1203   -3.8446   -2.4007 H   0  0  0  0  0  0  0  0  0  0  0  0
    4.9603   -2.5349   -3.2069 H   0  0  0  0  0  0  0  0  0  0  0  0
    3.4242   -2.2237   -2.4077 H   0  0  0  0  0  0  0  0  0  0  0  0
    5.3681   -1.3862   -1.1743 H   0  0  0  0  0  0  0  0  0  0  0  0
    6.1862   -4.2718   -1.2210 H   0  0  0  0  0  0  0  0  0  0  0  0
    7.1238   -2.9071   -1.6693 H   0  0  0  0  0  0  0  0  0  0  0  0
    7.7453   -4.0977    0.5413 H   0  0  0  0  0  0  0  0  0  0  0  0
    7.7908   -2.3908    0.5039 H   0  0  0  0  0  0  0  0  0  0  0  0
    6.6352   -2.7873    2.4909 H   0  0  0  0  0  0  0  0  0  0  0  0
    6.5258   -4.7148    4.2879 H   0  0  0  0  0  0  0  0  0  0  0  0
    4.1451   -4.9702    5.2224 H   0  0  0  0  0  0  0  0  0  0  0  0
    4.3784   -4.7336   -0.1750 H   0  0  0  0  0  0  0  0  0  0  0  0
    2.0893   -5.3359   -0.0200 H   0  0  0  0  0  0  0  0  0  0  0  0
    2.2500   -3.9354   -1.0671 H   0  0  0  0  0  0  0  0  0  0  0  0
    1.8143   -3.6527    0.6079 H   0  0  0  0  0  0  0  0  0  0  0  0
    3.3452   -1.9464    0.1072 H   0  0  0  0  0  0  0  0  0  0  0  0
    4.9802    0.0868    0.9561 H   0  0  0  0  0  0  0  0  0  0  0  0
    6.4553   -0.7037    0.5008 H   0  0  0  0  0  0  0  0  0  0  0  0
    6.2020   -0.3451    2.1529 H   0  0  0  0  0  0  0  0  0  0  0  0
    4.3807   -2.3737    3.6651 H   0  0  0  0  0  0  0  0  0  0  0  0
    3.6638    0.0654    2.6335 H   0  0  0  0  0  0  0  0  0  0  0  0
    1.9147   -1.3658    2.1760 H   0  0  0  0  0  0  0  0  0  0  0  0
    0.3491   -2.8670    2.9428 H   0  0  0  0  0  0  0  0  0  0  0  0
    0.6959   -5.2281    4.1725 H   0  0  0  0  0  0  0  0  0  0  0  0
    3.4282   -7.4607    3.7896 H   0  0  0  0  0  0  0  0  0  0  0  0
    2.3706   -7.7422    2.4388 H   0  0  0  0  0  0  0  0  0  0  0  0
    4.8248   -8.1364    1.8680 H   0  0  0  0  0  0  0  0  0  0  0  0
    3.9991   -7.0892    0.7910 H   0  0  0  0  0  0  0  0  0  0  0  0
    6.5050   -6.5810    2.4401 H   0  0  0  0  0  0  0  0  0  0  0  0
    5.6765   -5.9686   -0.1274 H   0  0  0  0  0  0  0  0  0  0  0  0
  1  2  1  0
  1 28  1  0
  1 29  1  0
  1 30  1  0
  2 13  1  0
  2  3  1  0
  2 31  1  6
  3  4  1  0
  3 32  1  0
  3 33  1  0
  4  5  1  0
  4 34  1  0
  4 35  1  0
  5 14  1  0
  5  6  1  0
  5 36  1  1
  6 10  1  0
  6 26  1  0
  6  7  1  1
  7  8  2  0
  7 37  1  0
  8  9  1  0
  8 38  1  0
  9 23  1  0
  9 10  2  0
 10 11  1  0
 11 12  1  0
 11 13  1  0
 11 39  1  6
 12 40  1  0
 12 41  1  0
 12 42  1  0
 13 14  1  0
 13 43  1  6
 14 15  1  6
 14 16  1  0
 15 44  1  0
 15 45  1  0
 15 46  1  0
 16 17  1  0
 16 18  1  0
 16 47  1  1
 17 48  1  0
 18 20  1  0
 18 19  1  0
 18 49  1  6
 19 20  1  0
 20 21  1  0
 20 50  1  6
 21 23  1  0
 21 22  1  0
 21 51  1  1
 23 22  1  6
 23 24  1  0
 24 25  1  0
 24 52  1  0
 24 53  1  0
 25 26  1  0
 25 54  1  0
 25 55  1  0
 26 27  1  0
 26 56  1  1
 27 57  1  0
M  END
>  <i_m_ct_stereo_status>  (122) 
1

>  <s_m_source_file>  (122) 
/var/tmp/pbs.5076255.sched01/tmpazi1eam_/42934yjxx2.sdf

>  <i_m_source_file_index>  (122) 
9

>  <i_lp_mmshare_version>  (122) 
48012

>  <i_f3d_flags>  (122) 
0

>  <s_epik_input>  (122) 
W0NIMl0xW0NIMl1bQ0BASF0oW0NIM10pW0NASF0oW0NAQF0yKFtDQEhdMVtDQEBdMzQ1KVtDSDNdKVtDQEhdKFtDSDNdKUM0PUMoW0NIXT1bQ0hdMylDNihbQ0gyXVtDSDJdW0NASF01W09IXSlbQ0BIXShPNilbQ0BASF03W0NAQEhdKE83KVtDQEBIXTJbT0hd

>  <s_epik_cmdline>  (122) 
J2VwaWtfcHl0aG9uJywgJy1waHQnLCAnMi4wJywgJy1waCcsICc3LjAnLCAnLXRuJywgJzgnLCAnLW1hJywgJzIwMCcsICctaW1hZScsICc8aW5maWxlLm1hZT4nLCAnLW9tYWUnLCAnPG91dGZpbGUubWFlPic=

>  <r_lp_tautomer_probability>  (122) 
1

>  <r_epik_Ionization_Penalty>  (122) 
1.45913e-07

>  <r_epik_Ionization_Penalty_Charging>  (122) 
0

>  <r_epik_Ionization_Penalty_Neutral>  (122) 
1.45913e-07

>  <r_epik_State_Penalty>  (122) 
-0

>  <r_epik_Charging_Adjusted_Penalty>  (122) 
0

>  <i_epik_Tot_Q>  (122) 
0

>  <i_epik_Tot_abs_Q>  (122) 
0

>  <s_lp_Force_Field>  (122) 
OPLS3e

>  <r_lp_Energy>  (122) 
231.403

>  <b_lp_Chiralities_Consistent>  (122) 
1

>  <s_lp_Variant>  (122) 
32:0-2

>  <s_i_glide_gridfile>  (122) 
pfpi4k_grid

>  <i_i_glide_lignum>  (122) 
9

>  <i_i_glide_rotatable_bonds>  (122) 
2

>  <r_i_docking_score>  (122) 
-3.13422

>  <r_i_glide_ligand_efficiency>  (122) 
-0.116082

>  <r_i_glide_ligand_efficiency_sa>  (122) 
-0.348247

>  <r_i_glide_ligand_efficiency_ln>  (122) 
-0.729595

>  <r_i_glide_gscore>  (122) 
-3.13422

>  <r_i_glide_lipo>  (122) 
-0.667597

>  <r_i_glide_hbond>  (122) 
-0.0476669

>  <r_i_glide_metal>  (122) 
-0

>  <r_i_glide_rewards>  (122) 
-0.883078

>  <r_i_glide_evdw>  (122) 
-18.9004

>  <r_i_glide_ecoul>  (122) 
-3.93908

>  <r_i_glide_erotb>  (122) 
0

>  <r_i_glide_esite>  (122) 
0

>  <r_i_glide_emodel>  (122) 
-26.6432

>  <r_i_glide_energy>  (122) 
-22.8394

>  <r_i_glide_einternal>  (122) 
0.0389002

>  <r_i_glide_intrahb_reward>  (122) 
-0

>  <i_i_glide_confnum>  (122) 
1

>  <i_i_glide_posenum>  (122) 
19

>  <r_i_glide_eff_state_penalty>  (122) 
0

>  <ligand_id>  (122) 
32

>  <original_smiles>  (122) 
CC1CCC2C34C=CC5=C3C(C)C1C2(C)C(O)C1OC1C1OC51CCC4O

>  <smiles>  (122) 
[H]OC1([H])C([H])([H])C([H])([H])C23OC2([H])C2([H])OC2([H])C([H])(O[H])C2(C([H])([H])[H])C4([H])C([H])([H])C([H])([H])C([H])(C([H])([H])[H])C2([H])C([H])(C([H])([H])[H])C2=C3C([H])=C([H])C214

$$$$
32:1:1
     RDKit          3D

 57 63  0  0  1  0  0  0  0  0999 V2000
    3.3119   -2.7912   -1.4447 C   0  0  0  0  0  0  0  0  0  0  0  0
    3.9187   -2.4430   -0.0733 C   0  0  2  0  0  0  0  0  0  0  0  0
    5.4554   -2.6047   -0.0931 C   0  0  0  0  0  0  0  0  0  0  0  0
    6.1436   -2.5684    1.2904 C   0  0  0  0  0  0  0  0  0  0  0  0
    5.3448   -3.1876    2.4750 C   0  0  2  0  0  0  0  0  0  0  0  0
    5.4760   -4.7650    2.6269 C   0  0  1  0  0  0  0  0  0  0  0  0
    5.6541   -5.1103    4.0886 C   0  0  0  0  0  0  0  0  0  0  0  0
    4.6807   -5.9145    4.4682 C   0  0  0  0  0  0  0  0  0  0  0  0
    3.8093   -6.0299    3.3288 C   0  0  0  0  0  0  0  0  0  0  0  0
    4.1304   -5.2357    2.3280 C   0  0  0  0  0  0  0  0  0  0  0  0
    3.4922   -4.7423    1.0076 C   0  0  1  0  0  0  0  0  0  0  0  0
    2.2669   -5.4514    0.4305 C   0  0  0  0  0  0  0  0  0  0  0  0
    3.2637   -3.1980    1.1273 C   0  0  1  0  0  0  0  0  0  0  0  0
    3.8016   -2.6757    2.5099 C   0  0  2  0  0  0  0  0  0  0  0  0
    3.8150   -1.1104    2.5729 C   0  0  0  0  0  0  0  0  0  0  0  0
    2.8714   -3.2157    3.7689 C   0  0  1  0  0  0  0  0  0  0  0  0
    2.3547   -2.1296    4.5229 O   0  0  0  0  0  0  0  0  0  0  0  0
    1.5835   -4.1361    3.5594 C   0  0  2  0  0  0  0  0  0  0  0  0
    1.3336   -4.8142    4.8171 O   0  0  0  0  0  0  0  0  0  0  0  0
    1.0908   -5.6670    3.7175 C   0  0  2  0  0  0  0  0  0  0  0  0
    1.8166   -7.0754    3.6095 C   0  0  1  0  0  0  0  0  0  0  0  0
    2.0628   -7.3949    2.2593 O   0  0  0  0  0  0  0  0  0  0  0  0
    3.2368   -7.2304    3.0534 C   0  0  1  0  0  0  0  0  0  0  0  0
    4.4045   -8.1435    2.5984 C   0  0  0  0  0  0  0  0  0  0  0  0
    5.5274   -7.4092    1.6496 C   0  0  0  0  0  0  0  0  0  0  0  0
    6.2812   -5.9487    1.8863 C   0  0  1  0  0  0  0  0  0  0  0  0
    6.7644   -5.5528    0.6237 O   0  0  0  0  0  0  0  0  0  0  0  0
    3.5537   -3.8085   -1.7530 H   0  0  0  0  0  0  0  0  0  0  0  0
    3.6887   -2.1170   -2.2157 H   0  0  0  0  0  0  0  0  0  0  0  0
    2.2255   -2.6864   -1.4339 H   0  0  0  0  0  0  0  0  0  0  0  0
    3.6892   -1.3854    0.0273 H   0  0  0  0  0  0  0  0  0  0  0  0
    5.7165   -3.5239   -0.6121 H   0  0  0  0  0  0  0  0  0  0  0  0
    5.8819   -1.8159   -0.7127 H   0  0  0  0  0  0  0  0  0  0  0  0
    7.1168   -3.0473    1.2158 H   0  0  0  0  0  0  0  0  0  0  0  0
    6.3930   -1.5346    1.5266 H   0  0  0  0  0  0  0  0  0  0  0  0
    5.8161   -2.7653    3.3616 H   0  0  0  0  0  0  0  0  0  0  0  0
    6.4833   -4.7772    4.6946 H   0  0  0  0  0  0  0  0  0  0  0  0
    4.5438   -6.3590    5.4461 H   0  0  0  0  0  0  0  0  0  0  0  0
    4.2540   -4.9372    0.2603 H   0  0  0  0  0  0  0  0  0  0  0  0
    2.5081   -6.4833    0.1851 H   0  0  0  0  0  0  0  0  0  0  0  0
    1.9616   -4.9952   -0.5091 H   0  0  0  0  0  0  0  0  0  0  0  0
    1.4089   -5.4167    1.0931 H   0  0  0  0  0  0  0  0  0  0  0  0
    2.1940   -2.9876    1.0920 H   0  0  0  0  0  0  0  0  0  0  0  0
    2.8180   -0.6913    2.4170 H   0  0  0  0  0  0  0  0  0  0  0  0
    4.4595   -0.6321    1.8396 H   0  0  0  0  0  0  0  0  0  0  0  0
    4.1896   -0.7569    3.5359 H   0  0  0  0  0  0  0  0  0  0  0  0
    3.5051   -3.6812    4.5112 H   0  0  0  0  0  0  0  0  0  0  0  0
    1.8101   -1.6008    3.9624 H   0  0  0  0  0  0  0  0  0  0  0  0
    0.7617   -3.5417    3.1649 H   0  0  0  0  0  0  0  0  0  0  0  0
    0.0359   -5.7631    3.4828 H   0  0  0  0  0  0  0  0  0  0  0  0
    1.4575   -7.8943    4.2293 H   0  0  0  0  0  0  0  0  0  0  0  0
    4.8824   -8.5637    3.4854 H   0  0  0  0  0  0  0  0  0  0  0  0
    3.9778   -8.9912    2.0641 H   0  0  0  0  0  0  0  0  0  0  0  0
    6.3270   -8.1415    1.5196 H   0  0  0  0  0  0  0  0  0  0  0  0
    5.0515   -7.3578    0.6665 H   0  0  0  0  0  0  0  0  0  0  0  0
    7.1842   -6.1487    2.4672 H   0  0  0  0  0  0  0  0  0  0  0  0
    6.0187   -5.3847    0.0691 H   0  0  0  0  0  0  0  0  0  0  0  0
  1  2  1  0
  1 28  1  0
  1 29  1  0
  1 30  1  0
  2 13  1  0
  2  3  1  0
  2 31  1  1
  3  4  1  0
  3 32  1  0
  3 33  1  0
  4  5  1  0
  4 34  1  0
  4 35  1  0
  5 14  1  0
  5  6  1  0
  5 36  1  1
  6 10  1  0
  6 26  1  0
  6  7  1  1
  7  8  2  0
  7 37  1  0
  8  9  1  0
  8 38  1  0
  9 23  1  0
  9 10  2  0
 10 11  1  0
 11 12  1  0
 11 13  1  0
 11 39  1  6
 12 40  1  0
 12 41  1  0
 12 42  1  0
 13 14  1  0
 13 43  1  1
 14 15  1  6
 14 16  1  0
 15 44  1  0
 15 45  1  0
 15 46  1  0
 16 17  1  0
 16 18  1  0
 16 47  1  1
 17 48  1  0
 18 20  1  0
 18 19  1  0
 18 49  1  6
 19 20  1  0
 20 21  1  0
 20 50  1  6
 21 23  1  0
 21 22  1  0
 21 51  1  1
 23 22  1  6
 23 24  1  0
 24 25  1  0
 24 52  1  0
 24 53  1  0
 25 26  1  0
 25 54  1  0
 25 55  1  0
 26 27  1  0
 26 56  1  1
 27 57  1  0
M  END
>  <i_m_ct_stereo_status>  (123) 
1

>  <s_m_source_file>  (123) 
/var/tmp/pbs.5076255.sched01/tmpazi1eam_/42934yjxx2.sdf

>  <i_m_source_file_index>  (123) 
9

>  <i_lp_mmshare_version>  (123) 
48012

>  <i_f3d_flags>  (123) 
0

>  <s_epik_input>  (123) 
W0NIMl0xW0NIMl1bQ0BASF0oW0NIM10pW0NASF0oW0NAQF0yKFtDQEhdMVtDQEBdMzQ1KVtDSDNdKVtDQEhdKFtDSDNdKUM0PUMoW0NIXT1bQ0hdMylDNihbQ0gyXVtDSDJdW0NASF01W09IXSlbQ0BIXShPNilbQ0BASF03W0NAQEhdKE83KVtDQEBIXTJbT0hd

>  <s_epik_cmdline>  (123) 
J2VwaWtfcHl0aG9uJywgJy1waHQnLCAnMi4wJywgJy1waCcsICc3LjAnLCAnLXRuJywgJzgnLCAnLW1hJywgJzIwMCcsICctaW1hZScsICc8aW5maWxlLm1hZT4nLCAnLW9tYWUnLCAnPG91dGZpbGUubWFlPic=

>  <r_lp_tautomer_probability>  (123) 
1

>  <r_epik_Ionization_Penalty>  (123) 
1.45913e-07

>  <r_epik_Ionization_Penalty_Charging>  (123) 
0

>  <r_epik_Ionization_Penalty_Neutral>  (123) 
1.45913e-07

>  <r_epik_State_Penalty>  (123) 
-0

>  <r_epik_Charging_Adjusted_Penalty>  (123) 
0

>  <i_epik_Tot_Q>  (123) 
0

>  <i_epik_Tot_abs_Q>  (123) 
0

>  <s_lp_Force_Field>  (123) 
OPLS3e

>  <r_lp_Energy>  (123) 
231.403

>  <b_lp_Chiralities_Consistent>  (123) 
1

>  <s_lp_Variant>  (123) 
32:0-2

>  <s_i_glide_gridfile>  (123) 
pfpi4k_grid

>  <i_i_glide_lignum>  (123) 
9

>  <i_i_glide_rotatable_bonds>  (123) 
2

>  <r_i_docking_score>  (123) 
-2.53429

>  <r_i_glide_ligand_efficiency>  (123) 
-0.0938627

>  <r_i_glide_ligand_efficiency_sa>  (123) 
-0.281588

>  <r_i_glide_ligand_efficiency_ln>  (123) 
-0.589942

>  <r_i_glide_gscore>  (123) 
-2.53429

>  <r_i_glide_lipo>  (123) 
-0.319475

>  <r_i_glide_hbond>  (123) 
0

>  <r_i_glide_metal>  (123) 
-0

>  <r_i_glide_rewards>  (123) 
-0.883078

>  <r_i_glide_evdw>  (123) 
-21.7546

>  <r_i_glide_ecoul>  (123) 
-1.62675

>  <r_i_glide_erotb>  (123) 
0

>  <r_i_glide_esite>  (123) 
0

>  <r_i_glide_emodel>  (123) 
-26.6651

>  <r_i_glide_energy>  (123) 
-23.3813

>  <r_i_glide_einternal>  (123) 
0.0424558

>  <r_i_glide_intrahb_reward>  (123) 
-0

>  <i_i_glide_confnum>  (123) 
1

>  <i_i_glide_posenum>  (123) 
14

>  <r_i_glide_eff_state_penalty>  (123) 
0

>  <ligand_id>  (123) 
32

>  <original_smiles>  (123) 
CC1CCC2C34C=CC5=C3C(C)C1C2(C)C(O)C1OC1C1OC51CCC4O

>  <smiles>  (123) 
[H]OC1([H])C([H])([H])C([H])([H])C23OC2([H])C2([H])OC2([H])C([H])(O[H])C2(C([H])([H])[H])C4([H])C([H])([H])C([H])([H])C([H])(C([H])([H])[H])C2([H])C([H])(C([H])([H])[H])C2=C3C([H])=C([H])C214

$$$$
32:1:2
     RDKit          3D

 57 63  0  0  1  0  0  0  0  0999 V2000
    3.3116   -2.7218   -1.5247 C   0  0  0  0  0  0  0  0  0  0  0  0
    3.8536   -2.3464   -0.1328 C   0  0  2  0  0  0  0  0  0  0  0  0
    5.3947   -2.4483   -0.0948 C   0  0  0  0  0  0  0  0  0  0  0  0
    6.0296   -2.3823    1.3131 C   0  0  0  0  0  0  0  0  0  0  0  0
    5.2142   -3.0288    2.4704 C   0  0  2  0  0  0  0  0  0  0  0  0
    5.3986   -4.5997    2.6333 C   0  0  1  0  0  0  0  0  0  0  0  0
    5.5311   -4.9349    4.1030 C   0  0  0  0  0  0  0  0  0  0  0  0
    4.5765   -5.7756    4.4481 C   0  0  0  0  0  0  0  0  0  0  0  0
    3.7569   -5.9272    3.2757 C   0  0  0  0  0  0  0  0  0  0  0  0
    4.0837   -5.1231    2.2849 C   0  0  0  0  0  0  0  0  0  0  0  0
    3.4736   -4.6568    0.9410 C   0  0  1  0  0  0  0  0  0  0  0  0
    2.2968   -5.4108    0.3217 C   0  0  0  0  0  0  0  0  0  0  0  0
    3.1850   -3.1216    1.0465 C   0  0  1  0  0  0  0  0  0  0  0  0
    3.6535   -2.5762    2.4448 C   0  0  2  0  0  0  0  0  0  0  0  0
    3.6043   -1.0101    2.5016 C   0  0  0  0  0  0  0  0  0  0  0  0
    2.6989   -3.1506    3.6689 C   0  0  1  0  0  0  0  0  0  0  0  0
    2.0903   -2.0772    4.3657 O   0  0  0  0  0  0  0  0  0  0  0  0
    1.4574   -4.1216    3.4215 C   0  0  2  0  0  0  0  0  0  0  0  0
    1.1907   -4.8050    4.6730 O   0  0  0  0  0  0  0  0  0  0  0  0
    1.0190   -5.6692    3.5694 C   0  0  2  0  0  0  0  0  0  0  0  0
    1.8001   -7.0477    3.4906 C   0  0  1  0  0  0  0  0  0  0  0  0
    2.1044   -7.3602    2.1497 O   0  0  0  0  0  0  0  0  0  0  0  0
    3.2426   -7.1493    2.9837 C   0  0  1  0  0  0  0  0  0  0  0  0
    4.4604   -8.0179    2.5782 C   0  0  0  0  0  0  0  0  0  0  0  0
    5.5886   -7.2431    1.6688 C   0  0  0  0  0  0  0  0  0  0  0  0
    6.2760   -5.7538    1.9271 C   0  0  1  0  0  0  0  0  0  0  0  0
    6.7897   -5.3455    0.6800 O   0  0  0  0  0  0  0  0  0  0  0  0
    3.6031   -3.7301   -1.8202 H   0  0  0  0  0  0  0  0  0  0  0  0
    3.6901   -2.0358   -2.2847 H   0  0  0  0  0  0  0  0  0  0  0  0
    2.2224   -2.6588   -1.5526 H   0  0  0  0  0  0  0  0  0  0  0  0
    3.5791   -1.2989   -0.0460 H   0  0  0  0  0  0  0  0  0  0  0  0
    5.7100   -3.3581   -0.5995 H   0  0  0  0  0  0  0  0  0  0  0  0
    5.8124   -1.6451   -0.7023 H   0  0  0  0  0  0  0  0  0  0  0  0
    7.0221   -2.8235    1.2759 H   0  0  0  0  0  0  0  0  0  0  0  0
    6.2301   -1.3391    1.5530 H   0  0  0  0  0  0  0  0  0  0  0  0
    5.6403   -2.5866    3.3712 H   0  0  0  0  0  0  0  0  0  0  0  0
    6.3208   -4.5699    4.7419 H   0  0  0  0  0  0  0  0  0  0  0  0
    4.4209   -6.2227    5.4219 H   0  0  0  0  0  0  0  0  0  0  0  0
    4.2703   -4.8243    0.2234 H   0  0  0  0  0  0  0  0  0  0  0  0
    2.5910   -6.4291    0.0860 H   0  0  0  0  0  0  0  0  0  0  0  0
    2.0100   -4.9683   -0.6286 H   0  0  0  0  0  0  0  0  0  0  0  0
    1.4125   -5.4138    0.9486 H   0  0  0  0  0  0  0  0  0  0  0  0
    2.1100   -2.9506    0.9734 H   0  0  0  0  0  0  0  0  0  0  0  0
    2.5948   -0.6354    2.3109 H   0  0  0  0  0  0  0  0  0  0  0  0
    4.2509   -0.5098    1.7854 H   0  0  0  0  0  0  0  0  0  0  0  0
    3.9323   -0.6337    3.4724 H   0  0  0  0  0  0  0  0  0  0  0  0
    3.3185   -3.5786    4.4473 H   0  0  0  0  0  0  0  0  0  0  0  0
    2.7809   -1.5246    4.6969 H   0  0  0  0  0  0  0  0  0  0  0  0
    0.6298   -3.5555    3.0002 H   0  0  0  0  0  0  0  0  0  0  0  0
   -0.0212   -5.8093    3.2958 H   0  0  0  0  0  0  0  0  0  0  0  0
    1.4480   -7.8776    4.0992 H   0  0  0  0  0  0  0  0  0  0  0  0
    4.9204   -8.4156    3.4848 H   0  0  0  0  0  0  0  0  0  0  0  0
    4.0864   -8.8826    2.0324 H   0  0  0  0  0  0  0  0  0  0  0  0
    6.4205   -7.9443    1.5713 H   0  0  0  0  0  0  0  0  0  0  0  0
    5.1472   -7.2118    0.6687 H   0  0  0  0  0  0  0  0  0  0  0  0
    7.1637   -5.9165    2.5418 H   0  0  0  0  0  0  0  0  0  0  0  0
    6.0587   -5.1993    0.1001 H   0  0  0  0  0  0  0  0  0  0  0  0
  1  2  1  0
  1 28  1  0
  1 29  1  0
  1 30  1  0
  2 13  1  0
  2  3  1  0
  2 31  1  1
  3  4  1  0
  3 32  1  0
  3 33  1  0
  4  5  1  0
  4 34  1  0
  4 35  1  0
  5 14  1  0
  5  6  1  0
  5 36  1  1
  6 10  1  0
  6 26  1  0
  6  7  1  1
  7  8  2  0
  7 37  1  0
  8  9  1  0
  8 38  1  0
  9 23  1  0
  9 10  2  0
 10 11  1  0
 11 12  1  0
 11 13  1  0
 11 39  1  6
 12 40  1  0
 12 41  1  0
 12 42  1  0
 13 14  1  0
 13 43  1  6
 14 15  1  6
 14 16  1  0
 15 44  1  0
 15 45  1  0
 15 46  1  0
 16 17  1  0
 16 18  1  0
 16 47  1  1
 17 48  1  0
 18 20  1  0
 18 19  1  0
 18 49  1  6
 19 20  1  0
 20 21  1  0
 20 50  1  6
 21 23  1  0
 21 22  1  0
 21 51  1  1
 23 22  1  6
 23 24  1  0
 24 25  1  0
 24 52  1  0
 24 53  1  0
 25 26  1  0
 25 54  1  0
 25 55  1  0
 26 27  1  0
 26 56  1  1
 27 57  1  0
M  END
>  <i_m_ct_stereo_status>  (124) 
1

>  <s_m_source_file>  (124) 
/var/tmp/pbs.5076255.sched01/tmpazi1eam_/42934yjxx2.sdf

>  <i_m_source_file_index>  (124) 
9

>  <i_lp_mmshare_version>  (124) 
48012

>  <i_f3d_flags>  (124) 
0

>  <s_epik_input>  (124) 
W0NIMl0xW0NIMl1bQ0BASF0oW0NIM10pW0NASF0oW0NAQF0yKFtDQEhdMVtDQEBdMzQ1KVtDSDNdKVtDQEhdKFtDSDNdKUM0PUMoW0NIXT1bQ0hdMylDNihbQ0gyXVtDSDJdW0NASF01W09IXSlbQ0BIXShPNilbQ0BASF03W0NAQEhdKE83KVtDQEBIXTJbT0hd

>  <s_epik_cmdline>  (124) 
J2VwaWtfcHl0aG9uJywgJy1waHQnLCAnMi4wJywgJy1waCcsICc3LjAnLCAnLXRuJywgJzgnLCAnLW1hJywgJzIwMCcsICctaW1hZScsICc8aW5maWxlLm1hZT4nLCAnLW9tYWUnLCAnPG91dGZpbGUubWFlPic=

>  <r_lp_tautomer_probability>  (124) 
1

>  <r_epik_Ionization_Penalty>  (124) 
1.45913e-07

>  <r_epik_Ionization_Penalty_Charging>  (124) 
0

>  <r_epik_Ionization_Penalty_Neutral>  (124) 
1.45913e-07

>  <r_epik_State_Penalty>  (124) 
-0

>  <r_epik_Charging_Adjusted_Penalty>  (124) 
0

>  <i_epik_Tot_Q>  (124) 
0

>  <i_epik_Tot_abs_Q>  (124) 
0

>  <s_lp_Force_Field>  (124) 
OPLS3e

>  <r_lp_Energy>  (124) 
231.403

>  <b_lp_Chiralities_Consistent>  (124) 
1

>  <s_lp_Variant>  (124) 
32:0-2

>  <s_i_glide_gridfile>  (124) 
pfpi4k_grid

>  <i_i_glide_lignum>  (124) 
9

>  <i_i_glide_rotatable_bonds>  (124) 
2

>  <r_i_docking_score>  (124) 
-2.36011

>  <r_i_glide_ligand_efficiency>  (124) 
-0.0874115

>  <r_i_glide_ligand_efficiency_sa>  (124) 
-0.262234

>  <r_i_glide_ligand_efficiency_ln>  (124) 
-0.549395

>  <r_i_glide_gscore>  (124) 
-2.36011

>  <r_i_glide_lipo>  (124) 
-0.316752

>  <r_i_glide_hbond>  (124) 
0

>  <r_i_glide_metal>  (124) 
-0

>  <r_i_glide_rewards>  (124) 
-0.883078

>  <r_i_glide_evdw>  (124) 
-21.876

>  <r_i_glide_ecoul>  (124) 
-0.443184

>  <r_i_glide_erotb>  (124) 
0

>  <r_i_glide_esite>  (124) 
0

>  <r_i_glide_emodel>  (124) 
-25.208

>  <r_i_glide_energy>  (124) 
-22.3192

>  <r_i_glide_einternal>  (124) 
0.346261

>  <r_i_glide_intrahb_reward>  (124) 
-0

>  <i_i_glide_confnum>  (124) 
1

>  <i_i_glide_posenum>  (124) 
1

>  <r_i_glide_eff_state_penalty>  (124) 
0

>  <ligand_id>  (124) 
32

>  <original_smiles>  (124) 
CC1CCC2C34C=CC5=C3C(C)C1C2(C)C(O)C1OC1C1OC51CCC4O

>  <smiles>  (124) 
[H]OC1([H])C([H])([H])C([H])([H])C23OC2([H])C2([H])OC2([H])C([H])(O[H])C2(C([H])([H])[H])C4([H])C([H])([H])C([H])([H])C([H])(C([H])([H])[H])C2([H])C([H])(C([H])([H])[H])C2=C3C([H])=C([H])C214

$$$$
33:0:0
     RDKit          3D

 48 53  0  0  1  0  0  0  0  0999 V2000
    4.5217   -2.3171   -2.6920 C   0  0  0  0  0  0  0  0  0  0  0  0
    4.4235   -3.3665   -1.5582 C   0  0  2  0  0  0  0  0  0  0  0  0
    3.0176   -3.4348   -0.8903 C   0  0  0  0  0  0  0  0  0  0  0  0
    2.6294   -2.6728    0.3982 C   0  0  0  0  0  0  0  0  0  0  0  0
    3.4046   -2.5915    1.7314 C   0  0  1  0  0  0  0  0  0  0  0  0
    3.9643   -3.8554    2.4412 C   0  0  1  0  0  0  0  0  0  0  0  0
    3.0553   -5.0749    2.6650 C   0  0  1  0  0  0  0  0  0  0  0  0
    2.8465   -6.1127    1.5644 C   0  0  0  0  0  0  0  0  0  0  0  0
    4.1391   -6.7502    1.0718 C   0  0  0  0  0  0  0  0  0  0  0  0
    4.8688   -5.8863    0.0317 C   0  0  0  0  0  0  0  0  0  0  0  0
    5.3997   -4.5479    0.5220 C   0  0  2  0  0  0  0  0  0  0  0  0
    6.2671   -5.0215    1.5934 O   0  0  0  0  0  0  0  0  0  0  0  0
    5.3762   -3.9617    1.9380 C   0  0  2  0  0  0  0  0  0  0  0  0
    6.1941   -2.8554    2.2476 O   0  0  0  0  0  0  0  0  0  0  0  0
    5.3664   -1.6870    2.7415 O   0  0  0  0  0  0  0  0  0  0  0  0
    4.4127   -1.4069    1.7355 C   0  0  2  0  0  0  0  0  0  0  0  0
    3.6939   -0.1286    2.2494 C   0  0  0  0  0  0  0  0  0  0  0  0
    5.1613   -1.0648    0.4088 C   0  0  0  0  0  0  0  0  0  0  0  0
    6.1678   -2.0832   -0.2320 C   0  0  0  0  0  0  0  0  0  0  0  0
    5.6601   -3.5125   -0.6164 C   0  0  2  0  0  0  0  0  0  0  0  0
    2.7380   -5.4887    4.0839 C   0  0  0  0  0  0  0  0  0  0  0  0
    1.8060   -4.7286    3.3064 O   0  0  0  0  0  0  0  0  0  0  0  0
    4.3598   -1.2915   -2.3684 H   0  0  0  0  0  0  0  0  0  0  0  0
    3.7700   -2.5201   -3.4575 H   0  0  0  0  0  0  0  0  0  0  0  0
    5.4922   -2.3726   -3.1819 H   0  0  0  0  0  0  0  0  0  0  0  0
    4.4610   -4.2602   -2.1812 H   0  0  0  0  0  0  0  0  0  0  0  0
    2.3010   -3.1176   -1.6493 H   0  0  0  0  0  0  0  0  0  0  0  0
    2.7294   -4.4651   -0.7658 H   0  0  0  0  0  0  0  0  0  0  0  0
    2.4804   -1.6374    0.1146 H   0  0  0  0  0  0  0  0  0  0  0  0
    1.6760   -3.0636    0.6813 H   0  0  0  0  0  0  0  0  0  0  0  0
    2.6110   -2.2987    2.4281 H   0  0  0  0  0  0  0  0  0  0  0  0
    4.1172   -3.5201    3.4683 H   0  0  0  0  0  0  0  0  0  0  0  0
    2.2484   -6.9115    1.9936 H   0  0  0  0  0  0  0  0  0  0  0  0
    2.2283   -5.7284    0.7678 H   0  0  0  0  0  0  0  0  0  0  0  0
    4.7778   -7.0119    1.9129 H   0  0  0  0  0  0  0  0  0  0  0  0
    3.8897   -7.7008    0.5894 H   0  0  0  0  0  0  0  0  0  0  0  0
    5.7410   -6.4259   -0.2851 H   0  0  0  0  0  0  0  0  0  0  0  0
    4.2486   -5.8248   -0.8374 H   0  0  0  0  0  0  0  0  0  0  0  0
    2.8813    0.1687    1.5906 H   0  0  0  0  0  0  0  0  0  0  0  0
    4.3860    0.6900    2.3208 H   0  0  0  0  0  0  0  0  0  0  0  0
    3.2885   -0.2866    3.2475 H   0  0  0  0  0  0  0  0  0  0  0  0
    4.4212   -0.7740   -0.3265 H   0  0  0  0  0  0  0  0  0  0  0  0
    5.7218   -0.1492    0.5714 H   0  0  0  0  0  0  0  0  0  0  0  0
    6.5347   -1.6128   -1.1452 H   0  0  0  0  0  0  0  0  0  0  0  0
    7.0933   -2.1409    0.3317 H   0  0  0  0  0  0  0  0  0  0  0  0
    6.4644   -3.9277   -1.2102 H   0  0  0  0  0  0  0  0  0  0  0  0
    2.4308   -6.5062    4.2954 H   0  0  0  0  0  0  0  0  0  0  0  0
    3.1822   -4.9333    4.9118 H   0  0  0  0  0  0  0  0  0  0  0  0
  1  2  1  0
  1 23  1  0
  1 24  1  0
  1 25  1  0
  2 20  1  0
  2  3  1  0
  2 26  1  6
  3  4  1  0
  3 27  1  0
  3 28  1  0
  4  5  1  0
  4 29  1  0
  4 30  1  0
  5 16  1  0
  5  6  1  0
  5 31  1  1
  6 13  1  0
  6  7  1  0
  6 32  1  1
  7 22  1  6
  7  8  1  0
  7 21  1  0
  8  9  1  0
  8 33  1  0
  8 34  1  0
  9 10  1  0
  9 35  1  0
  9 36  1  0
 10 11  1  0
 10 37  1  0
 10 38  1  0
 11 13  1  0
 11 20  1  0
 11 12  1  1
 13 12  1  1
 13 14  1  0
 14 15  1  0
 15 16  1  0
 16 17  1  1
 16 18  1  0
 17 39  1  0
 17 40  1  0
 17 41  1  0
 18 19  1  0
 18 42  1  0
 18 43  1  0
 19 20  1  0
 19 44  1  0
 19 45  1  0
 20 46  1  6
 21 22  1  0
 21 47  1  0
 21 48  1  0
M  END
>  <i_m_ct_stereo_status>  (125) 
1

>  <s_m_source_file>  (125) 
/var/tmp/pbs.5076255.sched01/tmpazi1eam_/42934yjxx2.sdf

>  <i_m_source_file_index>  (125) 
10

>  <i_lp_mmshare_version>  (125) 
48012

>  <i_f3d_flags>  (125) 
0

>  <s_epik_input>  (125) 
TzFPW0NAQF0oW0NIM10pKFtDSDJdW0NIMl0yKVtDQEhdM1tDSDJdW0NIMl1bQ0BASF0oW0NIM10pW0NAQEhdMltDQF0oTzQpKFtDSDJdW0NIMl1bQ0gyXTUpW0NAXTE0W0NAQEhdM1tDQF01NltDSDJdTzY=

>  <s_epik_cmdline>  (125) 
J2VwaWtfcHl0aG9uJywgJy1waHQnLCAnMi4wJywgJy1waCcsICc3LjAnLCAnLXRuJywgJzgnLCAnLW1hJywgJzIwMCcsICctaW1hZScsICc8aW5maWxlLm1hZT4nLCAnLW9tYWUnLCAnPG91dGZpbGUubWFlPic=

>  <r_lp_tautomer_probability>  (125) 
1

>  <r_epik_Ionization_Penalty>  (125) 
5.07315e-12

>  <r_epik_Ionization_Penalty_Charging>  (125) 
0

>  <r_epik_Ionization_Penalty_Neutral>  (125) 
5.07315e-12

>  <r_epik_State_Penalty>  (125) 
-0

>  <r_epik_Charging_Adjusted_Penalty>  (125) 
0

>  <i_epik_Tot_Q>  (125) 
0

>  <i_epik_Tot_abs_Q>  (125) 
0

>  <s_lp_Force_Field>  (125) 
OPLS3e

>  <r_lp_Energy>  (125) 
107.429

>  <b_lp_Chiralities_Consistent>  (125) 
1

>  <s_lp_Variant>  (125) 
33:0-1

>  <s_i_glide_gridfile>  (125) 
pfpi4k_grid

>  <i_i_glide_lignum>  (125) 
10

>  <i_i_glide_rotatable_bonds>  (125) 
0

>  <r_i_docking_score>  (125) 
-2.85249

>  <r_i_glide_ligand_efficiency>  (125) 
-0.129659

>  <r_i_glide_ligand_efficiency_sa>  (125) 
-0.363308

>  <r_i_glide_ligand_efficiency_ln>  (125) 
-0.697252

>  <r_i_glide_gscore>  (125) 
-2.85249

>  <r_i_glide_lipo>  (125) 
-0.6253

>  <r_i_glide_hbond>  (125) 
0

>  <r_i_glide_metal>  (125) 
-0

>  <r_i_glide_rewards>  (125) 
-1.37155

>  <r_i_glide_evdw>  (125) 
-15.6731

>  <r_i_glide_ecoul>  (125) 
-0.479885

>  <r_i_glide_erotb>  (125) 
0

>  <r_i_glide_esite>  (125) 
0

>  <r_i_glide_emodel>  (125) 
-18.0517

>  <r_i_glide_energy>  (125) 
-16.153

>  <r_i_glide_einternal>  (125) 
0

>  <r_i_glide_intrahb_reward>  (125) 
-0

>  <i_i_glide_confnum>  (125) 
1

>  <i_i_glide_posenum>  (125) 
38

>  <r_i_glide_eff_state_penalty>  (125) 
0

>  <ligand_id>  (125) 
33

>  <original_smiles>  (125) 
CC1CCC2C3C4(CCCC56OC35OOC2(C)CCC16)CO4

>  <smiles>  (125) 
[H]C([H])([H])C1([H])C([H])([H])C([H])([H])C2([H])C3([H])C45OOC2(C([H])([H])[H])C([H])([H])C([H])([H])C1([H])C4(O5)C([H])([H])C([H])([H])C([H])([H])C31OC1([H])[H]

$$$$
33:0:1
     RDKit          3D

 48 53  0  0  1  0  0  0  0  0999 V2000
    2.2433   -4.3503    3.6353 C   0  0  0  0  0  0  0  0  0  0  0  0
    2.7397   -3.6349    2.3565 C   0  0  2  0  0  0  0  0  0  0  0  0
    2.6247   -4.5189    1.0747 C   0  0  0  0  0  0  0  0  0  0  0  0
    3.7453   -5.4092    0.4902 C   0  0  0  0  0  0  0  0  0  0  0  0
    5.2100   -4.9641    0.2259 C   0  0  1  0  0  0  0  0  0  0  0  0
    5.5833   -3.6429   -0.4993 C   0  0  1  0  0  0  0  0  0  0  0  0
    4.9296   -3.2502   -1.8177 C   0  0  1  0  0  0  0  0  0  0  0  0
    3.5762   -2.5826   -1.8515 C   0  0  0  0  0  0  0  0  0  0  0  0
    3.5506   -1.2562   -1.1178 C   0  0  0  0  0  0  0  0  0  0  0  0
    3.3241   -1.4005    0.4067 C   0  0  0  0  0  0  0  0  0  0  0  0
    4.4608   -2.1039    1.1363 C   0  0  2  0  0  0  0  0  0  0  0  0
    5.5651   -1.2454    0.7805 O   0  0  0  0  0  0  0  0  0  0  0  0
    5.7622   -2.6277    0.5995 C   0  0  2  0  0  0  0  0  0  0  0  0
    6.8697   -2.9546    1.4329 O   0  0  0  0  0  0  0  0  0  0  0  0
    7.2800   -4.4093    1.2929 O   0  0  0  0  0  0  0  0  0  0  0  0
    6.1257   -5.1920    1.4750 C   0  0  2  0  0  0  0  0  0  0  0  0
    6.7019   -6.6218    1.4447 C   0  0  0  0  0  0  0  0  0  0  0  0
    5.5113   -4.9287    2.8811 C   0  0  0  0  0  0  0  0  0  0  0  0
    5.0705   -3.4950    3.3280 C   0  0  0  0  0  0  0  0  0  0  0  0
    3.9991   -2.7274    2.5019 C   0  0  2  0  0  0  0  0  0  0  0  0
    5.7829   -3.1010   -3.0514 C   0  0  0  0  0  0  0  0  0  0  0  0
    5.0091   -4.2773   -2.8152 O   0  0  0  0  0  0  0  0  0  0  0  0
    2.8079   -5.2438    3.8937 H   0  0  0  0  0  0  0  0  0  0  0  0
    1.2045   -4.6666    3.5133 H   0  0  0  0  0  0  0  0  0  0  0  0
    2.2654   -3.6778    4.4954 H   0  0  0  0  0  0  0  0  0  0  0  0
    1.9199   -2.9206    2.2553 H   0  0  0  0  0  0  0  0  0  0  0  0
    1.7884   -5.1939    1.2430 H   0  0  0  0  0  0  0  0  0  0  0  0
    2.2459   -3.9066    0.2724 H   0  0  0  0  0  0  0  0  0  0  0  0
    3.7678   -6.3410    1.0564 H   0  0  0  0  0  0  0  0  0  0  0  0
    3.3700   -5.7075   -0.4817 H   0  0  0  0  0  0  0  0  0  0  0  0
    5.5458   -5.6994   -0.5116 H   0  0  0  0  0  0  0  0  0  0  0  0
    6.5992   -3.7894   -0.8393 H   0  0  0  0  0  0  0  0  0  0  0  0
    3.3606   -2.3534   -2.8967 H   0  0  0  0  0  0  0  0  0  0  0  0
    2.7843   -3.2679   -1.5742 H   0  0  0  0  0  0  0  0  0  0  0  0
    4.4391   -0.6640   -1.3482 H   0  0  0  0  0  0  0  0  0  0  0  0
    2.7113   -0.6830   -1.5321 H   0  0  0  0  0  0  0  0  0  0  0  0
    3.2322   -0.4042    0.8329 H   0  0  0  0  0  0  0  0  0  0  0  0
    2.3536   -1.8470    0.5464 H   0  0  0  0  0  0  0  0  0  0  0  0
    5.9087   -7.3696    1.4711 H   0  0  0  0  0  0  0  0  0  0  0  0
    7.3672   -6.8027    2.2931 H   0  0  0  0  0  0  0  0  0  0  0  0
    7.2945   -6.7746    0.5379 H   0  0  0  0  0  0  0  0  0  0  0  0
    4.6879   -5.6253    3.0085 H   0  0  0  0  0  0  0  0  0  0  0  0
    6.2341   -5.2664    3.6271 H   0  0  0  0  0  0  0  0  0  0  0  0
    4.6826   -3.6105    4.3457 H   0  0  0  0  0  0  0  0  0  0  0  0
    5.9166   -2.8419    3.5022 H   0  0  0  0  0  0  0  0  0  0  0  0
    3.7233   -1.8790    3.1189 H   0  0  0  0  0  0  0  0  0  0  0  0
    5.4019   -2.5397   -3.8994 H   0  0  0  0  0  0  0  0  0  0  0  0
    6.8482   -3.2794   -3.0020 H   0  0  0  0  0  0  0  0  0  0  0  0
  1  2  1  0
  1 23  1  0
  1 24  1  0
  1 25  1  0
  2 20  1  0
  2  3  1  0
  2 26  1  6
  3  4  1  0
  3 27  1  0
  3 28  1  0
  4  5  1  0
  4 29  1  0
  4 30  1  0
  5 16  1  0
  5  6  1  0
  5 31  1  6
  6 13  1  0
  6  7  1  0
  6 32  1  6
  7 22  1  6
  7  8  1  0
  7 21  1  0
  8  9  1  0
  8 33  1  0
  8 34  1  0
  9 10  1  0
  9 35  1  0
  9 36  1  0
 10 11  1  0
 10 37  1  0
 10 38  1  0
 11 13  1  0
 11 20  1  0
 11 12  1  1
 13 12  1  6
 13 14  1  0
 14 15  1  0
 15 16  1  0
 16 17  1  1
 16 18  1  0
 17 39  1  0
 17 40  1  0
 17 41  1  0
 18 19  1  0
 18 42  1  0
 18 43  1  0
 19 20  1  0
 19 44  1  0
 19 45  1  0
 20 46  1  1
 21 22  1  0
 21 47  1  0
 21 48  1  0
M  END
>  <i_m_ct_stereo_status>  (126) 
1

>  <s_m_source_file>  (126) 
/var/tmp/pbs.5076255.sched01/tmpazi1eam_/42934yjxx2.sdf

>  <i_m_source_file_index>  (126) 
10

>  <i_lp_mmshare_version>  (126) 
48012

>  <i_f3d_flags>  (126) 
0

>  <s_epik_input>  (126) 
TzFPW0NAQF0oW0NIM10pKFtDSDJdW0NIMl0yKVtDQEhdM1tDSDJdW0NIMl1bQ0BASF0oW0NIM10pW0NAQEhdMltDQF0oTzQpKFtDSDJdW0NIMl1bQ0gyXTUpW0NAXTE0W0NAQEhdM1tDQF01NltDSDJdTzY=

>  <s_epik_cmdline>  (126) 
J2VwaWtfcHl0aG9uJywgJy1waHQnLCAnMi4wJywgJy1waCcsICc3LjAnLCAnLXRuJywgJzgnLCAnLW1hJywgJzIwMCcsICctaW1hZScsICc8aW5maWxlLm1hZT4nLCAnLW9tYWUnLCAnPG91dGZpbGUubWFlPic=

>  <r_lp_tautomer_probability>  (126) 
1

>  <r_epik_Ionization_Penalty>  (126) 
5.07315e-12

>  <r_epik_Ionization_Penalty_Charging>  (126) 
0

>  <r_epik_Ionization_Penalty_Neutral>  (126) 
5.07315e-12

>  <r_epik_State_Penalty>  (126) 
-0

>  <r_epik_Charging_Adjusted_Penalty>  (126) 
0

>  <i_epik_Tot_Q>  (126) 
0

>  <i_epik_Tot_abs_Q>  (126) 
0

>  <s_lp_Force_Field>  (126) 
OPLS3e

>  <r_lp_Energy>  (126) 
107.429

>  <b_lp_Chiralities_Consistent>  (126) 
1

>  <s_lp_Variant>  (126) 
33:0-1

>  <s_i_glide_gridfile>  (126) 
pfpi4k_grid

>  <i_i_glide_lignum>  (126) 
10

>  <i_i_glide_rotatable_bonds>  (126) 
0

>  <r_i_docking_score>  (126) 
-2.69037

>  <r_i_glide_ligand_efficiency>  (126) 
-0.122289

>  <r_i_glide_ligand_efficiency_sa>  (126) 
-0.34266

>  <r_i_glide_ligand_efficiency_ln>  (126) 
-0.657623

>  <r_i_glide_gscore>  (126) 
-2.69037

>  <r_i_glide_lipo>  (126) 
-0.565794

>  <r_i_glide_hbond>  (126) 
0

>  <r_i_glide_metal>  (126) 
-0

>  <r_i_glide_rewards>  (126) 
-1.39991

>  <r_i_glide_evdw>  (126) 
-16.2401

>  <r_i_glide_ecoul>  (126) 
0.58233

>  <r_i_glide_erotb>  (126) 
0

>  <r_i_glide_esite>  (126) 
0

>  <r_i_glide_emodel>  (126) 
-17.5777

>  <r_i_glide_energy>  (126) 
-15.6578

>  <r_i_glide_einternal>  (126) 
0

>  <r_i_glide_intrahb_reward>  (126) 
-0

>  <i_i_glide_confnum>  (126) 
1

>  <i_i_glide_posenum>  (126) 
1

>  <r_i_glide_eff_state_penalty>  (126) 
0

>  <ligand_id>  (126) 
33

>  <original_smiles>  (126) 
CC1CCC2C3C4(CCCC56OC35OOC2(C)CCC16)CO4

>  <smiles>  (126) 
[H]C([H])([H])C1([H])C([H])([H])C([H])([H])C2([H])C3([H])C45OOC2(C([H])([H])[H])C([H])([H])C([H])([H])C1([H])C4(O5)C([H])([H])C([H])([H])C([H])([H])C31OC1([H])[H]

$$$$
33:0:2
     RDKit          3D

 48 53  0  0  1  0  0  0  0  0999 V2000
    3.8675   -1.5839   -3.2356 C   0  0  0  0  0  0  0  0  0  0  0  0
    3.6671   -2.4287   -1.9533 C   0  0  2  0  0  0  0  0  0  0  0  0
    3.4527   -1.5875   -0.6620 C   0  0  0  0  0  0  0  0  0  0  0  0
    4.5407   -1.1412    0.3518 C   0  0  0  0  0  0  0  0  0  0  0  0
    5.6015   -2.0923    0.9811 C   0  0  1  0  0  0  0  0  0  0  0  0
    5.2481   -3.4634    1.6138 C   0  0  1  0  0  0  0  0  0  0  0  0
    4.1170   -3.5674    2.6387 C   0  0  1  0  0  0  0  0  0  0  0  0
    2.6764   -3.7389    2.1846 C   0  0  0  0  0  0  0  0  0  0  0  0
    2.4458   -4.9611    1.3100 C   0  0  0  0  0  0  0  0  0  0  0  0
    2.7824   -4.6875   -0.1557 C   0  0  0  0  0  0  0  0  0  0  0  0
    4.2721   -4.4538   -0.4425 C   0  0  2  0  0  0  0  0  0  0  0  0
    4.8269   -5.6732    0.0825 O   0  0  0  0  0  0  0  0  0  0  0  0
    5.4410   -4.4869    0.5217 C   0  0  2  0  0  0  0  0  0  0  0  0
    6.7973   -4.5883    0.0981 O   0  0  0  0  0  0  0  0  0  0  0  0
    7.5957   -3.3718    0.5116 O   0  0  0  0  0  0  0  0  0  0  0  0
    6.8794   -2.2382    0.0939 C   0  0  2  0  0  0  0  0  0  0  0  0
    7.8527   -1.1471    0.4853 C   0  0  0  0  0  0  0  0  0  0  0  0
    6.6930   -2.2308   -1.4408 C   0  0  0  0  0  0  0  0  0  0  0  0
    5.9943   -3.3625   -2.1867 C   0  0  0  0  0  0  0  0  0  0  0  0
    4.5368   -3.7070   -1.8029 C   0  0  2  0  0  0  0  0  0  0  0  0
    4.4599   -3.9759    4.0547 C   0  0  0  0  0  0  0  0  0  0  0  0
    4.2385   -2.6087    3.6994 O   0  0  0  0  0  0  0  0  0  0  0  0
    4.7397   -0.9364   -3.2029 H   0  0  0  0  0  0  0  0  0  0  0  0
    3.0048   -0.9352   -3.3932 H   0  0  0  0  0  0  0  0  0  0  0  0
    3.9478   -2.2235   -4.1143 H   0  0  0  0  0  0  0  0  0  0  0  0
    2.6754   -2.8196   -2.1840 H   0  0  0  0  0  0  0  0  0  0  0  0
    3.0107   -0.6717   -1.0067 H   0  0  0  0  0  0  0  0  0  0  0  0
    2.6593   -2.0288   -0.0907 H   0  0  0  0  0  0  0  0  0  0  0  0
    5.0355   -0.2631   -0.0648 H   0  0  0  0  0  0  0  0  0  0  0  0
    3.9704   -0.7351    1.1876 H   0  0  0  0  0  0  0  0  0  0  0  0
    5.9093   -1.5238    1.8543 H   0  0  0  0  0  0  0  0  0  0  0  0
    6.1072   -3.6534    2.2538 H   0  0  0  0  0  0  0  0  0  0  0  0
    2.0686   -3.8763    3.0806 H   0  0  0  0  0  0  0  0  0  0  0  0
    2.2812   -2.8243    1.7542 H   0  0  0  0  0  0  0  0  0  0  0  0
    2.9734   -5.8260    1.7114 H   0  0  0  0  0  0  0  0  0  0  0  0
    1.3955   -5.2327    1.3527 H   0  0  0  0  0  0  0  0  0  0  0  0
    2.5067   -5.5910   -0.6879 H   0  0  0  0  0  0  0  0  0  0  0  0
    2.1146   -3.9474   -0.5615 H   0  0  0  0  0  0  0  0  0  0  0  0
    7.3390   -0.2112    0.1968 H   0  0  0  0  0  0  0  0  0  0  0  0
    8.8269   -1.1760   -0.0797 H   0  0  0  0  0  0  0  0  0  0  0  0
    8.0342   -1.0581    1.5230 H   0  0  0  0  0  0  0  0  0  0  0  0
    6.2198   -1.2856   -1.7114 H   0  0  0  0  0  0  0  0  0  0  0  0
    7.6774   -2.1630   -1.9063 H   0  0  0  0  0  0  0  0  0  0  0  0
    6.0098   -3.1027   -3.2499 H   0  0  0  0  0  0  0  0  0  0  0  0
    6.6122   -4.2483   -2.1746 H   0  0  0  0  0  0  0  0  0  0  0  0
    4.2236   -4.3777   -2.5915 H   0  0  0  0  0  0  0  0  0  0  0  0
    3.6933   -4.4070    4.6913 H   0  0  0  0  0  0  0  0  0  0  0  0
    5.4911   -4.2056    4.3112 H   0  0  0  0  0  0  0  0  0  0  0  0
  1  2  1  0
  1 23  1  0
  1 24  1  0
  1 25  1  0
  2 20  1  0
  2  3  1  0
  2 26  1  6
  3  4  1  0
  3 27  1  0
  3 28  1  0
  4  5  1  0
  4 29  1  0
  4 30  1  0
  5 16  1  0
  5  6  1  0
  5 31  1  1
  6 13  1  0
  6  7  1  0
  6 32  1  1
  7 22  1  1
  7  8  1  0
  7 21  1  0
  8  9  1  0
  8 33  1  0
  8 34  1  0
  9 10  1  0
  9 35  1  0
  9 36  1  0
 10 11  1  0
 10 37  1  0
 10 38  1  0
 11 13  1  0
 11 20  1  0
 11 12  1  6
 13 12  1  1
 13 14  1  0
 14 15  1  0
 15 16  1  0
 16 17  1  6
 16 18  1  0
 17 39  1  0
 17 40  1  0
 17 41  1  0
 18 19  1  0
 18 42  1  0
 18 43  1  0
 19 20  1  0
 19 44  1  0
 19 45  1  0
 20 46  1  6
 21 22  1  0
 21 47  1  0
 21 48  1  0
M  END
>  <i_m_ct_stereo_status>  (127) 
1

>  <s_m_source_file>  (127) 
/var/tmp/pbs.5076255.sched01/tmpazi1eam_/42934yjxx2.sdf

>  <i_m_source_file_index>  (127) 
10

>  <i_lp_mmshare_version>  (127) 
48012

>  <i_f3d_flags>  (127) 
0

>  <s_epik_input>  (127) 
TzFPW0NAQF0oW0NIM10pKFtDSDJdW0NIMl0yKVtDQEhdM1tDSDJdW0NIMl1bQ0BASF0oW0NIM10pW0NAQEhdMltDQF0oTzQpKFtDSDJdW0NIMl1bQ0gyXTUpW0NAXTE0W0NAQEhdM1tDQF01NltDSDJdTzY=

>  <s_epik_cmdline>  (127) 
J2VwaWtfcHl0aG9uJywgJy1waHQnLCAnMi4wJywgJy1waCcsICc3LjAnLCAnLXRuJywgJzgnLCAnLW1hJywgJzIwMCcsICctaW1hZScsICc8aW5maWxlLm1hZT4nLCAnLW9tYWUnLCAnPG91dGZpbGUubWFlPic=

>  <r_lp_tautomer_probability>  (127) 
1

>  <r_epik_Ionization_Penalty>  (127) 
5.07315e-12

>  <r_epik_Ionization_Penalty_Charging>  (127) 
0

>  <r_epik_Ionization_Penalty_Neutral>  (127) 
5.07315e-12

>  <r_epik_State_Penalty>  (127) 
-0

>  <r_epik_Charging_Adjusted_Penalty>  (127) 
0

>  <i_epik_Tot_Q>  (127) 
0

>  <i_epik_Tot_abs_Q>  (127) 
0

>  <s_lp_Force_Field>  (127) 
OPLS3e

>  <r_lp_Energy>  (127) 
107.429

>  <b_lp_Chiralities_Consistent>  (127) 
1

>  <s_lp_Variant>  (127) 
33:0-1

>  <s_i_glide_gridfile>  (127) 
pfpi4k_grid

>  <i_i_glide_lignum>  (127) 
10

>  <i_i_glide_rotatable_bonds>  (127) 
0

>  <r_i_docking_score>  (127) 
-2.6368

>  <r_i_glide_ligand_efficiency>  (127) 
-0.119855

>  <r_i_glide_ligand_efficiency_sa>  (127) 
-0.335837

>  <r_i_glide_ligand_efficiency_ln>  (127) 
-0.64453

>  <r_i_glide_gscore>  (127) 
-2.6368

>  <r_i_glide_lipo>  (127) 
-0.51919

>  <r_i_glide_hbond>  (127) 
0

>  <r_i_glide_metal>  (127) 
-0

>  <r_i_glide_rewards>  (127) 
-1.4156

>  <r_i_glide_evdw>  (127) 
-11.8045

>  <r_i_glide_ecoul>  (127) 
-0.745246

>  <r_i_glide_erotb>  (127) 
0

>  <r_i_glide_esite>  (127) 
0

>  <r_i_glide_emodel>  (127) 
-14.2872

>  <r_i_glide_energy>  (127) 
-12.5497

>  <r_i_glide_einternal>  (127) 
0

>  <r_i_glide_intrahb_reward>  (127) 
-0

>  <i_i_glide_confnum>  (127) 
2

>  <i_i_glide_posenum>  (127) 
8

>  <r_i_glide_eff_state_penalty>  (127) 
0

>  <ligand_id>  (127) 
33

>  <original_smiles>  (127) 
CC1CCC2C3C4(CCCC56OC35OOC2(C)CCC16)CO4

>  <smiles>  (127) 
[H]C([H])([H])C1([H])C([H])([H])C([H])([H])C2([H])C3([H])C45OOC2(C([H])([H])[H])C([H])([H])C([H])([H])C1([H])C4(O5)C([H])([H])C([H])([H])C([H])([H])C31OC1([H])[H]

$$$$
35:0:0
     RDKit          3D

 58 64  0  0  1  0  0  0  0  0999 V2000
    2.1944   -9.0557    1.6557 C   0  0  0  0  0  0  0  0  0  0  0  0
    2.2182   -8.3006    2.8630 O   0  0  0  0  0  0  0  0  0  0  0  0
    2.5301   -6.8973    2.8562 C   0  0  1  0  0  0  0  0  0  0  0  0
    3.9058   -6.5889    2.1483 C   0  0  2  0  0  0  0  0  0  0  0  0
    5.0410   -6.0642    3.0230 C   0  0  0  0  0  0  0  0  0  0  0  0
    6.3447   -6.8388    2.9905 C   0  0  0  0  0  0  0  0  0  0  0  0
    4.9240   -4.9522    3.7717 C   0  0  0  0  0  0  0  0  0  0  0  0
    3.6805   -4.0956    3.8957 C   0  0  1  0  0  0  0  0  0  0  0  0
    3.7284   -2.8391    2.9595 C   0  0  1  0  0  0  0  0  0  0  0  0
    4.9596   -1.9719    3.3124 C   0  0  0  0  0  0  0  0  0  0  0  0
    3.5810   -3.0816    1.4047 C   0  0  2  0  0  0  0  0  0  0  0  0
    4.2987   -4.3175    0.7440 C   0  0  1  0  0  0  0  0  0  0  0  0
    3.6259   -5.7273    0.8805 C   0  0  2  0  0  0  0  0  0  0  0  0
    2.1074   -5.7135    0.7983 C   0  0  0  0  0  0  0  0  0  0  0  0
    1.4549   -5.4703   -0.2192 O   0  0  0  0  0  0  0  0  0  0  0  0
    1.4665   -6.0351    2.1348 C   0  0  1  0  0  0  0  0  0  0  0  0
    0.1972   -6.6494    1.9677 O   0  0  0  0  0  0  0  0  0  0  0  0
    1.2537   -4.8030    3.0537 C   0  0  0  0  0  0  0  0  0  0  0  0
    2.3391   -4.8846    4.1311 C   0  0  1  0  0  0  0  0  0  0  0  0
    2.4990   -6.3898    4.2883 C   0  0  0  0  0  0  0  0  0  0  0  0
    1.6425   -7.1107    5.3213 C   0  0  0  0  0  0  0  0  0  0  0  0
    3.1530   -7.1244    5.4325 C   0  0  0  0  0  0  0  0  0  0  0  0
    4.4082   -3.9442   -0.7240 C   0  0  2  0  0  0  0  0  0  0  0  0
    5.4396   -3.0201   -1.1214 O   0  0  0  0  0  0  0  0  0  0  0  0
    4.1407   -2.4799   -0.8792 C   0  0  1  0  0  0  0  0  0  0  0  0
    3.4501   -1.8681   -2.0835 C   0  0  0  0  0  0  0  0  0  0  0  0
    3.9415   -1.8736    0.4899 C   0  0  1  0  0  0  0  0  0  0  0  0
    3.0130   -0.8147    0.5451 O   0  0  0  0  0  0  0  0  0  0  0  0
    1.7276  -10.0119    1.8806 H   0  0  0  0  0  0  0  0  0  0  0  0
    3.1870   -9.2752    1.2662 H   0  0  0  0  0  0  0  0  0  0  0  0
    1.6015   -8.5829    0.8806 H   0  0  0  0  0  0  0  0  0  0  0  0
    4.3069   -7.5314    1.7858 H   0  0  0  0  0  0  0  0  0  0  0  0
    6.7362   -6.8986    1.9748 H   0  0  0  0  0  0  0  0  0  0  0  0
    6.2009   -7.8505    3.3702 H   0  0  0  0  0  0  0  0  0  0  0  0
    7.1026   -6.3588    3.6112 H   0  0  0  0  0  0  0  0  0  0  0  0
    5.7681   -4.6180    4.3556 H   0  0  0  0  0  0  0  0  0  0  0  0
    3.8392   -3.6836    4.8943 H   0  0  0  0  0  0  0  0  0  0  0  0
    2.8747   -2.2246    3.2548 H   0  0  0  0  0  0  0  0  0  0  0  0
    5.8778   -2.3898    2.9016 H   0  0  0  0  0  0  0  0  0  0  0  0
    5.0942   -1.8686    4.3913 H   0  0  0  0  0  0  0  0  0  0  0  0
    4.8532   -0.9567    2.9318 H   0  0  0  0  0  0  0  0  0  0  0  0
    2.5219   -3.1771    1.2032 H   0  0  0  0  0  0  0  0  0  0  0  0
    5.3278   -4.3604    1.1021 H   0  0  0  0  0  0  0  0  0  0  0  0
    3.9716   -6.3244    0.0367 H   0  0  0  0  0  0  0  0  0  0  0  0
    0.3409   -7.5314    1.6485 H   0  0  0  0  0  0  0  0  0  0  0  0
    1.1597   -3.8340    2.5724 H   0  0  0  0  0  0  0  0  0  0  0  0
    0.3021   -4.9232    3.5757 H   0  0  0  0  0  0  0  0  0  0  0  0
    1.9019   -4.4996    5.0531 H   0  0  0  0  0  0  0  0  0  0  0  0
    1.0984   -6.5186    6.0546 H   0  0  0  0  0  0  0  0  0  0  0  0
    1.1363   -8.0306    5.0240 H   0  0  0  0  0  0  0  0  0  0  0  0
    3.6781   -8.0420    5.1740 H   0  0  0  0  0  0  0  0  0  0  0  0
    3.6116   -6.5387    6.2225 H   0  0  0  0  0  0  0  0  0  0  0  0
    4.0751   -4.6448   -1.4853 H   0  0  0  0  0  0  0  0  0  0  0  0
    2.3664   -1.9286   -1.9790 H   0  0  0  0  0  0  0  0  0  0  0  0
    3.7244   -2.4238   -2.9798 H   0  0  0  0  0  0  0  0  0  0  0  0
    3.7473   -0.8263   -2.2101 H   0  0  0  0  0  0  0  0  0  0  0  0
    4.9117   -1.4600    0.7631 H   0  0  0  0  0  0  0  0  0  0  0  0
    2.2287   -1.0360    0.0377 H   0  0  0  0  0  0  0  0  0  0  0  0
  1  2  1  0
  1 29  1  0
  1 30  1  0
  1 31  1  0
  3  2  1  1
  3 16  1  0
  3 20  1  0
  3  4  1  0
  4 13  1  0
  4  5  1  0
  4 32  1  6
  5  6  1  0
  5  7  2  0
  6 33  1  0
  6 34  1  0
  6 35  1  0
  7  8  1  0
  7 36  1  0
  8 19  1  0
  8  9  1  0
  8 37  1  1
  9 10  1  0
  9 11  1  0
  9 38  1  1
 10 39  1  0
 10 40  1  0
 10 41  1  0
 11 27  1  0
 11 12  1  0
 11 42  1  1
 12 13  1  0
 12 23  1  0
 12 43  1  1
 13 14  1  0
 13 44  1  6
 14 15  2  0
 14 16  1  0
 16 17  1  6
 16 18  1  0
 17 45  1  0
 18 19  1  0
 18 46  1  0
 18 47  1  0
 19 20  1  0
 19 48  1  1
 20 22  1  0
 20 21  1  0
 21 22  1  0
 21 49  1  0
 21 50  1  0
 22 51  1  0
 22 52  1  0
 23 25  1  0
 23 24  1  0
 23 53  1  6
 24 25  1  0
 25 26  1  6
 25 27  1  0
 26 54  1  0
 26 55  1  0
 26 56  1  0
 27 28  1  0
 27 57  1  1
 28 58  1  0
M  END
>  <i_m_ct_stereo_status>  (128) 
1

>  <s_m_source_file>  (128) 
/var/tmp/pbs.5076255.sched01/tmpazi1eam_/42934yjxx2.sdf

>  <i_m_source_file_index>  (128) 
12

>  <i_lp_mmshare_version>  (128) 
48012

>  <i_f3d_flags>  (128) 
0

>  <s_epik_input>  (128) 
W0NIMl0xW0NIMl1DMTJbQ0BdMyhPW0NIM10pW0NASF00W0NAQEhdNVtDQEBIXTZbQ0BIXShbQ0BIXShbT0hdKVtDQEBdNyhbQ0BIXTZPNylbQ0gzXSlbQ0BIXShbQ0gzXSlbQ0BIXShbQ0hdPUM0W0NIM10pW0NASF0yW0NIMl1bQ0BdMyhDNT1PKVtPSF0=

>  <s_epik_cmdline>  (128) 
J2VwaWtfcHl0aG9uJywgJy1waHQnLCAnMi4wJywgJy1waCcsICc3LjAnLCAnLXRuJywgJzgnLCAnLW1hJywgJzIwMCcsICctaW1hZScsICc8aW5maWxlLm1hZT4nLCAnLW9tYWUnLCAnPG91dGZpbGUubWFlPic=

>  <r_lp_tautomer_probability>  (128) 
1

>  <r_epik_Ionization_Penalty>  (128) 
7.54152e-08

>  <r_epik_Ionization_Penalty_Charging>  (128) 
0

>  <r_epik_Ionization_Penalty_Neutral>  (128) 
7.54152e-08

>  <r_epik_State_Penalty>  (128) 
-0

>  <r_epik_Charging_Adjusted_Penalty>  (128) 
0

>  <i_epik_Tot_Q>  (128) 
0

>  <i_epik_Tot_abs_Q>  (128) 
0

>  <s_lp_Force_Field>  (128) 
OPLS3e

>  <r_lp_Energy>  (128) 
56.6192

>  <b_lp_Chiralities_Consistent>  (128) 
1

>  <s_lp_Variant>  (128) 
35:0-1

>  <s_i_glide_gridfile>  (128) 
pfpi4k_grid

>  <i_i_glide_lignum>  (128) 
12

>  <i_i_glide_rotatable_bonds>  (128) 
3

>  <r_i_docking_score>  (128) 
-3.69238

>  <r_i_glide_ligand_efficiency>  (128) 
-0.131871

>  <r_i_glide_ligand_efficiency_sa>  (128) 
-0.400437

>  <r_i_glide_ligand_efficiency_ln>  (128) 
-0.85231

>  <r_i_glide_gscore>  (128) 
-3.69238

>  <r_i_glide_lipo>  (128) 
-0.185924

>  <r_i_glide_hbond>  (128) 
-0.362787

>  <r_i_glide_metal>  (128) 
-0

>  <r_i_glide_rewards>  (128) 
-0.773991

>  <r_i_glide_evdw>  (128) 
-17.2646

>  <r_i_glide_ecoul>  (128) 
-9.72728

>  <r_i_glide_erotb>  (128) 
0

>  <r_i_glide_esite>  (128) 
-0.047356

>  <r_i_glide_emodel>  (128) 
-32.8328

>  <r_i_glide_energy>  (128) 
-26.9919

>  <r_i_glide_einternal>  (128) 
2.00245

>  <r_i_glide_intrahb_reward>  (128) 
-0

>  <i_i_glide_confnum>  (128) 
1

>  <i_i_glide_posenum>  (128) 
1

>  <r_i_glide_eff_state_penalty>  (128) 
0

>  <ligand_id>  (128) 
35

>  <original_smiles>  (128) 
COC12C3C(C)=CC4C(C)C5C(C3C(=O)C1(O)CC4C21CC1)C1OC1(C)C5O

>  <smiles>  (128) 
[H]OC1([H])C2([H])C([H])(C([H])([H])[H])C3([H])C([H])=C(C([H])([H])[H])C4([H])C([H])(C(=O)C5(O[H])C([H])([H])C3([H])C3(C([H])([H])C3([H])[H])C45OC([H])([H])[H])C2([H])C2([H])OC21C([H])([H])[H]

$$$$
35:0:1
     RDKit          3D

 58 64  0  0  1  0  0  0  0  0999 V2000
    3.6686   -7.7756    2.4104 C   0  0  0  0  0  0  0  0  0  0  0  0
    3.9361   -6.6128    3.1917 O   0  0  0  0  0  0  0  0  0  0  0  0
    4.0781   -5.3320    2.5585 C   0  0  1  0  0  0  0  0  0  0  0  0
    5.1507   -5.3784    1.4105 C   0  0  2  0  0  0  0  0  0  0  0  0
    6.3879   -4.5402    1.6332 C   0  0  0  0  0  0  0  0  0  0  0  0
    7.7427   -5.2322    1.5704 C   0  0  0  0  0  0  0  0  0  0  0  0
    6.3054   -3.2273    1.8059 C   0  0  0  0  0  0  0  0  0  0  0  0
    5.0974   -2.3639    2.0255 C   0  0  1  0  0  0  0  0  0  0  0  0
    4.7766   -1.5527    0.7182 C   0  0  1  0  0  0  0  0  0  0  0  0
    5.9992   -0.6880    0.3732 C   0  0  0  0  0  0  0  0  0  0  0  0
    4.2966   -2.3917   -0.5074 C   0  0  2  0  0  0  0  0  0  0  0  0
    4.9868   -3.7722   -0.7890 C   0  0  1  0  0  0  0  0  0  0  0  0
    4.4659   -5.0247    0.0564 C   0  0  2  0  0  0  0  0  0  0  0  0
    2.9761   -5.0165    0.4569 C   0  0  0  0  0  0  0  0  0  0  0  0
    2.0133   -5.1786   -0.3116 O   0  0  0  0  0  0  0  0  0  0  0  0
    2.7754   -4.8048    1.9353 C   0  0  1  0  0  0  0  0  0  0  0  0
    1.6041   -5.4570    2.3993 O   0  0  0  0  0  0  0  0  0  0  0  0
    2.6522   -3.3089    2.2854 C   0  0  0  0  0  0  0  0  0  0  0  0
    3.9776   -2.9667    2.9445 C   0  0  1  0  0  0  0  0  0  0  0  0
    4.3636   -4.2783    3.6174 C   0  0  0  0  0  0  0  0  0  0  0  0
    3.8824   -4.5146    5.0428 C   0  0  0  0  0  0  0  0  0  0  0  0
    5.3625   -4.4860    4.7404 C   0  0  0  0  0  0  0  0  0  0  0  0
    4.7826   -4.0154   -2.2668 C   0  0  2  0  0  0  0  0  0  0  0  0
    5.5594   -3.2259   -3.2140 O   0  0  0  0  0  0  0  0  0  0  0  0
    4.2559   -2.7344   -2.9019 C   0  0  1  0  0  0  0  0  0  0  0  0
    3.2090   -2.6974   -3.9967 C   0  0  0  0  0  0  0  0  0  0  0  0
    4.3226   -1.6566   -1.8856 C   0  0  1  0  0  0  0  0  0  0  0  0
    3.2985   -0.7253   -2.1291 O   0  0  0  0  0  0  0  0  0  0  0  0
    3.3871   -8.5614    3.1073 H   0  0  0  0  0  0  0  0  0  0  0  0
    4.5440   -8.1369    1.8707 H   0  0  0  0  0  0  0  0  0  0  0  0
    2.8448   -7.6565    1.7051 H   0  0  0  0  0  0  0  0  0  0  0  0
    5.5710   -6.3758    1.3402 H   0  0  0  0  0  0  0  0  0  0  0  0
    7.9152   -5.7053    0.6040 H   0  0  0  0  0  0  0  0  0  0  0  0
    7.8299   -5.9907    2.3495 H   0  0  0  0  0  0  0  0  0  0  0  0
    8.5673   -4.5287    1.7419 H   0  0  0  0  0  0  0  0  0  0  0  0
    7.2089   -2.6634    1.8025 H   0  0  0  0  0  0  0  0  0  0  0  0
    5.5090   -1.6157    2.7028 H   0  0  0  0  0  0  0  0  0  0  0  0
    3.9853   -0.8514    0.9841 H   0  0  0  0  0  0  0  0  0  0  0  0
    6.8392   -1.2459   -0.0428 H   0  0  0  0  0  0  0  0  0  0  0  0
    6.3398   -0.1747    1.2607 H   0  0  0  0  0  0  0  0  0  0  0  0
    5.6905    0.0644   -0.3249 H   0  0  0  0  0  0  0  0  0  0  0  0
    3.2503   -2.5730   -0.3653 H   0  0  0  0  0  0  0  0  0  0  0  0
    6.0755   -3.6918   -0.7205 H   0  0  0  0  0  0  0  0  0  0  0  0
    4.6262   -5.9077   -0.5650 H   0  0  0  0  0  0  0  0  0  0  0  0
    1.7204   -6.3757    2.2152 H   0  0  0  0  0  0  0  0  0  0  0  0
    2.3476   -2.6431    1.4855 H   0  0  0  0  0  0  0  0  0  0  0  0
    1.8743   -3.1962    3.0368 H   0  0  0  0  0  0  0  0  0  0  0  0
    3.7736   -2.2361    3.7241 H   0  0  0  0  0  0  0  0  0  0  0  0
    3.4716   -3.6750    5.5981 H   0  0  0  0  0  0  0  0  0  0  0  0
    3.4105   -5.4715    5.2712 H   0  0  0  0  0  0  0  0  0  0  0  0
    5.9034   -5.4344    4.7182 H   0  0  0  0  0  0  0  0  0  0  0  0
    5.9390   -3.6283    5.0786 H   0  0  0  0  0  0  0  0  0  0  0  0
    4.7393   -5.0284   -2.6215 H   0  0  0  0  0  0  0  0  0  0  0  0
    2.1936   -2.6935   -3.5765 H   0  0  0  0  0  0  0  0  0  0  0  0
    3.3031   -3.5640   -4.6321 H   0  0  0  0  0  0  0  0  0  0  0  0
    3.3299   -1.7990   -4.6038 H   0  0  0  0  0  0  0  0  0  0  0  0
    5.2871   -1.1711   -2.0692 H   0  0  0  0  0  0  0  0  0  0  0  0
    2.5009   -1.0492   -1.7335 H   0  0  0  0  0  0  0  0  0  0  0  0
  1  2  1  0
  1 29  1  0
  1 30  1  0
  1 31  1  0
  3  2  1  1
  3 16  1  0
  3 20  1  0
  3  4  1  0
  4 13  1  0
  4  5  1  0
  4 32  1  6
  5  6  1  0
  5  7  2  0
  6 33  1  0
  6 34  1  0
  6 35  1  0
  7  8  1  0
  7 36  1  0
  8 19  1  0
  8  9  1  0
  8 37  1  1
  9 10  1  0
  9 11  1  0
  9 38  1  1
 10 39  1  0
 10 40  1  0
 10 41  1  0
 11 27  1  0
 11 12  1  0
 11 42  1  1
 12 13  1  0
 12 23  1  0
 12 43  1  6
 13 14  1  0
 13 44  1  6
 14 15  2  0
 14 16  1  0
 16 17  1  1
 16 18  1  0
 17 45  1  0
 18 19  1  0
 18 46  1  0
 18 47  1  0
 19 20  1  0
 19 48  1  1
 20 22  1  0
 20 21  1  0
 21 22  1  0
 21 49  1  0
 21 50  1  0
 22 51  1  0
 22 52  1  0
 23 25  1  0
 23 24  1  0
 23 53  1  1
 24 25  1  0
 25 26  1  6
 25 27  1  0
 26 54  1  0
 26 55  1  0
 26 56  1  0
 27 28  1  0
 27 57  1  6
 28 58  1  0
M  END
>  <i_m_ct_stereo_status>  (129) 
1

>  <s_m_source_file>  (129) 
/var/tmp/pbs.5076255.sched01/tmpazi1eam_/42934yjxx2.sdf

>  <i_m_source_file_index>  (129) 
12

>  <i_lp_mmshare_version>  (129) 
48012

>  <i_f3d_flags>  (129) 
0

>  <s_epik_input>  (129) 
W0NIMl0xW0NIMl1DMTJbQ0BdMyhPW0NIM10pW0NASF00W0NAQEhdNVtDQEBIXTZbQ0BIXShbQ0BIXShbT0hdKVtDQEBdNyhbQ0BIXTZPNylbQ0gzXSlbQ0BIXShbQ0gzXSlbQ0BIXShbQ0hdPUM0W0NIM10pW0NASF0yW0NIMl1bQ0BdMyhDNT1PKVtPSF0=

>  <s_epik_cmdline>  (129) 
J2VwaWtfcHl0aG9uJywgJy1waHQnLCAnMi4wJywgJy1waCcsICc3LjAnLCAnLXRuJywgJzgnLCAnLW1hJywgJzIwMCcsICctaW1hZScsICc8aW5maWxlLm1hZT4nLCAnLW9tYWUnLCAnPG91dGZpbGUubWFlPic=

>  <r_lp_tautomer_probability>  (129) 
1

>  <r_epik_Ionization_Penalty>  (129) 
7.54152e-08

>  <r_epik_Ionization_Penalty_Charging>  (129) 
0

>  <r_epik_Ionization_Penalty_Neutral>  (129) 
7.54152e-08

>  <r_epik_State_Penalty>  (129) 
-0

>  <r_epik_Charging_Adjusted_Penalty>  (129) 
0

>  <i_epik_Tot_Q>  (129) 
0

>  <i_epik_Tot_abs_Q>  (129) 
0

>  <s_lp_Force_Field>  (129) 
OPLS3e

>  <r_lp_Energy>  (129) 
56.6192

>  <b_lp_Chiralities_Consistent>  (129) 
1

>  <s_lp_Variant>  (129) 
35:0-1

>  <s_i_glide_gridfile>  (129) 
pfpi4k_grid

>  <i_i_glide_lignum>  (129) 
12

>  <i_i_glide_rotatable_bonds>  (129) 
3

>  <r_i_docking_score>  (129) 
-2.92454

>  <r_i_glide_ligand_efficiency>  (129) 
-0.104448

>  <r_i_glide_ligand_efficiency_sa>  (129) 
-0.317166

>  <r_i_glide_ligand_efficiency_ln>  (129) 
-0.675071

>  <r_i_glide_gscore>  (129) 
-2.92454

>  <r_i_glide_lipo>  (129) 
-0.662102

>  <r_i_glide_hbond>  (129) 
-0.171919

>  <r_i_glide_metal>  (129) 
-0

>  <r_i_glide_rewards>  (129) 
-0.773991

>  <r_i_glide_evdw>  (129) 
-12.8616

>  <r_i_glide_ecoul>  (129) 
-4.31072

>  <r_i_glide_erotb>  (129) 
0

>  <r_i_glide_esite>  (129) 
-0.0268471

>  <r_i_glide_emodel>  (129) 
-18.9415

>  <r_i_glide_energy>  (129) 
-17.1723

>  <r_i_glide_einternal>  (129) 
1.74039

>  <r_i_glide_intrahb_reward>  (129) 
-0

>  <i_i_glide_confnum>  (129) 
1

>  <i_i_glide_posenum>  (129) 
25

>  <r_i_glide_eff_state_penalty>  (129) 
0

>  <ligand_id>  (129) 
35

>  <original_smiles>  (129) 
COC12C3C(C)=CC4C(C)C5C(C3C(=O)C1(O)CC4C21CC1)C1OC1(C)C5O

>  <smiles>  (129) 
[H]OC1([H])C2([H])C([H])(C([H])([H])[H])C3([H])C([H])=C(C([H])([H])[H])C4([H])C([H])(C(=O)C5(O[H])C([H])([H])C3([H])C3(C([H])([H])C3([H])[H])C45OC([H])([H])[H])C2([H])C2([H])OC21C([H])([H])[H]

$$$$
35:0:2
     RDKit          3D

 58 64  0  0  1  0  0  0  0  0999 V2000
    3.1241   -7.8573    1.7211 C   0  0  0  0  0  0  0  0  0  0  0  0
    3.7205   -6.9296    2.6246 O   0  0  0  0  0  0  0  0  0  0  0  0
    4.1633   -5.6522    2.1434 C   0  0  1  0  0  0  0  0  0  0  0  0
    5.1710   -5.7844    0.9506 C   0  0  2  0  0  0  0  0  0  0  0  0
    6.6020   -5.3378    1.2204 C   0  0  0  0  0  0  0  0  0  0  0  0
    7.7185   -6.3452    0.9923 C   0  0  0  0  0  0  0  0  0  0  0  0
    6.8907   -4.1093    1.6114 C   0  0  0  0  0  0  0  0  0  0  0  0
    5.8935   -3.0051    1.9368 C   0  0  1  0  0  0  0  0  0  0  0  0
    5.7507   -1.9931    0.7732 C   0  0  1  0  0  0  0  0  0  0  0  0
    7.1213   -1.3534    0.4913 C   0  0  0  0  0  0  0  0  0  0  0  0
    5.0307   -2.4927   -0.5233 C   0  0  2  0  0  0  0  0  0  0  0  0
    5.2978   -3.9484   -1.0344 C   0  0  1  0  0  0  0  0  0  0  0  0
    4.5388   -5.1150   -0.3018 C   0  0  2  0  0  0  0  0  0  0  0  0
    3.1155   -4.7257    0.1520 C   0  0  0  0  0  0  0  0  0  0  0  0
    2.2132   -4.3160   -0.5766 O   0  0  0  0  0  0  0  0  0  0  0  0
    3.0065   -4.7394    1.6574 C   0  0  1  0  0  0  0  0  0  0  0  0
    1.7301   -5.1483    2.1300 O   0  0  0  0  0  0  0  0  0  0  0  0
    3.2814   -3.3366    2.2310 C   0  0  0  0  0  0  0  0  0  0  0  0
    4.6817   -3.4349    2.8409 C   0  0  1  0  0  0  0  0  0  0  0  0
    4.7329   -4.8731    3.3224 C   0  0  0  0  0  0  0  0  0  0  0  0
    4.2551   -5.1619    4.7389 C   0  0  0  0  0  0  0  0  0  0  0  0
    5.6843   -5.4615    4.3408 C   0  0  0  0  0  0  0  0  0  0  0  0
    4.9071   -3.9269   -2.4987 C   0  0  2  0  0  0  0  0  0  0  0  0
    5.8063   -3.3172   -3.4376 O   0  0  0  0  0  0  0  0  0  0  0  0
    4.7666   -2.4974   -2.9151 C   0  0  1  0  0  0  0  0  0  0  0  0
    3.7598   -1.9835   -3.9127 C   0  0  0  0  0  0  0  0  0  0  0  0
    5.1893   -1.6179   -1.7838 C   0  0  1  0  0  0  0  0  0  0  0  0
    4.4386   -0.4268   -1.7489 O   0  0  0  0  0  0  0  0  0  0  0  0
    2.6753   -8.6390    2.3275 H   0  0  0  0  0  0  0  0  0  0  0  0
    3.8555   -8.3428    1.0755 H   0  0  0  0  0  0  0  0  0  0  0  0
    2.3299   -7.4325    1.1054 H   0  0  0  0  0  0  0  0  0  0  0  0
    5.3017   -6.8297    0.7238 H   0  0  0  0  0  0  0  0  0  0  0  0
    7.7790   -6.6576   -0.0498 H   0  0  0  0  0  0  0  0  0  0  0  0
    7.5992   -7.2238    1.6352 H   0  0  0  0  0  0  0  0  0  0  0  0
    8.7001   -5.9076    1.2167 H   0  0  0  0  0  0  0  0  0  0  0  0
    7.9372   -3.8406    1.7320 H   0  0  0  0  0  0  0  0  0  0  0  0
    6.4241   -2.3967    2.6591 H   0  0  0  0  0  0  0  0  0  0  0  0
    5.1676   -1.1653    1.1778 H   0  0  0  0  0  0  0  0  0  0  0  0
    7.7749   -1.9810   -0.1254 H   0  0  0  0  0  0  0  0  0  0  0  0
    7.6800   -1.0822    1.3936 H   0  0  0  0  0  0  0  0  0  0  0  0
    6.9290   -0.3980    0.0228 H   0  0  0  0  0  0  0  0  0  0  0  0
    3.9788   -2.3935   -0.3221 H   0  0  0  0  0  0  0  0  0  0  0  0
    6.3732   -4.1335   -1.0290 H   0  0  0  0  0  0  0  0  0  0  0  0
    4.4736   -5.9182   -1.0367 H   0  0  0  0  0  0  0  0  0  0  0  0
    1.7655   -5.1672    3.0786 H   0  0  0  0  0  0  0  0  0  0  0  0
    3.1366   -2.4928    1.5563 H   0  0  0  0  0  0  0  0  0  0  0  0
    2.5860   -3.1370    3.0412 H   0  0  0  0  0  0  0  0  0  0  0  0
    4.6946   -2.8026    3.7247 H   0  0  0  0  0  0  0  0  0  0  0  0
    4.0999   -4.3265    5.4220 H   0  0  0  0  0  0  0  0  0  0  0  0
    3.5743   -5.9982    4.9023 H   0  0  0  0  0  0  0  0  0  0  0  0
    5.9682   -6.4985    4.1900 H   0  0  0  0  0  0  0  0  0  0  0  0
    6.4612   -4.8318    4.7588 H   0  0  0  0  0  0  0  0  0  0  0  0
    4.2458   -4.6519   -2.9098 H   0  0  0  0  0  0  0  0  0  0  0  0
    2.8036   -1.7462   -3.4253 H   0  0  0  0  0  0  0  0  0  0  0  0
    3.5847   -2.7545   -4.6527 H   0  0  0  0  0  0  0  0  0  0  0  0
    4.1411   -1.0797   -4.3994 H   0  0  0  0  0  0  0  0  0  0  0  0
    6.2274   -1.3660   -1.9651 H   0  0  0  0  0  0  0  0  0  0  0  0
    3.5374   -0.6423   -1.5577 H   0  0  0  0  0  0  0  0  0  0  0  0
  1  2  1  0
  1 29  1  0
  1 30  1  0
  1 31  1  0
  3  2  1  1
  3 16  1  0
  3 20  1  0
  3  4  1  0
  4 13  1  0
  4  5  1  0
  4 32  1  6
  5  6  1  0
  5  7  2  0
  6 33  1  0
  6 34  1  0
  6 35  1  0
  7  8  1  0
  7 36  1  0
  8 19  1  0
  8  9  1  0
  8 37  1  1
  9 10  1  0
  9 11  1  0
  9 38  1  1
 10 39  1  0
 10 40  1  0
 10 41  1  0
 11 27  1  0
 11 12  1  0
 11 42  1  1
 12 13  1  0
 12 23  1  0
 12 43  1  6
 13 14  1  0
 13 44  1  6
 14 15  2  0
 14 16  1  0
 16 17  1  6
 16 18  1  0
 17 45  1  0
 18 19  1  0
 18 46  1  0
 18 47  1  0
 19 20  1  0
 19 48  1  1
 20 22  1  0
 20 21  1  0
 21 22  1  0
 21 49  1  0
 21 50  1  0
 22 51  1  0
 22 52  1  0
 23 25  1  0
 23 24  1  0
 23 53  1  6
 24 25  1  0
 25 26  1  6
 25 27  1  0
 26 54  1  0
 26 55  1  0
 26 56  1  0
 27 28  1  0
 27 57  1  6
 28 58  1  0
M  END
>  <i_m_ct_stereo_status>  (130) 
1

>  <s_m_source_file>  (130) 
/var/tmp/pbs.5076255.sched01/tmpazi1eam_/42934yjxx2.sdf

>  <i_m_source_file_index>  (130) 
12

>  <i_lp_mmshare_version>  (130) 
48012

>  <i_f3d_flags>  (130) 
0

>  <s_epik_input>  (130) 
W0NIMl0xW0NIMl1DMTJbQ0BdMyhPW0NIM10pW0NASF00W0NAQEhdNVtDQEBIXTZbQ0BIXShbQ0BIXShbT0hdKVtDQEBdNyhbQ0BIXTZPNylbQ0gzXSlbQ0BIXShbQ0gzXSlbQ0BIXShbQ0hdPUM0W0NIM10pW0NASF0yW0NIMl1bQ0BdMyhDNT1PKVtPSF0=

>  <s_epik_cmdline>  (130) 
J2VwaWtfcHl0aG9uJywgJy1waHQnLCAnMi4wJywgJy1waCcsICc3LjAnLCAnLXRuJywgJzgnLCAnLW1hJywgJzIwMCcsICctaW1hZScsICc8aW5maWxlLm1hZT4nLCAnLW9tYWUnLCAnPG91dGZpbGUubWFlPic=

>  <r_lp_tautomer_probability>  (130) 
1

>  <r_epik_Ionization_Penalty>  (130) 
7.54152e-08

>  <r_epik_Ionization_Penalty_Charging>  (130) 
0

>  <r_epik_Ionization_Penalty_Neutral>  (130) 
7.54152e-08

>  <r_epik_State_Penalty>  (130) 
-0

>  <r_epik_Charging_Adjusted_Penalty>  (130) 
0

>  <i_epik_Tot_Q>  (130) 
0

>  <i_epik_Tot_abs_Q>  (130) 
0

>  <s_lp_Force_Field>  (130) 
OPLS3e

>  <r_lp_Energy>  (130) 
56.6192

>  <b_lp_Chiralities_Consistent>  (130) 
1

>  <s_lp_Variant>  (130) 
35:0-1

>  <s_i_glide_gridfile>  (130) 
pfpi4k_grid

>  <i_i_glide_lignum>  (130) 
12

>  <i_i_glide_rotatable_bonds>  (130) 
3

>  <r_i_docking_score>  (130) 
-2.31216

>  <r_i_glide_ligand_efficiency>  (130) 
-0.082577

>  <r_i_glide_ligand_efficiency_sa>  (130) 
-0.250753

>  <r_i_glide_ligand_efficiency_ln>  (130) 
-0.533714

>  <r_i_glide_gscore>  (130) 
-2.31216

>  <r_i_glide_lipo>  (130) 
-0.650038

>  <r_i_glide_hbond>  (130) 
0

>  <r_i_glide_metal>  (130) 
-0

>  <r_i_glide_rewards>  (130) 
-0.773991

>  <r_i_glide_evdw>  (130) 
-14.4297

>  <r_i_glide_ecoul>  (130) 
-0.928898

>  <r_i_glide_erotb>  (130) 
0

>  <r_i_glide_esite>  (130) 
-0.0273109

>  <r_i_glide_emodel>  (130) 
-19.2542

>  <r_i_glide_energy>  (130) 
-15.3586

>  <r_i_glide_einternal>  (130) 
0.018588

>  <r_i_glide_intrahb_reward>  (130) 
-0

>  <i_i_glide_confnum>  (130) 
2

>  <i_i_glide_posenum>  (130) 
10

>  <r_i_glide_eff_state_penalty>  (130) 
0

>  <ligand_id>  (130) 
35

>  <original_smiles>  (130) 
COC12C3C(C)=CC4C(C)C5C(C3C(=O)C1(O)CC4C21CC1)C1OC1(C)C5O

>  <smiles>  (130) 
[H]OC1([H])C2([H])C([H])(C([H])([H])[H])C3([H])C([H])=C(C([H])([H])[H])C4([H])C([H])(C(=O)C5(O[H])C([H])([H])C3([H])C3(C([H])([H])C3([H])[H])C45OC([H])([H])[H])C2([H])C2([H])OC21C([H])([H])[H]

$$$$
36:0:0
     RDKit          3D

 53 57  0  0  1  0  0  0  0  0999 V2000
    5.1245    0.4228    4.2146 C   0  0  0  0  0  0  0  0  0  0  0  0
    4.3704   -0.6903    3.4583 C   0  0  2  0  0  0  0  0  0  0  0  0
    5.3430   -1.8900    3.3251 C   0  0  0  0  0  0  0  0  0  0  0  0
    5.2702   -2.9641    2.2091 C   0  0  1  0  0  0  0  0  0  0  0  0
    4.6432   -4.2016    2.5058 O   0  0  0  0  0  0  0  0  0  0  0  0
    3.2392   -4.4005    2.6188 C   0  0  1  0  0  0  0  0  0  0  0  0
    3.2069   -5.5520    3.6264 C   0  0  0  0  0  0  0  0  0  0  0  0
    2.4186   -3.2384    3.2152 C   0  0  0  0  0  0  0  0  0  0  0  0
    1.9640   -2.0643    2.3110 C   0  0  0  0  0  0  0  0  0  0  0  0
    2.9544   -1.3037    1.3925 C   0  0  1  0  0  0  0  0  0  0  0  0
    3.7451   -0.1895    2.1284 C   0  0  1  0  0  0  0  0  0  0  0  0
    2.8272    1.0292    2.3749 C   0  0  0  0  0  0  0  0  0  0  0  0
    3.7273   -2.1589    0.3477 C   0  0  1  0  0  0  0  0  0  0  0  0
    3.6961   -1.7111   -1.1316 C   0  0  1  0  0  0  0  0  0  0  0  0
    4.9701   -1.2699   -1.8011 C   0  0  0  0  0  0  0  0  0  0  0  0
    6.1023   -2.3044   -1.6244 C   0  0  0  0  0  0  0  0  0  0  0  0
    6.0362   -3.1493   -0.3290 C   0  0  1  0  0  0  0  0  0  0  0  0
    7.4752   -3.5567    0.0700 C   0  0  0  0  0  0  0  0  0  0  0  0
    5.1947   -2.4157    0.7782 C   0  0  2  0  0  0  0  0  0  0  0  0
    3.3678   -3.0229   -1.5725 O   0  0  0  0  0  0  0  0  0  0  0  0
    2.9464   -3.3461   -0.2626 C   0  0  1  0  0  0  0  0  0  0  0  0
    3.3927   -4.5854    0.2477 O   0  0  0  0  0  0  0  0  0  0  0  0
    2.5870   -4.9051    1.4749 O   0  0  0  0  0  0  0  0  0  0  0  0
    5.9026    0.8504    3.5883 H   0  0  0  0  0  0  0  0  0  0  0  0
    5.6158    0.0385    5.1084 H   0  0  0  0  0  0  0  0  0  0  0  0
    4.4580    1.2222    4.5418 H   0  0  0  0  0  0  0  0  0  0  0  0
    3.5608   -0.9504    4.1368 H   0  0  0  0  0  0  0  0  0  0  0  0
    6.2860   -1.4004    3.1285 H   0  0  0  0  0  0  0  0  0  0  0  0
    5.4360   -2.3841    4.2945 H   0  0  0  0  0  0  0  0  0  0  0  0
    6.2947   -3.3273    2.2847 H   0  0  0  0  0  0  0  0  0  0  0  0
    3.7759   -6.4127    3.2675 H   0  0  0  0  0  0  0  0  0  0  0  0
    2.1904   -5.8876    3.8280 H   0  0  0  0  0  0  0  0  0  0  0  0
    3.6490   -5.2487    4.5772 H   0  0  0  0  0  0  0  0  0  0  0  0
    1.4868   -3.6730    3.5807 H   0  0  0  0  0  0  0  0  0  0  0  0
    2.9065   -2.9040    4.1277 H   0  0  0  0  0  0  0  0  0  0  0  0
    1.1608   -2.3997    1.6859 H   0  0  0  0  0  0  0  0  0  0  0  0
    1.4651   -1.3456    2.9567 H   0  0  0  0  0  0  0  0  0  0  0  0
    2.2544   -0.7302    0.7846 H   0  0  0  0  0  0  0  0  0  0  0  0
    4.5222    0.1795    1.4626 H   0  0  0  0  0  0  0  0  0  0  0  0
    2.0728    0.8320    3.1353 H   0  0  0  0  0  0  0  0  0  0  0  0
    2.3116    1.3416    1.4647 H   0  0  0  0  0  0  0  0  0  0  0  0
    3.4039    1.8946    2.7000 H   0  0  0  0  0  0  0  0  0  0  0  0
    2.8787   -1.0083   -1.3269 H   0  0  0  0  0  0  0  0  0  0  0  0
    4.8071   -1.0715   -2.8566 H   0  0  0  0  0  0  0  0  0  0  0  0
    5.2784   -0.3201   -1.3518 H   0  0  0  0  0  0  0  0  0  0  0  0
    6.0804   -3.0002   -2.4736 H   0  0  0  0  0  0  0  0  0  0  0  0
    7.0714   -1.8373   -1.6882 H   0  0  0  0  0  0  0  0  0  0  0  0
    5.5506   -4.0799   -0.5842 H   0  0  0  0  0  0  0  0  0  0  0  0
    8.0317   -2.7226    0.4910 H   0  0  0  0  0  0  0  0  0  0  0  0
    8.0200   -3.9008   -0.8159 H   0  0  0  0  0  0  0  0  0  0  0  0
    7.4792   -4.3896    0.7823 H   0  0  0  0  0  0  0  0  0  0  0  0
    5.7113   -1.4671    0.8328 H   0  0  0  0  0  0  0  0  0  0  0  0
    1.8703   -3.2444   -0.1879 H   0  0  0  0  0  0  0  0  0  0  0  0
  1  2  1  0
  1 24  1  0
  1 25  1  0
  1 26  1  0
  2 11  1  0
  2  3  1  0
  2 27  1  1
  3  4  1  0
  3 28  1  0
  3 29  1  0
  4 19  1  0
  4  5  1  0
  4 30  1  6
  5  6  1  0
  6 23  1  0
  6  7  1  1
  6  8  1  0
  7 31  1  0
  7 32  1  0
  7 33  1  0
  8  9  1  0
  8 34  1  0
  8 35  1  0
  9 10  1  0
  9 36  1  0
  9 37  1  0
 10 11  1  0
 10 13  1  0
 10 38  1  6
 11 12  1  0
 11 39  1  6
 12 40  1  0
 12 41  1  0
 12 42  1  0
 13 19  1  0
 13 21  1  0
 13 14  1  6
 14 15  1  0
 14 20  1  0
 14 43  1  1
 15 16  1  0
 15 44  1  0
 15 45  1  0
 16 17  1  0
 16 46  1  0
 16 47  1  0
 17 18  1  0
 17 19  1  0
 17 48  1  6
 18 49  1  0
 18 50  1  0
 18 51  1  0
 19 52  1  1
 20 21  1  0
 21 22  1  0
 21 53  1  6
 22 23  1  0
M  END
>  <i_m_ct_stereo_status>  (131) 
1

>  <s_m_source_file>  (131) 
/var/tmp/pbs.5076255.sched01/tmpazi1eam_/42934yjxx2.sdf

>  <i_m_source_file_index>  (131) 
13

>  <i_lp_mmshare_version>  (131) 
48012

>  <i_f3d_flags>  (131) 
0

>  <s_epik_input>  (131) 
W0NAXTEyM1tDQEhdNFtDSDJdW0NIMl1bQ0BdNShbQ0gzXSlPW0NASF0oW0NIMl1bQ0BASF0oW0NIM10pW0NAQEhdNFtDSDNdKVtDQEhdMltDQEhdKFtDSDNdKVtDSDJdW0NIMl1bQ0BIXTFPW0NASF0zT081

>  <s_epik_cmdline>  (131) 
J2VwaWtfcHl0aG9uJywgJy1waHQnLCAnMi4wJywgJy1waCcsICc3LjAnLCAnLXRuJywgJzgnLCAnLW1hJywgJzIwMCcsICctaW1hZScsICc8aW5maWxlLm1hZT4nLCAnLW9tYWUnLCAnPG91dGZpbGUubWFlPic=

>  <r_lp_tautomer_probability>  (131) 
1

>  <r_epik_Ionization_Penalty>  (131) 
3.91123e-13

>  <r_epik_Ionization_Penalty_Charging>  (131) 
0

>  <r_epik_Ionization_Penalty_Neutral>  (131) 
3.91123e-13

>  <r_epik_State_Penalty>  (131) 
-0

>  <r_epik_Charging_Adjusted_Penalty>  (131) 
0

>  <i_epik_Tot_Q>  (131) 
0

>  <i_epik_Tot_abs_Q>  (131) 
0

>  <s_epik_Chemistry_Notes>  (131) 
This compound contains an acetal/aminal-like group ( X-CH(R)-Y where X, Y are N, S, or O) that may be acid/base labile, releasing an aldehyde.

>  <s_lp_Force_Field>  (131) 
OPLS3e

>  <r_lp_Energy>  (131) 
73.5106

>  <b_lp_Chiralities_Consistent>  (131) 
1

>  <s_lp_Variant>  (131) 
36:0-1

>  <s_i_glide_gridfile>  (131) 
pfpi4k_grid

>  <i_i_glide_lignum>  (131) 
13

>  <i_i_glide_rotatable_bonds>  (131) 
0

>  <r_i_docking_score>  (131) 
-2.78933

>  <r_i_glide_ligand_efficiency>  (131) 
-0.121275

>  <r_i_glide_ligand_efficiency_sa>  (131) 
-0.34489

>  <r_i_glide_ligand_efficiency_ln>  (131) 
-0.674485

>  <r_i_glide_gscore>  (131) 
-2.78933

>  <r_i_glide_lipo>  (131) 
-0.554073

>  <r_i_glide_hbond>  (131) 
0

>  <r_i_glide_metal>  (131) 
-0

>  <r_i_glide_rewards>  (131) 
-1.21064

>  <r_i_glide_evdw>  (131) 
-20.7237

>  <r_i_glide_ecoul>  (131) 
0.0871152

>  <r_i_glide_erotb>  (131) 
0

>  <r_i_glide_esite>  (131) 
-0.00149339

>  <r_i_glide_emodel>  (131) 
-23.022

>  <r_i_glide_energy>  (131) 
-20.6366

>  <r_i_glide_einternal>  (131) 
0

>  <r_i_glide_intrahb_reward>  (131) 
-0

>  <i_i_glide_confnum>  (131) 
1

>  <i_i_glide_posenum>  (131) 
1

>  <r_i_glide_eff_state_penalty>  (131) 
0

>  <ligand_id>  (131) 
36

>  <original_smiles>  (131) 
CC1CC2OC3(C)CCC(C1C)C14C(CCC(C)C21)OC4OO3

>  <smiles>  (131) 
[H]C([H])([H])C12OOC3([H])OC4([H])C([H])([H])C([H])([H])C([H])(C([H])([H])[H])C5([H])C([H])(O1)C([H])([H])C([H])(C([H])([H])[H])C([H])(C([H])([H])[H])C([H])(C([H])([H])C2([H])[H])C345

$$$$
36:0:1
     RDKit          3D

 53 57  0  0  1  0  0  0  0  0999 V2000
    8.2873   -1.2117    0.4681 C   0  0  0  0  0  0  0  0  0  0  0  0
    6.9851   -1.8388   -0.0330 C   0  0  2  0  0  0  0  0  0  0  0  0
    5.8501   -0.7786    0.0792 C   0  0  0  0  0  0  0  0  0  0  0  0
    4.3529   -1.1492    0.1623 C   0  0  1  0  0  0  0  0  0  0  0  0
    3.5911   -1.1118   -1.0425 O   0  0  0  0  0  0  0  0  0  0  0  0
    3.6091   -2.0877   -2.0776 C   0  0  1  0  0  0  0  0  0  0  0  0
    3.2379   -1.2287   -3.2916 C   0  0  0  0  0  0  0  0  0  0  0  0
    4.9465   -2.7385   -2.3710 C   0  0  0  0  0  0  0  0  0  0  0  0
    5.3748   -3.9323   -1.5133 C   0  0  0  0  0  0  0  0  0  0  0  0
    5.4503   -3.9028    0.0367 C   0  0  1  0  0  0  0  0  0  0  0  0
    6.7081   -3.2041    0.6208 C   0  0  1  0  0  0  0  0  0  0  0  0
    7.9519   -4.1235    0.5074 C   0  0  0  0  0  0  0  0  0  0  0  0
    4.0966   -3.6263    0.7498 C   0  0  1  0  0  0  0  0  0  0  0  0
    3.6567   -4.6059    1.8383 C   0  0  1  0  0  0  0  0  0  0  0  0
    3.5094   -4.0959    3.2571 C   0  0  0  0  0  0  0  0  0  0  0  0
    2.6776   -2.8024    3.3469 C   0  0  0  0  0  0  0  0  0  0  0  0
    2.6891   -1.9009    2.0832 C   0  0  1  0  0  0  0  0  0  0  0  0
    2.4310   -0.4437    2.5155 C   0  0  0  0  0  0  0  0  0  0  0  0
    3.9928   -2.1646    1.2444 C   0  0  2  0  0  0  0  0  0  0  0  0
    2.3385   -4.7508    1.2624 O   0  0  0  0  0  0  0  0  0  0  0  0
    2.9031   -4.2626    0.0308 C   0  0  1  0  0  0  0  0  0  0  0  0
    2.1503   -3.2649   -0.6014 O   0  0  0  0  0  0  0  0  0  0  0  0
    2.6287   -3.1112   -1.9976 O   0  0  0  0  0  0  0  0  0  0  0  0
    8.1897   -1.0080    1.5314 H   0  0  0  0  0  0  0  0  0  0  0  0
    8.4666   -0.2267    0.0882 H   0  0  0  0  0  0  0  0  0  0  0  0
    9.1857   -1.7821    0.2464 H   0  0  0  0  0  0  0  0  0  0  0  0
    7.1918   -2.0194   -1.0836 H   0  0  0  0  0  0  0  0  0  0  0  0
    6.0559   -0.1541    0.9542 H   0  0  0  0  0  0  0  0  0  0  0  0
    5.9489   -0.1182   -0.7624 H   0  0  0  0  0  0  0  0  0  0  0  0
    3.9843   -0.2037    0.5421 H   0  0  0  0  0  0  0  0  0  0  0  0
    2.2894   -0.7359   -3.1192 H   0  0  0  0  0  0  0  0  0  0  0  0
    3.1573   -1.8180   -4.2025 H   0  0  0  0  0  0  0  0  0  0  0  0
    3.9801   -0.4460   -3.4479 H   0  0  0  0  0  0  0  0  0  0  0  0
    4.8859   -3.1403   -3.3811 H   0  0  0  0  0  0  0  0  0  0  0  0
    5.6982   -1.9645   -2.4435 H   0  0  0  0  0  0  0  0  0  0  0  0
    4.8128   -4.8073   -1.8347 H   0  0  0  0  0  0  0  0  0  0  0  0
    6.3688   -4.1401   -1.8658 H   0  0  0  0  0  0  0  0  0  0  0  0
    5.6448   -4.9483    0.2496 H   0  0  0  0  0  0  0  0  0  0  0  0
    6.5699   -3.0684    1.6953 H   0  0  0  0  0  0  0  0  0  0  0  0
    8.2976   -4.2230   -0.5213 H   0  0  0  0  0  0  0  0  0  0  0  0
    7.7549   -5.1164    0.9006 H   0  0  0  0  0  0  0  0  0  0  0  0
    8.7821   -3.7377    1.0972 H   0  0  0  0  0  0  0  0  0  0  0  0
    4.2110   -5.5346    1.7684 H   0  0  0  0  0  0  0  0  0  0  0  0
    3.0995   -4.8664    3.9111 H   0  0  0  0  0  0  0  0  0  0  0  0
    4.5123   -3.8792    3.6222 H   0  0  0  0  0  0  0  0  0  0  0  0
    1.6402   -3.0845    3.5247 H   0  0  0  0  0  0  0  0  0  0  0  0
    2.9822   -2.2336    4.2320 H   0  0  0  0  0  0  0  0  0  0  0  0
    1.8259   -2.1662    1.4693 H   0  0  0  0  0  0  0  0  0  0  0  0
    3.2951    0.0012    3.0142 H   0  0  0  0  0  0  0  0  0  0  0  0
    1.5929   -0.4032    3.2123 H   0  0  0  0  0  0  0  0  0  0  0  0
    2.1535    0.1903    1.6703 H   0  0  0  0  0  0  0  0  0  0  0  0
    4.7535   -1.9948    2.0042 H   0  0  0  0  0  0  0  0  0  0  0  0
    3.1332   -5.1039   -0.6002 H   0  0  0  0  0  0  0  0  0  0  0  0
  1  2  1  0
  1 24  1  0
  1 25  1  0
  1 26  1  0
  2 11  1  0
  2  3  1  0
  2 27  1  6
  3  4  1  0
  3 28  1  0
  3 29  1  0
  4 19  1  0
  4  5  1  0
  4 30  1  1
  5  6  1  0
  6 23  1  0
  6  7  1  6
  6  8  1  0
  7 31  1  0
  7 32  1  0
  7 33  1  0
  8  9  1  0
  8 34  1  0
  8 35  1  0
  9 10  1  0
  9 36  1  0
  9 37  1  0
 10 11  1  0
 10 13  1  0
 10 38  1  1
 11 12  1  0
 11 39  1  1
 12 40  1  0
 12 41  1  0
 12 42  1  0
 13 19  1  0
 13 21  1  0
 13 14  1  1
 14 15  1  0
 14 20  1  0
 14 43  1  1
 15 16  1  0
 15 44  1  0
 15 45  1  0
 16 17  1  0
 16 46  1  0
 16 47  1  0
 17 18  1  0
 17 19  1  0
 17 48  1  6
 18 49  1  0
 18 50  1  0
 18 51  1  0
 19 52  1  1
 20 21  1  0
 21 22  1  0
 21 53  1  6
 22 23  1  0
M  END
>  <i_m_ct_stereo_status>  (132) 
1

>  <s_m_source_file>  (132) 
/var/tmp/pbs.5076255.sched01/tmpazi1eam_/42934yjxx2.sdf

>  <i_m_source_file_index>  (132) 
13

>  <i_lp_mmshare_version>  (132) 
48012

>  <i_f3d_flags>  (132) 
0

>  <s_epik_input>  (132) 
W0NAXTEyM1tDQEhdNFtDSDJdW0NIMl1bQ0BdNShbQ0gzXSlPW0NASF0oW0NIMl1bQ0BASF0oW0NIM10pW0NAQEhdNFtDSDNdKVtDQEhdMltDQEhdKFtDSDNdKVtDSDJdW0NIMl1bQ0BIXTFPW0NASF0zT081

>  <s_epik_cmdline>  (132) 
J2VwaWtfcHl0aG9uJywgJy1waHQnLCAnMi4wJywgJy1waCcsICc3LjAnLCAnLXRuJywgJzgnLCAnLW1hJywgJzIwMCcsICctaW1hZScsICc8aW5maWxlLm1hZT4nLCAnLW9tYWUnLCAnPG91dGZpbGUubWFlPic=

>  <r_lp_tautomer_probability>  (132) 
1

>  <r_epik_Ionization_Penalty>  (132) 
3.91123e-13

>  <r_epik_Ionization_Penalty_Charging>  (132) 
0

>  <r_epik_Ionization_Penalty_Neutral>  (132) 
3.91123e-13

>  <r_epik_State_Penalty>  (132) 
-0

>  <r_epik_Charging_Adjusted_Penalty>  (132) 
0

>  <i_epik_Tot_Q>  (132) 
0

>  <i_epik_Tot_abs_Q>  (132) 
0

>  <s_epik_Chemistry_Notes>  (132) 
This compound contains an acetal/aminal-like group ( X-CH(R)-Y where X, Y are N, S, or O) that may be acid/base labile, releasing an aldehyde.

>  <s_lp_Force_Field>  (132) 
OPLS3e

>  <r_lp_Energy>  (132) 
73.5106

>  <b_lp_Chiralities_Consistent>  (132) 
1

>  <s_lp_Variant>  (132) 
36:0-1

>  <s_i_glide_gridfile>  (132) 
pfpi4k_grid

>  <i_i_glide_lignum>  (132) 
13

>  <i_i_glide_rotatable_bonds>  (132) 
0

>  <r_i_docking_score>  (132) 
-2.60676

>  <r_i_glide_ligand_efficiency>  (132) 
-0.113337

>  <r_i_glide_ligand_efficiency_sa>  (132) 
-0.322316

>  <r_i_glide_ligand_efficiency_ln>  (132) 
-0.630338

>  <r_i_glide_gscore>  (132) 
-2.60676

>  <r_i_glide_lipo>  (132) 
-0.587368

>  <r_i_glide_hbond>  (132) 
-0.0244866

>  <r_i_glide_metal>  (132) 
-0

>  <r_i_glide_rewards>  (132) 
-1.21064

>  <r_i_glide_evdw>  (132) 
-17.9075

>  <r_i_glide_ecoul>  (132) 
1.21587

>  <r_i_glide_erotb>  (132) 
0

>  <r_i_glide_esite>  (132) 
-0.0712656

>  <r_i_glide_emodel>  (132) 
-18.715

>  <r_i_glide_energy>  (132) 
-16.6916

>  <r_i_glide_einternal>  (132) 
0

>  <r_i_glide_intrahb_reward>  (132) 
-0

>  <i_i_glide_confnum>  (132) 
2

>  <i_i_glide_posenum>  (132) 
21

>  <r_i_glide_eff_state_penalty>  (132) 
0

>  <ligand_id>  (132) 
36

>  <original_smiles>  (132) 
CC1CC2OC3(C)CCC(C1C)C14C(CCC(C)C21)OC4OO3

>  <smiles>  (132) 
[H]C([H])([H])C12OOC3([H])OC4([H])C([H])([H])C([H])([H])C([H])(C([H])([H])[H])C5([H])C([H])(O1)C([H])([H])C([H])(C([H])([H])[H])C([H])(C([H])([H])[H])C([H])(C([H])([H])C2([H])[H])C345

$$$$
38:0:0
     RDKit          3D

 43 46  0  0  1  0  0  0  0  0999 V2000
    4.3208   -3.9131    2.5427 C   0  0  0  0  0  0  0  0  0  0  0  0
    4.1825   -3.4041    1.0773 C   0  0  0  0  0  0  0  0  0  0  0  0
    2.6842   -3.6341    0.7553 C   0  0  0  0  0  0  0  0  0  0  0  0
    4.4323   -1.8386    1.1379 C   0  0  1  0  0  0  0  0  0  0  0  0
    5.8194   -1.3636    1.6494 C   0  0  0  0  0  0  0  0  0  0  0  0
    6.9978   -1.3756    0.6739 C   0  0  0  0  0  0  0  0  0  0  0  0
    7.0321   -2.5377   -0.3224 C   0  0  1  0  0  0  0  0  0  0  0  0
    6.5988   -3.8509    0.3084 C   0  0  0  0  0  0  0  0  0  0  0  0
    7.4984   -4.6083    0.9653 C   0  0  0  0  0  0  0  0  0  0  0  0
    7.1388   -5.8489    1.6621 C   0  0  0  0  0  0  0  0  0  0  0  0
    7.9283   -6.4415    2.3928 O   0  0  0  0  0  0  0  0  0  0  0  0
    5.8475   -6.2357    1.5200 O   0  0  0  0  0  0  0  0  0  0  0  0
    5.0517   -5.7863    0.4333 C   0  0  0  0  0  0  0  0  0  0  0  0
    5.1344   -4.2608    0.1165 C   0  0  1  0  0  0  0  0  0  0  0  0
    4.7500   -4.1642   -1.4056 C   0  0  0  0  0  0  0  0  0  0  0  0
    5.7509   -3.4478   -2.3326 C   0  0  0  0  0  0  0  0  0  0  0  0
    6.3477   -2.2187   -1.6683 C   0  0  1  0  0  0  0  0  0  0  0  0
    5.5181   -1.0542   -1.6129 O   0  0  0  0  0  0  0  0  0  0  0  0
    4.2163   -1.1298   -1.4013 C   0  0  0  0  0  0  0  0  0  0  0  0
    3.3905   -1.2981   -2.2959 O   0  0  0  0  0  0  0  0  0  0  0  0
    3.8178   -0.9086    0.0558 C   0  0  0  0  0  0  0  0  0  0  0  0
    3.7619   -3.2989    3.2502 H   0  0  0  0  0  0  0  0  0  0  0  0
    5.3527   -3.9324    2.8883 H   0  0  0  0  0  0  0  0  0  0  0  0
    3.9254   -4.9220    2.6617 H   0  0  0  0  0  0  0  0  0  0  0  0
    2.3519   -3.1708   -0.1736 H   0  0  0  0  0  0  0  0  0  0  0  0
    2.0538   -3.2044    1.5353 H   0  0  0  0  0  0  0  0  0  0  0  0
    2.4339   -4.6928    0.6918 H   0  0  0  0  0  0  0  0  0  0  0  0
    3.8085   -1.5349    1.9790 H   0  0  0  0  0  0  0  0  0  0  0  0
    5.7253   -0.3387    2.0116 H   0  0  0  0  0  0  0  0  0  0  0  0
    6.1115   -1.9326    2.5295 H   0  0  0  0  0  0  0  0  0  0  0  0
    7.0504   -0.4222    0.1487 H   0  0  0  0  0  0  0  0  0  0  0  0
    7.9044   -1.3944    1.2768 H   0  0  0  0  0  0  0  0  0  0  0  0
    8.0820   -2.6826   -0.5834 H   0  0  0  0  0  0  0  0  0  0  0  0
    8.5227   -4.2817    1.0709 H   0  0  0  0  0  0  0  0  0  0  0  0
    5.4111   -6.3608   -0.4164 H   0  0  0  0  0  0  0  0  0  0  0  0
    4.0239   -6.1071    0.5829 H   0  0  0  0  0  0  0  0  0  0  0  0
    4.6310   -5.1466   -1.8402 H   0  0  0  0  0  0  0  0  0  0  0  0
    3.7651   -3.7477   -1.5698 H   0  0  0  0  0  0  0  0  0  0  0  0
    6.5938   -4.0927   -2.5726 H   0  0  0  0  0  0  0  0  0  0  0  0
    5.3017   -3.2139   -3.2983 H   0  0  0  0  0  0  0  0  0  0  0  0
    7.1653   -1.8962   -2.3097 H   0  0  0  0  0  0  0  0  0  0  0  0
    2.7301   -0.9549    0.1189 H   0  0  0  0  0  0  0  0  0  0  0  0
    4.0749    0.1236    0.2965 H   0  0  0  0  0  0  0  0  0  0  0  0
  1  2  1  0
  1 22  1  0
  1 23  1  0
  1 24  1  0
 14  2  1  1
  2  3  1  0
  2  4  1  0
  3 25  1  0
  3 26  1  0
  3 27  1  0
  4 21  1  0
  4  5  1  0
  4 28  1  1
  5  6  1  0
  5 29  1  0
  5 30  1  0
  6  7  1  0
  6 31  1  0
  6 32  1  0
  7 17  1  0
  7  8  1  0
  7 33  1  6
  8 14  1  0
  8  9  2  0
  9 10  1  0
  9 34  1  0
 10 11  2  0
 10 12  1  0
 12 13  1  0
 13 14  1  0
 13 35  1  0
 13 36  1  0
 14 15  1  0
 15 16  1  0
 15 37  1  0
 15 38  1  0
 16 17  1  0
 16 39  1  0
 16 40  1  0
 17 18  1  0
 17 41  1  6
 18 19  1  0
 19 20  2  0
 19 21  1  0
 21 42  1  0
 21 43  1  0
M  END
>  <i_m_ct_stereo_status>  (133) 
1

>  <s_m_source_file>  (133) 
/var/tmp/pbs.5076255.sched01/tmpazi1eam_/42934yjxx2.sdf

>  <i_m_source_file_index>  (133) 
15

>  <i_lp_mmshare_version>  (133) 
48012

>  <i_f3d_flags>  (133) 
0

>  <s_epik_input>  (133) 
W0NIM11DMShbQ0gzXSlbQ0BASF0oW0NIMl1bQ0gyXTIpW0NIMl1DKD1PKU9bQ0BIXShbQ0gyXVtDSDJdMylbQ0BASF0yQyhbQ0BAXTEzNCk9W0NIXUMoPU8pT1tDSDJdNA==

>  <s_epik_cmdline>  (133) 
J2VwaWtfcHl0aG9uJywgJy1waHQnLCAnMi4wJywgJy1waCcsICc3LjAnLCAnLXRuJywgJzgnLCAnLW1hJywgJzIwMCcsICctaW1hZScsICc8aW5maWxlLm1hZT4nLCAnLW9tYWUnLCAnPG91dGZpbGUubWFlPic=

>  <r_lp_tautomer_probability>  (133) 
1

>  <r_epik_Ionization_Penalty>  (133) 
8.22753e-10

>  <r_epik_Ionization_Penalty_Charging>  (133) 
0

>  <r_epik_Ionization_Penalty_Neutral>  (133) 
8.22753e-10

>  <r_epik_State_Penalty>  (133) 
-0

>  <r_epik_Charging_Adjusted_Penalty>  (133) 
0

>  <i_epik_Tot_Q>  (133) 
0

>  <i_epik_Tot_abs_Q>  (133) 
0

>  <s_epik_Chemistry_Notes>  (133) 
This compound has an ester and may undergo hydrolysis at high or low pH.

>  <s_lp_Force_Field>  (133) 
OPLS3e

>  <r_lp_Energy>  (133) 
71.451

>  <b_lp_Chiralities_Consistent>  (133) 
1

>  <s_lp_Variant>  (133) 
38:0-1

>  <s_i_glide_gridfile>  (133) 
pfpi4k_grid

>  <i_i_glide_lignum>  (133) 
15

>  <i_i_glide_rotatable_bonds>  (133) 
0

>  <r_i_docking_score>  (133) 
-3.50808

>  <r_i_glide_ligand_efficiency>  (133) 
-0.167051

>  <r_i_glide_ligand_efficiency_sa>  (133) 
-0.460882

>  <r_i_glide_ligand_efficiency_ln>  (133) 
-0.867365

>  <r_i_glide_gscore>  (133) 
-3.50808

>  <r_i_glide_lipo>  (133) 
-0.843175

>  <r_i_glide_hbond>  (133) 
-0.0239725

>  <r_i_glide_metal>  (133) 
-0

>  <r_i_glide_rewards>  (133) 
-1.53186

>  <r_i_glide_evdw>  (133) 
-21.7726

>  <r_i_glide_ecoul>  (133) 
0.156292

>  <r_i_glide_erotb>  (133) 
0

>  <r_i_glide_esite>  (133) 
-0.0438847

>  <r_i_glide_emodel>  (133) 
-25.8576

>  <r_i_glide_energy>  (133) 
-21.6163

>  <r_i_glide_einternal>  (133) 
0

>  <r_i_glide_intrahb_reward>  (133) 
-0

>  <i_i_glide_confnum>  (133) 
1

>  <i_i_glide_posenum>  (133) 
9

>  <r_i_glide_eff_state_penalty>  (133) 
0

>  <ligand_id>  (133) 
38

>  <original_smiles>  (133) 
CC1(C)C2CCC3C4=CC(=O)OCC41CCC3OC(=O)C2

>  <smiles>  (133) 
[H]C1=C2C3([H])C([H])([H])C([H])([H])C4([H])C([H])([H])C(=O)OC3([H])C([H])([H])C([H])([H])C2(C([H])([H])OC1=O)C4(C([H])([H])[H])C([H])([H])[H]

$$$$
38:0:1
     RDKit          3D

 43 46  0  0  1  0  0  0  0  0999 V2000
    5.6685   -3.6681   -2.1460 C   0  0  0  0  0  0  0  0  0  0  0  0
    5.0723   -3.7074   -0.7245 C   0  0  0  0  0  0  0  0  0  0  0  0
    4.8450   -5.1895   -0.3794 C   0  0  0  0  0  0  0  0  0  0  0  0
    6.1921   -3.2628    0.2728 C   0  0  1  0  0  0  0  0  0  0  0  0
    6.8212   -1.8697    0.0763 C   0  0  0  0  0  0  0  0  0  0  0  0
    6.0543   -0.6561    0.6044 C   0  0  0  0  0  0  0  0  0  0  0  0
    4.5345   -0.7279    0.4619 C   0  0  1  0  0  0  0  0  0  0  0  0
    4.1040   -1.3912   -0.8598 C   0  0  0  0  0  0  0  0  0  0  0  0
    4.0594   -0.7121   -2.0053 C   0  0  0  0  0  0  0  0  0  0  0  0
    3.6316   -1.2487   -3.3116 C   0  0  0  0  0  0  0  0  0  0  0  0
    3.7209   -0.5901   -4.3332 O   0  0  0  0  0  0  0  0  0  0  0  0
    3.2886   -2.5608   -3.2599 O   0  0  0  0  0  0  0  0  0  0  0  0
    2.8700   -3.1538   -2.0481 C   0  0  0  0  0  0  0  0  0  0  0  0
    3.7369   -2.8671   -0.7809 C   0  0  1  0  0  0  0  0  0  0  0  0
    2.7787   -3.1306    0.4047 C   0  0  0  0  0  0  0  0  0  0  0  0
    2.5459   -1.9743    1.3956 C   0  0  0  0  0  0  0  0  0  0  0  0
    3.8370   -1.2392    1.7403 C   0  0  1  0  0  0  0  0  0  0  0  0
    4.7176   -1.9281    2.6368 O   0  0  0  0  0  0  0  0  0  0  0  0
    4.8861   -3.2467    2.5862 C   0  0  0  0  0  0  0  0  0  0  0  0
    4.2180   -4.0543    3.2284 O   0  0  0  0  0  0  0  0  0  0  0  0
    6.0721   -3.6903    1.7463 C   0  0  0  0  0  0  0  0  0  0  0  0
    6.6280   -4.0998   -2.1549 H   0  0  0  0  0  0  0  0  0  0  0  0
    5.8397   -2.6767   -2.5548 H   0  0  0  0  0  0  0  0  0  0  0  0
    5.0841   -4.2453   -2.8606 H   0  0  0  0  0  0  0  0  0  0  0  0
    4.4882   -5.4204    0.6215 H   0  0  0  0  0  0  0  0  0  0  0  0
    5.7336   -5.7918   -0.5363 H   0  0  0  0  0  0  0  0  0  0  0  0
    4.1240   -5.5626   -1.0599 H   0  0  0  0  0  0  0  0  0  0  0  0
    7.0360   -3.8879   -0.0237 H   0  0  0  0  0  0  0  0  0  0  0  0
    7.8098   -1.8479    0.5378 H   0  0  0  0  0  0  0  0  0  0  0  0
    7.0158   -1.7356   -0.9835 H   0  0  0  0  0  0  0  0  0  0  0  0
    6.3273   -0.4390    1.6428 H   0  0  0  0  0  0  0  0  0  0  0  0
    6.4143    0.2014    0.0535 H   0  0  0  0  0  0  0  0  0  0  0  0
    4.2011    0.3053    0.3627 H   0  0  0  0  0  0  0  0  0  0  0  0
    4.2810    0.3387   -2.0331 H   0  0  0  0  0  0  0  0  0  0  0  0
    1.8490   -2.8026   -1.9267 H   0  0  0  0  0  0  0  0  0  0  0  0
    2.7935   -4.2213   -2.2043 H   0  0  0  0  0  0  0  0  0  0  0  0
    1.8042   -3.3804    0.0053 H   0  0  0  0  0  0  0  0  0  0  0  0
    2.9926   -4.0351    0.9601 H   0  0  0  0  0  0  0  0  0  0  0  0
    1.8850   -1.2314    0.9450 H   0  0  0  0  0  0  0  0  0  0  0  0
    2.0341   -2.3233    2.2873 H   0  0  0  0  0  0  0  0  0  0  0  0
    3.5413   -0.3520    2.3073 H   0  0  0  0  0  0  0  0  0  0  0  0
    6.2010   -4.7715    1.8468 H   0  0  0  0  0  0  0  0  0  0  0  0
    6.9222   -3.2283    2.2099 H   0  0  0  0  0  0  0  0  0  0  0  0
  1  2  1  0
  1 22  1  0
  1 23  1  0
  1 24  1  0
 14  2  1  1
  2  3  1  0
  2  4  1  0
  3 25  1  0
  3 26  1  0
  3 27  1  0
  4 21  1  0
  4  5  1  0
  4 28  1  6
  5  6  1  0
  5 29  1  0
  5 30  1  0
  6  7  1  0
  6 31  1  0
  6 32  1  0
  7 17  1  0
  7  8  1  0
  7 33  1  6
  8 14  1  0
  8  9  2  0
  9 10  1  0
  9 34  1  0
 10 11  2  0
 10 12  1  0
 12 13  1  0
 13 14  1  0
 13 35  1  0
 13 36  1  0
 14 15  1  0
 15 16  1  0
 15 37  1  0
 15 38  1  0
 16 17  1  0
 16 39  1  0
 16 40  1  0
 17 18  1  0
 17 41  1  1
 18 19  1  0
 19 20  2  0
 19 21  1  0
 21 42  1  0
 21 43  1  0
M  END
>  <i_m_ct_stereo_status>  (134) 
1

>  <s_m_source_file>  (134) 
/var/tmp/pbs.5076255.sched01/tmpazi1eam_/42934yjxx2.sdf

>  <i_m_source_file_index>  (134) 
15

>  <i_lp_mmshare_version>  (134) 
48012

>  <i_f3d_flags>  (134) 
0

>  <s_epik_input>  (134) 
W0NIM11DMShbQ0gzXSlbQ0BASF0oW0NIMl1bQ0gyXTIpW0NIMl1DKD1PKU9bQ0BIXShbQ0gyXVtDSDJdMylbQ0BASF0yQyhbQ0BAXTEzNCk9W0NIXUMoPU8pT1tDSDJdNA==

>  <s_epik_cmdline>  (134) 
J2VwaWtfcHl0aG9uJywgJy1waHQnLCAnMi4wJywgJy1waCcsICc3LjAnLCAnLXRuJywgJzgnLCAnLW1hJywgJzIwMCcsICctaW1hZScsICc8aW5maWxlLm1hZT4nLCAnLW9tYWUnLCAnPG91dGZpbGUubWFlPic=

>  <r_lp_tautomer_probability>  (134) 
1

>  <r_epik_Ionization_Penalty>  (134) 
8.22753e-10

>  <r_epik_Ionization_Penalty_Charging>  (134) 
0

>  <r_epik_Ionization_Penalty_Neutral>  (134) 
8.22753e-10

>  <r_epik_State_Penalty>  (134) 
-0

>  <r_epik_Charging_Adjusted_Penalty>  (134) 
0

>  <i_epik_Tot_Q>  (134) 
0

>  <i_epik_Tot_abs_Q>  (134) 
0

>  <s_epik_Chemistry_Notes>  (134) 
This compound has an ester and may undergo hydrolysis at high or low pH.

>  <s_lp_Force_Field>  (134) 
OPLS3e

>  <r_lp_Energy>  (134) 
71.451

>  <b_lp_Chiralities_Consistent>  (134) 
1

>  <s_lp_Variant>  (134) 
38:0-1

>  <s_i_glide_gridfile>  (134) 
pfpi4k_grid

>  <i_i_glide_lignum>  (134) 
15

>  <i_i_glide_rotatable_bonds>  (134) 
0

>  <r_i_docking_score>  (134) 
-3.46448

>  <r_i_glide_ligand_efficiency>  (134) 
-0.164975

>  <r_i_glide_ligand_efficiency_sa>  (134) 
-0.455155

>  <r_i_glide_ligand_efficiency_ln>  (134) 
-0.856587

>  <r_i_glide_gscore>  (134) 
-3.46448

>  <r_i_glide_lipo>  (134) 
-0.532467

>  <r_i_glide_hbond>  (134) 
0

>  <r_i_glide_metal>  (134) 
-0

>  <r_i_glide_rewards>  (134) 
-1.64074

>  <r_i_glide_evdw>  (134) 
-17.4204

>  <r_i_glide_ecoul>  (134) 
-2.80174

>  <r_i_glide_erotb>  (134) 
0

>  <r_i_glide_esite>  (134) 
0

>  <r_i_glide_emodel>  (134) 
-23.5076

>  <r_i_glide_energy>  (134) 
-20.2221

>  <r_i_glide_einternal>  (134) 
0

>  <r_i_glide_intrahb_reward>  (134) 
-0

>  <i_i_glide_confnum>  (134) 
1

>  <i_i_glide_posenum>  (134) 
25

>  <r_i_glide_eff_state_penalty>  (134) 
0

>  <ligand_id>  (134) 
38

>  <original_smiles>  (134) 
CC1(C)C2CCC3C4=CC(=O)OCC41CCC3OC(=O)C2

>  <smiles>  (134) 
[H]C1=C2C3([H])C([H])([H])C([H])([H])C4([H])C([H])([H])C(=O)OC3([H])C([H])([H])C([H])([H])C2(C([H])([H])OC1=O)C4(C([H])([H])[H])C([H])([H])[H]

$$$$
38:0:2
     RDKit          3D

 43 46  0  0  1  0  0  0  0  0999 V2000
    5.4095   -0.8102    2.4629 C   0  0  0  0  0  0  0  0  0  0  0  0
    4.7493   -1.5129    1.2385 C   0  0  0  0  0  0  0  0  0  0  0  0
    3.8334   -0.4083    0.6483 C   0  0  0  0  0  0  0  0  0  0  0  0
    5.9235   -1.7876    0.1986 C   0  0  1  0  0  0  0  0  0  0  0  0
    7.0789   -2.7161    0.6551 C   0  0  0  0  0  0  0  0  0  0  0  0
    6.8873   -4.2384    0.6257 C   0  0  0  0  0  0  0  0  0  0  0  0
    5.4705   -4.7249    0.9599 C   0  0  1  0  0  0  0  0  0  0  0  0
    4.8458   -3.9357    2.1099 C   0  0  0  0  0  0  0  0  0  0  0  0
    5.1037   -4.2847    3.3868 C   0  0  0  0  0  0  0  0  0  0  0  0
    4.5978   -3.5301    4.5451 C   0  0  0  0  0  0  0  0  0  0  0  0
    4.9624   -3.7638    5.6931 O   0  0  0  0  0  0  0  0  0  0  0  0
    3.7729   -2.5056    4.2498 O   0  0  0  0  0  0  0  0  0  0  0  0
    3.0636   -2.4553    3.0194 C   0  0  0  0  0  0  0  0  0  0  0  0
    3.9044   -2.7799    1.7417 C   0  0  1  0  0  0  0  0  0  0  0  0
    2.8303   -3.2881    0.7130 C   0  0  0  0  0  0  0  0  0  0  0  0
    3.0772   -4.6836    0.1138 C   0  0  0  0  0  0  0  0  0  0  0  0
    4.5494   -4.9020   -0.2701 C   0  0  1  0  0  0  0  0  0  0  0  0
    5.0276   -4.2282   -1.4385 O   0  0  0  0  0  0  0  0  0  0  0  0
    4.6570   -2.9920   -1.7766 C   0  0  0  0  0  0  0  0  0  0  0  0
    3.6923   -2.7239   -2.4889 O   0  0  0  0  0  0  0  0  0  0  0  0
    5.6180   -1.9015   -1.3192 C   0  0  0  0  0  0  0  0  0  0  0  0
    6.0738    0.0003    2.1688 H   0  0  0  0  0  0  0  0  0  0  0  0
    5.9994   -1.4899    3.0726 H   0  0  0  0  0  0  0  0  0  0  0  0
    4.6719   -0.3498    3.1201 H   0  0  0  0  0  0  0  0  0  0  0  0
    3.4125   -0.6604   -0.3235 H   0  0  0  0  0  0  0  0  0  0  0  0
    4.3861    0.5204    0.4936 H   0  0  0  0  0  0  0  0  0  0  0  0
    2.9951   -0.1678    1.3011 H   0  0  0  0  0  0  0  0  0  0  0  0
    6.4400   -0.8265    0.1891 H   0  0  0  0  0  0  0  0  0  0  0  0
    7.9730   -2.4880    0.0717 H   0  0  0  0  0  0  0  0  0  0  0  0
    7.3431   -2.4573    1.6711 H   0  0  0  0  0  0  0  0  0  0  0  0
    7.2193   -4.6461   -0.3190 H   0  0  0  0  0  0  0  0  0  0  0  0
    7.5766   -4.6650    1.3570 H   0  0  0  0  0  0  0  0  0  0  0  0
    5.5962   -5.7370    1.3475 H   0  0  0  0  0  0  0  0  0  0  0  0
    5.7671   -5.1074    3.6093 H   0  0  0  0  0  0  0  0  0  0  0  0
    2.2596   -3.1820    3.1412 H   0  0  0  0  0  0  0  0  0  0  0  0
    2.5715   -1.4888    2.9306 H   0  0  0  0  0  0  0  0  0  0  0  0
    1.8429   -3.3386    1.1652 H   0  0  0  0  0  0  0  0  0  0  0  0
    2.6506   -2.5874   -0.0920 H   0  0  0  0  0  0  0  0  0  0  0  0
    2.8134   -5.4405    0.8577 H   0  0  0  0  0  0  0  0  0  0  0  0
    2.4116   -4.8583   -0.7282 H   0  0  0  0  0  0  0  0  0  0  0  0
    4.6287   -5.9486   -0.5616 H   0  0  0  0  0  0  0  0  0  0  0  0
    5.2254   -0.9481   -1.6756 H   0  0  0  0  0  0  0  0  0  0  0  0
    6.5523   -2.0547   -1.8601 H   0  0  0  0  0  0  0  0  0  0  0  0
  1  2  1  0
  1 22  1  0
  1 23  1  0
  1 24  1  0
 14  2  1  6
  2  3  1  0
  2  4  1  0
  3 25  1  0
  3 26  1  0
  3 27  1  0
  4 21  1  0
  4  5  1  0
  4 28  1  6
  5  6  1  0
  5 29  1  0
  5 30  1  0
  6  7  1  0
  6 31  1  0
  6 32  1  0
  7 17  1  0
  7  8  1  0
  7 33  1  1
  8 14  1  0
  8  9  2  0
  9 10  1  0
  9 34  1  0
 10 11  2  0
 10 12  1  0
 12 13  1  0
 13 14  1  0
 13 35  1  0
 13 36  1  0
 14 15  1  0
 15 16  1  0
 15 37  1  0
 15 38  1  0
 16 17  1  0
 16 39  1  0
 16 40  1  0
 17 18  1  0
 17 41  1  6
 18 19  1  0
 19 20  2  0
 19 21  1  0
 21 42  1  0
 21 43  1  0
M  END
>  <i_m_ct_stereo_status>  (135) 
1

>  <s_m_source_file>  (135) 
/var/tmp/pbs.5076255.sched01/tmpazi1eam_/42934yjxx2.sdf

>  <i_m_source_file_index>  (135) 
15

>  <i_lp_mmshare_version>  (135) 
48012

>  <i_f3d_flags>  (135) 
0

>  <s_epik_input>  (135) 
W0NIM11DMShbQ0gzXSlbQ0BASF0oW0NIMl1bQ0gyXTIpW0NIMl1DKD1PKU9bQ0BIXShbQ0gyXVtDSDJdMylbQ0BASF0yQyhbQ0BAXTEzNCk9W0NIXUMoPU8pT1tDSDJdNA==

>  <s_epik_cmdline>  (135) 
J2VwaWtfcHl0aG9uJywgJy1waHQnLCAnMi4wJywgJy1waCcsICc3LjAnLCAnLXRuJywgJzgnLCAnLW1hJywgJzIwMCcsICctaW1hZScsICc8aW5maWxlLm1hZT4nLCAnLW9tYWUnLCAnPG91dGZpbGUubWFlPic=

>  <r_lp_tautomer_probability>  (135) 
1

>  <r_epik_Ionization_Penalty>  (135) 
8.22753e-10

>  <r_epik_Ionization_Penalty_Charging>  (135) 
0

>  <r_epik_Ionization_Penalty_Neutral>  (135) 
8.22753e-10

>  <r_epik_State_Penalty>  (135) 
-0

>  <r_epik_Charging_Adjusted_Penalty>  (135) 
0

>  <i_epik_Tot_Q>  (135) 
0

>  <i_epik_Tot_abs_Q>  (135) 
0

>  <s_epik_Chemistry_Notes>  (135) 
This compound has an ester and may undergo hydrolysis at high or low pH.

>  <s_lp_Force_Field>  (135) 
OPLS3e

>  <r_lp_Energy>  (135) 
71.451

>  <b_lp_Chiralities_Consistent>  (135) 
1

>  <s_lp_Variant>  (135) 
38:0-1

>  <s_i_glide_gridfile>  (135) 
pfpi4k_grid

>  <i_i_glide_lignum>  (135) 
15

>  <i_i_glide_rotatable_bonds>  (135) 
0

>  <r_i_docking_score>  (135) 
-3.06267

>  <r_i_glide_ligand_efficiency>  (135) 
-0.145841

>  <r_i_glide_ligand_efficiency_sa>  (135) 
-0.402365

>  <r_i_glide_ligand_efficiency_ln>  (135) 
-0.757239

>  <r_i_glide_gscore>  (135) 
-3.06267

>  <r_i_glide_lipo>  (135) 
-0.53077

>  <r_i_glide_hbond>  (135) 
0

>  <r_i_glide_metal>  (135) 
-0

>  <r_i_glide_rewards>  (135) 
-1.44935

>  <r_i_glide_evdw>  (135) 
-21.4769

>  <r_i_glide_ecoul>  (135) 
-0.0580456

>  <r_i_glide_erotb>  (135) 
0

>  <r_i_glide_esite>  (135) 
0

>  <r_i_glide_emodel>  (135) 
-25.2122

>  <r_i_glide_energy>  (135) 
-21.5349

>  <r_i_glide_einternal>  (135) 
0

>  <r_i_glide_intrahb_reward>  (135) 
-0

>  <i_i_glide_confnum>  (135) 
1

>  <i_i_glide_posenum>  (135) 
1

>  <r_i_glide_eff_state_penalty>  (135) 
0

>  <ligand_id>  (135) 
38

>  <original_smiles>  (135) 
CC1(C)C2CCC3C4=CC(=O)OCC41CCC3OC(=O)C2

>  <smiles>  (135) 
[H]C1=C2C3([H])C([H])([H])C([H])([H])C4([H])C([H])([H])C(=O)OC3([H])C([H])([H])C([H])([H])C2(C([H])([H])OC1=O)C4(C([H])([H])[H])C([H])([H])[H]

$$$$
39:1:0
     RDKit          3D

 60 64  0  0  1  0  0  0  0  0999 V2000
    1.4704   -5.6665    0.2855 C   0  0  0  0  0  0  0  0  0  0  0  0
    2.5736   -6.0771    0.9179 C   0  0  0  0  0  0  0  0  0  0  0  0
    2.6180   -7.5108    1.4070 C   0  0  0  0  0  0  0  0  0  0  0  0
    3.8101   -5.1685    1.3105 C   0  0  2  0  0  0  0  0  0  0  0  0
    4.4058   -3.8900    0.5753 C   0  0  1  0  0  0  0  0  0  0  0  0
    5.9940   -3.3872    0.4773 C   0  0  2  0  0  0  0  0  0  0  0  0
    7.1030   -4.2532    1.1147 C   0  0  0  0  0  0  0  0  0  0  0  0
    6.5628   -5.5763    1.4260 N   0  0  0  0  0  0  0  0  0  0  0  0
    7.5040   -6.6959    1.5124 C   0  0  0  0  0  0  0  0  0  0  0  0
    7.0837   -7.8435    2.4607 C   0  0  0  0  0  0  0  0  0  0  0  0
    5.1165   -5.7610    1.6356 C   0  0  2  0  0  0  0  0  0  0  0  0
    5.0208   -5.6766   -0.1047 C   0  0  0  0  0  0  0  0  0  0  0  0
    4.1648   -4.4445   -0.7244 C   0  0  2  0  0  0  0  0  0  0  0  0
    4.4087   -3.4158   -1.8416 C   0  0  0  0  0  0  0  0  0  0  0  0
    5.0936   -3.6214   -2.8444 O   0  0  0  0  0  0  0  0  0  0  0  0
    3.5867   -2.1424   -1.6448 C   0  0  0  0  0  0  0  0  0  0  0  0
    3.9756   -1.1228   -0.5203 C   0  0  0  0  0  0  0  0  0  0  0  0
    4.5246   -1.5306    0.9061 C   0  0  2  0  0  0  0  0  0  0  0  0
    4.4243   -0.3994    1.7873 O   0  0  0  0  0  0  0  0  0  0  0  0
    3.1282   -0.1432    2.3324 C   0  0  0  0  0  0  0  0  0  0  0  0
    6.0181   -1.8809    0.7947 C   0  0  0  0  0  0  0  0  0  0  0  0
    3.9245   -2.8263    1.4961 C   0  0  2  0  0  0  0  0  0  0  0  0
    4.6277   -3.3385    2.8170 C   0  0  0  0  0  0  0  0  0  0  0  0
    5.1306   -4.6645    2.8855 C   0  0  0  0  0  0  0  0  0  0  0  0
    5.6370   -5.1920    4.2222 C   0  0  0  0  0  0  0  0  0  0  0  0
    5.6765   -4.2395    5.2721 O   0  0  0  0  0  0  0  0  0  0  0  0
    6.2513   -4.7654    6.4602 C   0  0  0  0  0  0  0  0  0  0  0  0
    0.6331   -6.3340    0.0807 H   0  0  0  0  0  0  0  0  0  0  0  0
    1.4161   -4.6407   -0.0495 H   0  0  0  0  0  0  0  0  0  0  0  0
    3.3838   -8.0901    0.8947 H   0  0  0  0  0  0  0  0  0  0  0  0
    1.6525   -8.0031    1.2343 H   0  0  0  0  0  0  0  0  0  0  0  0
    2.7996   -7.5250    2.4809 H   0  0  0  0  0  0  0  0  0  0  0  0
    3.1312   -4.9704    2.1525 H   0  0  0  0  0  0  0  0  0  0  0  0
    6.4072   -3.4143   -0.5278 H   0  0  0  0  0  0  0  0  0  0  0  0
    7.9309   -4.3690    0.4035 H   0  0  0  0  0  0  0  0  0  0  0  0
    7.5281   -3.7851    1.9927 H   0  0  0  0  0  0  0  0  0  0  0  0
    7.6465   -7.0935    0.5110 H   0  0  0  0  0  0  0  0  0  0  0  0
    8.4783   -6.3194    1.8203 H   0  0  0  0  0  0  0  0  0  0  0  0
    7.7604   -8.6870    2.3462 H   0  0  0  0  0  0  0  0  0  0  0  0
    6.0762   -8.2039    2.2506 H   0  0  0  0  0  0  0  0  0  0  0  0
    7.1353   -7.5999    3.5176 H   0  0  0  0  0  0  0  0  0  0  0  0
    5.9437   -5.7105   -0.6868 H   0  0  0  0  0  0  0  0  0  0  0  0
    4.5909   -6.6078   -0.4750 H   0  0  0  0  0  0  0  0  0  0  0  0
    3.1767   -4.7263   -0.9927 H   0  0  0  0  0  0  0  0  0  0  0  0
    3.5121   -1.6131   -2.5945 H   0  0  0  0  0  0  0  0  0  0  0  0
    2.5685   -2.4688   -1.4312 H   0  0  0  0  0  0  0  0  0  0  0  0
    4.6339   -0.3604   -0.9477 H   0  0  0  0  0  0  0  0  0  0  0  0
    3.0281   -0.6303   -0.3569 H   0  0  0  0  0  0  0  0  0  0  0  0
    3.1555    0.7465    2.9637 H   0  0  0  0  0  0  0  0  0  0  0  0
    2.7789   -0.9599    2.9709 H   0  0  0  0  0  0  0  0  0  0  0  0
    2.3629    0.0289    1.5739 H   0  0  0  0  0  0  0  0  0  0  0  0
    6.5389   -1.7077    1.7423 H   0  0  0  0  0  0  0  0  0  0  0  0
    6.5432   -1.2942    0.0305 H   0  0  0  0  0  0  0  0  0  0  0  0
    2.8453   -2.8126    1.5860 H   0  0  0  0  0  0  0  0  0  0  0  0
    4.6587   -2.6830    3.6694 H   0  0  0  0  0  0  0  0  0  0  0  0
    5.0065   -6.0345    4.5266 H   0  0  0  0  0  0  0  0  0  0  0  0
    6.6606   -5.5278    4.1116 H   0  0  0  0  0  0  0  0  0  0  0  0
    6.3283   -3.9802    7.2135 H   0  0  0  0  0  0  0  0  0  0  0  0
    7.2574   -5.1683    6.3072 H   0  0  0  0  0  0  0  0  0  0  0  0
    5.6304   -5.5650    6.8683 H   0  0  0  0  0  0  0  0  0  0  0  0
  1  2  2  0
  1 28  1  0
  1 29  1  0
  2  3  1  0
  2  4  1  0
  3 30  1  0
  3 31  1  0
  3 32  1  0
  4 11  1  0
  4  5  1  0
  4 33  1  1
  5 13  1  6
  5 22  1  0
  5  6  1  0
  6 21  1  0
  6  7  1  0
  6 34  1  6
  7  8  1  0
  7 35  1  0
  7 36  1  0
  8  9  1  0
 11  8  1  1
  9 10  1  0
  9 37  1  0
  9 38  1  0
 10 39  1  0
 10 40  1  0
 10 41  1  0
 11 24  1  0
 11 12  1  0
 12 13  1  0
 12 42  1  0
 12 43  1  0
 13 14  1  0
 13 44  1  1
 14 15  2  0
 14 16  1  0
 16 17  1  0
 16 45  1  0
 16 46  1  0
 17 18  1  0
 17 47  1  0
 17 48  1  0
 18 19  1  1
 18 21  1  0
 18 22  1  0
 19 20  1  0
 20 49  1  0
 20 50  1  0
 20 51  1  0
 21 52  1  0
 21 53  1  0
 22 23  1  0
 22 54  1  1
 23 24  2  0
 23 55  1  0
 24 25  1  0
 25 26  1  0
 25 56  1  0
 25 57  1  0
 26 27  1  0
 27 58  1  0
 27 59  1  0
 27 60  1  0
M  END
>  <i_m_ct_stereo_status>  (136) 
1

>  <s_m_source_file>  (136) 
/var/tmp/pbs.5076255.sched01/tmpazi1eam_/42934yjxx2.sdf

>  <i_m_source_file_index>  (136) 
17

>  <i_lp_mmshare_version>  (136) 
48012

>  <i_f3d_flags>  (136) 
0

>  <s_epik_input>  (136) 
W0NAQF0xMjNbQ0BASF00W0NIMl1OKFtDSDJdW0NIM10pQzUoW0NAQEhdMUMoPVtDSDJdKVtDSDNdKVtDSDJdW0NAQEhdMkMoPU8pW0NIMl1bQ0gyXVtDQEBdKFtDSDJdNCkoT1tDSDNdKVtDQEBIXTNbQ0hdPUM1W0NIMl1PW0NIM10=

>  <s_epik_cmdline>  (136) 
J2VwaWtfcHl0aG9uJywgJy1waHQnLCAnMi4wJywgJy1waCcsICc3LjAnLCAnLXRuJywgJzgnLCAnLW1hJywgJzIwMCcsICctaW1hZScsICc8aW5maWxlLm1hZT4nLCAnLW9tYWUnLCAnPG91dGZpbGUubWFlPic=

>  <r_lp_tautomer_probability>  (136) 
1

>  <r_epik_Ionization_Penalty>  (136) 
1.41082

>  <r_epik_Ionization_Penalty_Charging>  (136) 
0

>  <r_epik_Ionization_Penalty_Neutral>  (136) 
1.41082

>  <r_epik_State_Penalty>  (136) 
1.49377

>  <r_epik_Charging_Adjusted_Penalty>  (136) 
1.49377

>  <i_epik_Tot_Q>  (136) 
0

>  <i_epik_Tot_abs_Q>  (136) 
0

>  <s_lp_Force_Field>  (136) 
OPLS3e

>  <r_lp_Energy>  (136) 
326.142

>  <b_lp_Chiralities_Consistent>  (136) 
1

>  <s_lp_Variant>  (136) 
39:0-2

>  <s_i_glide_gridfile>  (136) 
pfpi4k_grid

>  <i_i_glide_lignum>  (136) 
17

>  <i_i_glide_rotatable_bonds>  (136) 
5

>  <r_i_docking_score>  (136) 
-2.40819

>  <r_i_glide_ligand_efficiency>  (136) 
-0.0891921

>  <r_i_glide_ligand_efficiency_sa>  (136) 
-0.267576

>  <r_i_glide_ligand_efficiency_ln>  (136) 
-0.560586

>  <r_i_glide_gscore>  (136) 
-2.40819

>  <r_i_glide_lipo>  (136) 
-0.507313

>  <r_i_glide_hbond>  (136) 
0

>  <r_i_glide_metal>  (136) 
-0

>  <r_i_glide_rewards>  (136) 
-0.876048

>  <r_i_glide_evdw>  (136) 
-21.0398

>  <r_i_glide_ecoul>  (136) 
-1.61352

>  <r_i_glide_erotb>  (136) 
0.279723

>  <r_i_glide_esite>  (136) 
-0.0105302

>  <r_i_glide_emodel>  (136) 
-20.6653

>  <r_i_glide_energy>  (136) 
-22.6533

>  <r_i_glide_einternal>  (136) 
8.39223

>  <r_i_glide_intrahb_reward>  (136) 
-0

>  <i_i_glide_confnum>  (136) 
2

>  <i_i_glide_posenum>  (136) 
9

>  <r_i_glide_eff_state_penalty>  (136) 
0

>  <ligand_id>  (136) 
39

>  <original_smiles>  (136) 
C=C(C)C1C23C4CN(CC)C15CC2C(=O)CCC(OC)(C4)C3C=C5COC

>  <smiles>  (136) 
[H]C([H])=C(C([H])([H])[H])C1([H])C23C(C([H])([H])OC([H])([H])[H])=C([H])C4([H])C5(OC([H])([H])[H])C([H])([H])C([H])([H])C(=O)C([H])(C2([H])[H])C14C([H])(C([H])([H])N3C([H])([H])C([H])([H])[H])C5([H])[H]

$$$$
39:1:1
     RDKit          3D

 60 64  0  0  1  0  0  0  0  0999 V2000
    1.3757   -4.4725   -0.9100 C   0  0  0  0  0  0  0  0  0  0  0  0
    1.8503   -5.0874    0.1958 C   0  0  0  0  0  0  0  0  0  0  0  0
    1.2162   -6.3978    0.6172 C   0  0  0  0  0  0  0  0  0  0  0  0
    2.9527   -4.5395    1.1567 C   0  0  2  0  0  0  0  0  0  0  0  0
    4.1015   -3.4515    0.9230 C   0  0  1  0  0  0  0  0  0  0  0  0
    5.6315   -3.3659    1.5994 C   0  0  2  0  0  0  0  0  0  0  0  0
    6.1008   -4.4723    2.5712 C   0  0  0  0  0  0  0  0  0  0  0  0
    5.2244   -5.6241    2.3944 N   0  0  0  0  0  0  0  0  0  0  0  0
    5.6668   -6.9237    2.8948 C   0  0  0  0  0  0  0  0  0  0  0  0
    6.3508   -7.6961    1.7583 C   0  0  0  0  0  0  0  0  0  0  0  0
    3.8182   -5.4473    1.9737 C   0  0  2  0  0  0  0  0  0  0  0  0
    4.5415   -5.3577    0.3878 C   0  0  0  0  0  0  0  0  0  0  0  0
    4.3247   -3.9684   -0.4207 C   0  0  2  0  0  0  0  0  0  0  0  0
    5.2718   -3.0408   -1.1885 C   0  0  0  0  0  0  0  0  0  0  0  0
    6.2923   -3.4226   -1.7754 O   0  0  0  0  0  0  0  0  0  0  0  0
    4.7980   -1.5812   -1.2249 C   0  0  0  0  0  0  0  0  0  0  0  0
    4.8804   -0.6778    0.0529 C   0  0  0  0  0  0  0  0  0  0  0  0
    4.6121   -1.2035    1.5207 C   0  0  2  0  0  0  0  0  0  0  0  0
    4.3649   -0.0819    2.3745 O   0  0  0  0  0  0  0  0  0  0  0  0
    3.0697    0.5214    2.3063 C   0  0  0  0  0  0  0  0  0  0  0  0
    5.8559   -1.9186    2.0527 C   0  0  0  0  0  0  0  0  0  0  0  0
    3.5191   -2.2903    1.6656 C   0  0  2  0  0  0  0  0  0  0  0  0
    3.4075   -2.9865    3.0961 C   0  0  0  0  0  0  0  0  0  0  0  0
    3.5098   -4.3858    3.2323 C   0  0  0  0  0  0  0  0  0  0  0  0
    3.2163   -5.0377    4.5951 C   0  0  0  0  0  0  0  0  0  0  0  0
    2.1464   -5.9679    4.5037 O   0  0  0  0  0  0  0  0  0  0  0  0
    1.8905   -6.6291    5.7357 C   0  0  0  0  0  0  0  0  0  0  0  0
    0.6164   -4.9279   -1.5111 H   0  0  0  0  0  0  0  0  0  0  0  0
    1.7586   -3.4968   -1.2103 H   0  0  0  0  0  0  0  0  0  0  0  0
    1.9404   -7.2093    0.5647 H   0  0  0  0  0  0  0  0  0  0  0  0
    0.3615   -6.6504   -0.0066 H   0  0  0  0  0  0  0  0  0  0  0  0
    0.8612   -6.3262    1.6431 H   0  0  0  0  0  0  0  0  0  0  0  0
    2.0456   -4.1623    1.6559 H   0  0  0  0  0  0  0  0  0  0  0  0
    6.4344   -3.5163    0.8881 H   0  0  0  0  0  0  0  0  0  0  0  0
    7.1159   -4.7876    2.3111 H   0  0  0  0  0  0  0  0  0  0  0  0
    6.1232   -4.1511    3.6140 H   0  0  0  0  0  0  0  0  0  0  0  0
    6.3617   -6.7721    3.7196 H   0  0  0  0  0  0  0  0  0  0  0  0
    4.8208   -7.4879    3.2855 H   0  0  0  0  0  0  0  0  0  0  0  0
    6.7567   -8.6481    2.1024 H   0  0  0  0  0  0  0  0  0  0  0  0
    7.1710   -7.1147    1.3298 H   0  0  0  0  0  0  0  0  0  0  0  0
    5.6383   -7.9050    0.9588 H   0  0  0  0  0  0  0  0  0  0  0  0
    5.5971   -5.6187    0.2380 H   0  0  0  0  0  0  0  0  0  0  0  0
    4.1080   -6.1579   -0.2007 H   0  0  0  0  0  0  0  0  0  0  0  0
    3.5133   -4.0260   -1.1146 H   0  0  0  0  0  0  0  0  0  0  0  0
    5.2960   -1.0862   -2.0474 H   0  0  0  0  0  0  0  0  0  0  0  0
    3.7532   -1.6409   -1.5146 H   0  0  0  0  0  0  0  0  0  0  0  0
    5.8435   -0.1633    0.0556 H   0  0  0  0  0  0  0  0  0  0  0  0
    4.1672    0.1168   -0.1605 H   0  0  0  0  0  0  0  0  0  0  0  0
    3.0246    1.3844    2.9715 H   0  0  0  0  0  0  0  0  0  0  0  0
    2.2953   -0.1710    2.6319 H   0  0  0  0  0  0  0  0  0  0  0  0
    2.8209    0.8646    1.3041 H   0  0  0  0  0  0  0  0  0  0  0  0
    5.8970   -1.8636    3.1399 H   0  0  0  0  0  0  0  0  0  0  0  0
    6.7812   -1.4975    1.6619 H   0  0  0  0  0  0  0  0  0  0  0  0
    2.5452   -1.9996    1.2669 H   0  0  0  0  0  0  0  0  0  0  0  0
    3.1944   -2.3532    3.9445 H   0  0  0  0  0  0  0  0  0  0  0  0
    4.1155   -5.5265    4.9673 H   0  0  0  0  0  0  0  0  0  0  0  0
    2.9494   -4.2583    5.3040 H   0  0  0  0  0  0  0  0  0  0  0  0
    1.0711   -7.3396    5.6216 H   0  0  0  0  0  0  0  0  0  0  0  0
    1.6086   -5.9275    6.5240 H   0  0  0  0  0  0  0  0  0  0  0  0
    2.7632   -7.1899    6.0755 H   0  0  0  0  0  0  0  0  0  0  0  0
  1  2  2  0
  1 28  1  0
  1 29  1  0
  2  3  1  0
  2  4  1  0
  3 30  1  0
  3 31  1  0
  3 32  1  0
  4 11  1  0
  4  5  1  0
  4 33  1  1
  5 13  1  6
  5 22  1  0
  5  6  1  0
  6 21  1  0
  6  7  1  0
  6 34  1  6
  7  8  1  0
  7 35  1  0
  7 36  1  0
  8  9  1  0
 11  8  1  6
  9 10  1  0
  9 37  1  0
  9 38  1  0
 10 39  1  0
 10 40  1  0
 10 41  1  0
 11 24  1  0
 11 12  1  0
 12 13  1  0
 12 42  1  0
 12 43  1  0
 13 14  1  0
 13 44  1  6
 14 15  2  0
 14 16  1  0
 16 17  1  0
 16 45  1  0
 16 46  1  0
 17 18  1  0
 17 47  1  0
 17 48  1  0
 18 19  1  1
 18 21  1  0
 18 22  1  0
 19 20  1  0
 20 49  1  0
 20 50  1  0
 20 51  1  0
 21 52  1  0
 21 53  1  0
 22 23  1  0
 22 54  1  6
 23 24  2  0
 23 55  1  0
 24 25  1  0
 25 26  1  0
 25 56  1  0
 25 57  1  0
 26 27  1  0
 27 58  1  0
 27 59  1  0
 27 60  1  0
M  END
>  <i_m_ct_stereo_status>  (137) 
1

>  <s_m_source_file>  (137) 
/var/tmp/pbs.5076255.sched01/tmpazi1eam_/42934yjxx2.sdf

>  <i_m_source_file_index>  (137) 
17

>  <i_lp_mmshare_version>  (137) 
48012

>  <i_f3d_flags>  (137) 
0

>  <s_epik_input>  (137) 
W0NAQF0xMjNbQ0BASF00W0NIMl1OKFtDSDJdW0NIM10pQzUoW0NAQEhdMUMoPVtDSDJdKVtDSDNdKVtDSDJdW0NAQEhdMkMoPU8pW0NIMl1bQ0gyXVtDQEBdKFtDSDJdNCkoT1tDSDNdKVtDQEBIXTNbQ0hdPUM1W0NIMl1PW0NIM10=

>  <s_epik_cmdline>  (137) 
J2VwaWtfcHl0aG9uJywgJy1waHQnLCAnMi4wJywgJy1waCcsICc3LjAnLCAnLXRuJywgJzgnLCAnLW1hJywgJzIwMCcsICctaW1hZScsICc8aW5maWxlLm1hZT4nLCAnLW9tYWUnLCAnPG91dGZpbGUubWFlPic=

>  <r_lp_tautomer_probability>  (137) 
1

>  <r_epik_Ionization_Penalty>  (137) 
1.41082

>  <r_epik_Ionization_Penalty_Charging>  (137) 
0

>  <r_epik_Ionization_Penalty_Neutral>  (137) 
1.41082

>  <r_epik_State_Penalty>  (137) 
1.49377

>  <r_epik_Charging_Adjusted_Penalty>  (137) 
1.49377

>  <i_epik_Tot_Q>  (137) 
0

>  <i_epik_Tot_abs_Q>  (137) 
0

>  <s_lp_Force_Field>  (137) 
OPLS3e

>  <r_lp_Energy>  (137) 
326.142

>  <b_lp_Chiralities_Consistent>  (137) 
1

>  <s_lp_Variant>  (137) 
39:0-2

>  <s_i_glide_gridfile>  (137) 
pfpi4k_grid

>  <i_i_glide_lignum>  (137) 
17

>  <i_i_glide_rotatable_bonds>  (137) 
5

>  <r_i_docking_score>  (137) 
-2.35582

>  <r_i_glide_ligand_efficiency>  (137) 
-0.0872524

>  <r_i_glide_ligand_efficiency_sa>  (137) 
-0.261757

>  <r_i_glide_ligand_efficiency_ln>  (137) 
-0.548395

>  <r_i_glide_gscore>  (137) 
-2.35582

>  <r_i_glide_lipo>  (137) 
-0.531271

>  <r_i_glide_hbond>  (137) 
0

>  <r_i_glide_metal>  (137) 
-0

>  <r_i_glide_rewards>  (137) 
-0.926726

>  <r_i_glide_evdw>  (137) 
-19.3508

>  <r_i_glide_ecoul>  (137) 
-1.40001

>  <r_i_glide_erotb>  (137) 
0.279723

>  <r_i_glide_esite>  (137) 
0

>  <r_i_glide_emodel>  (137) 
-17.9944

>  <r_i_glide_energy>  (137) 
-20.7508

>  <r_i_glide_einternal>  (137) 
8.92522

>  <r_i_glide_intrahb_reward>  (137) 
-0

>  <i_i_glide_confnum>  (137) 
2

>  <i_i_glide_posenum>  (137) 
37

>  <r_i_glide_eff_state_penalty>  (137) 
0

>  <ligand_id>  (137) 
39

>  <original_smiles>  (137) 
C=C(C)C1C23C4CN(CC)C15CC2C(=O)CCC(OC)(C4)C3C=C5COC

>  <smiles>  (137) 
[H]C([H])=C(C([H])([H])[H])C1([H])C23C(C([H])([H])OC([H])([H])[H])=C([H])C4([H])C5(OC([H])([H])[H])C([H])([H])C([H])([H])C(=O)C([H])(C2([H])[H])C14C([H])(C([H])([H])N3C([H])([H])C([H])([H])[H])C5([H])[H]

$$$$
39:1:2
     RDKit          3D

 60 64  0  0  1  0  0  0  0  0999 V2000
    1.3374   -5.4819   -0.0734 C   0  0  0  0  0  0  0  0  0  0  0  0
    2.2893   -5.9811    0.7285 C   0  0  0  0  0  0  0  0  0  0  0  0
    2.0753   -7.3843    1.2805 C   0  0  0  0  0  0  0  0  0  0  0  0
    3.5678   -5.2378    1.2386 C   0  0  2  0  0  0  0  0  0  0  0  0
    4.3807   -4.0120    0.6075 C   0  0  1  0  0  0  0  0  0  0  0  0
    6.0135   -3.6865    0.6733 C   0  0  2  0  0  0  0  0  0  0  0  0
    6.9568   -4.6858    1.3763 C   0  0  0  0  0  0  0  0  0  0  0  0
    6.2520   -5.9383    1.6301 N   0  0  0  0  0  0  0  0  0  0  0  0
    7.0525   -7.1577    1.7844 C   0  0  0  0  0  0  0  0  0  0  0  0
    6.4651   -8.1948    2.7571 C   0  0  0  0  0  0  0  0  0  0  0  0
    4.7770   -5.9921    1.6726 C   0  0  2  0  0  0  0  0  0  0  0  0
    4.8703   -5.8580   -0.0612 C   0  0  0  0  0  0  0  0  0  0  0  0
    4.2040   -4.5278   -0.7236 C   0  0  2  0  0  0  0  0  0  0  0  0
    4.6635   -3.5059   -1.7792 C   0  0  0  0  0  0  0  0  0  0  0  0
    5.4227   -3.7542   -2.7167 O   0  0  0  0  0  0  0  0  0  0  0  0
    3.9615   -2.1456   -1.6252 C   0  0  0  0  0  0  0  0  0  0  0  0
    4.3543   -1.1952   -0.4480 C   0  0  0  0  0  0  0  0  0  0  0  0
    4.7252   -1.6905    1.0078 C   0  0  2  0  0  0  0  0  0  0  0  0
    4.6553   -0.5764    1.9101 O   0  0  0  0  0  0  0  0  0  0  0  0
    3.3454   -0.1986    2.3443 C   0  0  0  0  0  0  0  0  0  0  0  0
    6.1695   -2.2030    1.0325 C   0  0  0  0  0  0  0  0  0  0  0  0
    3.9375   -2.9164    1.5142 C   0  0  2  0  0  0  0  0  0  0  0  0
    4.4532   -3.5649    2.8834 C   0  0  0  0  0  0  0  0  0  0  0  0
    4.7842   -4.9150    2.9519 C   0  0  0  0  0  0  0  0  0  0  0  0
    5.0992   -5.5260    4.3328 C   0  0  0  0  0  0  0  0  0  0  0  0
    4.2415   -6.6253    4.6151 O   0  0  0  0  0  0  0  0  0  0  0  0
    4.4921   -7.2281    5.8815 C   0  0  0  0  0  0  0  0  0  0  0  0
    0.4719   -6.0666   -0.3511 H   0  0  0  0  0  0  0  0  0  0  0  0
    1.4112   -4.4613   -0.4531 H   0  0  0  0  0  0  0  0  0  0  0  0
    2.8261   -8.0848    0.9074 H   0  0  0  0  0  0  0  0  0  0  0  0
    1.0957   -7.7653    0.9835 H   0  0  0  0  0  0  0  0  0  0  0  0
    2.1026   -7.3680    2.3678 H   0  0  0  0  0  0  0  0  0  0  0  0
    2.8442   -4.9703    2.0259 H   0  0  0  0  0  0  0  0  0  0  0  0
    6.5171   -3.7416   -0.2840 H   0  0  0  0  0  0  0  0  0  0  0  0
    7.8276   -4.8887    0.7477 H   0  0  0  0  0  0  0  0  0  0  0  0
    7.3469   -4.2753    2.2948 H   0  0  0  0  0  0  0  0  0  0  0  0
    7.1659   -7.6231    0.8114 H   0  0  0  0  0  0  0  0  0  0  0  0
    8.0590   -6.8874    2.1075 H   0  0  0  0  0  0  0  0  0  0  0  0
    7.0436   -9.1172    2.7194 H   0  0  0  0  0  0  0  0  0  0  0  0
    5.4289   -8.4450    2.5201 H   0  0  0  0  0  0  0  0  0  0  0  0
    6.5116   -7.8681    3.7933 H   0  0  0  0  0  0  0  0  0  0  0  0
    5.8479   -5.9761   -0.5328 H   0  0  0  0  0  0  0  0  0  0  0  0
    4.3817   -6.7275   -0.4845 H   0  0  0  0  0  0  0  0  0  0  0  0
    3.2282   -4.6912   -1.0953 H   0  0  0  0  0  0  0  0  0  0  0  0
    4.0472   -1.6110   -2.5641 H   0  0  0  0  0  0  0  0  0  0  0  0
    2.8985   -2.3641   -1.5238 H   0  0  0  0  0  0  0  0  0  0  0  0
    5.1379   -0.5189   -0.7968 H   0  0  0  0  0  0  0  0  0  0  0  0
    3.4776   -0.5601   -0.3629 H   0  0  0  0  0  0  0  0  0  0  0  0
    3.4003    0.6764    2.9906 H   0  0  0  0  0  0  0  0  0  0  0  0
    2.8665   -0.9842    2.9295 H   0  0  0  0  0  0  0  0  0  0  0  0
    2.6763    0.0495    1.5201 H   0  0  0  0  0  0  0  0  0  0  0  0
    6.5890   -2.0985    2.0343 H   0  0  0  0  0  0  0  0  0  0  0  0
    6.8322   -1.6676    0.3444 H   0  0  0  0  0  0  0  0  0  0  0  0
    2.8581   -2.7889    1.5015 H   0  0  0  0  0  0  0  0  0  0  0  0
    4.4705   -2.9333    3.7569 H   0  0  0  0  0  0  0  0  0  0  0  0
    6.1481   -5.8114    4.3780 H   0  0  0  0  0  0  0  0  0  0  0  0
    4.9737   -4.7657    5.1011 H   0  0  0  0  0  0  0  0  0  0  0  0
    3.8012   -8.0556    6.0551 H   0  0  0  0  0  0  0  0  0  0  0  0
    4.3629   -6.5178    6.6998 H   0  0  0  0  0  0  0  0  0  0  0  0
    5.5027   -7.6343    5.9420 H   0  0  0  0  0  0  0  0  0  0  0  0
  1  2  2  0
  1 28  1  0
  1 29  1  0
  2  3  1  0
  2  4  1  0
  3 30  1  0
  3 31  1  0
  3 32  1  0
  4 11  1  0
  4  5  1  0
  4 33  1  1
  5 13  1  6
  5 22  1  0
  5  6  1  0
  6 21  1  0
  6  7  1  0
  6 34  1  6
  7  8  1  0
  7 35  1  0
  7 36  1  0
  8  9  1  0
 11  8  1  6
  9 10  1  0
  9 37  1  0
  9 38  1  0
 10 39  1  0
 10 40  1  0
 10 41  1  0
 11 24  1  0
 11 12  1  0
 12 13  1  0
 12 42  1  0
 12 43  1  0
 13 14  1  0
 13 44  1  6
 14 15  2  0
 14 16  1  0
 16 17  1  0
 16 45  1  0
 16 46  1  0
 17 18  1  0
 17 47  1  0
 17 48  1  0
 18 19  1  1
 18 21  1  0
 18 22  1  0
 19 20  1  0
 20 49  1  0
 20 50  1  0
 20 51  1  0
 21 52  1  0
 21 53  1  0
 22 23  1  0
 22 54  1  1
 23 24  2  0
 23 55  1  0
 24 25  1  0
 25 26  1  0
 25 56  1  0
 25 57  1  0
 26 27  1  0
 27 58  1  0
 27 59  1  0
 27 60  1  0
M  END
>  <i_m_ct_stereo_status>  (138) 
1

>  <s_m_source_file>  (138) 
/var/tmp/pbs.5076255.sched01/tmpazi1eam_/42934yjxx2.sdf

>  <i_m_source_file_index>  (138) 
17

>  <i_lp_mmshare_version>  (138) 
48012

>  <i_f3d_flags>  (138) 
0

>  <s_epik_input>  (138) 
W0NAQF0xMjNbQ0BASF00W0NIMl1OKFtDSDJdW0NIM10pQzUoW0NAQEhdMUMoPVtDSDJdKVtDSDNdKVtDSDJdW0NAQEhdMkMoPU8pW0NIMl1bQ0gyXVtDQEBdKFtDSDJdNCkoT1tDSDNdKVtDQEBIXTNbQ0hdPUM1W0NIMl1PW0NIM10=

>  <s_epik_cmdline>  (138) 
J2VwaWtfcHl0aG9uJywgJy1waHQnLCAnMi4wJywgJy1waCcsICc3LjAnLCAnLXRuJywgJzgnLCAnLW1hJywgJzIwMCcsICctaW1hZScsICc8aW5maWxlLm1hZT4nLCAnLW9tYWUnLCAnPG91dGZpbGUubWFlPic=

>  <r_lp_tautomer_probability>  (138) 
1

>  <r_epik_Ionization_Penalty>  (138) 
1.41082

>  <r_epik_Ionization_Penalty_Charging>  (138) 
0

>  <r_epik_Ionization_Penalty_Neutral>  (138) 
1.41082

>  <r_epik_State_Penalty>  (138) 
1.49377

>  <r_epik_Charging_Adjusted_Penalty>  (138) 
1.49377

>  <i_epik_Tot_Q>  (138) 
0

>  <i_epik_Tot_abs_Q>  (138) 
0

>  <s_lp_Force_Field>  (138) 
OPLS3e

>  <r_lp_Energy>  (138) 
326.142

>  <b_lp_Chiralities_Consistent>  (138) 
1

>  <s_lp_Variant>  (138) 
39:0-2

>  <s_i_glide_gridfile>  (138) 
pfpi4k_grid

>  <i_i_glide_lignum>  (138) 
17

>  <i_i_glide_rotatable_bonds>  (138) 
5

>  <r_i_docking_score>  (138) 
-2.2927

>  <r_i_glide_ligand_efficiency>  (138) 
-0.0849148

>  <r_i_glide_ligand_efficiency_sa>  (138) 
-0.254744

>  <r_i_glide_ligand_efficiency_ln>  (138) 
-0.533702

>  <r_i_glide_gscore>  (138) 
-2.2927

>  <r_i_glide_lipo>  (138) 
-0.557885

>  <r_i_glide_hbond>  (138) 
0

>  <r_i_glide_metal>  (138) 
-0

>  <r_i_glide_rewards>  (138) 
-0.876048

>  <r_i_glide_evdw>  (138) 
-19.0737

>  <r_i_glide_ecoul>  (138) 
-1.22359

>  <r_i_glide_erotb>  (138) 
0.279723

>  <r_i_glide_esite>  (138) 
-0.0012666

>  <r_i_glide_emodel>  (138) 
-17.9702

>  <r_i_glide_energy>  (138) 
-20.2973

>  <r_i_glide_einternal>  (138) 
8.5705

>  <r_i_glide_intrahb_reward>  (138) 
-0

>  <i_i_glide_confnum>  (138) 
2

>  <i_i_glide_posenum>  (138) 
23

>  <r_i_glide_eff_state_penalty>  (138) 
0

>  <ligand_id>  (138) 
39

>  <original_smiles>  (138) 
C=C(C)C1C23C4CN(CC)C15CC2C(=O)CCC(OC)(C4)C3C=C5COC

>  <smiles>  (138) 
[H]C([H])=C(C([H])([H])[H])C1([H])C23C(C([H])([H])OC([H])([H])[H])=C([H])C4([H])C5(OC([H])([H])[H])C([H])([H])C([H])([H])C(=O)C([H])(C2([H])[H])C14C([H])(C([H])([H])N3C([H])([H])C([H])([H])[H])C5([H])[H]

$$$$
40:0:0
     RDKit          3D

 39 43  0  0  1  0  0  0  0  0999 V2000
   -1.8970   -1.0849    5.4128 O   0  0  0  0  0  0  0  0  0  0  0  0
   -1.7743    0.1153    5.7467 C   0  0  0  0  0  0  0  0  0  0  0  0
   -2.1793    0.5579    6.8415 O   0  0  0  0  0  0  0  0  0  0  0  0
   -1.0468    1.0811    4.7936 C   0  0  2  0  0  0  0  0  0  0  0  0
   -0.8051    0.5098    3.3900 C   0  0  0  0  0  0  0  0  0  0  0  0
   -0.2911    1.7547    2.6580 C   0  0  2  0  0  0  0  0  0  0  0  0
    1.1818    1.9201    3.0611 C   0  0  0  0  0  0  0  0  0  0  0  0
    1.0253    2.5792    4.4341 C   0  0  2  0  0  0  0  0  0  0  0  0
    0.3117    1.5789    5.4057 C   0  0  0  0  0  0  0  0  0  0  0  0
    0.0573    3.7280    4.0977 C   0  0  1  0  0  0  0  0  0  0  0  0
    0.6271    4.8112    3.2921 N   0  0  0  0  0  0  0  0  0  0  0  0
    1.6217    5.6293    3.8546 C   0  0  0  0  0  0  0  0  0  0  0  0
    2.7884    5.7362    3.1775 N   0  0  0  0  0  0  0  0  0  0  0  0
    3.7553    6.5497    3.6845 C   0  0  0  0  0  0  0  0  0  0  0  0
    3.7151    7.3008    4.8149 N   0  0  0  0  0  0  0  0  0  0  0  0
    2.5420    7.1547    5.4357 N   0  0  0  0  0  0  0  0  0  0  0  0
    2.1539    7.7834    6.6043 C   0  0  0  0  0  0  0  0  0  0  0  0
    0.8650    7.3838    6.9181 C   0  0  0  0  0  0  0  0  0  0  0  0
    0.3574    6.4691    5.9295 C   0  0  0  0  0  0  0  0  0  0  0  0
    1.4696    6.3711    5.0598 C   0  0  0  0  0  0  0  0  0  0  0  0
   -1.0344    2.9510    3.3429 C   0  0  2  0  0  0  0  0  0  0  0  0
   -1.9125    2.2906    4.4178 C   0  0  0  0  0  0  0  0  0  0  0  0
   -0.1069   -0.3307    3.3758 H   0  0  0  0  0  0  0  0  0  0  0  0
   -1.7402    0.1651    2.9466 H   0  0  0  0  0  0  0  0  0  0  0  0
   -0.4277    1.7032    1.5788 H   0  0  0  0  0  0  0  0  0  0  0  0
    1.7324    0.9797    3.1017 H   0  0  0  0  0  0  0  0  0  0  0  0
    1.7061    2.5754    2.3670 H   0  0  0  0  0  0  0  0  0  0  0  0
    1.9695    2.9233    4.8492 H   0  0  0  0  0  0  0  0  0  0  0  0
    0.1284    2.0552    6.3682 H   0  0  0  0  0  0  0  0  0  0  0  0
    0.9581    0.7255    5.6044 H   0  0  0  0  0  0  0  0  0  0  0  0
   -0.3416    4.1460    5.0122 H   0  0  0  0  0  0  0  0  0  0  0  0
    4.6765    6.6098    3.1201 H   0  0  0  0  0  0  0  0  0  0  0  0
    2.8494    8.4482    7.0858 H   0  0  0  0  0  0  0  0  0  0  0  0
    0.3279    7.7223    7.7934 H   0  0  0  0  0  0  0  0  0  0  0  0
   -0.5786    5.9508    5.7969 H   0  0  0  0  0  0  0  0  0  0  0  0
   -1.6117    3.5741    2.6610 H   0  0  0  0  0  0  0  0  0  0  0  0
   -2.8626    1.9719    3.9886 H   0  0  0  0  0  0  0  0  0  0  0  0
   -2.1464    2.9343    5.2685 H   0  0  0  0  0  0  0  0  0  0  0  0
    0.6281    4.6150    2.2802 H   0  0  0  0  0  0  0  0  0  0  0  0
  1  2  2  0
  2  3  1  0
  4  2  1  1
  4  9  1  0
  4 22  1  0
  4  5  1  0
  5  6  1  0
  5 23  1  0
  5 24  1  0
  6 21  1  0
  6  7  1  0
  6 25  1  6
  7  8  1  0
  7 26  1  0
  7 27  1  0
  8  9  1  0
  8 10  1  0
  8 28  1  1
  9 29  1  0
  9 30  1  0
 10 11  1  0
 10 21  1  0
 10 31  1  1
 11 12  1  0
 11 39  1  0
 12 20  1  0
 12 13  2  0
 13 14  1  0
 14 15  2  0
 14 32  1  0
 15 16  1  0
 16 20  1  0
 16 17  1  0
 17 18  2  0
 17 33  1  0
 18 19  1  0
 18 34  1  0
 19 20  2  0
 19 35  1  0
 21 22  1  0
 21 36  1  6
 22 37  1  0
 22 38  1  0
M  CHG  1   3  -1
M  END
>  <i_m_ct_stereo_status>  (139) 
1

>  <s_m_source_file>  (139) 
/var/tmp/pbs.5076255.sched01/tmpazi1eam_/42934yjxx2.sdf

>  <i_m_source_file_index>  (139) 
18

>  <i_lp_mmshare_version>  (139) 
48012

>  <i_f3d_flags>  (139) 
0

>  <s_epik_input>  (139) 
Tz1DKFtPSF0pW0NAXTEyW0NIMl1bQ0BIXTNbQ0BASF0oW0NIMl0yKVtDQEBIXShbQ0BIXShbQ0gyXTMpW0NIMl0xKS9OPWMoXFtuSF1bY0hdbjQpYyhuNDUpW2NIXVtjSF1bY0hdNQ==

>  <s_epik_cmdline>  (139) 
J2VwaWtfcHl0aG9uJywgJy1waHQnLCAnMi4wJywgJy1waCcsICc3LjAnLCAnLXRuJywgJzgnLCAnLW1hJywgJzIwMCcsICctaW1hZScsICc8aW5maWxlLm1hZT4nLCAnLW9tYWUnLCAnPG91dGZpbGUubWFlPic=

>  <r_epik_Ionization_Penalty>  (139) 
0.0676944

>  <r_epik_Ionization_Penalty_Charging>  (139) 
0.0103092

>  <r_epik_Ionization_Penalty_Neutral>  (139) 
0.0573852

>  <r_epik_State_Penalty>  (139) 
0.0555949

>  <r_epik_Charging_Adjusted_Penalty>  (139) 
0.0659041

>  <i_epik_Tot_Q>  (139) 
-1

>  <i_epik_Tot_abs_Q>  (139) 
1

>  <s_lp_Force_Field>  (139) 
OPLS3e

>  <r_lp_Energy>  (139) 
56.5516

>  <b_lp_Chiralities_Consistent>  (139) 
1

>  <s_lp_Variant>  (139) 
40:0-1

>  <s_i_glide_gridfile>  (139) 
pfpi4k_grid

>  <i_i_glide_lignum>  (139) 
18

>  <i_i_glide_rotatable_bonds>  (139) 
3

>  <r_i_docking_score>  (139) 
-4.00398

>  <r_i_glide_ligand_efficiency>  (139) 
-0.181999

>  <r_i_glide_ligand_efficiency_sa>  (139) 
-0.509969

>  <r_i_glide_ligand_efficiency_ln>  (139) 
-0.97872

>  <r_i_glide_gscore>  (139) 
-4.00398

>  <r_i_glide_lipo>  (139) 
-0.00887122

>  <r_i_glide_hbond>  (139) 
-0.36

>  <r_i_glide_metal>  (139) 
-0

>  <r_i_glide_rewards>  (139) 
-1.50733

>  <r_i_glide_evdw>  (139) 
-19.8122

>  <r_i_glide_ecoul>  (139) 
-9.15658

>  <r_i_glide_erotb>  (139) 
0.414764

>  <r_i_glide_esite>  (139) 
-0.178448

>  <r_i_glide_emodel>  (139) 
-38.5065

>  <r_i_glide_energy>  (139) 
-28.9688

>  <r_i_glide_einternal>  (139) 
4.07667

>  <r_i_glide_intrahb_reward>  (139) 
-0

>  <i_i_glide_confnum>  (139) 
3

>  <i_i_glide_posenum>  (139) 
21

>  <r_i_glide_eff_state_penalty>  (139) 
0

>  <ligand_id>  (139) 
40

>  <original_smiles>  (139) 
O=C(O)C12CC3CC(C1)C(N=c1[nH]cnn4cccc14)C3C2

>  <smiles>  (139) 
[H]c1nc(N([H])C2([H])C3([H])C([H])([H])C4([H])C([H])([H])C(C(=O)[O-])(C3([H])[H])C([H])([H])C24[H])c2c([H])c([H])c([H])n2n1

$$$$
40:0:1
     RDKit          3D

 39 43  0  0  1  0  0  0  0  0999 V2000
   -1.6580    2.3279    6.1582 O   0  0  0  0  0  0  0  0  0  0  0  0
   -1.3357    1.1471    5.9099 C   0  0  0  0  0  0  0  0  0  0  0  0
   -1.8423    0.1407    6.4686 O   0  0  0  0  0  0  0  0  0  0  0  0
   -0.2544    0.9244    4.8341 C   0  0  2  0  0  0  0  0  0  0  0  0
    0.8486    1.9968    4.8443 C   0  0  0  0  0  0  0  0  0  0  0  0
    1.8341    1.3805    3.8345 C   0  0  2  0  0  0  0  0  0  0  0  0
    1.2724    1.6713    2.4375 C   0  0  0  0  0  0  0  0  0  0  0  0
    0.2173    0.5727    2.3308 C   0  0  2  0  0  0  0  0  0  0  0  0
   -0.8905    0.8330    3.4125 C   0  0  0  0  0  0  0  0  0  0  0  0
    1.0406   -0.6787    2.7079 C   0  0  1  0  0  0  0  0  0  0  0  0
    2.0138   -1.0583    1.6818 N   0  0  0  0  0  0  0  0  0  0  0  0
    2.7378   -2.2689    1.7437 C   0  0  0  0  0  0  0  0  0  0  0  0
    2.8000   -2.9062    2.9378 N   0  0  0  0  0  0  0  0  0  0  0  0
    3.5377   -4.0481    3.0169 C   0  0  0  0  0  0  0  0  0  0  0  0
    4.2248   -4.6776    2.0317 N   0  0  0  0  0  0  0  0  0  0  0  0
    4.1074   -4.0133    0.8852 N   0  0  0  0  0  0  0  0  0  0  0  0
    4.6647   -4.3714   -0.3211 C   0  0  0  0  0  0  0  0  0  0  0  0
    4.3158   -3.4258   -1.2754 C   0  0  0  0  0  0  0  0  0  0  0  0
    3.4933   -2.3871   -0.6969 C   0  0  0  0  0  0  0  0  0  0  0  0
    3.4192   -2.8438    0.6401 C   0  0  0  0  0  0  0  0  0  0  0  0
    1.6764   -0.1620    4.0157 C   0  0  2  0  0  0  0  0  0  0  0  0
    0.6014   -0.3166    5.1089 C   0  0  0  0  0  0  0  0  0  0  0  0
    0.5027    2.9925    4.5563 H   0  0  0  0  0  0  0  0  0  0  0  0
    1.3159    2.0767    5.8274 H   0  0  0  0  0  0  0  0  0  0  0  0
    2.8566    1.7363    3.9472 H   0  0  0  0  0  0  0  0  0  0  0  0
    0.8608    2.6753    2.3326 H   0  0  0  0  0  0  0  0  0  0  0  0
    2.0355    1.5576    1.6668 H   0  0  0  0  0  0  0  0  0  0  0  0
   -0.2115    0.5185    1.3347 H   0  0  0  0  0  0  0  0  0  0  0  0
   -1.6292    0.0361    3.3991 H   0  0  0  0  0  0  0  0  0  0  0  0
   -1.4330    1.7516    3.1845 H   0  0  0  0  0  0  0  0  0  0  0  0
    0.3790   -1.5288    2.8771 H   0  0  0  0  0  0  0  0  0  0  0  0
    3.5830   -4.5018    3.9965 H   0  0  0  0  0  0  0  0  0  0  0  0
    5.2456   -5.2814   -0.3574 H   0  0  0  0  0  0  0  0  0  0  0  0
    4.6322   -3.5117   -2.3056 H   0  0  0  0  0  0  0  0  0  0  0  0
    2.9971   -1.4838   -1.0547 H   0  0  0  0  0  0  0  0  0  0  0  0
    2.6014   -0.6632    4.2882 H   0  0  0  0  0  0  0  0  0  0  0  0
    1.0577   -0.2661    6.0970 H   0  0  0  0  0  0  0  0  0  0  0  0
    0.0423   -1.2512    5.0479 H   0  0  0  0  0  0  0  0  0  0  0  0
    1.7864   -0.7185    0.7340 H   0  0  0  0  0  0  0  0  0  0  0  0
  1  2  2  0
  2  3  1  0
  4  2  1  1
  4  9  1  0
  4 22  1  0
  4  5  1  0
  5  6  1  0
  5 23  1  0
  5 24  1  0
  6 21  1  0
  6  7  1  0
  6 25  1  6
  7  8  1  0
  7 26  1  0
  7 27  1  0
  8  9  1  0
  8 10  1  0
  8 28  1  6
  9 29  1  0
  9 30  1  0
 10 11  1  0
 10 21  1  0
 10 31  1  1
 11 12  1  0
 11 39  1  0
 12 20  1  0
 12 13  2  0
 13 14  1  0
 14 15  2  0
 14 32  1  0
 15 16  1  0
 16 20  1  0
 16 17  1  0
 17 18  2  0
 17 33  1  0
 18 19  1  0
 18 34  1  0
 19 20  2  0
 19 35  1  0
 21 22  1  0
 21 36  1  1
 22 37  1  0
 22 38  1  0
M  CHG  1   3  -1
M  END
>  <i_m_ct_stereo_status>  (140) 
1

>  <s_m_source_file>  (140) 
/var/tmp/pbs.5076255.sched01/tmpazi1eam_/42934yjxx2.sdf

>  <i_m_source_file_index>  (140) 
18

>  <i_lp_mmshare_version>  (140) 
48012

>  <i_f3d_flags>  (140) 
0

>  <s_epik_input>  (140) 
Tz1DKFtPSF0pW0NAXTEyW0NIMl1bQ0BIXTNbQ0BASF0oW0NIMl0yKVtDQEBIXShbQ0BIXShbQ0gyXTMpW0NIMl0xKS9OPWMoXFtuSF1bY0hdbjQpYyhuNDUpW2NIXVtjSF1bY0hdNQ==

>  <s_epik_cmdline>  (140) 
J2VwaWtfcHl0aG9uJywgJy1waHQnLCAnMi4wJywgJy1waCcsICc3LjAnLCAnLXRuJywgJzgnLCAnLW1hJywgJzIwMCcsICctaW1hZScsICc8aW5maWxlLm1hZT4nLCAnLW9tYWUnLCAnPG91dGZpbGUubWFlPic=

>  <r_epik_Ionization_Penalty>  (140) 
0.0676944

>  <r_epik_Ionization_Penalty_Charging>  (140) 
0.0103092

>  <r_epik_Ionization_Penalty_Neutral>  (140) 
0.0573852

>  <r_epik_State_Penalty>  (140) 
0.0555949

>  <r_epik_Charging_Adjusted_Penalty>  (140) 
0.0659041

>  <i_epik_Tot_Q>  (140) 
-1

>  <i_epik_Tot_abs_Q>  (140) 
1

>  <s_lp_Force_Field>  (140) 
OPLS3e

>  <r_lp_Energy>  (140) 
56.5516

>  <b_lp_Chiralities_Consistent>  (140) 
1

>  <s_lp_Variant>  (140) 
40:0-1

>  <s_i_glide_gridfile>  (140) 
pfpi4k_grid

>  <i_i_glide_lignum>  (140) 
18

>  <i_i_glide_rotatable_bonds>  (140) 
3

>  <r_i_docking_score>  (140) 
-3.43855

>  <r_i_glide_ligand_efficiency>  (140) 
-0.156298

>  <r_i_glide_ligand_efficiency_sa>  (140) 
-0.437953

>  <r_i_glide_ligand_efficiency_ln>  (140) 
-0.840507

>  <r_i_glide_gscore>  (140) 
-3.43855

>  <r_i_glide_lipo>  (140) 
-0.0066929

>  <r_i_glide_hbond>  (140) 
-0.34479

>  <r_i_glide_metal>  (140) 
-0

>  <r_i_glide_rewards>  (140) 
-1.40895

>  <r_i_glide_evdw>  (140) 
-19.4756

>  <r_i_glide_ecoul>  (140) 
-6.69038

>  <r_i_glide_erotb>  (140) 
0.414764

>  <r_i_glide_esite>  (140) 
-0.115551

>  <r_i_glide_emodel>  (140) 
-35.9537

>  <r_i_glide_energy>  (140) 
-26.1659

>  <r_i_glide_einternal>  (140) 
0.50966

>  <r_i_glide_intrahb_reward>  (140) 
-0

>  <i_i_glide_confnum>  (140) 
2

>  <i_i_glide_posenum>  (140) 
1

>  <r_i_glide_eff_state_penalty>  (140) 
0

>  <ligand_id>  (140) 
40

>  <original_smiles>  (140) 
O=C(O)C12CC3CC(C1)C(N=c1[nH]cnn4cccc14)C3C2

>  <smiles>  (140) 
[H]c1nc(N([H])C2([H])C3([H])C([H])([H])C4([H])C([H])([H])C(C(=O)[O-])(C3([H])[H])C([H])([H])C24[H])c2c([H])c([H])c([H])n2n1

$$$$
40:0:2
     RDKit          3D

 39 43  0  0  1  0  0  0  0  0999 V2000
    5.7677   -0.5855    1.2945 O   0  0  0  0  0  0  0  0  0  0  0  0
    6.1157   -1.5607    0.6021 C   0  0  0  0  0  0  0  0  0  0  0  0
    6.9748   -1.5118   -0.3085 O   0  0  0  0  0  0  0  0  0  0  0  0
    5.3802   -2.8889    0.8272 C   0  0  2  0  0  0  0  0  0  0  0  0
    6.3470   -4.0777    0.8712 C   0  0  0  0  0  0  0  0  0  0  0  0
    5.3847   -5.1916    1.3242 C   0  0  2  0  0  0  0  0  0  0  0  0
    4.5870   -5.6135    0.0840 C   0  0  0  0  0  0  0  0  0  0  0  0
    3.5449   -4.4928    0.0343 C   0  0  2  0  0  0  0  0  0  0  0  0
    4.2688   -3.1381   -0.2464 C   0  0  0  0  0  0  0  0  0  0  0  0
    2.9929   -4.5174    1.4658 C   0  0  1  0  0  0  0  0  0  0  0  0
    2.1394   -5.6988    1.7225 N   0  0  0  0  0  0  0  0  0  0  0  0
    1.3724   -5.8111    2.8950 C   0  0  0  0  0  0  0  0  0  0  0  0
    1.6316   -4.9698    3.9236 N   0  0  0  0  0  0  0  0  0  0  0  0
    0.8626   -5.0691    5.0442 C   0  0  0  0  0  0  0  0  0  0  0  0
   -0.1942   -5.8921    5.2752 N   0  0  0  0  0  0  0  0  0  0  0  0
   -0.4059   -6.6763    4.2201 N   0  0  0  0  0  0  0  0  0  0  0  0
   -1.3970   -7.6200    4.0705 C   0  0  0  0  0  0  0  0  0  0  0  0
   -1.2914   -8.2151    2.8282 C   0  0  0  0  0  0  0  0  0  0  0  0
   -0.1838   -7.6533    2.0790 C   0  0  0  0  0  0  0  0  0  0  0  0
    0.2874   -6.7212    3.0365 C   0  0  0  0  0  0  0  0  0  0  0  0
    4.3354   -4.4753    2.2416 C   0  0  2  0  0  0  0  0  0  0  0  0
    4.7804   -3.0026    2.2361 C   0  0  0  0  0  0  0  0  0  0  0  0
    6.8347   -4.2830   -0.0862 H   0  0  0  0  0  0  0  0  0  0  0  0
    7.1339   -3.9227    1.6150 H   0  0  0  0  0  0  0  0  0  0  0  0
    5.8930   -6.0295    1.8008 H   0  0  0  0  0  0  0  0  0  0  0  0
    5.1908   -5.6760   -0.8203 H   0  0  0  0  0  0  0  0  0  0  0  0
    4.1251   -6.5894    0.2253 H   0  0  0  0  0  0  0  0  0  0  0  0
    2.7735   -4.6731   -0.7042 H   0  0  0  0  0  0  0  0  0  0  0  0
    3.5541   -2.3175   -0.2316 H   0  0  0  0  0  0  0  0  0  0  0  0
    4.7112   -3.1400   -1.2426 H   0  0  0  0  0  0  0  0  0  0  0  0
    2.3805   -3.6346    1.6516 H   0  0  0  0  0  0  0  0  0  0  0  0
    1.1042   -4.3954    5.8549 H   0  0  0  0  0  0  0  0  0  0  0  0
   -2.0690   -7.7709    4.8896 H   0  0  0  0  0  0  0  0  0  0  0  0
   -1.9585   -9.0083    2.5055 H   0  0  0  0  0  0  0  0  0  0  0  0
    0.2565   -7.8206    1.0919 H   0  0  0  0  0  0  0  0  0  0  0  0
    4.2753   -4.8771    3.2509 H   0  0  0  0  0  0  0  0  0  0  0  0
    5.5433   -2.8208    2.9954 H   0  0  0  0  0  0  0  0  0  0  0  0
    3.9693   -2.2932    2.4114 H   0  0  0  0  0  0  0  0  0  0  0  0
    1.9750   -6.3394    0.9543 H   0  0  0  0  0  0  0  0  0  0  0  0
  1  2  2  0
  2  3  1  0
  4  2  1  6
  4  9  1  0
  4 22  1  0
  4  5  1  0
  5  6  1  0
  5 23  1  0
  5 24  1  0
  6 21  1  0
  6  7  1  0
  6 25  1  1
  7  8  1  0
  7 26  1  0
  7 27  1  0
  8  9  1  0
  8 10  1  0
  8 28  1  6
  9 29  1  0
  9 30  1  0
 10 11  1  0
 10 21  1  0
 10 31  1  1
 11 12  1  0
 11 39  1  0
 12 20  1  0
 12 13  2  0
 13 14  1  0
 14 15  2  0
 14 32  1  0
 15 16  1  0
 16 20  1  0
 16 17  1  0
 17 18  2  0
 17 33  1  0
 18 19  1  0
 18 34  1  0
 19 20  2  0
 19 35  1  0
 21 22  1  0
 21 36  1  1
 22 37  1  0
 22 38  1  0
M  CHG  1   3  -1
M  END
>  <i_m_ct_stereo_status>  (141) 
1

>  <s_m_source_file>  (141) 
/var/tmp/pbs.5076255.sched01/tmpazi1eam_/42934yjxx2.sdf

>  <i_m_source_file_index>  (141) 
18

>  <i_lp_mmshare_version>  (141) 
48012

>  <i_f3d_flags>  (141) 
0

>  <s_epik_input>  (141) 
Tz1DKFtPSF0pW0NAXTEyW0NIMl1bQ0BIXTNbQ0BASF0oW0NIMl0yKVtDQEBIXShbQ0BIXShbQ0gyXTMpW0NIMl0xKS9OPWMoXFtuSF1bY0hdbjQpYyhuNDUpW2NIXVtjSF1bY0hdNQ==

>  <s_epik_cmdline>  (141) 
J2VwaWtfcHl0aG9uJywgJy1waHQnLCAnMi4wJywgJy1waCcsICc3LjAnLCAnLXRuJywgJzgnLCAnLW1hJywgJzIwMCcsICctaW1hZScsICc8aW5maWxlLm1hZT4nLCAnLW9tYWUnLCAnPG91dGZpbGUubWFlPic=

>  <r_epik_Ionization_Penalty>  (141) 
0.0676944

>  <r_epik_Ionization_Penalty_Charging>  (141) 
0.0103092

>  <r_epik_Ionization_Penalty_Neutral>  (141) 
0.0573852

>  <r_epik_State_Penalty>  (141) 
0.0555949

>  <r_epik_Charging_Adjusted_Penalty>  (141) 
0.0659041

>  <i_epik_Tot_Q>  (141) 
-1

>  <i_epik_Tot_abs_Q>  (141) 
1

>  <s_lp_Force_Field>  (141) 
OPLS3e

>  <r_lp_Energy>  (141) 
56.5516

>  <b_lp_Chiralities_Consistent>  (141) 
1

>  <s_lp_Variant>  (141) 
40:0-1

>  <s_i_glide_gridfile>  (141) 
pfpi4k_grid

>  <i_i_glide_lignum>  (141) 
18

>  <i_i_glide_rotatable_bonds>  (141) 
3

>  <r_i_docking_score>  (141) 
-3.06289

>  <r_i_glide_ligand_efficiency>  (141) 
-0.139222

>  <r_i_glide_ligand_efficiency_sa>  (141) 
-0.390107

>  <r_i_glide_ligand_efficiency_ln>  (141) 
-0.748683

>  <r_i_glide_gscore>  (141) 
-3.06289

>  <r_i_glide_lipo>  (141) 
-0.285677

>  <r_i_glide_hbond>  (141) 
-0.154751

>  <r_i_glide_metal>  (141) 
-0

>  <r_i_glide_rewards>  (141) 
-1.54391

>  <r_i_glide_evdw>  (141) 
-24.1057

>  <r_i_glide_ecoul>  (141) 
-1.40557

>  <r_i_glide_erotb>  (141) 
0.414764

>  <r_i_glide_esite>  (141) 
-0.0771946

>  <r_i_glide_emodel>  (141) 
-34.323

>  <r_i_glide_energy>  (141) 
-25.5112

>  <r_i_glide_einternal>  (141) 
0.400308

>  <r_i_glide_intrahb_reward>  (141) 
-0

>  <i_i_glide_confnum>  (141) 
6

>  <i_i_glide_posenum>  (141) 
6

>  <r_i_glide_eff_state_penalty>  (141) 
0

>  <ligand_id>  (141) 
40

>  <original_smiles>  (141) 
O=C(O)C12CC3CC(C1)C(N=c1[nH]cnn4cccc14)C3C2

>  <smiles>  (141) 
[H]c1nc(N([H])C2([H])C3([H])C([H])([H])C4([H])C([H])([H])C(C(=O)[O-])(C3([H])[H])C([H])([H])C24[H])c2c([H])c([H])c([H])n2n1

$$$$
40:1:0
     RDKit          3D

 40 44  0  0  1  0  0  0  0  0999 V2000
   -1.8451    0.3920    6.4878 O   0  0  0  0  0  0  0  0  0  0  0  0
   -1.4677   -0.4486    5.6424 C   0  0  0  0  0  0  0  0  0  0  0  0
   -2.1337   -1.4540    5.3342 O   0  0  0  0  0  0  0  0  0  0  0  0
   -0.1115   -0.2289    4.9524 C   0  0  2  0  0  0  0  0  0  0  0  0
    0.9276    0.4557    5.8569 C   0  0  0  0  0  0  0  0  0  0  0  0
    2.1847    0.3339    4.9823 C   0  0  2  0  0  0  0  0  0  0  0  0
    2.0985    1.4222    3.9037 C   0  0  0  0  0  0  0  0  0  0  0  0
    1.1302    0.7632    2.9158 C   0  0  2  0  0  0  0  0  0  0  0  0
   -0.2618    0.5778    3.6151 C   0  0  0  0  0  0  0  0  0  0  0  0
    1.7954   -0.6163    2.7285 C   0  0  1  0  0  0  0  0  0  0  0  0
    3.0664   -0.5884    1.9962 N   0  0  0  0  0  0  0  0  0  0  0  0
    3.2939   -1.5528    1.0039 C   0  0  0  0  0  0  0  0  0  0  0  0
    3.8238   -1.1137   -0.1703 N   0  0  0  0  0  0  0  0  0  0  0  0
    4.0393   -1.9993   -1.1956 C   0  0  0  0  0  0  0  0  0  0  0  0
    3.7875   -3.3333   -1.0836 N   0  0  0  0  0  0  0  0  0  0  0  0
    3.3113   -3.7280    0.0785 N   0  0  0  0  0  0  0  0  0  0  0  0
    3.0308   -5.0263    0.4425 C   0  0  0  0  0  0  0  0  0  0  0  0
    2.5640   -5.0143    1.7462 C   0  0  0  0  0  0  0  0  0  0  0  0
    2.5401   -3.6732    2.2618 C   0  0  0  0  0  0  0  0  0  0  0  0
    3.0301   -2.9414    1.1594 C   0  0  0  0  0  0  0  0  0  0  0  0
    1.9881   -1.0036    4.2114 C   0  0  2  0  0  0  0  0  0  0  0  0
    0.6302   -1.5440    4.6876 C   0  0  0  0  0  0  0  0  0  0  0  0
    0.6824    1.4884    6.1116 H   0  0  0  0  0  0  0  0  0  0  0  0
    1.0577   -0.0908    6.7933 H   0  0  0  0  0  0  0  0  0  0  0  0
    3.1157    0.3721    5.5492 H   0  0  0  0  0  0  0  0  0  0  0  0
    1.7334    2.3752    4.2853 H   0  0  0  0  0  0  0  0  0  0  0  0
    3.0728    1.6044    3.4483 H   0  0  0  0  0  0  0  0  0  0  0  0
    1.0387    1.3160    1.9805 H   0  0  0  0  0  0  0  0  0  0  0  0
   -0.9512    0.0650    2.9456 H   0  0  0  0  0  0  0  0  0  0  0  0
   -0.7017    1.5528    3.8195 H   0  0  0  0  0  0  0  0  0  0  0  0
    1.1048   -1.2746    2.2006 H   0  0  0  0  0  0  0  0  0  0  0  0
    4.4251   -1.6496   -2.1421 H   0  0  0  0  0  0  0  0  0  0  0  0
    3.1945   -5.8198   -0.2748 H   0  0  0  0  0  0  0  0  0  0  0  0
    2.2524   -5.8976    2.2954 H   0  0  0  0  0  0  0  0  0  0  0  0
    2.2440   -3.2685    3.2113 H   0  0  0  0  0  0  0  0  0  0  0  0
    2.8199   -1.6812    4.3951 H   0  0  0  0  0  0  0  0  0  0  0  0
    0.7441   -2.1193    5.6065 H   0  0  0  0  0  0  0  0  0  0  0  0
    0.1209   -2.1828    3.9652 H   0  0  0  0  0  0  0  0  0  0  0  0
    3.4324    0.3399    1.8291 H   0  0  0  0  0  0  0  0  0  0  0  0
    3.9734   -3.9848   -1.8495 H   0  0  0  0  0  0  0  0  0  0  0  0
  1  2  2  0
  2  3  1  0
  4  2  1  1
  4  9  1  0
  4 22  1  0
  4  5  1  0
  5  6  1  0
  5 23  1  0
  5 24  1  0
  6 21  1  0
  6  7  1  0
  6 25  1  1
  7  8  1  0
  7 26  1  0
  7 27  1  0
  8  9  1  0
  8 10  1  0
  8 28  1  6
  9 29  1  0
  9 30  1  0
 10 11  1  0
 10 21  1  0
 10 31  1  6
 11 12  1  0
 11 39  1  0
 12 20  1  0
 12 13  2  0
 13 14  1  0
 14 15  2  0
 14 32  1  0
 15 16  1  0
 15 40  1  0
 16 20  1  0
 16 17  1  0
 17 18  2  0
 17 33  1  0
 18 19  1  0
 18 34  1  0
 19 20  2  0
 19 35  1  0
 21 22  1  0
 21 36  1  6
 22 37  1  0
 22 38  1  0
M  CHG  2   3  -1  15   1
M  END
>  <i_m_ct_stereo_status>  (142) 
1

>  <s_m_source_file>  (142) 
/var/tmp/pbs.5076255.sched01/tmpazi1eam_/42934yjxx2.sdf

>  <i_m_source_file_index>  (142) 
19

>  <i_lp_mmshare_version>  (142) 
48012

>  <i_f3d_flags>  (142) 
0

>  <s_epik_input>  (142) 
Tz1DKFtPSF0pW0NAXTEyW0NIMl1bQ0BIXTNbQ0BASF0oW0NIMl0yKVtDQEBIXShbQ0BIXShbQ0gyXTMpW0NIMl0xKS9OPWMoXFtuSF1bY0hdbjQpYyhuNDUpW2NIXVtjSF1bY0hdNQ==

>  <s_epik_cmdline>  (142) 
J2VwaWtfcHl0aG9uJywgJy1waHQnLCAnMi4wJywgJy1waCcsICc3LjAnLCAnLXRuJywgJzgnLCAnLW1hJywgJzIwMCcsICctaW1hZScsICc8aW5maWxlLm1hZT4nLCAnLW9tYWUnLCAnPG91dGZpbGUubWFlPic=

>  <r_epik_Ionization_Penalty>  (142) 
1.43514

>  <r_epik_Ionization_Penalty_Charging>  (142) 
1.43514

>  <r_epik_Ionization_Penalty_Neutral>  (142) 
3.67472e-06

>  <r_epik_State_Penalty>  (142) 
1.51618

>  <r_epik_Charging_Adjusted_Penalty>  (142) 
2.95132

>  <i_epik_Tot_Q>  (142) 
0

>  <i_epik_Tot_abs_Q>  (142) 
2

>  <s_lp_Force_Field>  (142) 
OPLS3e

>  <r_lp_Energy>  (142) 
56.3334

>  <b_lp_Chiralities_Consistent>  (142) 
1

>  <s_lp_Variant>  (142) 
40:0-2

>  <s_i_glide_gridfile>  (142) 
pfpi4k_grid

>  <i_i_glide_lignum>  (142) 
19

>  <i_i_glide_rotatable_bonds>  (142) 
3

>  <r_i_docking_score>  (142) 
-3.4473

>  <r_i_glide_ligand_efficiency>  (142) 
-0.156695

>  <r_i_glide_ligand_efficiency_sa>  (142) 
-0.439067

>  <r_i_glide_ligand_efficiency_ln>  (142) 
-0.842646

>  <r_i_glide_gscore>  (142) 
-3.4473

>  <r_i_glide_lipo>  (142) 
0

>  <r_i_glide_hbond>  (142) 
-0.2

>  <r_i_glide_metal>  (142) 
-0

>  <r_i_glide_rewards>  (142) 
-1.37496

>  <r_i_glide_evdw>  (142) 
-19.0402

>  <r_i_glide_ecoul>  (142) 
-8.01429

>  <r_i_glide_erotb>  (142) 
0.412317

>  <r_i_glide_esite>  (142) 
-0.130506

>  <r_i_glide_emodel>  (142) 
-35.5593

>  <r_i_glide_energy>  (142) 
-27.0545

>  <r_i_glide_einternal>  (142) 
4.54728

>  <r_i_glide_intrahb_reward>  (142) 
-0

>  <i_i_glide_confnum>  (142) 
4

>  <i_i_glide_posenum>  (142) 
12

>  <r_i_glide_eff_state_penalty>  (142) 
0

>  <ligand_id>  (142) 
40

>  <original_smiles>  (142) 
O=C(O)C12CC3CC(C1)C(N=c1[nH]cnn4cccc14)C3C2

>  <smiles>  (142) 
[H]c1c([H])c2c(N([H])C3([H])C4([H])C([H])([H])C5([H])C([H])([H])C(C(=O)[O-])(C4([H])[H])C([H])([H])C35[H])nc([H])[n+]([H])n2c1[H]

$$$$
40:1:1
     RDKit          3D

 40 44  0  0  1  0  0  0  0  0999 V2000
   -2.1450   -0.7413    5.6750 O   0  0  0  0  0  0  0  0  0  0  0  0
   -1.2509    0.0411    6.0547 C   0  0  0  0  0  0  0  0  0  0  0  0
   -1.2441    0.5579    7.1927 O   0  0  0  0  0  0  0  0  0  0  0  0
   -0.0747    0.3414    5.0993 C   0  0  2  0  0  0  0  0  0  0  0  0
    0.3719    1.8104    5.1236 C   0  0  0  0  0  0  0  0  0  0  0  0
    1.6528    1.7362    4.2683 C   0  0  2  0  0  0  0  0  0  0  0  0
    1.1992    1.6797    2.7938 C   0  0  0  0  0  0  0  0  0  0  0  0
    0.8199    0.2067    2.6810 C   0  0  2  0  0  0  0  0  0  0  0  0
   -0.3812   -0.0928    3.6349 C   0  0  0  0  0  0  0  0  0  0  0  0
    2.0678   -0.4587    3.2663 C   0  0  1  0  0  0  0  0  0  0  0  0
    3.2707   -0.4161    2.4183 N   0  0  0  0  0  0  0  0  0  0  0  0
    3.3637   -1.2821    1.3199 C   0  0  0  0  0  0  0  0  0  0  0  0
    3.8242   -0.7341    0.1667 N   0  0  0  0  0  0  0  0  0  0  0  0
    3.9279   -1.4962   -0.9743 C   0  0  0  0  0  0  0  0  0  0  0  0
    3.6270   -2.8266   -0.9936 N   0  0  0  0  0  0  0  0  0  0  0  0
    3.2257   -3.3334    0.1542 N   0  0  0  0  0  0  0  0  0  0  0  0
    2.9355   -4.6568    0.3907 C   0  0  0  0  0  0  0  0  0  0  0  0
    2.5823   -4.7870    1.7214 C   0  0  0  0  0  0  0  0  0  0  0  0
    2.6886   -3.5268    2.4137 C   0  0  0  0  0  0  0  0  0  0  0  0
    3.0644   -2.6761    1.3433 C   0  0  0  0  0  0  0  0  0  0  0  0
    2.2358    0.3161    4.5776 C   0  0  2  0  0  0  0  0  0  0  0  0
    1.2324   -0.3111    5.5683 C   0  0  0  0  0  0  0  0  0  0  0  0
   -0.3756    2.4928    4.7169 H   0  0  0  0  0  0  0  0  0  0  0  0
    0.6122    2.1360    6.1380 H   0  0  0  0  0  0  0  0  0  0  0  0
    2.3567    2.5507    4.4579 H   0  0  0  0  0  0  0  0  0  0  0  0
    0.3641    2.3453    2.5600 H   0  0  0  0  0  0  0  0  0  0  0  0
    2.0176    1.9191    2.1114 H   0  0  0  0  0  0  0  0  0  0  0  0
    0.6128   -0.1098    1.6601 H   0  0  0  0  0  0  0  0  0  0  0  0
   -0.5919   -1.1594    3.6467 H   0  0  0  0  0  0  0  0  0  0  0  0
   -1.2745    0.4143    3.2780 H   0  0  0  0  0  0  0  0  0  0  0  0
    1.7881   -1.4610    3.5008 H   0  0  0  0  0  0  0  0  0  0  0  0
    4.2601   -1.0524   -1.9044 H   0  0  0  0  0  0  0  0  0  0  0  0
    3.0177   -5.3693   -0.4182 H   0  0  0  0  0  0  0  0  0  0  0  0
    2.2830   -5.7233    2.1877 H   0  0  0  0  0  0  0  0  0  0  0  0
    2.5628   -3.2499    3.4511 H   0  0  0  0  0  0  0  0  0  0  0  0
    3.2621    0.3008    4.9531 H   0  0  0  0  0  0  0  0  0  0  0  0
    1.4757   -0.0209    6.5924 H   0  0  0  0  0  0  0  0  0  0  0  0
    1.2026   -1.4011    5.5430 H   0  0  0  0  0  0  0  0  0  0  0  0
    3.6573    0.5116    2.2896 H   0  0  0  0  0  0  0  0  0  0  0  0
    3.7429   -3.3882   -1.8418 H   0  0  0  0  0  0  0  0  0  0  0  0
  1  2  2  0
  2  3  1  0
  4  2  1  1
  4  9  1  0
  4 22  1  0
  4  5  1  0
  5  6  1  0
  5 23  1  0
  5 24  1  0
  6 21  1  0
  6  7  1  0
  6 25  1  6
  7  8  1  0
  7 26  1  0
  7 27  1  0
  8  9  1  0
  8 10  1  0
  8 28  1  6
  9 29  1  0
  9 30  1  0
 10 11  1  0
 10 21  1  0
 10 31  1  1
 11 12  1  0
 11 39  1  0
 12 20  1  0
 12 13  2  0
 13 14  1  0
 14 15  2  0
 14 32  1  0
 15 16  1  0
 15 40  1  0
 16 20  1  0
 16 17  1  0
 17 18  2  0
 17 33  1  0
 18 19  1  0
 18 34  1  0
 19 20  2  0
 19 35  1  0
 21 22  1  0
 21 36  1  1
 22 37  1  0
 22 38  1  0
M  CHG  2   3  -1  15   1
M  END
>  <i_m_ct_stereo_status>  (143) 
1

>  <s_m_source_file>  (143) 
/var/tmp/pbs.5076255.sched01/tmpazi1eam_/42934yjxx2.sdf

>  <i_m_source_file_index>  (143) 
19

>  <i_lp_mmshare_version>  (143) 
48012

>  <i_f3d_flags>  (143) 
0

>  <s_epik_input>  (143) 
Tz1DKFtPSF0pW0NAXTEyW0NIMl1bQ0BIXTNbQ0BASF0oW0NIMl0yKVtDQEBIXShbQ0BIXShbQ0gyXTMpW0NIMl0xKS9OPWMoXFtuSF1bY0hdbjQpYyhuNDUpW2NIXVtjSF1bY0hdNQ==

>  <s_epik_cmdline>  (143) 
J2VwaWtfcHl0aG9uJywgJy1waHQnLCAnMi4wJywgJy1waCcsICc3LjAnLCAnLXRuJywgJzgnLCAnLW1hJywgJzIwMCcsICctaW1hZScsICc8aW5maWxlLm1hZT4nLCAnLW9tYWUnLCAnPG91dGZpbGUubWFlPic=

>  <r_epik_Ionization_Penalty>  (143) 
1.43514

>  <r_epik_Ionization_Penalty_Charging>  (143) 
1.43514

>  <r_epik_Ionization_Penalty_Neutral>  (143) 
3.67472e-06

>  <r_epik_State_Penalty>  (143) 
1.51618

>  <r_epik_Charging_Adjusted_Penalty>  (143) 
2.95132

>  <i_epik_Tot_Q>  (143) 
0

>  <i_epik_Tot_abs_Q>  (143) 
2

>  <s_lp_Force_Field>  (143) 
OPLS3e

>  <r_lp_Energy>  (143) 
56.3334

>  <b_lp_Chiralities_Consistent>  (143) 
1

>  <s_lp_Variant>  (143) 
40:0-2

>  <s_i_glide_gridfile>  (143) 
pfpi4k_grid

>  <i_i_glide_lignum>  (143) 
19

>  <i_i_glide_rotatable_bonds>  (143) 
3

>  <r_i_docking_score>  (143) 
-3.41498

>  <r_i_glide_ligand_efficiency>  (143) 
-0.155227

>  <r_i_glide_ligand_efficiency_sa>  (143) 
-0.434951

>  <r_i_glide_ligand_efficiency_ln>  (143) 
-0.834747

>  <r_i_glide_gscore>  (143) 
-3.41498

>  <r_i_glide_lipo>  (143) 
0

>  <r_i_glide_hbond>  (143) 
-0.260817

>  <r_i_glide_metal>  (143) 
-0

>  <r_i_glide_rewards>  (143) 
-1.37496

>  <r_i_glide_evdw>  (143) 
-17.8126

>  <r_i_glide_ecoul>  (143) 
-7.6376

>  <r_i_glide_erotb>  (143) 
0.412317

>  <r_i_glide_esite>  (143) 
-0.155259

>  <r_i_glide_emodel>  (143) 
-34.3568

>  <r_i_glide_energy>  (143) 
-25.4502

>  <r_i_glide_einternal>  (143) 
3.53158

>  <r_i_glide_intrahb_reward>  (143) 
-0

>  <i_i_glide_confnum>  (143) 
4

>  <i_i_glide_posenum>  (143) 
4

>  <r_i_glide_eff_state_penalty>  (143) 
0

>  <ligand_id>  (143) 
40

>  <original_smiles>  (143) 
O=C(O)C12CC3CC(C1)C(N=c1[nH]cnn4cccc14)C3C2

>  <smiles>  (143) 
[H]c1c([H])c2c(N([H])C3([H])C4([H])C([H])([H])C5([H])C([H])([H])C(C(=O)[O-])(C4([H])[H])C([H])([H])C35[H])nc([H])[n+]([H])n2c1[H]

$$$$
40:1:2
     RDKit          3D

 40 44  0  0  1  0  0  0  0  0999 V2000
    3.9043   -3.4058   -4.2653 O   0  0  0  0  0  0  0  0  0  0  0  0
    4.1947   -2.3196   -3.7254 C   0  0  0  0  0  0  0  0  0  0  0  0
    4.2047   -1.2256   -4.3352 O   0  0  0  0  0  0  0  0  0  0  0  0
    4.5970   -2.3489   -2.2411 C   0  0  2  0  0  0  0  0  0  0  0  0
    5.9176   -3.0914   -2.0014 C   0  0  0  0  0  0  0  0  0  0  0  0
    6.1526   -2.7778   -0.5110 C   0  0  2  0  0  0  0  0  0  0  0  0
    5.2304   -3.7198    0.2877 C   0  0  0  0  0  0  0  0  0  0  0  0
    3.8975   -2.9882    0.1486 C   0  0  2  0  0  0  0  0  0  0  0  0
    3.4734   -2.9673   -1.3532 C   0  0  0  0  0  0  0  0  0  0  0  0
    4.3043   -1.5693    0.5597 C   0  0  1  0  0  0  0  0  0  0  0  0
    4.5874   -1.3732    1.9842 N   0  0  0  0  0  0  0  0  0  0  0  0
    3.5044   -1.2710    2.8733 C   0  0  0  0  0  0  0  0  0  0  0  0
    3.5862   -2.0361    3.9906 N   0  0  0  0  0  0  0  0  0  0  0  0
    2.5868   -1.9906    4.9382 C   0  0  0  0  0  0  0  0  0  0  0  0
    1.5044   -1.1797    4.8126 N   0  0  0  0  0  0  0  0  0  0  0  0
    1.4689   -0.4441    3.7254 N   0  0  0  0  0  0  0  0  0  0  0  0
    0.4995    0.4684    3.3984 C   0  0  0  0  0  0  0  0  0  0  0  0
    0.8489    1.0563    2.1919 C   0  0  0  0  0  0  0  0  0  0  0  0
    2.1201    0.5575    1.7300 C   0  0  0  0  0  0  0  0  0  0  0  0
    2.3943   -0.4036    2.7203 C   0  0  0  0  0  0  0  0  0  0  0  0
    5.5417   -1.3513   -0.3160 C   0  0  2  0  0  0  0  0  0  0  0  0
    5.0011   -0.9775   -1.7016 C   0  0  0  0  0  0  0  0  0  0  0  0
    5.8449   -4.1591   -2.2104 H   0  0  0  0  0  0  0  0  0  0  0  0
    6.7305   -2.6878   -2.6122 H   0  0  0  0  0  0  0  0  0  0  0  0
    7.1968   -2.8556   -0.1987 H   0  0  0  0  0  0  0  0  0  0  0  0
    5.1951   -4.7359   -0.1097 H   0  0  0  0  0  0  0  0  0  0  0  0
    5.5298   -3.7774    1.3349 H   0  0  0  0  0  0  0  0  0  0  0  0
    3.1093   -3.4011    0.7762 H   0  0  0  0  0  0  0  0  0  0  0  0
    2.5624   -2.3908   -1.4992 H   0  0  0  0  0  0  0  0  0  0  0  0
    3.2538   -3.9765   -1.6888 H   0  0  0  0  0  0  0  0  0  0  0  0
    3.5123   -0.9292    0.2218 H   0  0  0  0  0  0  0  0  0  0  0  0
    2.6326   -2.6164    5.8244 H   0  0  0  0  0  0  0  0  0  0  0  0
   -0.3449    0.6090    4.0604 H   0  0  0  0  0  0  0  0  0  0  0  0
    0.2598    1.8135    1.6766 H   0  0  0  0  0  0  0  0  0  0  0  0
    2.7707    0.7837    0.8919 H   0  0  0  0  0  0  0  0  0  0  0  0
    6.2176   -0.5946    0.0849 H   0  0  0  0  0  0  0  0  0  0  0  0
    5.7920   -0.5442   -2.3111 H   0  0  0  0  0  0  0  0  0  0  0  0
    4.1819   -0.2644   -1.6923 H   0  0  0  0  0  0  0  0  0  0  0  0
    5.4062   -1.8693    2.3188 H   0  0  0  0  0  0  0  0  0  0  0  0
    0.7691   -1.1437    5.5310 H   0  0  0  0  0  0  0  0  0  0  0  0
  1  2  2  0
  2  3  1  0
  4  2  1  6
  4  9  1  0
  4 22  1  0
  4  5  1  0
  5  6  1  0
  5 23  1  0
  5 24  1  0
  6 21  1  0
  6  7  1  0
  6 25  1  1
  7  8  1  0
  7 26  1  0
  7 27  1  0
  8  9  1  0
  8 10  1  0
  8 28  1  1
  9 29  1  0
  9 30  1  0
 10 11  1  0
 10 21  1  0
 10 31  1  6
 11 12  1  0
 11 39  1  0
 12 20  1  0
 12 13  2  0
 13 14  1  0
 14 15  2  0
 14 32  1  0
 15 16  1  0
 15 40  1  0
 16 20  1  0
 16 17  1  0
 17 18  2  0
 17 33  1  0
 18 19  1  0
 18 34  1  0
 19 20  2  0
 19 35  1  0
 21 22  1  0
 21 36  1  1
 22 37  1  0
 22 38  1  0
M  CHG  2   3  -1  15   1
M  END
>  <i_m_ct_stereo_status>  (144) 
1

>  <s_m_source_file>  (144) 
/var/tmp/pbs.5076255.sched01/tmpazi1eam_/42934yjxx2.sdf

>  <i_m_source_file_index>  (144) 
19

>  <i_lp_mmshare_version>  (144) 
48012

>  <i_f3d_flags>  (144) 
0

>  <s_epik_input>  (144) 
Tz1DKFtPSF0pW0NAXTEyW0NIMl1bQ0BIXTNbQ0BASF0oW0NIMl0yKVtDQEBIXShbQ0BIXShbQ0gyXTMpW0NIMl0xKS9OPWMoXFtuSF1bY0hdbjQpYyhuNDUpW2NIXVtjSF1bY0hdNQ==

>  <s_epik_cmdline>  (144) 
J2VwaWtfcHl0aG9uJywgJy1waHQnLCAnMi4wJywgJy1waCcsICc3LjAnLCAnLXRuJywgJzgnLCAnLW1hJywgJzIwMCcsICctaW1hZScsICc8aW5maWxlLm1hZT4nLCAnLW9tYWUnLCAnPG91dGZpbGUubWFlPic=

>  <r_epik_Ionization_Penalty>  (144) 
1.43514

>  <r_epik_Ionization_Penalty_Charging>  (144) 
1.43514

>  <r_epik_Ionization_Penalty_Neutral>  (144) 
3.67472e-06

>  <r_epik_State_Penalty>  (144) 
1.51618

>  <r_epik_Charging_Adjusted_Penalty>  (144) 
2.95132

>  <i_epik_Tot_Q>  (144) 
0

>  <i_epik_Tot_abs_Q>  (144) 
2

>  <s_lp_Force_Field>  (144) 
OPLS3e

>  <r_lp_Energy>  (144) 
56.3334

>  <b_lp_Chiralities_Consistent>  (144) 
1

>  <s_lp_Variant>  (144) 
40:0-2

>  <s_i_glide_gridfile>  (144) 
pfpi4k_grid

>  <i_i_glide_lignum>  (144) 
19

>  <i_i_glide_rotatable_bonds>  (144) 
3

>  <r_i_docking_score>  (144) 
-3.24258

>  <r_i_glide_ligand_efficiency>  (144) 
-0.14739

>  <r_i_glide_ligand_efficiency_sa>  (144) 
-0.412993

>  <r_i_glide_ligand_efficiency_ln>  (144) 
-0.792606

>  <r_i_glide_gscore>  (144) 
-3.24258

>  <r_i_glide_lipo>  (144) 
-0.245936

>  <r_i_glide_hbond>  (144) 
-0.182264

>  <r_i_glide_metal>  (144) 
-0

>  <r_i_glide_rewards>  (144) 
-1.5526

>  <r_i_glide_evdw>  (144) 
-25.1142

>  <r_i_glide_ecoul>  (144) 
-2.75388

>  <r_i_glide_erotb>  (144) 
0.412317

>  <r_i_glide_esite>  (144) 
-0.00530409

>  <r_i_glide_emodel>  (144) 
-36.0721

>  <r_i_glide_energy>  (144) 
-27.8681

>  <r_i_glide_einternal>  (144) 
3.81808

>  <r_i_glide_intrahb_reward>  (144) 
-0

>  <i_i_glide_confnum>  (144) 
4

>  <i_i_glide_posenum>  (144) 
6

>  <r_i_glide_eff_state_penalty>  (144) 
0

>  <ligand_id>  (144) 
40

>  <original_smiles>  (144) 
O=C(O)C12CC3CC(C1)C(N=c1[nH]cnn4cccc14)C3C2

>  <smiles>  (144) 
[H]c1c([H])c2c(N([H])C3([H])C4([H])C([H])([H])C5([H])C([H])([H])C(C(=O)[O-])(C4([H])[H])C([H])([H])C35[H])nc([H])[n+]([H])n2c1[H]

$$$$
40:2:0
     RDKit          3D

 40 44  0  0  1  0  0  0  0  0999 V2000
    5.0159   -3.0338   -3.3733 O   0  0  0  0  0  0  0  0  0  0  0  0
    5.6358   -3.0920   -2.3070 C   0  0  0  0  0  0  0  0  0  0  0  0
    6.9940   -3.0553   -2.1917 O   0  0  0  0  0  0  0  0  0  0  0  0
    4.9478   -3.2591   -0.9333 C   0  0  2  0  0  0  0  0  0  0  0  0
    5.2856   -2.1186    0.0359 C   0  0  0  0  0  0  0  0  0  0  0  0
    4.3227   -2.4266    1.1960 C   0  0  2  0  0  0  0  0  0  0  0  0
    4.9622   -3.5641    2.0043 C   0  0  0  0  0  0  0  0  0  0  0  0
    4.5709   -4.7672    1.1409 C   0  0  2  0  0  0  0  0  0  0  0  0
    5.2774   -4.6378   -0.2529 C   0  0  0  0  0  0  0  0  0  0  0  0
    3.0562   -4.5522    0.9793 C   0  0  1  0  0  0  0  0  0  0  0  0
    2.3087   -4.7673    2.2309 N   0  0  0  0  0  0  0  0  0  0  0  0
    1.4014   -5.8331    2.3722 C   0  0  0  0  0  0  0  0  0  0  0  0
    0.8589   -6.3836    1.2558 N   0  0  0  0  0  0  0  0  0  0  0  0
   -0.0234   -7.4169    1.4160 C   0  0  0  0  0  0  0  0  0  0  0  0
   -0.4794   -7.9541    2.5675 N   0  0  0  0  0  0  0  0  0  0  0  0
    0.0692   -7.3520    3.6246 N   0  0  0  0  0  0  0  0  0  0  0  0
   -0.1725   -7.6622    4.9431 C   0  0  0  0  0  0  0  0  0  0  0  0
    0.5738   -6.8117    5.7413 C   0  0  0  0  0  0  0  0  0  0  0  0
    1.3502   -5.8973    4.9337 C   0  0  0  0  0  0  0  0  0  0  0  0
    0.9771   -6.3229    3.6370 C   0  0  0  0  0  0  0  0  0  0  0  0
    3.0685   -3.0745    0.5215 C   0  0  2  0  0  0  0  0  0  0  0  0
    3.4231   -3.0789   -0.9789 C   0  0  0  0  0  0  0  0  0  0  0  0
    7.4652   -3.0558   -3.0249 H   0  0  0  0  0  0  0  0  0  0  0  0
    6.3345   -2.1030    0.3384 H   0  0  0  0  0  0  0  0  0  0  0  0
    5.0537   -1.1491   -0.4086 H   0  0  0  0  0  0  0  0  0  0  0  0
    4.1033   -1.5485    1.8021 H   0  0  0  0  0  0  0  0  0  0  0  0
    6.0410   -3.4612    2.1264 H   0  0  0  0  0  0  0  0  0  0  0  0
    4.5317   -3.6268    3.0038 H   0  0  0  0  0  0  0  0  0  0  0  0
    4.8018   -5.7173    1.6206 H   0  0  0  0  0  0  0  0  0  0  0  0
    4.9644   -5.4581   -0.8990 H   0  0  0  0  0  0  0  0  0  0  0  0
    6.3532   -4.7469   -0.1190 H   0  0  0  0  0  0  0  0  0  0  0  0
    2.6873   -5.1944    0.1780 H   0  0  0  0  0  0  0  0  0  0  0  0
   -0.4121   -7.8389    0.5034 H   0  0  0  0  0  0  0  0  0  0  0  0
   -0.8519   -8.4798    5.1582 H   0  0  0  0  0  0  0  0  0  0  0  0
    0.5622   -6.8649    6.8182 H   0  0  0  0  0  0  0  0  0  0  0  0
    2.0473   -5.0962    5.1304 H   0  0  0  0  0  0  0  0  0  0  0  0
    2.1325   -2.5522    0.7141 H   0  0  0  0  0  0  0  0  0  0  0  0
    3.1517   -2.1287   -1.4410 H   0  0  0  0  0  0  0  0  0  0  0  0
    2.9167   -3.8603   -1.5453 H   0  0  0  0  0  0  0  0  0  0  0  0
    2.7113   -4.3682    3.0671 H   0  0  0  0  0  0  0  0  0  0  0  0
  1  2  2  0
  2  3  1  0
  4  2  1  6
  3 23  1  0
  4  9  1  0
  4 22  1  0
  4  5  1  0
  5  6  1  0
  5 24  1  0
  5 25  1  0
  6 21  1  0
  6  7  1  0
  6 26  1  1
  7  8  1  0
  7 27  1  0
  7 28  1  0
  8  9  1  0
  8 10  1  0
  8 29  1  1
  9 30  1  0
  9 31  1  0
 10 11  1  0
 10 21  1  0
 10 32  1  6
 11 12  1  0
 11 40  1  0
 12 20  1  0
 12 13  2  0
 13 14  1  0
 14 15  2  0
 14 33  1  0
 15 16  1  0
 16 20  1  0
 16 17  1  0
 17 18  2  0
 17 34  1  0
 18 19  1  0
 18 35  1  0
 19 20  2  0
 19 36  1  0
 21 22  1  0
 21 37  1  6
 22 38  1  0
 22 39  1  0
M  END
>  <i_m_ct_stereo_status>  (145) 
1

>  <s_m_source_file>  (145) 
/var/tmp/pbs.5076255.sched01/tmpazi1eam_/42934yjxx2.sdf

>  <i_m_source_file_index>  (145) 
20

>  <i_lp_mmshare_version>  (145) 
48012

>  <i_f3d_flags>  (145) 
0

>  <s_epik_input>  (145) 
Tz1DKFtPSF0pW0NAXTEyW0NIMl1bQ0BIXTNbQ0BASF0oW0NIMl0yKVtDQEBIXShbQ0BIXShbQ0gyXTMpW0NIMl0xKS9OPWMoXFtuSF1bY0hdbjQpYyhuNDUpW2NIXVtjSF1bY0hdNQ==

>  <s_epik_cmdline>  (145) 
J2VwaWtfcHl0aG9uJywgJy1waHQnLCAnMi4wJywgJy1waCcsICc3LjAnLCAnLXRuJywgJzgnLCAnLW1hJywgJzIwMCcsICctaW1hZScsICc8aW5maWxlLm1hZT4nLCAnLW9tYWUnLCAnPG91dGZpbGUubWFlPic=

>  <r_epik_Ionization_Penalty>  (145) 
2.45986

>  <r_epik_Ionization_Penalty_Charging>  (145) 
0

>  <r_epik_Ionization_Penalty_Neutral>  (145) 
2.45986

>  <r_epik_State_Penalty>  (145) 
2.61143

>  <r_epik_Charging_Adjusted_Penalty>  (145) 
2.61143

>  <i_epik_Tot_Q>  (145) 
0

>  <i_epik_Tot_abs_Q>  (145) 
0

>  <s_lp_Force_Field>  (145) 
OPLS3e

>  <r_lp_Energy>  (145) 
52.904

>  <b_lp_Chiralities_Consistent>  (145) 
1

>  <s_lp_Variant>  (145) 
40:0-3

>  <s_i_glide_gridfile>  (145) 
pfpi4k_grid

>  <i_i_glide_lignum>  (145) 
20

>  <i_i_glide_rotatable_bonds>  (145) 
4

>  <r_i_docking_score>  (145) 
-3.98995

>  <r_i_glide_ligand_efficiency>  (145) 
-0.181362

>  <r_i_glide_ligand_efficiency_sa>  (145) 
-0.508182

>  <r_i_glide_ligand_efficiency_ln>  (145) 
-0.97529

>  <r_i_glide_gscore>  (145) 
-3.98995

>  <r_i_glide_lipo>  (145) 
-0.163853

>  <r_i_glide_hbond>  (145) 
-0.156986

>  <r_i_glide_metal>  (145) 
-0

>  <r_i_glide_rewards>  (145) 
-1.6119

>  <r_i_glide_evdw>  (145) 
-27.0891

>  <r_i_glide_ecoul>  (145) 
-7.84661

>  <r_i_glide_erotb>  (145) 
0.618476

>  <r_i_glide_esite>  (145) 
-0.144244

>  <r_i_glide_emodel>  (145) 
-43.4053

>  <r_i_glide_energy>  (145) 
-34.9357

>  <r_i_glide_einternal>  (145) 
1.69067

>  <r_i_glide_intrahb_reward>  (145) 
-0

>  <i_i_glide_confnum>  (145) 
1

>  <i_i_glide_posenum>  (145) 
33

>  <r_i_glide_eff_state_penalty>  (145) 
0

>  <ligand_id>  (145) 
40

>  <original_smiles>  (145) 
O=C(O)C12CC3CC(C1)C(N=c1[nH]cnn4cccc14)C3C2

>  <smiles>  (145) 
[H]OC(=O)C12C([H])([H])C3([H])C([H])([H])C([H])(C1([H])[H])C([H])(C2([H])[H])C3([H])N([H])c1nc([H])nn2c([H])c([H])c([H])c12

$$$$
40:2:1
     RDKit          3D

 40 44  0  0  1  0  0  0  0  0999 V2000
    5.4074   -2.0134   -2.3067 O   0  0  0  0  0  0  0  0  0  0  0  0
    4.7139   -3.0200   -2.0961 C   0  0  0  0  0  0  0  0  0  0  0  0
    4.2379   -3.8432   -3.0682 O   0  0  0  0  0  0  0  0  0  0  0  0
    4.3340   -3.4891   -0.6841 C   0  0  2  0  0  0  0  0  0  0  0  0
    4.6608   -2.4418    0.3880 C   0  0  0  0  0  0  0  0  0  0  0  0
    4.0090   -3.0712    1.6256 C   0  0  2  0  0  0  0  0  0  0  0  0
    4.9757   -4.1565    2.1160 C   0  0  0  0  0  0  0  0  0  0  0  0
    4.6268   -5.2886    1.1482 C   0  0  2  0  0  0  0  0  0  0  0  0
    5.0118   -4.8516   -0.3040 C   0  0  0  0  0  0  0  0  0  0  0  0
    3.0959   -5.3535    1.2775 C   0  0  1  0  0  0  0  0  0  0  0  0
    2.6532   -5.8858    2.5781 N   0  0  0  0  0  0  0  0  0  0  0  0
    1.5132   -6.7020    2.6955 C   0  0  0  0  0  0  0  0  0  0  0  0
    0.6943   -6.8470    1.6201 N   0  0  0  0  0  0  0  0  0  0  0  0
   -0.3560   -7.7119    1.7390 C   0  0  0  0  0  0  0  0  0  0  0  0
   -0.7498   -8.4192    2.8235 N   0  0  0  0  0  0  0  0  0  0  0  0
    0.0685   -8.1965    3.8529 N   0  0  0  0  0  0  0  0  0  0  0  0
   -0.0382   -8.7487    5.1091 C   0  0  0  0  0  0  0  0  0  0  0  0
    0.9988   -8.2801    5.8959 C   0  0  0  0  0  0  0  0  0  0  0  0
    1.8435   -7.3798    5.1442 C   0  0  0  0  0  0  0  0  0  0  0  0
    1.1826   -7.3948    3.8926 C   0  0  0  0  0  0  0  0  0  0  0  0
    2.7714   -3.8534    1.0743 C   0  0  2  0  0  0  0  0  0  0  0  0
    2.8190   -3.5956   -0.4475 C   0  0  0  0  0  0  0  0  0  0  0  0
    3.7394   -4.5868   -2.7301 H   0  0  0  0  0  0  0  0  0  0  0  0
    5.7310   -2.2586    0.5002 H   0  0  0  0  0  0  0  0  0  0  0  0
    4.1887   -1.4849    0.1533 H   0  0  0  0  0  0  0  0  0  0  0  0
    3.7748   -2.3348    2.3941 H   0  0  0  0  0  0  0  0  0  0  0  0
    6.0252   -3.8633    2.0667 H   0  0  0  0  0  0  0  0  0  0  0  0
    4.7650   -4.4295    3.1493 H   0  0  0  0  0  0  0  0  0  0  0  0
    5.1008   -6.2310    1.4165 H   0  0  0  0  0  0  0  0  0  0  0  0
    4.7216   -5.6318   -1.0069 H   0  0  0  0  0  0  0  0  0  0  0  0
    6.0941   -4.7550   -0.3764 H   0  0  0  0  0  0  0  0  0  0  0  0
    2.7026   -5.9636    0.4626 H   0  0  0  0  0  0  0  0  0  0  0  0
   -0.9415   -7.8567    0.8464 H   0  0  0  0  0  0  0  0  0  0  0  0
   -0.8508   -9.4375    5.2928 H   0  0  0  0  0  0  0  0  0  0  0  0
    1.1232   -8.5865    6.9237 H   0  0  0  0  0  0  0  0  0  0  0  0
    2.7375   -6.8027    5.3529 H   0  0  0  0  0  0  0  0  0  0  0  0
    1.8246   -3.5519    1.5190 H   0  0  0  0  0  0  0  0  0  0  0  0
    2.3216   -2.6582   -0.7004 H   0  0  0  0  0  0  0  0  0  0  0  0
    2.3402   -4.3808   -1.0334 H   0  0  0  0  0  0  0  0  0  0  0  0
    3.3217   -5.8771    3.3345 H   0  0  0  0  0  0  0  0  0  0  0  0
  1  2  2  0
  2  3  1  0
  4  2  1  6
  3 23  1  0
  4  9  1  0
  4 22  1  0
  4  5  1  0
  5  6  1  0
  5 24  1  0
  5 25  1  0
  6 21  1  0
  6  7  1  0
  6 26  1  1
  7  8  1  0
  7 27  1  0
  7 28  1  0
  8  9  1  0
  8 10  1  0
  8 29  1  1
  9 30  1  0
  9 31  1  0
 10 11  1  0
 10 21  1  0
 10 32  1  6
 11 12  1  0
 11 40  1  0
 12 20  1  0
 12 13  2  0
 13 14  1  0
 14 15  2  0
 14 33  1  0
 15 16  1  0
 16 20  1  0
 16 17  1  0
 17 18  2  0
 17 34  1  0
 18 19  1  0
 18 35  1  0
 19 20  2  0
 19 36  1  0
 21 22  1  0
 21 37  1  1
 22 38  1  0
 22 39  1  0
M  END
>  <i_m_ct_stereo_status>  (146) 
1

>  <s_m_source_file>  (146) 
/var/tmp/pbs.5076255.sched01/tmpazi1eam_/42934yjxx2.sdf

>  <i_m_source_file_index>  (146) 
20

>  <i_lp_mmshare_version>  (146) 
48012

>  <i_f3d_flags>  (146) 
0

>  <s_epik_input>  (146) 
Tz1DKFtPSF0pW0NAXTEyW0NIMl1bQ0BIXTNbQ0BASF0oW0NIMl0yKVtDQEBIXShbQ0BIXShbQ0gyXTMpW0NIMl0xKS9OPWMoXFtuSF1bY0hdbjQpYyhuNDUpW2NIXVtjSF1bY0hdNQ==

>  <s_epik_cmdline>  (146) 
J2VwaWtfcHl0aG9uJywgJy1waHQnLCAnMi4wJywgJy1waCcsICc3LjAnLCAnLXRuJywgJzgnLCAnLW1hJywgJzIwMCcsICctaW1hZScsICc8aW5maWxlLm1hZT4nLCAnLW9tYWUnLCAnPG91dGZpbGUubWFlPic=

>  <r_epik_Ionization_Penalty>  (146) 
2.45986

>  <r_epik_Ionization_Penalty_Charging>  (146) 
0

>  <r_epik_Ionization_Penalty_Neutral>  (146) 
2.45986

>  <r_epik_State_Penalty>  (146) 
2.61143

>  <r_epik_Charging_Adjusted_Penalty>  (146) 
2.61143

>  <i_epik_Tot_Q>  (146) 
0

>  <i_epik_Tot_abs_Q>  (146) 
0

>  <s_lp_Force_Field>  (146) 
OPLS3e

>  <r_lp_Energy>  (146) 
52.904

>  <b_lp_Chiralities_Consistent>  (146) 
1

>  <s_lp_Variant>  (146) 
40:0-3

>  <s_i_glide_gridfile>  (146) 
pfpi4k_grid

>  <i_i_glide_lignum>  (146) 
20

>  <i_i_glide_rotatable_bonds>  (146) 
4

>  <r_i_docking_score>  (146) 
-3.78938

>  <r_i_glide_ligand_efficiency>  (146) 
-0.172245

>  <r_i_glide_ligand_efficiency_sa>  (146) 
-0.482636

>  <r_i_glide_ligand_efficiency_ln>  (146) 
-0.926263

>  <r_i_glide_gscore>  (146) 
-3.78938

>  <r_i_glide_lipo>  (146) 
-0.110951

>  <r_i_glide_hbond>  (146) 
0

>  <r_i_glide_metal>  (146) 
-0

>  <r_i_glide_rewards>  (146) 
-1.43531

>  <r_i_glide_evdw>  (146) 
-25.1865

>  <r_i_glide_ecoul>  (146) 
-9.85809

>  <r_i_glide_erotb>  (146) 
0.618476

>  <r_i_glide_esite>  (146) 
-0.123561

>  <r_i_glide_emodel>  (146) 
-42.733

>  <r_i_glide_energy>  (146) 
-35.0445

>  <r_i_glide_einternal>  (146) 
2.25313

>  <r_i_glide_intrahb_reward>  (146) 
-0

>  <i_i_glide_confnum>  (146) 
5

>  <i_i_glide_posenum>  (146) 
17

>  <r_i_glide_eff_state_penalty>  (146) 
0

>  <ligand_id>  (146) 
40

>  <original_smiles>  (146) 
O=C(O)C12CC3CC(C1)C(N=c1[nH]cnn4cccc14)C3C2

>  <smiles>  (146) 
[H]OC(=O)C12C([H])([H])C3([H])C([H])([H])C([H])(C1([H])[H])C([H])(C2([H])[H])C3([H])N([H])c1nc([H])nn2c([H])c([H])c([H])c12

$$$$
40:2:2
     RDKit          3D

 40 44  0  0  1  0  0  0  0  0999 V2000
    4.9541   -2.2850   -3.0560 O   0  0  0  0  0  0  0  0  0  0  0  0
    4.0510   -2.2006   -2.2185 C   0  0  0  0  0  0  0  0  0  0  0  0
    3.0177   -1.3154   -2.3078 O   0  0  0  0  0  0  0  0  0  0  0  0
    4.0208   -3.0409   -0.9276 C   0  0  2  0  0  0  0  0  0  0  0  0
    4.3049   -2.2070    0.3299 C   0  0  0  0  0  0  0  0  0  0  0  0
    4.0091   -3.2408    1.4338 C   0  0  2  0  0  0  0  0  0  0  0  0
    5.2328   -4.1620    1.5206 C   0  0  0  0  0  0  0  0  0  0  0  0
    4.9573   -5.0948    0.3381 C   0  0  2  0  0  0  0  0  0  0  0  0
    5.0129   -4.2519   -0.9812 C   0  0  0  0  0  0  0  0  0  0  0  0
    3.5094   -5.5374    0.6176 C   0  0  1  0  0  0  0  0  0  0  0  0
    3.3881   -6.4526    1.7627 N   0  0  0  0  0  0  0  0  0  0  0  0
    2.1896   -7.1435    2.0293 C   0  0  0  0  0  0  0  0  0  0  0  0
    1.0622   -6.7642    1.3808 N   0  0  0  0  0  0  0  0  0  0  0  0
   -0.0781   -7.4674    1.6460 C   0  0  0  0  0  0  0  0  0  0  0  0
   -0.2598   -8.5043    2.4909 N   0  0  0  0  0  0  0  0  0  0  0  0
    0.8838   -8.8195    3.1032 N   0  0  0  0  0  0  0  0  0  0  0  0
    1.0666   -9.8250    4.0267 C   0  0  0  0  0  0  0  0  0  0  0  0
    2.3890   -9.8272    4.4294 C   0  0  0  0  0  0  0  0  0  0  0  0
    3.1392   -8.7866    3.7553 C   0  0  0  0  0  0  0  0  0  0  0  0
    2.1198   -8.2199    2.9504 C   0  0  0  0  0  0  0  0  0  0  0  0
    2.8773   -4.1448    0.8446 C   0  0  2  0  0  0  0  0  0  0  0  0
    2.6223   -3.5537   -0.5522 C   0  0  0  0  0  0  0  0  0  0  0  0
    2.3668   -1.3608   -1.6100 H   0  0  0  0  0  0  0  0  0  0  0  0
    5.3218   -1.8147    0.3695 H   0  0  0  0  0  0  0  0  0  0  0  0
    3.6240   -1.3598    0.4133 H   0  0  0  0  0  0  0  0  0  0  0  0
    3.7619   -2.7811    2.3885 H   0  0  0  0  0  0  0  0  0  0  0  0
    6.1842   -3.6327    1.4359 H   0  0  0  0  0  0  0  0  0  0  0  0
    5.2482   -4.7082    2.4601 H   0  0  0  0  0  0  0  0  0  0  0  0
    5.6476   -5.9337    0.2946 H   0  0  0  0  0  0  0  0  0  0  0  0
    4.7741   -4.8886   -1.8305 H   0  0  0  0  0  0  0  0  0  0  0  0
    6.0285   -3.8991   -1.1491 H   0  0  0  0  0  0  0  0  0  0  0  0
    3.0914   -6.0356   -0.2593 H   0  0  0  0  0  0  0  0  0  0  0  0
   -0.9535   -7.1704    1.0924 H   0  0  0  0  0  0  0  0  0  0  0  0
    0.2151  -10.4306    4.2935 H   0  0  0  0  0  0  0  0  0  0  0  0
    2.7740  -10.5302    5.1556 H   0  0  0  0  0  0  0  0  0  0  0  0
    4.1694   -8.4450    3.7766 H   0  0  0  0  0  0  0  0  0  0  0  0
    1.9733   -4.1660    1.4491 H   0  0  0  0  0  0  0  0  0  0  0  0
    1.9099   -2.7441   -0.4645 H   0  0  0  0  0  0  0  0  0  0  0  0
    2.2191   -4.2581   -1.2759 H   0  0  0  0  0  0  0  0  0  0  0  0
    4.2484   -6.8069    2.1615 H   0  0  0  0  0  0  0  0  0  0  0  0
  1  2  2  0
  2  3  1  0
  4  2  1  6
  3 23  1  0
  4  9  1  0
  4 22  1  0
  4  5  1  0
  5  6  1  0
  5 24  1  0
  5 25  1  0
  6 21  1  0
  6  7  1  0
  6 26  1  1
  7  8  1  0
  7 27  1  0
  7 28  1  0
  8  9  1  0
  8 10  1  0
  8 29  1  6
  9 30  1  0
  9 31  1  0
 10 11  1  0
 10 21  1  0
 10 32  1  6
 11 12  1  0
 11 40  1  0
 12 20  1  0
 12 13  2  0
 13 14  1  0
 14 15  2  0
 14 33  1  0
 15 16  1  0
 16 20  1  0
 16 17  1  0
 17 18  2  0
 17 34  1  0
 18 19  1  0
 18 35  1  0
 19 20  2  0
 19 36  1  0
 21 22  1  0
 21 37  1  1
 22 38  1  0
 22 39  1  0
M  END
>  <i_m_ct_stereo_status>  (147) 
1

>  <s_m_source_file>  (147) 
/var/tmp/pbs.5076255.sched01/tmpazi1eam_/42934yjxx2.sdf

>  <i_m_source_file_index>  (147) 
20

>  <i_lp_mmshare_version>  (147) 
48012

>  <i_f3d_flags>  (147) 
0

>  <s_epik_input>  (147) 
Tz1DKFtPSF0pW0NAXTEyW0NIMl1bQ0BIXTNbQ0BASF0oW0NIMl0yKVtDQEBIXShbQ0BIXShbQ0gyXTMpW0NIMl0xKS9OPWMoXFtuSF1bY0hdbjQpYyhuNDUpW2NIXVtjSF1bY0hdNQ==

>  <s_epik_cmdline>  (147) 
J2VwaWtfcHl0aG9uJywgJy1waHQnLCAnMi4wJywgJy1waCcsICc3LjAnLCAnLXRuJywgJzgnLCAnLW1hJywgJzIwMCcsICctaW1hZScsICc8aW5maWxlLm1hZT4nLCAnLW9tYWUnLCAnPG91dGZpbGUubWFlPic=

>  <r_epik_Ionization_Penalty>  (147) 
2.45986

>  <r_epik_Ionization_Penalty_Charging>  (147) 
0

>  <r_epik_Ionization_Penalty_Neutral>  (147) 
2.45986

>  <r_epik_State_Penalty>  (147) 
2.61143

>  <r_epik_Charging_Adjusted_Penalty>  (147) 
2.61143

>  <i_epik_Tot_Q>  (147) 
0

>  <i_epik_Tot_abs_Q>  (147) 
0

>  <s_lp_Force_Field>  (147) 
OPLS3e

>  <r_lp_Energy>  (147) 
52.904

>  <b_lp_Chiralities_Consistent>  (147) 
1

>  <s_lp_Variant>  (147) 
40:0-3

>  <s_i_glide_gridfile>  (147) 
pfpi4k_grid

>  <i_i_glide_lignum>  (147) 
20

>  <i_i_glide_rotatable_bonds>  (147) 
4

>  <r_i_docking_score>  (147) 
-3.25999

>  <r_i_glide_ligand_efficiency>  (147) 
-0.148181

>  <r_i_glide_ligand_efficiency_sa>  (147) 
-0.41521

>  <r_i_glide_ligand_efficiency_ln>  (147) 
-0.79686

>  <r_i_glide_gscore>  (147) 
-3.25999

>  <r_i_glide_lipo>  (147) 
-0.117633

>  <r_i_glide_hbond>  (147) 
0

>  <r_i_glide_metal>  (147) 
-0

>  <r_i_glide_rewards>  (147) 
-1.37496

>  <r_i_glide_evdw>  (147) 
-27.2147

>  <r_i_glide_ecoul>  (147) 
-6.1474

>  <r_i_glide_erotb>  (147) 
0.618476

>  <r_i_glide_esite>  (147) 
-0.103026

>  <r_i_glide_emodel>  (147) 
-39.9915

>  <r_i_glide_energy>  (147) 
-33.3621

>  <r_i_glide_einternal>  (147) 
1.91401

>  <r_i_glide_intrahb_reward>  (147) 
-0

>  <i_i_glide_confnum>  (147) 
5

>  <i_i_glide_posenum>  (147) 
1

>  <r_i_glide_eff_state_penalty>  (147) 
0

>  <ligand_id>  (147) 
40

>  <original_smiles>  (147) 
O=C(O)C12CC3CC(C1)C(N=c1[nH]cnn4cccc14)C3C2

>  <smiles>  (147) 
[H]OC(=O)C12C([H])([H])C3([H])C([H])([H])C([H])(C1([H])[H])C([H])(C2([H])[H])C3([H])N([H])c1nc([H])nn2c([H])c([H])c([H])c12

$$$$
41:0:0
     RDKit          3D

 79 83  0  0  1  0  0  0  0  0999 V2000
   -0.5969   -6.6095    4.6532 C   0  0  0  0  0  0  0  0  0  0  0  0
    0.7807   -6.8505    4.0173 C   0  0  2  0  0  0  0  0  0  0  0  0
    1.2836   -8.2380    4.3503 C   0  0  0  0  0  0  0  0  0  0  0  0
    1.4024   -9.0350    3.4202 O   0  0  0  0  0  0  0  0  0  0  0  0
    1.5464   -8.6172    5.7446 C   0  0  0  0  0  0  0  0  0  0  0  0
    1.9696   -7.8464    6.7904 C   0  0  0  0  0  0  0  0  0  0  0  0
    2.0871   -8.5762    8.1601 C   0  0  0  0  0  0  0  0  0  0  0  0
    0.7935   -9.3899    8.4384 C   0  0  0  0  0  0  0  0  0  0  0  0
    3.2932   -9.5480    8.0907 C   0  0  0  0  0  0  0  0  0  0  0  0
    2.2439   -7.6243    9.3798 C   0  0  1  0  0  0  0  0  0  0  0  0
    2.4878   -8.3265   10.5863 O   0  0  0  0  0  0  0  0  0  0  0  0
    3.3110   -6.5480    9.2225 C   0  0  0  0  0  0  0  0  0  0  0  0
    3.6184   -6.1958    7.7650 C   0  0  0  0  0  0  0  0  0  0  0  0
    2.4431   -6.3457    6.7296 C   0  0  2  0  0  0  0  0  0  0  0  0
    1.3059   -5.4091    7.2454 C   0  0  0  0  0  0  0  0  0  0  0  0
    2.9551   -5.8475    5.2850 C   0  0  2  0  0  0  0  0  0  0  0  0
    4.1290   -6.7693    4.8036 C   0  0  0  0  0  0  0  0  0  0  0  0
    3.5797   -4.4064    5.3611 C   0  0  0  0  0  0  0  0  0  0  0  0
    4.0540   -3.7941    4.0182 C   0  0  0  0  0  0  0  0  0  0  0  0
    2.9980   -3.7999    2.8916 C   0  0  2  0  0  0  0  0  0  0  0  0
    1.9030   -2.7518    3.2452 C   0  0  0  0  0  0  0  0  0  0  0  0
    2.4357   -5.2336    2.8578 C   0  0  0  0  0  0  0  0  0  0  0  0
    2.6131   -6.0467    1.7887 C   0  0  0  0  0  0  0  0  0  0  0  0
    3.3833   -5.6851    0.5393 C   0  0  0  0  0  0  0  0  0  0  0  0
    4.3462   -4.4938    0.7409 C   0  0  1  0  0  0  0  0  0  0  0  0
    4.7282   -3.7728   -0.5615 C   0  0  1  0  0  0  0  0  0  0  0  0
    5.0087   -4.6291   -1.6364 O   0  0  0  0  0  0  0  0  0  0  0  0
    3.6353   -2.7228   -0.8469 C   0  0  0  0  0  0  0  0  0  0  0  0
    4.3106   -1.3741   -1.1283 C   0  0  0  0  0  0  0  0  0  0  0  0
    2.6904   -3.0529   -2.0304 C   0  0  0  0  0  0  0  0  0  0  0  0
    2.8331   -2.6629    0.4788 C   0  0  0  0  0  0  0  0  0  0  0  0
    3.6893   -3.3719    1.5463 C   0  0  1  0  0  0  0  0  0  0  0  0
    1.8253   -5.7162    4.1895 C   0  0  1  0  0  0  0  0  0  0  0  0
   -1.3391   -7.2886    4.2242 H   0  0  0  0  0  0  0  0  0  0  0  0
   -0.9365   -5.5948    4.4556 H   0  0  0  0  0  0  0  0  0  0  0  0
   -0.5979   -6.7613    5.7321 H   0  0  0  0  0  0  0  0  0  0  0  0
    0.5409   -6.8851    2.9599 H   0  0  0  0  0  0  0  0  0  0  0  0
    1.3636   -9.6647    5.9268 H   0  0  0  0  0  0  0  0  0  0  0  0
    0.7808   -9.8071    9.4454 H   0  0  0  0  0  0  0  0  0  0  0  0
    0.6633  -10.2443    7.7753 H   0  0  0  0  0  0  0  0  0  0  0  0
   -0.0840   -8.7524    8.3235 H   0  0  0  0  0  0  0  0  0  0  0  0
    3.3824  -10.1662    8.9858 H   0  0  0  0  0  0  0  0  0  0  0  0
    4.2403   -9.0141    7.9592 H   0  0  0  0  0  0  0  0  0  0  0  0
    3.1998  -10.2417    7.2495 H   0  0  0  0  0  0  0  0  0  0  0  0
    1.2945   -7.1248    9.5531 H   0  0  0  0  0  0  0  0  0  0  0  0
    3.2378   -8.8903   10.4572 H   0  0  0  0  0  0  0  0  0  0  0  0
    2.9832   -5.6578    9.7611 H   0  0  0  0  0  0  0  0  0  0  0  0
    4.2443   -6.8444    9.7004 H   0  0  0  0  0  0  0  0  0  0  0  0
    4.0091   -5.1823    7.8070 H   0  0  0  0  0  0  0  0  0  0  0  0
    4.4557   -6.8159    7.4504 H   0  0  0  0  0  0  0  0  0  0  0  0
    1.7033   -4.5139    7.7291 H   0  0  0  0  0  0  0  0  0  0  0  0
    0.6752   -5.9037    7.9775 H   0  0  0  0  0  0  0  0  0  0  0  0
    0.6215   -5.0618    6.4803 H   0  0  0  0  0  0  0  0  0  0  0  0
    4.4096   -6.5861    3.7676 H   0  0  0  0  0  0  0  0  0  0  0  0
    3.9175   -7.8363    4.8754 H   0  0  0  0  0  0  0  0  0  0  0  0
    5.0436   -6.5916    5.3758 H   0  0  0  0  0  0  0  0  0  0  0  0
    2.8790   -3.7181    5.8351 H   0  0  0  0  0  0  0  0  0  0  0  0
    4.4735   -4.3921    5.9826 H   0  0  0  0  0  0  0  0  0  0  0  0
    4.3972   -2.7747    4.1946 H   0  0  0  0  0  0  0  0  0  0  0  0
    4.9361   -4.3378    3.6785 H   0  0  0  0  0  0  0  0  0  0  0  0
    2.2724   -1.7324    3.1217 H   0  0  0  0  0  0  0  0  0  0  0  0
    1.5601   -2.8154    4.2756 H   0  0  0  0  0  0  0  0  0  0  0  0
    1.0235   -2.8687    2.6123 H   0  0  0  0  0  0  0  0  0  0  0  0
    2.2668   -7.0691    1.7983 H   0  0  0  0  0  0  0  0  0  0  0  0
    3.9748   -6.5572    0.2553 H   0  0  0  0  0  0  0  0  0  0  0  0
    2.6615   -5.5143   -0.2604 H   0  0  0  0  0  0  0  0  0  0  0  0
    5.2444   -4.8540    1.2461 H   0  0  0  0  0  0  0  0  0  0  0  0
    5.6620   -3.2441   -0.3588 H   0  0  0  0  0  0  0  0  0  0  0  0
    4.2330   -5.1109   -1.8970 H   0  0  0  0  0  0  0  0  0  0  0  0
    3.5358   -0.6333   -1.2961 H   0  0  0  0  0  0  0  0  0  0  0  0
    4.9300   -1.4107   -2.0259 H   0  0  0  0  0  0  0  0  0  0  0  0
    4.9341   -1.0365   -0.2964 H   0  0  0  0  0  0  0  0  0  0  0  0
    1.9147   -2.2930   -2.1469 H   0  0  0  0  0  0  0  0  0  0  0  0
    2.1704   -3.9985   -1.9008 H   0  0  0  0  0  0  0  0  0  0  0  0
    3.2201   -3.0741   -2.9815 H   0  0  0  0  0  0  0  0  0  0  0  0
    2.5878   -1.6358    0.7722 H   0  0  0  0  0  0  0  0  0  0  0  0
    1.8799   -3.1849    0.3586 H   0  0  0  0  0  0  0  0  0  0  0  0
    4.4688   -2.6567    1.7991 H   0  0  0  0  0  0  0  0  0  0  0  0
    1.2071   -4.8816    4.4853 H   0  0  0  0  0  0  0  0  0  0  0  0
  1  2  1  0
  1 34  1  0
  1 35  1  0
  1 36  1  0
  2 33  1  0
  2  3  1  0
  2 37  1  6
  3  4  2  0
  3  5  1  0
  5  6  2  0
  5 38  1  0
  6 14  1  0
  6  7  1  0
  7  8  1  0
  7  9  1  0
  7 10  1  0
  8 39  1  0
  8 40  1  0
  8 41  1  0
  9 42  1  0
  9 43  1  0
  9 44  1  0
 10 11  1  0
 10 12  1  0
 10 45  1  1
 11 46  1  0
 12 13  1  0
 12 47  1  0
 12 48  1  0
 13 14  1  0
 13 49  1  0
 13 50  1  0
 14 15  1  1
 14 16  1  0
 15 51  1  0
 15 52  1  0
 15 53  1  0
 16 33  1  0
 16 17  1  6
 16 18  1  0
 17 54  1  0
 17 55  1  0
 17 56  1  0
 18 19  1  0
 18 57  1  0
 18 58  1  0
 19 20  1  0
 19 59  1  0
 19 60  1  0
 20 32  1  0
 20 21  1  1
 20 22  1  0
 21 61  1  0
 21 62  1  0
 21 63  1  0
 22 23  2  0
 22 33  1  0
 23 24  1  0
 23 64  1  0
 24 25  1  0
 24 65  1  0
 24 66  1  0
 25 32  1  0
 25 26  1  0
 25 67  1  1
 26 27  1  0
 26 28  1  0
 26 68  1  1
 27 69  1  0
 28 29  1  0
 28 30  1  0
 28 31  1  0
 29 70  1  0
 29 71  1  0
 29 72  1  0
 30 73  1  0
 30 74  1  0
 30 75  1  0
 31 32  1  0
 31 76  1  0
 31 77  1  0
 32 78  1  1
 33 79  1  1
M  END
>  <i_m_ct_stereo_status>  (148) 
1

>  <s_m_source_file>  (148) 
/var/tmp/pbs.5076255.sched01/tmpazi1eam_/42934yjxx2.sdf

>  <i_m_source_file_index>  (148) 
21

>  <i_lp_mmshare_version>  (148) 
48012

>  <i_f3d_flags>  (148) 
0

>  <s_epik_input>  (148) 
W0NIMl0xW0NIMl1bQ0BIXShbT0hdKUMoW0NIM10pKFtDSDNdKUMoW0NAQF0xMltDSDNdKT1bQ0hdQyg9TylbQ0BASF0oW0NIM10pW0NASF0zW0NAQF0yKFtDSDNdKVtDSDJdW0NIMl1bQ0BdNChbQ0gzXSlDMz1bQ0hdW0NIMl1bQ0BASF01W0NASF00W0NIMl1DKFtDSDNdKShbQ0gzXSlbQ0BASF01W09IXQ==

>  <s_epik_cmdline>  (148) 
J2VwaWtfcHl0aG9uJywgJy1waHQnLCAnMi4wJywgJy1waCcsICc3LjAnLCAnLXRuJywgJzgnLCAnLW1hJywgJzIwMCcsICctaW1hZScsICc8aW5maWxlLm1hZT4nLCAnLW9tYWUnLCAnPG91dGZpbGUubWFlPic=

>  <r_lp_tautomer_probability>  (148) 
1

>  <r_epik_Ionization_Penalty>  (148) 
1.95024e-06

>  <r_epik_Ionization_Penalty_Charging>  (148) 
0

>  <r_epik_Ionization_Penalty_Neutral>  (148) 
1.95024e-06

>  <r_epik_State_Penalty>  (148) 
-0

>  <r_epik_Charging_Adjusted_Penalty>  (148) 
0

>  <i_epik_Tot_Q>  (148) 
0

>  <i_epik_Tot_abs_Q>  (148) 
0

>  <s_lp_Force_Field>  (148) 
OPLS3e

>  <r_lp_Energy>  (148) 
84.3031

>  <b_lp_Chiralities_Consistent>  (148) 
1

>  <s_lp_Variant>  (148) 
41:0-1

>  <s_i_glide_gridfile>  (148) 
pfpi4k_grid

>  <i_i_glide_lignum>  (148) 
21

>  <i_i_glide_rotatable_bonds>  (148) 
2

>  <r_i_docking_score>  (148) 
-2.47431

>  <r_i_glide_ligand_efficiency>  (148) 
-0.074979

>  <r_i_glide_ligand_efficiency_sa>  (148) 
-0.240498

>  <r_i_glide_ligand_efficiency_ln>  (148) 
-0.550273

>  <r_i_glide_gscore>  (148) 
-2.47431

>  <r_i_glide_lipo>  (148) 
-0.0812503

>  <r_i_glide_hbond>  (148) 
-0.32

>  <r_i_glide_metal>  (148) 
-0

>  <r_i_glide_rewards>  (148) 
-0.30897

>  <r_i_glide_evdw>  (148) 
-22.5824

>  <r_i_glide_ecoul>  (148) 
-4.14878

>  <r_i_glide_erotb>  (148) 
0

>  <r_i_glide_esite>  (148) 
-0.0126497

>  <r_i_glide_emodel>  (148) 
-30.1856

>  <r_i_glide_energy>  (148) 
-26.7312

>  <r_i_glide_einternal>  (148) 
0.116203

>  <r_i_glide_intrahb_reward>  (148) 
-0

>  <i_i_glide_confnum>  (148) 
2

>  <i_i_glide_posenum>  (148) 
39

>  <r_i_glide_eff_state_penalty>  (148) 
0

>  <ligand_id>  (148) 
41

>  <original_smiles>  (148) 
CC1C(=O)C=C2C(C)(C)C(O)CCC2(C)C2(C)CCC3(C)C(=CCC4C(O)C(C)(C)CC43)C12

>  <smiles>  (148) 
[H]OC1([H])C([H])([H])C([H])([H])C2(C([H])([H])[H])C(=C([H])C(=O)C([H])(C([H])([H])[H])C3([H])C4=C([H])C([H])([H])C5([H])C([H])(O[H])C(C([H])([H])[H])(C([H])([H])[H])C([H])([H])C5([H])C4(C([H])([H])[H])C([H])([H])C([H])([H])C32C([H])([H])[H])C1(C([H])([H])[H])C([H])([H])[H]

$$$$
41:0:1
     RDKit          3D

 79 83  0  0  1  0  0  0  0  0999 V2000
   -0.3362   -6.7630    4.2982 C   0  0  0  0  0  0  0  0  0  0  0  0
    1.1946   -6.7407    4.1186 C   0  0  2  0  0  0  0  0  0  0  0  0
    1.8283   -7.9761    4.7199 C   0  0  0  0  0  0  0  0  0  0  0  0
    2.3755   -8.7712    3.9600 O   0  0  0  0  0  0  0  0  0  0  0  0
    1.7303   -8.2314    6.1613 C   0  0  0  0  0  0  0  0  0  0  0  0
    1.6667   -7.3500    7.1995 C   0  0  0  0  0  0  0  0  0  0  0  0
    1.5066   -7.9924    8.6156 C   0  0  0  0  0  0  0  0  0  0  0  0
    0.3733   -9.0524    8.5841 C   0  0  0  0  0  0  0  0  0  0  0  0
    2.8380   -8.6916    8.9925 C   0  0  0  0  0  0  0  0  0  0  0  0
    1.0995   -6.9815    9.7264 C   0  0  1  0  0  0  0  0  0  0  0  0
    1.0878   -7.5587   11.0185 O   0  0  0  0  0  0  0  0  0  0  0  0
    1.9376   -5.7103    9.7766 C   0  0  0  0  0  0  0  0  0  0  0  0
    2.5994   -5.3588    8.4409 C   0  0  0  0  0  0  0  0  0  0  0  0
    1.8374   -5.7898    7.1353 C   0  0  2  0  0  0  0  0  0  0  0  0
    0.4403   -5.1000    7.2062 C   0  0  0  0  0  0  0  0  0  0  0  0
    2.6635   -5.2545    5.8541 C   0  0  2  0  0  0  0  0  0  0  0  0
    4.0793   -5.9274    5.8229 C   0  0  0  0  0  0  0  0  0  0  0  0
    2.9478   -3.7117    5.9625 C   0  0  0  0  0  0  0  0  0  0  0  0
    3.6798   -3.0666    4.7577 C   0  0  0  0  0  0  0  0  0  0  0  0
    3.0310   -3.3368    3.3807 C   0  0  2  0  0  0  0  0  0  0  0  0
    1.7043   -2.5326    3.3015 C   0  0  0  0  0  0  0  0  0  0  0  0
    2.7920   -4.8582    3.3265 C   0  0  0  0  0  0  0  0  0  0  0  0
    3.4349   -5.6543    2.4468 C   0  0  0  0  0  0  0  0  0  0  0  0
    4.4646   -5.1934    1.4373 C   0  0  0  0  0  0  0  0  0  0  0  0
    5.0682   -3.8153    1.7814 C   0  0  1  0  0  0  0  0  0  0  0  0
    5.6819   -3.0862    0.5686 C   0  0  1  0  0  0  0  0  0  0  0  0
    6.4204   -3.9106   -0.3080 O   0  0  0  0  0  0  0  0  0  0  0  0
    4.5347   -2.2861   -0.1055 C   0  0  0  0  0  0  0  0  0  0  0  0
    4.9930   -0.8337   -0.3072 C   0  0  0  0  0  0  0  0  0  0  0  0
    4.0665   -2.8457   -1.4669 C   0  0  0  0  0  0  0  0  0  0  0  0
    3.3756   -2.3564    0.9191 C   0  0  0  0  0  0  0  0  0  0  0  0
    3.9976   -2.8242    2.2506 C   0  0  1  0  0  0  0  0  0  0  0  0
    1.9073   -5.4068    4.4696 C   0  0  1  0  0  0  0  0  0  0  0  0
   -0.7653   -7.6053    3.7475 H   0  0  0  0  0  0  0  0  0  0  0  0
   -0.7887   -5.8571    3.9044 H   0  0  0  0  0  0  0  0  0  0  0  0
   -0.6406   -6.8761    5.3390 H   0  0  0  0  0  0  0  0  0  0  0  0
    1.2958   -6.8685    3.0460 H   0  0  0  0  0  0  0  0  0  0  0  0
    1.7013   -9.2848    6.3789 H   0  0  0  0  0  0  0  0  0  0  0  0
    0.1494   -9.4178    9.5860 H   0  0  0  0  0  0  0  0  0  0  0  0
    0.6176   -9.9415    8.0045 H   0  0  0  0  0  0  0  0  0  0  0  0
   -0.5432   -8.6256    8.1666 H   0  0  0  0  0  0  0  0  0  0  0  0
    2.7629   -9.2381    9.9328 H   0  0  0  0  0  0  0  0  0  0  0  0
    3.6568   -7.9756    9.0876 H   0  0  0  0  0  0  0  0  0  0  0  0
    3.1346   -9.4180    8.2333 H   0  0  0  0  0  0  0  0  0  0  0  0
    0.0653   -6.6882    9.5628 H   0  0  0  0  0  0  0  0  0  0  0  0
    1.9664   -7.8417   11.2294 H   0  0  0  0  0  0  0  0  0  0  0  0
    1.3015   -4.8896   10.1042 H   0  0  0  0  0  0  0  0  0  0  0  0
    2.7227   -5.7843   10.5295 H   0  0  0  0  0  0  0  0  0  0  0  0
    2.7596   -4.2866    8.4932 H   0  0  0  0  0  0  0  0  0  0  0  0
    3.5929   -5.8028    8.4447 H   0  0  0  0  0  0  0  0  0  0  0  0
    0.4958   -4.1253    7.6920 H   0  0  0  0  0  0  0  0  0  0  0  0
   -0.2822   -5.6887    7.7652 H   0  0  0  0  0  0  0  0  0  0  0  0
   -0.0318   -4.9313    6.2461 H   0  0  0  0  0  0  0  0  0  0  0  0
    4.6216   -5.7315    4.8986 H   0  0  0  0  0  0  0  0  0  0  0  0
    4.0631   -7.0107    5.9393 H   0  0  0  0  0  0  0  0  0  0  0  0
    4.7272   -5.5410    6.6136 H   0  0  0  0  0  0  0  0  0  0  0  0
    2.0201   -3.1725    6.1428 H   0  0  0  0  0  0  0  0  0  0  0  0
    3.5897   -3.4844    6.8109 H   0  0  0  0  0  0  0  0  0  0  0  0
    3.7548   -1.9912    4.9236 H   0  0  0  0  0  0  0  0  0  0  0  0
    4.7092   -3.4255    4.7422 H   0  0  0  0  0  0  0  0  0  0  0  0
    1.8879   -1.4662    3.1829 H   0  0  0  0  0  0  0  0  0  0  0  0
    1.0835   -2.6253    4.1904 H   0  0  0  0  0  0  0  0  0  0  0  0
    1.0911   -2.8606    2.4663 H   0  0  0  0  0  0  0  0  0  0  0  0
    3.2998   -6.7251    2.4624 H   0  0  0  0  0  0  0  0  0  0  0  0
    5.2703   -5.9293    1.4289 H   0  0  0  0  0  0  0  0  0  0  0  0
    4.0005   -5.2149    0.4514 H   0  0  0  0  0  0  0  0  0  0  0  0
    5.8205   -3.9519    2.5596 H   0  0  0  0  0  0  0  0  0  0  0  0
    6.4073   -2.3798    0.9750 H   0  0  0  0  0  0  0  0  0  0  0  0
    5.8268   -4.5426   -0.6870 H   0  0  0  0  0  0  0  0  0  0  0  0
    4.2032   -0.2322   -0.7494 H   0  0  0  0  0  0  0  0  0  0  0  0
    5.8417   -0.7837   -0.9871 H   0  0  0  0  0  0  0  0  0  0  0  0
    5.2844   -0.3584    0.6322 H   0  0  0  0  0  0  0  0  0  0  0  0
    3.2153   -2.2758   -1.8430 H   0  0  0  0  0  0  0  0  0  0  0  0
    3.7488   -3.8849   -1.4014 H   0  0  0  0  0  0  0  0  0  0  0  0
    4.8505   -2.7848   -2.2210 H   0  0  0  0  0  0  0  0  0  0  0  0
    2.8631   -1.3966    1.0185 H   0  0  0  0  0  0  0  0  0  0  0  0
    2.6224   -3.0763    0.5893 H   0  0  0  0  0  0  0  0  0  0  0  0
    4.5178   -1.9508    2.6445 H   0  0  0  0  0  0  0  0  0  0  0  0
    1.0816   -4.7092    4.4937 H   0  0  0  0  0  0  0  0  0  0  0  0
  1  2  1  0
  1 34  1  0
  1 35  1  0
  1 36  1  0
  2 33  1  0
  2  3  1  0
  2 37  1  6
  3  4  2  0
  3  5  1  0
  5  6  2  0
  5 38  1  0
  6 14  1  0
  6  7  1  0
  7  8  1  0
  7  9  1  0
  7 10  1  0
  8 39  1  0
  8 40  1  0
  8 41  1  0
  9 42  1  0
  9 43  1  0
  9 44  1  0
 10 11  1  0
 10 12  1  0
 10 45  1  6
 11 46  1  0
 12 13  1  0
 12 47  1  0
 12 48  1  0
 13 14  1  0
 13 49  1  0
 13 50  1  0
 14 15  1  1
 14 16  1  0
 15 51  1  0
 15 52  1  0
 15 53  1  0
 16 33  1  0
 16 17  1  6
 16 18  1  0
 17 54  1  0
 17 55  1  0
 17 56  1  0
 18 19  1  0
 18 57  1  0
 18 58  1  0
 19 20  1  0
 19 59  1  0
 19 60  1  0
 20 32  1  0
 20 21  1  1
 20 22  1  0
 21 61  1  0
 21 62  1  0
 21 63  1  0
 22 23  2  0
 22 33  1  0
 23 24  1  0
 23 64  1  0
 24 25  1  0
 24 65  1  0
 24 66  1  0
 25 32  1  0
 25 26  1  0
 25 67  1  1
 26 27  1  0
 26 28  1  0
 26 68  1  1
 27 69  1  0
 28 29  1  0
 28 30  1  0
 28 31  1  0
 29 70  1  0
 29 71  1  0
 29 72  1  0
 30 73  1  0
 30 74  1  0
 30 75  1  0
 31 32  1  0
 31 76  1  0
 31 77  1  0
 32 78  1  1
 33 79  1  1
M  END
>  <i_m_ct_stereo_status>  (149) 
1

>  <s_m_source_file>  (149) 
/var/tmp/pbs.5076255.sched01/tmpazi1eam_/42934yjxx2.sdf

>  <i_m_source_file_index>  (149) 
21

>  <i_lp_mmshare_version>  (149) 
48012

>  <i_f3d_flags>  (149) 
0

>  <s_epik_input>  (149) 
W0NIMl0xW0NIMl1bQ0BIXShbT0hdKUMoW0NIM10pKFtDSDNdKUMoW0NAQF0xMltDSDNdKT1bQ0hdQyg9TylbQ0BASF0oW0NIM10pW0NASF0zW0NAQF0yKFtDSDNdKVtDSDJdW0NIMl1bQ0BdNChbQ0gzXSlDMz1bQ0hdW0NIMl1bQ0BASF01W0NASF00W0NIMl1DKFtDSDNdKShbQ0gzXSlbQ0BASF01W09IXQ==

>  <s_epik_cmdline>  (149) 
J2VwaWtfcHl0aG9uJywgJy1waHQnLCAnMi4wJywgJy1waCcsICc3LjAnLCAnLXRuJywgJzgnLCAnLW1hJywgJzIwMCcsICctaW1hZScsICc8aW5maWxlLm1hZT4nLCAnLW9tYWUnLCAnPG91dGZpbGUubWFlPic=

>  <r_lp_tautomer_probability>  (149) 
1

>  <r_epik_Ionization_Penalty>  (149) 
1.95024e-06

>  <r_epik_Ionization_Penalty_Charging>  (149) 
0

>  <r_epik_Ionization_Penalty_Neutral>  (149) 
1.95024e-06

>  <r_epik_State_Penalty>  (149) 
-0

>  <r_epik_Charging_Adjusted_Penalty>  (149) 
0

>  <i_epik_Tot_Q>  (149) 
0

>  <i_epik_Tot_abs_Q>  (149) 
0

>  <s_lp_Force_Field>  (149) 
OPLS3e

>  <r_lp_Energy>  (149) 
84.3031

>  <b_lp_Chiralities_Consistent>  (149) 
1

>  <s_lp_Variant>  (149) 
41:0-1

>  <s_i_glide_gridfile>  (149) 
pfpi4k_grid

>  <i_i_glide_lignum>  (149) 
21

>  <i_i_glide_rotatable_bonds>  (149) 
2

>  <r_i_docking_score>  (149) 
-1.80116

>  <r_i_glide_ligand_efficiency>  (149) 
-0.0545805

>  <r_i_glide_ligand_efficiency_sa>  (149) 
-0.175069

>  <r_i_glide_ligand_efficiency_ln>  (149) 
-0.400568

>  <r_i_glide_gscore>  (149) 
-1.80116

>  <r_i_glide_lipo>  (149) 
-0.147368

>  <r_i_glide_hbond>  (149) 
0

>  <r_i_glide_metal>  (149) 
-0

>  <r_i_glide_rewards>  (149) 
-0.30897

>  <r_i_glide_evdw>  (149) 
-24.2987

>  <r_i_glide_ecoul>  (149) 
-0.822316

>  <r_i_glide_erotb>  (149) 
0

>  <r_i_glide_esite>  (149) 
-0.00653737

>  <r_i_glide_emodel>  (149) 
-27.6955

>  <r_i_glide_energy>  (149) 
-25.121

>  <r_i_glide_einternal>  (149) 
0.00231297

>  <r_i_glide_intrahb_reward>  (149) 
-0

>  <i_i_glide_confnum>  (149) 
1

>  <i_i_glide_posenum>  (149) 
35

>  <r_i_glide_eff_state_penalty>  (149) 
0

>  <ligand_id>  (149) 
41

>  <original_smiles>  (149) 
CC1C(=O)C=C2C(C)(C)C(O)CCC2(C)C2(C)CCC3(C)C(=CCC4C(O)C(C)(C)CC43)C12

>  <smiles>  (149) 
[H]OC1([H])C([H])([H])C([H])([H])C2(C([H])([H])[H])C(=C([H])C(=O)C([H])(C([H])([H])[H])C3([H])C4=C([H])C([H])([H])C5([H])C([H])(O[H])C(C([H])([H])[H])(C([H])([H])[H])C([H])([H])C5([H])C4(C([H])([H])[H])C([H])([H])C([H])([H])C32C([H])([H])[H])C1(C([H])([H])[H])C([H])([H])[H]

$$$$
41:0:2
     RDKit          3D

 79 83  0  0  1  0  0  0  0  0999 V2000
   -0.3946   -6.8616    3.8111 C   0  0  0  0  0  0  0  0  0  0  0  0
    1.1078   -6.9035    3.4786 C   0  0  2  0  0  0  0  0  0  0  0  0
    1.6966   -8.2480    3.8348 C   0  0  0  0  0  0  0  0  0  0  0  0
    2.1160   -8.9581    2.9230 O   0  0  0  0  0  0  0  0  0  0  0  0
    1.6982   -8.6950    5.2298 C   0  0  0  0  0  0  0  0  0  0  0  0
    1.7770   -7.9618    6.3786 C   0  0  0  0  0  0  0  0  0  0  0  0
    1.6644   -8.7785    7.7013 C   0  0  0  0  0  0  0  0  0  0  0  0
    0.4214   -9.6975    7.6069 C   0  0  0  0  0  0  0  0  0  0  0  0
    2.9628   -9.6173    7.8677 C   0  0  0  0  0  0  0  0  0  0  0  0
    1.4306   -7.9192    8.9767 C   0  0  1  0  0  0  0  0  0  0  0  0
    1.4772   -8.6819   10.1687 O   0  0  0  0  0  0  0  0  0  0  0  0
    2.3703   -6.7308    9.1274 C   0  0  0  0  0  0  0  0  0  0  0  0
    2.9496   -6.2367    7.7976 C   0  0  0  0  0  0  0  0  0  0  0  0
    2.0572   -6.4263    6.5165 C   0  0  2  0  0  0  0  0  0  0  0  0
    0.7294   -5.6647    6.8041 C   0  0  0  0  0  0  0  0  0  0  0  0
    2.8171   -5.7710    5.2542 C   0  0  2  0  0  0  0  0  0  0  0  0
    4.1660   -6.5255    5.0085 C   0  0  0  0  0  0  0  0  0  0  0  0
    3.2263   -4.2818    5.5440 C   0  0  0  0  0  0  0  0  0  0  0  0
    3.9082   -3.5246    4.3763 C   0  0  0  0  0  0  0  0  0  0  0  0
    3.1308   -3.5543    3.0415 C   0  0  2  0  0  0  0  0  0  0  0  0
    1.8716   -2.6564    3.1954 C   0  0  0  0  0  0  0  0  0  0  0  0
    2.7726   -5.0348    2.8023 C   0  0  0  0  0  0  0  0  0  0  0  0
    3.2785   -5.7385    1.7675 C   0  0  0  0  0  0  0  0  0  0  0  0
    4.2559   -5.2047    0.7429 C   0  0  0  0  0  0  0  0  0  0  0  0
    4.9912   -3.9333    1.2186 C   0  0  1  0  0  0  0  0  0  0  0  0
    5.5583   -3.0795    0.0682 C   0  0  1  0  0  0  0  0  0  0  0  0
    6.1490   -3.8138   -0.9762 O   0  0  0  0  0  0  0  0  0  0  0  0
    4.4278   -2.1245   -0.3858 C   0  0  0  0  0  0  0  0  0  0  0  0
    4.9803   -0.6898   -0.4240 C   0  0  0  0  0  0  0  0  0  0  0  0
    3.8142   -2.4513   -1.7664 C   0  0  0  0  0  0  0  0  0  0  0  0
    3.3496   -2.2622    0.7152 C   0  0  0  0  0  0  0  0  0  0  0  0
    4.0397   -2.9517    1.9098 C   0  0  1  0  0  0  0  0  0  0  0  0
    1.9437   -5.6793    3.9361 C   0  0  1  0  0  0  0  0  0  0  0  0
   -0.9374   -7.5603    3.1667 H   0  0  0  0  0  0  0  0  0  0  0  0
   -0.7861   -5.8607    3.6374 H   0  0  0  0  0  0  0  0  0  0  0  0
   -0.6176   -7.1264    4.8456 H   0  0  0  0  0  0  0  0  0  0  0  0
    1.1090   -6.8809    2.3950 H   0  0  0  0  0  0  0  0  0  0  0  0
    1.6055   -9.7625    5.3030 H   0  0  0  0  0  0  0  0  0  0  0  0
    0.2799  -10.2403    8.5385 H   0  0  0  0  0  0  0  0  0  0  0  0
    0.5162  -10.4767    6.8533 H   0  0  0  0  0  0  0  0  0  0  0  0
   -0.4880   -9.1391    7.3704 H   0  0  0  0  0  0  0  0  0  0  0  0
    2.9160  -10.2897    8.7257 H   0  0  0  0  0  0  0  0  0  0  0  0
    3.8455   -8.9844    7.9892 H   0  0  0  0  0  0  0  0  0  0  0  0
    3.1414  -10.2504    6.9963 H   0  0  0  0  0  0  0  0  0  0  0  0
    0.4126   -7.5362    8.9530 H   0  0  0  0  0  0  0  0  0  0  0  0
    2.3039   -9.1449   10.1958 H   0  0  0  0  0  0  0  0  0  0  0  0
    1.8303   -5.9253    9.6228 H   0  0  0  0  0  0  0  0  0  0  0  0
    3.2058   -6.9683    9.7872 H   0  0  0  0  0  0  0  0  0  0  0  0
    3.1941   -5.1951    7.9788 H   0  0  0  0  0  0  0  0  0  0  0  0
    3.9021   -6.7421    7.6538 H   0  0  0  0  0  0  0  0  0  0  0  0
    0.9023   -4.7741    7.4101 H   0  0  0  0  0  0  0  0  0  0  0  0
    0.0131   -6.2798    7.3426 H   0  0  0  0  0  0  0  0  0  0  0  0
    0.1959   -5.3326    5.9211 H   0  0  0  0  0  0  0  0  0  0  0  0
    4.6450   -6.2347    4.0739 H   0  0  0  0  0  0  0  0  0  0  0  0
    4.0721   -7.6119    4.9792 H   0  0  0  0  0  0  0  0  0  0  0  0
    4.8988   -6.2966    5.7873 H   0  0  0  0  0  0  0  0  0  0  0  0
    2.3611   -3.7141    5.8795 H   0  0  0  0  0  0  0  0  0  0  0  0
    3.9518   -4.2231    6.3527 H   0  0  0  0  0  0  0  0  0  0  0  0
    4.0743   -2.4896    4.6771 H   0  0  0  0  0  0  0  0  0  0  0  0
    4.9025   -3.9437    4.2199 H   0  0  0  0  0  0  0  0  0  0  0  0
    2.1371   -1.5995    3.2070 H   0  0  0  0  0  0  0  0  0  0  0  0
    1.3228   -2.8341    4.1199 H   0  0  0  0  0  0  0  0  0  0  0  0
    1.1700   -2.8151    2.3800 H   0  0  0  0  0  0  0  0  0  0  0  0
    3.0656   -6.7902    1.6447 H   0  0  0  0  0  0  0  0  0  0  0  0
    4.9984   -5.9833    0.5609 H   0  0  0  0  0  0  0  0  0  0  0  0
    3.7109   -5.0518   -0.1888 H   0  0  0  0  0  0  0  0  0  0  0  0
    5.7916   -4.2283    1.9003 H   0  0  0  0  0  0  0  0  0  0  0  0
    6.3653   -2.4834    0.4993 H   0  0  0  0  0  0  0  0  0  0  0  0
    5.4686   -4.3370   -1.3818 H   0  0  0  0  0  0  0  0  0  0  0  0
    4.2103    0.0244   -0.6966 H   0  0  0  0  0  0  0  0  0  0  0  0
    5.7766   -0.6104   -1.1703 H   0  0  0  0  0  0  0  0  0  0  0  0
    5.3880   -0.3776    0.5448 H   0  0  0  0  0  0  0  0  0  0  0  0
    2.9832   -1.7787   -1.9834 H   0  0  0  0  0  0  0  0  0  0  0  0
    3.4230   -3.4666   -1.8162 H   0  0  0  0  0  0  0  0  0  0  0  0
    4.5389   -2.3339   -2.5708 H   0  0  0  0  0  0  0  0  0  0  0  0
    2.9241   -1.2944    0.9899 H   0  0  0  0  0  0  0  0  0  0  0  0
    2.5191   -2.8754    0.3535 H   0  0  0  0  0  0  0  0  0  0  0  0
    4.6545   -2.1775    2.3696 H   0  0  0  0  0  0  0  0  0  0  0  0
    1.1805   -4.9373    4.1246 H   0  0  0  0  0  0  0  0  0  0  0  0
  1  2  1  0
  1 34  1  0
  1 35  1  0
  1 36  1  0
  2 33  1  0
  2  3  1  0
  2 37  1  6
  3  4  2  0
  3  5  1  0
  5  6  2  0
  5 38  1  0
  6 14  1  0
  6  7  1  0
  7  8  1  0
  7  9  1  0
  7 10  1  0
  8 39  1  0
  8 40  1  0
  8 41  1  0
  9 42  1  0
  9 43  1  0
  9 44  1  0
 10 11  1  0
 10 12  1  0
 10 45  1  6
 11 46  1  0
 12 13  1  0
 12 47  1  0
 12 48  1  0
 13 14  1  0
 13 49  1  0
 13 50  1  0
 14 15  1  1
 14 16  1  0
 15 51  1  0
 15 52  1  0
 15 53  1  0
 16 33  1  0
 16 17  1  6
 16 18  1  0
 17 54  1  0
 17 55  1  0
 17 56  1  0
 18 19  1  0
 18 57  1  0
 18 58  1  0
 19 20  1  0
 19 59  1  0
 19 60  1  0
 20 32  1  0
 20 21  1  1
 20 22  1  0
 21 61  1  0
 21 62  1  0
 21 63  1  0
 22 23  2  0
 22 33  1  0
 23 24  1  0
 23 64  1  0
 24 25  1  0
 24 65  1  0
 24 66  1  0
 25 32  1  0
 25 26  1  0
 25 67  1  1
 26 27  1  0
 26 28  1  0
 26 68  1  1
 27 69  1  0
 28 29  1  0
 28 30  1  0
 28 31  1  0
 29 70  1  0
 29 71  1  0
 29 72  1  0
 30 73  1  0
 30 74  1  0
 30 75  1  0
 31 32  1  0
 31 76  1  0
 31 77  1  0
 32 78  1  1
 33 79  1  1
M  END
>  <i_m_ct_stereo_status>  (150) 
1

>  <s_m_source_file>  (150) 
/var/tmp/pbs.5076255.sched01/tmpazi1eam_/42934yjxx2.sdf

>  <i_m_source_file_index>  (150) 
21

>  <i_lp_mmshare_version>  (150) 
48012

>  <i_f3d_flags>  (150) 
0

>  <s_epik_input>  (150) 
W0NIMl0xW0NIMl1bQ0BIXShbT0hdKUMoW0NIM10pKFtDSDNdKUMoW0NAQF0xMltDSDNdKT1bQ0hdQyg9TylbQ0BASF0oW0NIM10pW0NASF0zW0NAQF0yKFtDSDNdKVtDSDJdW0NIMl1bQ0BdNChbQ0gzXSlDMz1bQ0hdW0NIMl1bQ0BASF01W0NASF00W0NIMl1DKFtDSDNdKShbQ0gzXSlbQ0BASF01W09IXQ==

>  <s_epik_cmdline>  (150) 
J2VwaWtfcHl0aG9uJywgJy1waHQnLCAnMi4wJywgJy1waCcsICc3LjAnLCAnLXRuJywgJzgnLCAnLW1hJywgJzIwMCcsICctaW1hZScsICc8aW5maWxlLm1hZT4nLCAnLW9tYWUnLCAnPG91dGZpbGUubWFlPic=

>  <r_lp_tautomer_probability>  (150) 
1

>  <r_epik_Ionization_Penalty>  (150) 
1.95024e-06

>  <r_epik_Ionization_Penalty_Charging>  (150) 
0

>  <r_epik_Ionization_Penalty_Neutral>  (150) 
1.95024e-06

>  <r_epik_State_Penalty>  (150) 
-0

>  <r_epik_Charging_Adjusted_Penalty>  (150) 
0

>  <i_epik_Tot_Q>  (150) 
0

>  <i_epik_Tot_abs_Q>  (150) 
0

>  <s_lp_Force_Field>  (150) 
OPLS3e

>  <r_lp_Energy>  (150) 
84.3031

>  <b_lp_Chiralities_Consistent>  (150) 
1

>  <s_lp_Variant>  (150) 
41:0-1

>  <s_i_glide_gridfile>  (150) 
pfpi4k_grid

>  <i_i_glide_lignum>  (150) 
21

>  <i_i_glide_rotatable_bonds>  (150) 
2

>  <r_i_docking_score>  (150) 
-1.79862

>  <r_i_glide_ligand_efficiency>  (150) 
-0.0545037

>  <r_i_glide_ligand_efficiency_sa>  (150) 
-0.174822

>  <r_i_glide_ligand_efficiency_ln>  (150) 
-0.400004

>  <r_i_glide_gscore>  (150) 
-1.79862

>  <r_i_glide_lipo>  (150) 
-0.145378

>  <r_i_glide_hbond>  (150) 
0

>  <r_i_glide_metal>  (150) 
-0

>  <r_i_glide_rewards>  (150) 
-0.30897

>  <r_i_glide_evdw>  (150) 
-22.65

>  <r_i_glide_ecoul>  (150) 
-1.35097

>  <r_i_glide_erotb>  (150) 
0

>  <r_i_glide_esite>  (150) 
-0.00913066

>  <r_i_glide_emodel>  (150) 
-26.3997

>  <r_i_glide_energy>  (150) 
-24.0009

>  <r_i_glide_einternal>  (150) 
0.0909248

>  <r_i_glide_intrahb_reward>  (150) 
-0

>  <i_i_glide_confnum>  (150) 
1

>  <i_i_glide_posenum>  (150) 
9

>  <r_i_glide_eff_state_penalty>  (150) 
0

>  <ligand_id>  (150) 
41

>  <original_smiles>  (150) 
CC1C(=O)C=C2C(C)(C)C(O)CCC2(C)C2(C)CCC3(C)C(=CCC4C(O)C(C)(C)CC43)C12

>  <smiles>  (150) 
[H]OC1([H])C([H])([H])C([H])([H])C2(C([H])([H])[H])C(=C([H])C(=O)C([H])(C([H])([H])[H])C3([H])C4=C([H])C([H])([H])C5([H])C([H])(O[H])C(C([H])([H])[H])(C([H])([H])[H])C([H])([H])C5([H])C4(C([H])([H])[H])C([H])([H])C([H])([H])C32C([H])([H])[H])C1(C([H])([H])[H])C([H])([H])[H]

$$$$
42:0:0
     RDKit          3D

 46 49  0  0  1  0  0  0  0  0999 V2000
    0.7099    0.6210    1.8627 C   0  0  0  0  0  0  0  0  0  0  0  0
    2.0500    0.0296    1.9757 C   0  0  0  0  0  0  0  0  0  0  0  0
    2.6325   -0.5016    0.9364 N   0  0  0  0  0  0  0  0  0  0  0  0
    3.9426   -1.1686    0.9889 C   0  0  2  0  0  0  0  0  0  0  0  0
    4.7112   -0.5396    2.1697 C   0  0  0  0  0  0  0  0  0  0  0  0
    3.9980   -0.6882    3.4968 C   0  0  0  0  0  0  0  0  0  0  0  0
    3.6576   -2.1193    3.9189 C   0  0  0  0  0  0  0  0  0  0  0  0
    4.9016   -0.1940    4.6299 C   0  0  0  0  0  0  0  0  0  0  0  0
    2.7403    0.1430    3.3317 C   0  0  0  0  0  0  0  0  0  0  0  0
    4.8076   -1.0277   -0.2917 C   0  0  1  0  0  0  0  0  0  0  0  0
    6.1792   -1.7318   -0.0777 C   0  0  0  0  0  0  0  0  0  0  0  0
    5.9695   -3.2439    0.1791 C   0  0  2  0  0  0  0  0  0  0  0  0
    5.2133   -3.8969   -0.9893 C   0  0  0  0  0  0  0  0  0  0  0  0
    3.8614   -3.1872   -1.2210 C   0  0  2  0  0  0  0  0  0  0  0  0
    4.0829   -1.6834   -1.4866 C   0  0  0  0  0  0  0  0  0  0  0  0
    3.0044   -3.3509    0.0206 C   0  0  0  0  0  0  0  0  0  0  0  0
    3.7859   -2.7091    1.1374 C   0  0  1  0  0  0  0  0  0  0  0  0
    5.1242   -3.4242    1.4262 C   0  0  0  0  0  0  0  0  0  0  0  0
    0.3693    0.9222    2.8518 H   0  0  0  0  0  0  0  0  0  0  0  0
    0.0098   -0.1066    1.4617 H   0  0  0  0  0  0  0  0  0  0  0  0
    0.7411    1.4989    1.2218 H   0  0  0  0  0  0  0  0  0  0  0  0
    5.6312   -1.0264    2.2670 H   0  0  0  0  0  0  0  0  0  0  0  0
    4.9083    0.5263    2.0269 H   0  0  0  0  0  0  0  0  0  0  0  0
    3.3702   -2.2454    4.9331 H   0  0  0  0  0  0  0  0  0  0  0  0
    4.4526   -2.8364    3.7515 H   0  0  0  0  0  0  0  0  0  0  0  0
    2.6958   -2.4244    3.5424 H   0  0  0  0  0  0  0  0  0  0  0  0
    4.3558   -0.2782    5.5707 H   0  0  0  0  0  0  0  0  0  0  0  0
    5.1934    0.8431    4.4964 H   0  0  0  0  0  0  0  0  0  0  0  0
    5.8073   -0.7980    4.7219 H   0  0  0  0  0  0  0  0  0  0  0  0
    2.9912    1.1867    3.4980 H   0  0  0  0  0  0  0  0  0  0  0  0
    2.0285   -0.1568    4.0939 H   0  0  0  0  0  0  0  0  0  0  0  0
    4.9645    0.0273   -0.4762 H   0  0  0  0  0  0  0  0  0  0  0  0
    6.8321   -1.5674   -0.9224 H   0  0  0  0  0  0  0  0  0  0  0  0
    6.7541   -1.2859    0.7297 H   0  0  0  0  0  0  0  0  0  0  0  0
    6.9227   -3.7333    0.3512 H   0  0  0  0  0  0  0  0  0  0  0  0
    5.8234   -3.8520   -1.8844 H   0  0  0  0  0  0  0  0  0  0  0  0
    5.0474   -4.9555   -0.7828 H   0  0  0  0  0  0  0  0  0  0  0  0
    3.3185   -3.6473   -2.0369 H   0  0  0  0  0  0  0  0  0  0  0  0
    3.1304   -1.1842   -1.6634 H   0  0  0  0  0  0  0  0  0  0  0  0
    4.6723   -1.5589   -2.3920 H   0  0  0  0  0  0  0  0  0  0  0  0
    2.0270   -2.8745   -0.0713 H   0  0  0  0  0  0  0  0  0  0  0  0
    2.8062   -4.3943    0.2746 H   0  0  0  0  0  0  0  0  0  0  0  0
    3.0912   -2.9951    1.8460 H   0  0  0  0  0  0  0  0  0  0  0  0
    4.9453   -4.4607    1.7025 H   0  0  0  0  0  0  0  0  0  0  0  0
    5.6894   -3.0184    2.2586 H   0  0  0  0  0  0  0  0  0  0  0  0
    2.1100   -0.5376    0.0327 H   0  0  0  0  0  0  0  0  0  0  0  0
  1  2  1  0
  1 19  1  0
  1 20  1  0
  1 21  1  0
  2  9  1  0
  2  3  2  0
  3  4  1  0
  3 46  1  0
  4 17  1  0
  4  5  1  1
  4 10  1  0
  5  6  1  0
  5 22  1  0
  5 23  1  0
  6  7  1  0
  6  8  1  0
  6  9  1  0
  7 24  1  0
  7 25  1  0
  7 26  1  0
  8 27  1  0
  8 28  1  0
  8 29  1  0
  9 30  1  0
  9 31  1  0
 10 15  1  0
 10 11  1  0
 10 32  1  6
 11 12  1  0
 11 33  1  0
 11 34  1  0
 12 18  1  0
 12 13  1  0
 12 35  1  1
 13 14  1  0
 13 36  1  0
 13 37  1  0
 14 15  1  0
 14 16  1  0
 14 38  1  6
 15 39  1  0
 15 40  1  0
 16 17  1  0
 16 41  1  0
 16 42  1  0
 17 18  1  0
 17 43  1  1
 18 44  1  0
 18 45  1  0
M  CHG  1   3   1
M  END
>  <i_m_ct_stereo_status>  (151) 
1

>  <s_m_source_file>  (151) 
/var/tmp/pbs.5076255.sched01/tmpazi1eam_/42934yjxx2.sdf

>  <i_m_source_file_index>  (151) 
22

>  <i_lp_mmshare_version>  (151) 
48012

>  <i_f3d_flags>  (151) 
0

>  <s_epik_input>  (151) 
W0NIMl0xQyhbQ0gzXSkoW0NIM10pW0NIMl1DKFtDSDNdKT1OW0NAQF0xMltDQEhdM1tDSDJdW0NAQEhdNFtDSDJdW0NASF0oW0NIMl0zKVtDSDJdW0NASF0yW0NIMl00

>  <s_epik_cmdline>  (151) 
J2VwaWtfcHl0aG9uJywgJy1waHQnLCAnMi4wJywgJy1waCcsICc3LjAnLCAnLXRuJywgJzgnLCAnLW1hJywgJzIwMCcsICctaW1hZScsICc8aW5maWxlLm1hZT4nLCAnLW9tYWUnLCAnPG91dGZpbGUubWFlPic=

>  <r_epik_Ionization_Penalty>  (151) 
0.0112656

>  <r_epik_Ionization_Penalty_Charging>  (151) 
0.0112589

>  <r_epik_Ionization_Penalty_Neutral>  (151) 
6.68406e-06

>  <r_epik_State_Penalty>  (151) 
0.00865509

>  <r_epik_Charging_Adjusted_Penalty>  (151) 
0.019914

>  <i_epik_Tot_Q>  (151) 
1

>  <i_epik_Tot_abs_Q>  (151) 
1

>  <s_epik_Chemistry_Notes>  (151) 
This compound has an imine and may undergo hydrolysis.

>  <s_lp_Force_Field>  (151) 
OPLS3e

>  <r_lp_Energy>  (151) 
25.6901

>  <b_lp_Chiralities_Consistent>  (151) 
1

>  <s_lp_Variant>  (151) 
42:0-1

>  <s_i_glide_gridfile>  (151) 
pfpi4k_grid

>  <i_i_glide_lignum>  (151) 
22

>  <i_i_glide_rotatable_bonds>  (151) 
0

>  <r_i_docking_score>  (151) 
-3.14943

>  <r_i_glide_ligand_efficiency>  (151) 
-0.174968

>  <r_i_glide_ligand_efficiency_sa>  (151) 
-0.458547

>  <r_i_glide_ligand_efficiency_ln>  (151) 
-0.809545

>  <r_i_glide_gscore>  (151) 
-3.14943

>  <r_i_glide_lipo>  (151) 
-0.319975

>  <r_i_glide_hbond>  (151) 
-0.193542

>  <r_i_glide_metal>  (151) 
-0

>  <r_i_glide_rewards>  (151) 
-1.72902

>  <r_i_glide_evdw>  (151) 
-19.5001

>  <r_i_glide_ecoul>  (151) 
-6.38506

>  <r_i_glide_erotb>  (151) 
0

>  <r_i_glide_esite>  (151) 
-0.115944

>  <r_i_glide_emodel>  (151) 
-25.7608

>  <r_i_glide_energy>  (151) 
-25.8852

>  <r_i_glide_einternal>  (151) 
0

>  <r_i_glide_intrahb_reward>  (151) 
-0

>  <i_i_glide_confnum>  (151) 
3

>  <i_i_glide_posenum>  (151) 
11

>  <r_i_glide_eff_state_penalty>  (151) 
0

>  <ligand_id>  (151) 
42

>  <original_smiles>  (151) 
CC1=NC2(CC(C)(C)C1)C1CC3CC(C1)CC2C3

>  <smiles>  (151) 
[H][N+]1=C(C([H])([H])[H])C([H])([H])C(C([H])([H])[H])(C([H])([H])[H])C([H])([H])C12C1([H])C([H])([H])C3([H])C([H])([H])C([H])(C1([H])[H])C([H])([H])C2([H])C3([H])[H]

$$$$
42:0:1
     RDKit          3D

 46 49  0  0  1  0  0  0  0  0999 V2000
    5.6652   -2.7488    5.6957 C   0  0  0  0  0  0  0  0  0  0  0  0
    4.9841   -3.3866    4.5514 C   0  0  0  0  0  0  0  0  0  0  0  0
    5.3126   -3.0896    3.3375 N   0  0  0  0  0  0  0  0  0  0  0  0
    4.6433   -3.6427    2.1341 C   0  0  2  0  0  0  0  0  0  0  0  0
    4.0537   -5.0100    2.5532 C   0  0  0  0  0  0  0  0  0  0  0  0
    3.0891   -4.9131    3.7201 C   0  0  0  0  0  0  0  0  0  0  0  0
    1.8796   -3.9726    3.5422 C   0  0  0  0  0  0  0  0  0  0  0  0
    2.4307   -6.2788    3.9507 C   0  0  0  0  0  0  0  0  0  0  0  0
    3.9500   -4.4568    4.8925 C   0  0  0  0  0  0  0  0  0  0  0  0
    5.5657   -3.8519    0.9003 C   0  0  1  0  0  0  0  0  0  0  0  0
    4.7350   -4.4736   -0.2665 C   0  0  0  0  0  0  0  0  0  0  0  0
    3.5890   -3.5179   -0.6869 C   0  0  2  0  0  0  0  0  0  0  0  0
    4.1429   -2.1503   -1.1101 C   0  0  0  0  0  0  0  0  0  0  0  0
    4.9931   -1.5346    0.0233 C   0  0  2  0  0  0  0  0  0  0  0  0
    6.1338   -2.4920    0.4327 C   0  0  0  0  0  0  0  0  0  0  0  0
    4.1012   -1.2946    1.2254 C   0  0  0  0  0  0  0  0  0  0  0  0
    3.5519   -2.6505    1.6164 C   0  0  1  0  0  0  0  0  0  0  0  0
    2.6759   -3.2830    0.5009 C   0  0  0  0  0  0  0  0  0  0  0  0
    5.1769   -3.0661    6.6145 H   0  0  0  0  0  0  0  0  0  0  0  0
    5.5985   -1.6674    5.6105 H   0  0  0  0  0  0  0  0  0  0  0  0
    6.7037   -3.0695    5.7266 H   0  0  0  0  0  0  0  0  0  0  0  0
    3.5057   -5.4390    1.7463 H   0  0  0  0  0  0  0  0  0  0  0  0
    4.8394   -5.7270    2.8228 H   0  0  0  0  0  0  0  0  0  0  0  0
    1.0769   -4.1082    4.2448 H   0  0  0  0  0  0  0  0  0  0  0  0
    1.4059   -4.0408    2.5614 H   0  0  0  0  0  0  0  0  0  0  0  0
    2.1157   -2.9690    3.8510 H   0  0  0  0  0  0  0  0  0  0  0  0
    1.7605   -6.2062    4.8081 H   0  0  0  0  0  0  0  0  0  0  0  0
    3.1639   -7.0556    4.1497 H   0  0  0  0  0  0  0  0  0  0  0  0
    1.8275   -6.5883    3.0908 H   0  0  0  0  0  0  0  0  0  0  0  0
    4.4724   -5.3226    5.2860 H   0  0  0  0  0  0  0  0  0  0  0  0
    3.2930   -4.0649    5.6615 H   0  0  0  0  0  0  0  0  0  0  0  0
    6.3697   -4.5301    1.1749 H   0  0  0  0  0  0  0  0  0  0  0  0
    5.3658   -4.7134   -1.1113 H   0  0  0  0  0  0  0  0  0  0  0  0
    4.3377   -5.4571   -0.0263 H   0  0  0  0  0  0  0  0  0  0  0  0
    2.9851   -3.9669   -1.4702 H   0  0  0  0  0  0  0  0  0  0  0  0
    4.7419   -2.2717   -2.0012 H   0  0  0  0  0  0  0  0  0  0  0  0
    3.3186   -1.4833   -1.3669 H   0  0  0  0  0  0  0  0  0  0  0  0
    5.3783   -0.5660   -0.2635 H   0  0  0  0  0  0  0  0  0  0  0  0
    6.7350   -2.0503    1.2256 H   0  0  0  0  0  0  0  0  0  0  0  0
    6.7939   -2.6439   -0.4152 H   0  0  0  0  0  0  0  0  0  0  0  0
    4.6216   -0.8600    2.0821 H   0  0  0  0  0  0  0  0  0  0  0  0
    3.2557   -0.6319    1.0216 H   0  0  0  0  0  0  0  0  0  0  0  0
    2.9456   -2.2373    2.3520 H   0  0  0  0  0  0  0  0  0  0  0  0
    1.8203   -2.6467    0.3013 H   0  0  0  0  0  0  0  0  0  0  0  0
    2.2247   -4.2375    0.7512 H   0  0  0  0  0  0  0  0  0  0  0  0
    6.0514   -2.4054    3.1463 H   0  0  0  0  0  0  0  0  0  0  0  0
  1  2  1  0
  1 19  1  0
  1 20  1  0
  1 21  1  0
  2  9  1  0
  2  3  2  0
  3  4  1  0
  3 46  1  0
  4 17  1  0
  4  5  1  1
  4 10  1  0
  5  6  1  0
  5 22  1  0
  5 23  1  0
  6  7  1  0
  6  8  1  0
  6  9  1  0
  7 24  1  0
  7 25  1  0
  7 26  1  0
  8 27  1  0
  8 28  1  0
  8 29  1  0
  9 30  1  0
  9 31  1  0
 10 15  1  0
 10 11  1  0
 10 32  1  1
 11 12  1  0
 11 33  1  0
 11 34  1  0
 12 18  1  0
 12 13  1  0
 12 35  1  6
 13 14  1  0
 13 36  1  0
 13 37  1  0
 14 15  1  0
 14 16  1  0
 14 38  1  6
 15 39  1  0
 15 40  1  0
 16 17  1  0
 16 41  1  0
 16 42  1  0
 17 18  1  0
 17 43  1  1
 18 44  1  0
 18 45  1  0
M  CHG  1   3   1
M  END
>  <i_m_ct_stereo_status>  (152) 
1

>  <s_m_source_file>  (152) 
/var/tmp/pbs.5076255.sched01/tmpazi1eam_/42934yjxx2.sdf

>  <i_m_source_file_index>  (152) 
22

>  <i_lp_mmshare_version>  (152) 
48012

>  <i_f3d_flags>  (152) 
0

>  <s_epik_input>  (152) 
W0NIMl0xQyhbQ0gzXSkoW0NIM10pW0NIMl1DKFtDSDNdKT1OW0NAQF0xMltDQEhdM1tDSDJdW0NAQEhdNFtDSDJdW0NASF0oW0NIMl0zKVtDSDJdW0NASF0yW0NIMl00

>  <s_epik_cmdline>  (152) 
J2VwaWtfcHl0aG9uJywgJy1waHQnLCAnMi4wJywgJy1waCcsICc3LjAnLCAnLXRuJywgJzgnLCAnLW1hJywgJzIwMCcsICctaW1hZScsICc8aW5maWxlLm1hZT4nLCAnLW9tYWUnLCAnPG91dGZpbGUubWFlPic=

>  <r_epik_Ionization_Penalty>  (152) 
0.0112656

>  <r_epik_Ionization_Penalty_Charging>  (152) 
0.0112589

>  <r_epik_Ionization_Penalty_Neutral>  (152) 
6.68406e-06

>  <r_epik_State_Penalty>  (152) 
0.00865509

>  <r_epik_Charging_Adjusted_Penalty>  (152) 
0.019914

>  <i_epik_Tot_Q>  (152) 
1

>  <i_epik_Tot_abs_Q>  (152) 
1

>  <s_epik_Chemistry_Notes>  (152) 
This compound has an imine and may undergo hydrolysis.

>  <s_lp_Force_Field>  (152) 
OPLS3e

>  <r_lp_Energy>  (152) 
25.6901

>  <b_lp_Chiralities_Consistent>  (152) 
1

>  <s_lp_Variant>  (152) 
42:0-1

>  <s_i_glide_gridfile>  (152) 
pfpi4k_grid

>  <i_i_glide_lignum>  (152) 
22

>  <i_i_glide_rotatable_bonds>  (152) 
0

>  <r_i_docking_score>  (152) 
-2.50861

>  <r_i_glide_ligand_efficiency>  (152) 
-0.139367

>  <r_i_glide_ligand_efficiency_sa>  (152) 
-0.365246

>  <r_i_glide_ligand_efficiency_ln>  (152) 
-0.644825

>  <r_i_glide_gscore>  (152) 
-2.50861

>  <r_i_glide_lipo>  (152) 
-0.20614

>  <r_i_glide_hbond>  (152) 
0

>  <r_i_glide_metal>  (152) 
-0

>  <r_i_glide_rewards>  (152) 
-1.76905

>  <r_i_glide_evdw>  (152) 
-14.878

>  <r_i_glide_ecoul>  (152) 
-1.30211

>  <r_i_glide_erotb>  (152) 
0

>  <r_i_glide_esite>  (152) 
0

>  <r_i_glide_emodel>  (152) 
-16.2909

>  <r_i_glide_energy>  (152) 
-16.1801

>  <r_i_glide_einternal>  (152) 
0

>  <r_i_glide_intrahb_reward>  (152) 
-0

>  <i_i_glide_confnum>  (152) 
1

>  <i_i_glide_posenum>  (152) 
1

>  <r_i_glide_eff_state_penalty>  (152) 
0

>  <ligand_id>  (152) 
42

>  <original_smiles>  (152) 
CC1=NC2(CC(C)(C)C1)C1CC3CC(C1)CC2C3

>  <smiles>  (152) 
[H][N+]1=C(C([H])([H])[H])C([H])([H])C(C([H])([H])[H])(C([H])([H])[H])C([H])([H])C12C1([H])C([H])([H])C3([H])C([H])([H])C([H])(C1([H])[H])C([H])([H])C2([H])C3([H])[H]

$$$$
42:0:2
     RDKit          3D

 46 49  0  0  1  0  0  0  0  0999 V2000
    2.0569    0.3649    1.4863 C   0  0  0  0  0  0  0  0  0  0  0  0
    3.0991   -0.6037    1.0934 C   0  0  0  0  0  0  0  0  0  0  0  0
    3.3797   -0.8175   -0.1695 N   0  0  0  0  0  0  0  0  0  0  0  0
    4.3373   -1.8127   -0.6366 C   0  0  2  0  0  0  0  0  0  0  0  0
    5.3503   -1.9678    0.4973 C   0  0  0  0  0  0  0  0  0  0  0  0
    4.7490   -2.4306    1.7932 C   0  0  0  0  0  0  0  0  0  0  0  0
    3.9465   -3.7219    1.7349 C   0  0  0  0  0  0  0  0  0  0  0  0
    5.7906   -2.7409    2.8031 C   0  0  0  0  0  0  0  0  0  0  0  0
    3.8724   -1.2604    2.2112 C   0  0  0  0  0  0  0  0  0  0  0  0
    5.0769   -1.4330   -1.9289 C   0  0  1  0  0  0  0  0  0  0  0  0
    6.1050   -2.5479   -2.2693 C   0  0  0  0  0  0  0  0  0  0  0  0
    5.3666   -3.8633   -2.5210 C   0  0  2  0  0  0  0  0  0  0  0  0
    4.3551   -3.7299   -3.6677 C   0  0  0  0  0  0  0  0  0  0  0  0
    3.3347   -2.6288   -3.3308 C   0  0  2  0  0  0  0  0  0  0  0  0
    4.0743   -1.2927   -3.0991 C   0  0  0  0  0  0  0  0  0  0  0  0
    2.5894   -3.0161   -2.0756 C   0  0  0  0  0  0  0  0  0  0  0  0
    3.6338   -3.1415   -1.0021 C   0  0  1  0  0  0  0  0  0  0  0  0
    4.6419   -4.2601   -1.2656 C   0  0  0  0  0  0  0  0  0  0  0  0
    1.9254    0.3293    2.5676 H   0  0  0  0  0  0  0  0  0  0  0  0
    1.1058    0.1294    1.0220 H   0  0  0  0  0  0  0  0  0  0  0  0
    2.3523    1.3707    1.2070 H   0  0  0  0  0  0  0  0  0  0  0  0
    6.0129   -2.7074    0.1893 H   0  0  0  0  0  0  0  0  0  0  0  0
    5.9262   -1.0626    0.7123 H   0  0  0  0  0  0  0  0  0  0  0  0
    3.6949   -4.1456    2.6634 H   0  0  0  0  0  0  0  0  0  0  0  0
    4.4135   -4.5108    1.1634 H   0  0  0  0  0  0  0  0  0  0  0  0
    2.9205   -3.5431    1.4992 H   0  0  0  0  0  0  0  0  0  0  0  0
    5.3826   -3.0226    3.7561 H   0  0  0  0  0  0  0  0  0  0  0  0
    6.4658   -1.8798    2.9703 H   0  0  0  0  0  0  0  0  0  0  0  0
    6.4678   -3.5693    2.4748 H   0  0  0  0  0  0  0  0  0  0  0  0
    4.5016   -0.5101    2.6810 H   0  0  0  0  0  0  0  0  0  0  0  0
    3.1666   -1.6061    2.9495 H   0  0  0  0  0  0  0  0  0  0  0  0
    5.5979   -0.4964   -1.7721 H   0  0  0  0  0  0  0  0  0  0  0  0
    6.7113   -2.2838   -3.1110 H   0  0  0  0  0  0  0  0  0  0  0  0
    6.8587   -2.6656   -1.4984 H   0  0  0  0  0  0  0  0  0  0  0  0
    6.0701   -4.6318   -2.7521 H   0  0  0  0  0  0  0  0  0  0  0  0
    4.8659   -3.5343   -4.6004 H   0  0  0  0  0  0  0  0  0  0  0  0
    3.8289   -4.6534   -3.8381 H   0  0  0  0  0  0  0  0  0  0  0  0
    2.6048   -2.5276   -4.1235 H   0  0  0  0  0  0  0  0  0  0  0  0
    3.3614   -0.4991   -2.8806 H   0  0  0  0  0  0  0  0  0  0  0  0
    4.5959   -0.9987   -4.0087 H   0  0  0  0  0  0  0  0  0  0  0  0
    1.8503   -2.2702   -1.8067 H   0  0  0  0  0  0  0  0  0  0  0  0
    2.0327   -3.9489   -2.1708 H   0  0  0  0  0  0  0  0  0  0  0  0
    2.9580   -3.4600   -0.3093 H   0  0  0  0  0  0  0  0  0  0  0  0
    4.1679   -5.2142   -1.3144 H   0  0  0  0  0  0  0  0  0  0  0  0
    5.3656   -4.4358   -0.4840 H   0  0  0  0  0  0  0  0  0  0  0  0
    2.8276   -0.3290   -0.8818 H   0  0  0  0  0  0  0  0  0  0  0  0
  1  2  1  0
  1 19  1  0
  1 20  1  0
  1 21  1  0
  2  9  1  0
  2  3  2  0
  3  4  1  0
  3 46  1  0
  4 17  1  0
  4  5  1  1
  4 10  1  0
  5  6  1  0
  5 22  1  0
  5 23  1  0
  6  7  1  0
  6  8  1  0
  6  9  1  0
  7 24  1  0
  7 25  1  0
  7 26  1  0
  8 27  1  0
  8 28  1  0
  8 29  1  0
  9 30  1  0
  9 31  1  0
 10 15  1  0
 10 11  1  0
 10 32  1  1
 11 12  1  0
 11 33  1  0
 11 34  1  0
 12 18  1  0
 12 13  1  0
 12 35  1  6
 13 14  1  0
 13 36  1  0
 13 37  1  0
 14 15  1  0
 14 16  1  0
 14 38  1  6
 15 39  1  0
 15 40  1  0
 16 17  1  0
 16 41  1  0
 16 42  1  0
 17 18  1  0
 17 43  1  1
 18 44  1  0
 18 45  1  0
M  CHG  1   3   1
M  END
>  <i_m_ct_stereo_status>  (153) 
1

>  <s_m_source_file>  (153) 
/var/tmp/pbs.5076255.sched01/tmpazi1eam_/42934yjxx2.sdf

>  <i_m_source_file_index>  (153) 
22

>  <i_lp_mmshare_version>  (153) 
48012

>  <i_f3d_flags>  (153) 
0

>  <s_epik_input>  (153) 
W0NIMl0xQyhbQ0gzXSkoW0NIM10pW0NIMl1DKFtDSDNdKT1OW0NAQF0xMltDQEhdM1tDSDJdW0NAQEhdNFtDSDJdW0NASF0oW0NIMl0zKVtDSDJdW0NASF0yW0NIMl00

>  <s_epik_cmdline>  (153) 
J2VwaWtfcHl0aG9uJywgJy1waHQnLCAnMi4wJywgJy1waCcsICc3LjAnLCAnLXRuJywgJzgnLCAnLW1hJywgJzIwMCcsICctaW1hZScsICc8aW5maWxlLm1hZT4nLCAnLW9tYWUnLCAnPG91dGZpbGUubWFlPic=

>  <r_epik_Ionization_Penalty>  (153) 
0.0112656

>  <r_epik_Ionization_Penalty_Charging>  (153) 
0.0112589

>  <r_epik_Ionization_Penalty_Neutral>  (153) 
6.68406e-06

>  <r_epik_State_Penalty>  (153) 
0.00865509

>  <r_epik_Charging_Adjusted_Penalty>  (153) 
0.019914

>  <i_epik_Tot_Q>  (153) 
1

>  <i_epik_Tot_abs_Q>  (153) 
1

>  <s_epik_Chemistry_Notes>  (153) 
This compound has an imine and may undergo hydrolysis.

>  <s_lp_Force_Field>  (153) 
OPLS3e

>  <r_lp_Energy>  (153) 
25.6901

>  <b_lp_Chiralities_Consistent>  (153) 
1

>  <s_lp_Variant>  (153) 
42:0-1

>  <s_i_glide_gridfile>  (153) 
pfpi4k_grid

>  <i_i_glide_lignum>  (153) 
22

>  <i_i_glide_rotatable_bonds>  (153) 
0

>  <r_i_docking_score>  (153) 
-1.57749

>  <r_i_glide_ligand_efficiency>  (153) 
-0.0876382

>  <r_i_glide_ligand_efficiency_sa>  (153) 
-0.229677

>  <r_i_glide_ligand_efficiency_ln>  (153) 
-0.405485

>  <r_i_glide_gscore>  (153) 
-1.57749

>  <r_i_glide_lipo>  (153) 
-0.405926

>  <r_i_glide_hbond>  (153) 
-0.0266611

>  <r_i_glide_metal>  (153) 
-0

>  <r_i_glide_rewards>  (153) 
-1.72902

>  <r_i_glide_evdw>  (153) 
2.32212

>  <r_i_glide_ecoul>  (153) 
-2.68106

>  <r_i_glide_erotb>  (153) 
0

>  <r_i_glide_esite>  (153) 
-0.118029

>  <r_i_glide_emodel>  (153) 
2.54596

>  <r_i_glide_energy>  (153) 
-0.358947

>  <r_i_glide_einternal>  (153) 
0

>  <r_i_glide_intrahb_reward>  (153) 
-0

>  <i_i_glide_confnum>  (153) 
3

>  <i_i_glide_posenum>  (153) 
5

>  <r_i_glide_eff_state_penalty>  (153) 
0

>  <ligand_id>  (153) 
42

>  <original_smiles>  (153) 
CC1=NC2(CC(C)(C)C1)C1CC3CC(C1)CC2C3

>  <smiles>  (153) 
[H][N+]1=C(C([H])([H])[H])C([H])([H])C(C([H])([H])[H])(C([H])([H])[H])C([H])([H])C12C1([H])C([H])([H])C3([H])C([H])([H])C([H])(C1([H])[H])C([H])([H])C2([H])C3([H])[H]

$$$$
42:1:0
     RDKit          3D

 45 48  0  0  1  0  0  0  0  0999 V2000
    4.8407   -5.0426    2.2744 C   0  0  0  0  0  0  0  0  0  0  0  0
    5.3161   -4.2386    1.0989 C   0  0  0  0  0  0  0  0  0  0  0  0
    4.5619   -4.0197    0.0883 N   0  0  0  0  0  0  0  0  0  0  0  0
    5.0440   -3.2413   -1.0622 C   0  0  2  0  0  0  0  0  0  0  0  0
    6.5803   -3.2590   -1.0809 C   0  0  0  0  0  0  0  0  0  0  0  0
    7.2107   -2.7428    0.1878 C   0  0  0  0  0  0  0  0  0  0  0  0
    8.7256   -2.6481    0.0196 C   0  0  0  0  0  0  0  0  0  0  0  0
    6.7951   -1.3310    0.5981 C   0  0  0  0  0  0  0  0  0  0  0  0
    6.7727   -3.7631    1.2297 C   0  0  0  0  0  0  0  0  0  0  0  0
    4.5027   -1.7693   -1.0874 C   0  0  1  0  0  0  0  0  0  0  0  0
    5.0910   -0.9433   -2.2433 C   0  0  0  0  0  0  0  0  0  0  0  0
    4.5767   -1.5778   -3.5344 C   0  0  2  0  0  0  0  0  0  0  0  0
    3.0401   -1.5361   -3.5436 C   0  0  0  0  0  0  0  0  0  0  0  0
    2.4927   -2.3221   -2.3356 C   0  0  2  0  0  0  0  0  0  0  0  0
    2.9908   -1.7108   -1.0450 C   0  0  0  0  0  0  0  0  0  0  0  0
    2.9586   -3.7748   -2.3936 C   0  0  0  0  0  0  0  0  0  0  0  0
    4.5017   -3.8443   -2.3832 C   0  0  1  0  0  0  0  0  0  0  0  0
    5.0400   -3.0498   -3.6000 C   0  0  0  0  0  0  0  0  0  0  0  0
    5.4680   -5.9240    2.4018 H   0  0  0  0  0  0  0  0  0  0  0  0
    3.8096   -5.3661    2.1369 H   0  0  0  0  0  0  0  0  0  0  0  0
    4.8995   -4.4367    3.1753 H   0  0  0  0  0  0  0  0  0  0  0  0
    6.9636   -4.2586   -1.2271 H   0  0  0  0  0  0  0  0  0  0  0  0
    6.9196   -2.6845   -1.9001 H   0  0  0  0  0  0  0  0  0  0  0  0
    9.1464   -2.1494    0.8844 H   0  0  0  0  0  0  0  0  0  0  0  0
    9.0001   -2.0481   -0.8491 H   0  0  0  0  0  0  0  0  0  0  0  0
    9.1923   -3.6214   -0.0691 H   0  0  0  0  0  0  0  0  0  0  0  0
    7.2767   -0.9703    1.4853 H   0  0  0  0  0  0  0  0  0  0  0  0
    5.8440   -1.3394    1.0813 H   0  0  0  0  0  0  0  0  0  0  0  0
    6.8934   -0.5995   -0.2124 H   0  0  0  0  0  0  0  0  0  0  0  0
    6.8920   -3.3148    2.1976 H   0  0  0  0  0  0  0  0  0  0  0  0
    7.4367   -4.6221    1.1678 H   0  0  0  0  0  0  0  0  0  0  0  0
    4.6055   -1.1677   -0.2536 H   0  0  0  0  0  0  0  0  0  0  0  0
    4.8523    0.1111   -2.1314 H   0  0  0  0  0  0  0  0  0  0  0  0
    6.1696   -0.9232   -2.2175 H   0  0  0  0  0  0  0  0  0  0  0  0
    4.9752   -1.0171   -4.3718 H   0  0  0  0  0  0  0  0  0  0  0  0
    2.6767   -0.5088   -3.5357 H   0  0  0  0  0  0  0  0  0  0  0  0
    2.6675   -1.9897   -4.4557 H   0  0  0  0  0  0  0  0  0  0  0  0
    1.4130   -2.3081   -2.3265 H   0  0  0  0  0  0  0  0  0  0  0  0
    2.6221   -2.2071   -0.1525 H   0  0  0  0  0  0  0  0  0  0  0  0
    2.6921   -0.6916   -0.9321 H   0  0  0  0  0  0  0  0  0  0  0  0
    2.5507   -4.3091   -1.5309 H   0  0  0  0  0  0  0  0  0  0  0  0
    2.5684   -4.2414   -3.2995 H   0  0  0  0  0  0  0  0  0  0  0  0
    4.8433   -4.8724   -2.4461 H   0  0  0  0  0  0  0  0  0  0  0  0
    4.7052   -3.5035   -4.5262 H   0  0  0  0  0  0  0  0  0  0  0  0
    6.1238   -3.1071   -3.6543 H   0  0  0  0  0  0  0  0  0  0  0  0
  1  2  1  0
  1 19  1  0
  1 20  1  0
  1 21  1  0
  2  9  1  0
  2  3  2  0
  3  4  1  0
  4 17  1  0
  4  5  1  6
  4 10  1  0
  5  6  1  0
  5 22  1  0
  5 23  1  0
  6  7  1  0
  6  8  1  0
  6  9  1  0
  7 24  1  0
  7 25  1  0
  7 26  1  0
  8 27  1  0
  8 28  1  0
  8 29  1  0
  9 30  1  0
  9 31  1  0
 10 15  1  0
 10 11  1  0
 10 32  1  1
 11 12  1  0
 11 33  1  0
 11 34  1  0
 12 18  1  0
 12 13  1  0
 12 35  1  6
 13 14  1  0
 13 36  1  0
 13 37  1  0
 14 15  1  0
 14 16  1  0
 14 38  1  1
 15 39  1  0
 15 40  1  0
 16 17  1  0
 16 41  1  0
 16 42  1  0
 17 18  1  0
 17 43  1  6
 18 44  1  0
 18 45  1  0
M  END
>  <i_m_ct_stereo_status>  (154) 
1

>  <s_m_source_file>  (154) 
/var/tmp/pbs.5076255.sched01/tmpazi1eam_/42934yjxx2.sdf

>  <i_m_source_file_index>  (154) 
23

>  <i_lp_mmshare_version>  (154) 
48012

>  <i_f3d_flags>  (154) 
0

>  <s_epik_input>  (154) 
W0NIMl0xQyhbQ0gzXSkoW0NIM10pW0NIMl1DKFtDSDNdKT1OW0NAQF0xMltDQEhdM1tDSDJdW0NAQEhdNFtDSDJdW0NASF0oW0NIMl0zKVtDSDJdW0NASF0yW0NIMl00

>  <s_epik_cmdline>  (154) 
J2VwaWtfcHl0aG9uJywgJy1waHQnLCAnMi4wJywgJy1waCcsICc3LjAnLCAnLXRuJywgJzgnLCAnLW1hJywgJzIwMCcsICctaW1hZScsICc8aW5maWxlLm1hZT4nLCAnLW9tYWUnLCAnPG91dGZpbGUubWFlPic=

>  <r_lp_tautomer_probability>  (154) 
0.999984

>  <r_epik_Ionization_Penalty>  (154) 
2.35374

>  <r_epik_Ionization_Penalty_Charging>  (154) 
0

>  <r_epik_Ionization_Penalty_Neutral>  (154) 
2.35374

>  <r_epik_State_Penalty>  (154) 
2.50827

>  <r_epik_Charging_Adjusted_Penalty>  (154) 
2.50827

>  <i_epik_Tot_Q>  (154) 
0

>  <i_epik_Tot_abs_Q>  (154) 
0

>  <s_epik_Chemistry_Notes>  (154) 
This compound has an imine and may undergo hydrolysis.

>  <s_lp_Force_Field>  (154) 
OPLS3e

>  <r_lp_Energy>  (154) 
12.7283

>  <b_lp_Chiralities_Consistent>  (154) 
1

>  <s_lp_Variant>  (154) 
42:0-2

>  <s_i_glide_gridfile>  (154) 
pfpi4k_grid

>  <i_i_glide_lignum>  (154) 
23

>  <i_i_glide_rotatable_bonds>  (154) 
0

>  <r_i_docking_score>  (154) 
-2.01452

>  <r_i_glide_ligand_efficiency>  (154) 
-0.111918

>  <r_i_glide_ligand_efficiency_sa>  (154) 
-0.293307

>  <r_i_glide_ligand_efficiency_ln>  (154) 
-0.517821

>  <r_i_glide_gscore>  (154) 
-2.01452

>  <r_i_glide_lipo>  (154) 
-0.843412

>  <r_i_glide_hbond>  (154) 
0

>  <r_i_glide_metal>  (154) 
-0

>  <r_i_glide_rewards>  (154) 
-1.80126

>  <r_i_glide_evdw>  (154) 
-2.88383

>  <r_i_glide_ecoul>  (154) 
0.789641

>  <r_i_glide_erotb>  (154) 
0

>  <r_i_glide_esite>  (154) 
0

>  <r_i_glide_emodel>  (154) 
4.32903

>  <r_i_glide_energy>  (154) 
-2.09419

>  <r_i_glide_einternal>  (154) 
0

>  <r_i_glide_intrahb_reward>  (154) 
-0

>  <i_i_glide_confnum>  (154) 
2

>  <i_i_glide_posenum>  (154) 
4

>  <r_i_glide_eff_state_penalty>  (154) 
0

>  <ligand_id>  (154) 
42

>  <original_smiles>  (154) 
CC1=NC2(CC(C)(C)C1)C1CC3CC(C1)CC2C3

>  <smiles>  (154) 
[H]C([H])([H])C1=NC2(C([H])([H])C(C([H])([H])[H])(C([H])([H])[H])C1([H])[H])C1([H])C([H])([H])C3([H])C([H])([H])C([H])(C1([H])[H])C([H])([H])C2([H])C3([H])[H]

$$$$
43:0:0
     RDKit          3D

 64 69  0  0  1  0  0  0  0  0999 V2000
   -2.9156    3.1715    7.0490 C   0  0  0  0  0  0  0  0  0  0  0  0
   -1.4615    2.7787    6.9420 C   0  0  0  0  0  0  0  0  0  0  0  0
   -0.6547    2.5047    7.9542 C   0  0  0  0  0  0  0  0  0  0  0  0
    0.7475    2.1793    7.5001 C   0  0  0  0  0  0  0  0  0  0  0  0
    0.6876    2.3107    5.9548 C   0  0  1  0  0  0  0  0  0  0  0  0
    1.1795    1.0373    5.2695 C   0  0  1  0  0  0  0  0  0  0  0  0
    0.4768   -0.0666    5.7772 O   0  0  0  0  0  0  0  0  0  0  0  0
    1.4028    1.0657    3.7529 C   0  0  2  0  0  0  0  0  0  0  0  0
    1.0124   -0.1521    2.9326 C   0  0  0  0  0  0  0  0  0  0  0  0
    1.8714   -1.3217    3.4665 C   0  0  1  0  0  0  0  0  0  0  0  0
    2.0508   -2.4345    2.5889 O   0  0  0  0  0  0  0  0  0  0  0  0
    2.7762   -2.2832    1.4016 C   0  0  1  0  0  0  0  0  0  0  0  0
    2.8280   -0.9888    0.9003 O   0  0  0  0  0  0  0  0  0  0  0  0
    4.1535   -0.5267    0.8614 C   0  0  2  0  0  0  0  0  0  0  0  0
    4.9256   -1.8008    0.6033 C   0  0  0  0  0  0  0  0  0  0  0  0
    4.2388   -2.6990    1.6082 C   0  0  2  0  0  0  0  0  0  0  0  0
    4.4268   -4.1947    1.3102 C   0  0  0  0  0  0  0  0  0  0  0  0
    4.6970   -2.3225    3.0295 C   0  0  0  0  0  0  0  0  0  0  0  0
    4.4378   -0.8251    3.4640 C   0  0  1  0  0  0  0  0  0  0  0  0
    5.6944   -0.4736    4.3044 C   0  0  0  0  0  0  0  0  0  0  0  0
    4.4879    0.1165    2.2094 C   0  0  0  0  0  0  0  0  0  0  0  0
    3.0684   -0.7183    4.2979 C   0  0  2  0  0  0  0  0  0  0  0  0
    3.2377   -1.4710    5.6639 C   0  0  0  0  0  0  0  0  0  0  0  0
    2.5793    0.7471    4.6385 C   0  0  2  0  0  0  0  0  0  0  0  0
    3.6332    1.7844    4.9824 C   0  0  0  0  0  0  0  0  0  0  0  0
   -0.7756    2.6950    5.5886 C   0  0  1  0  0  0  0  0  0  0  0  0
   -1.4922    1.7440    4.5989 C   0  0  0  0  0  0  0  0  0  0  0  0
   -2.5973    2.3466    4.0028 O   0  0  0  0  0  0  0  0  0  0  0  0
   -3.0563    4.1286    6.5940 H   0  0  0  0  0  0  0  0  0  0  0  0
   -3.2483    3.2132    8.0885 H   0  0  0  0  0  0  0  0  0  0  0  0
   -3.5312    2.4561    6.5133 H   0  0  0  0  0  0  0  0  0  0  0  0
   -0.9259    2.4964    8.9971 H   0  0  0  0  0  0  0  0  0  0  0  0
    1.4612    2.8928    7.9174 H   0  0  0  0  0  0  0  0  0  0  0  0
    1.0233    1.1845    7.8572 H   0  0  0  0  0  0  0  0  0  0  0  0
    1.2945    3.1568    5.6540 H   0  0  0  0  0  0  0  0  0  0  0  0
   -0.3150   -0.1607    5.2641 H   0  0  0  0  0  0  0  0  0  0  0  0
    1.3947    2.0195    3.2275 H   0  0  0  0  0  0  0  0  0  0  0  0
   -0.0472   -0.3761    3.0402 H   0  0  0  0  0  0  0  0  0  0  0  0
    1.1472    0.1202    1.8796 H   0  0  0  0  0  0  0  0  0  0  0  0
    1.2334   -1.8192    4.1875 H   0  0  0  0  0  0  0  0  0  0  0  0
    2.2849   -2.8745    0.6222 H   0  0  0  0  0  0  0  0  0  0  0  0
    4.2552    0.1916    0.0513 H   0  0  0  0  0  0  0  0  0  0  0  0
    4.7756   -2.1445   -0.4200 H   0  0  0  0  0  0  0  0  0  0  0  0
    5.9940   -1.6841    0.7808 H   0  0  0  0  0  0  0  0  0  0  0  0
    5.4780   -4.4612    1.4152 H   0  0  0  0  0  0  0  0  0  0  0  0
    4.1120   -4.4389    0.2949 H   0  0  0  0  0  0  0  0  0  0  0  0
    3.8441   -4.7993    2.0056 H   0  0  0  0  0  0  0  0  0  0  0  0
    4.2300   -3.0315    3.7150 H   0  0  0  0  0  0  0  0  0  0  0  0
    5.7663   -2.5539    3.0709 H   0  0  0  0  0  0  0  0  0  0  0  0
    5.7436    0.5367    4.6841 H   0  0  0  0  0  0  0  0  0  0  0  0
    6.5719   -0.5529    3.6615 H   0  0  0  0  0  0  0  0  0  0  0  0
    5.8158   -1.1443    5.1558 H   0  0  0  0  0  0  0  0  0  0  0  0
    5.4928    0.5288    2.1165 H   0  0  0  0  0  0  0  0  0  0  0  0
    3.8175    0.9601    2.3145 H   0  0  0  0  0  0  0  0  0  0  0  0
    3.8273   -0.8846    6.3673 H   0  0  0  0  0  0  0  0  0  0  0  0
    3.6831   -2.4600    5.6055 H   0  0  0  0  0  0  0  0  0  0  0  0
    2.2934   -1.6458    6.1627 H   0  0  0  0  0  0  0  0  0  0  0  0
    4.3423    1.9426    4.1840 H   0  0  0  0  0  0  0  0  0  0  0  0
    4.1868    1.5143    5.8782 H   0  0  0  0  0  0  0  0  0  0  0  0
    3.1844    2.7414    5.1600 H   0  0  0  0  0  0  0  0  0  0  0  0
   -0.7618    3.6865    5.1477 H   0  0  0  0  0  0  0  0  0  0  0  0
   -0.8898    1.5068    3.7371 H   0  0  0  0  0  0  0  0  0  0  0  0
   -1.8149    0.8132    5.0911 H   0  0  0  0  0  0  0  0  0  0  0  0
   -3.0420    1.6849    3.4744 H   0  0  0  0  0  0  0  0  0  0  0  0
  1  2  1  0
  1 29  1  0
  1 30  1  0
  1 31  1  0
  2 26  1  0
  2  3  2  0
  3  4  1  0
  3 32  1  0
  4  5  1  0
  4 33  1  0
  4 34  1  0
  5  6  1  0
  5 26  1  0
  5 35  1  6
  6 24  1  0
  6  7  1  6
  6  8  1  0
  7 36  1  0
  8 24  1  0
  8  9  1  0
  8 37  1  6
  9 10  1  0
  9 38  1  0
  9 39  1  0
 10 22  1  0
 10 11  1  0
 10 40  1  1
 11 12  1  0
 12 16  1  0
 12 13  1  0
 12 41  1  6
 13 14  1  0
 14 21  1  0
 14 15  1  0
 14 42  1  6
 15 16  1  0
 15 43  1  0
 15 44  1  0
 16 17  1  6
 16 18  1  0
 17 45  1  0
 17 46  1  0
 17 47  1  0
 18 19  1  0
 18 48  1  0
 18 49  1  0
 19 20  1  1
 19 21  1  0
 19 22  1  0
 20 50  1  0
 20 51  1  0
 20 52  1  0
 21 53  1  0
 21 54  1  0
 22 23  1  1
 22 24  1  0
 23 55  1  0
 23 56  1  0
 23 57  1  0
 24 25  1  1
 25 58  1  0
 25 59  1  0
 25 60  1  0
 26 27  1  0
 26 61  1  6
 27 28  1  0
 27 62  1  0
 27 63  1  0
 28 64  1  0
M  END
>  <i_m_ct_stereo_status>  (155) 
1

>  <s_m_source_file>  (155) 
/var/tmp/pbs.5076255.sched01/tmpazi1eam_/42934yjxx2.sdf

>  <i_m_source_file_index>  (155) 
24

>  <i_lp_mmshare_version>  (155) 
48012

>  <i_f3d_flags>  (155) 
0

>  <s_epik_input>  (155) 
W0NIM11DMT1bQ0hdW0NIMl1bQ0BIXShbQ0BIXTFbQ0gyXVtPSF0pW0NAQF0yKFtPSF0pW0NASF0oW0NIMl0zKVtDQF0yKFtDSDNdKVtDQF0oW0NIM10pKFtDQF0oW0NIMl00KShbQ0gzXSlbQ0gyXVtDQEhdKE81KVtDSDJdNilbQ0BASF0zT1tDQEBIXTVbQ0BdNDZbQ0gzXQ==

>  <s_epik_cmdline>  (155) 
J2VwaWtfcHl0aG9uJywgJy1waHQnLCAnMi4wJywgJy1waCcsICc3LjAnLCAnLXRuJywgJzgnLCAnLW1hJywgJzIwMCcsICctaW1hZScsICc8aW5maWxlLm1hZT4nLCAnLW9tYWUnLCAnPG91dGZpbGUubWFlPic=

>  <r_lp_tautomer_probability>  (155) 
1

>  <r_epik_Ionization_Penalty>  (155) 
1.60022e-06

>  <r_epik_Ionization_Penalty_Charging>  (155) 
0

>  <r_epik_Ionization_Penalty_Neutral>  (155) 
1.60022e-06

>  <r_epik_State_Penalty>  (155) 
-0

>  <r_epik_Charging_Adjusted_Penalty>  (155) 
0

>  <i_epik_Tot_Q>  (155) 
0

>  <i_epik_Tot_abs_Q>  (155) 
0

>  <s_epik_Chemistry_Notes>  (155) 
This compound contains an acetal/aminal-like group ( X-CH(R)-Y where X, Y are N, S, or O) that may be acid/base labile, releasing an aldehyde.

>  <s_lp_Force_Field>  (155) 
OPLS3e

>  <r_lp_Energy>  (155) 
65.5994

>  <b_lp_Chiralities_Consistent>  (155) 
1

>  <s_lp_Variant>  (155) 
43:0-1

>  <s_i_glide_gridfile>  (155) 
pfpi4k_grid

>  <i_i_glide_lignum>  (155) 
24

>  <i_i_glide_rotatable_bonds>  (155) 
4

>  <r_i_docking_score>  (155) 
-2.4425

>  <r_i_glide_ligand_efficiency>  (155) 
-0.087232

>  <r_i_glide_ligand_efficiency_sa>  (155) 
-0.264888

>  <r_i_glide_ligand_efficiency_ln>  (155) 
-0.5638

>  <r_i_glide_gscore>  (155) 
-2.4425

>  <r_i_glide_lipo>  (155) 
-0.521812

>  <r_i_glide_hbond>  (155) 
-0.32

>  <r_i_glide_metal>  (155) 
-0

>  <r_i_glide_rewards>  (155) 
-0.759953

>  <r_i_glide_evdw>  (155) 
-14.6825

>  <r_i_glide_ecoul>  (155) 
-2.23851

>  <r_i_glide_erotb>  (155) 
0.258143

>  <r_i_glide_esite>  (155) 
-0.0289726

>  <r_i_glide_emodel>  (155) 
-19.125

>  <r_i_glide_energy>  (155) 
-16.921

>  <r_i_glide_einternal>  (155) 
1.26034

>  <r_i_glide_intrahb_reward>  (155) 
-0

>  <i_i_glide_confnum>  (155) 
4

>  <i_i_glide_posenum>  (155) 
17

>  <r_i_glide_eff_state_penalty>  (155) 
0

>  <ligand_id>  (155) 
43

>  <original_smiles>  (155) 
CC1=CCC(C2(O)C3CC4OC5OC6CC5(C)CC(C)(C6)C4(C)C32C)C1CO

>  <smiles>  (155) 
[H]OC([H])([H])C1([H])C(C([H])([H])[H])=C([H])C([H])([H])C1([H])C1(O[H])C2([H])C([H])([H])C3([H])OC4([H])OC5([H])C([H])([H])C4(C([H])([H])[H])C([H])([H])C(C([H])([H])[H])(C5([H])[H])C3(C([H])([H])[H])C21C([H])([H])[H]

$$$$
43:0:1
     RDKit          3D

 64 69  0  0  1  0  0  0  0  0999 V2000
    0.6410  -11.6368    4.6508 C   0  0  0  0  0  0  0  0  0  0  0  0
    1.8494  -10.7653    4.3482 C   0  0  0  0  0  0  0  0  0  0  0  0
    3.0362  -11.1885    3.9693 C   0  0  0  0  0  0  0  0  0  0  0  0
    4.0252  -10.0620    3.7681 C   0  0  0  0  0  0  0  0  0  0  0  0
    3.1954   -8.7867    4.1115 C   0  0  1  0  0  0  0  0  0  0  0  0
    3.2259   -7.7687    2.9658 C   0  0  1  0  0  0  0  0  0  0  0  0
    2.7503   -8.3414    1.7952 O   0  0  0  0  0  0  0  0  0  0  0  0
    2.7177   -6.3571    3.2442 C   0  0  2  0  0  0  0  0  0  0  0  0
    1.9372   -5.6487    2.1739 C   0  0  0  0  0  0  0  0  0  0  0  0
    2.8790   -5.5379    0.9612 C   0  0  1  0  0  0  0  0  0  0  0  0
    2.5359   -4.5307    0.0085 O   0  0  0  0  0  0  0  0  0  0  0  0
    2.6426   -3.1801    0.3260 C   0  0  1  0  0  0  0  0  0  0  0  0
    2.5098   -2.8702    1.6759 O   0  0  0  0  0  0  0  0  0  0  0  0
    3.7150   -2.3052    2.1643 C   0  0  2  0  0  0  0  0  0  0  0  0
    4.2106   -1.5447    0.9566 C   0  0  0  0  0  0  0  0  0  0  0  0
    4.0059   -2.6158   -0.0935 C   0  0  2  0  0  0  0  0  0  0  0  0
    3.9458   -2.0502   -1.5226 C   0  0  0  0  0  0  0  0  0  0  0  0
    5.0900   -3.6903    0.0554 C   0  0  0  0  0  0  0  0  0  0  0  0
    5.1745   -4.3987    1.4609 C   0  0  1  0  0  0  0  0  0  0  0  0
    6.6995   -4.6208    1.6590 C   0  0  0  0  0  0  0  0  0  0  0  0
    4.6869   -3.4194    2.5903 C   0  0  0  0  0  0  0  0  0  0  0  0
    4.3575   -5.7852    1.4291 C   0  0  2  0  0  0  0  0  0  0  0  0
    5.0757   -6.7844    0.4741 C   0  0  0  0  0  0  0  0  0  0  0  0
    4.1831   -6.5247    2.8016 C   0  0  2  0  0  0  0  0  0  0  0  0
    5.3363   -6.4841    3.7816 C   0  0  0  0  0  0  0  0  0  0  0  0
    1.7411   -9.2615    4.4724 C   0  0  1  0  0  0  0  0  0  0  0  0
    0.5532   -8.6722    3.6590 C   0  0  0  0  0  0  0  0  0  0  0  0
   -0.7085   -8.8774    4.2728 O   0  0  0  0  0  0  0  0  0  0  0  0
    0.2934  -11.4688    5.6698 H   0  0  0  0  0  0  0  0  0  0  0  0
    0.8963  -12.6847    4.5277 H   0  0  0  0  0  0  0  0  0  0  0  0
   -0.1662  -11.4019    3.9650 H   0  0  0  0  0  0  0  0  0  0  0  0
    3.3184  -12.2158    3.7892 H   0  0  0  0  0  0  0  0  0  0  0  0
    4.8764  -10.1667    4.4443 H   0  0  0  0  0  0  0  0  0  0  0  0
    4.4156  -10.1029    2.7549 H   0  0  0  0  0  0  0  0  0  0  0  0
    3.5824   -8.3835    5.0324 H   0  0  0  0  0  0  0  0  0  0  0  0
    3.2279   -9.1834    1.7035 H   0  0  0  0  0  0  0  0  0  0  0  0
    2.5399   -6.0697    4.2576 H   0  0  0  0  0  0  0  0  0  0  0  0
    1.0437   -6.2025    1.9159 H   0  0  0  0  0  0  0  0  0  0  0  0
    1.6013   -4.7065    2.6043 H   0  0  0  0  0  0  0  0  0  0  0  0
    2.6066   -6.3950    0.3477 H   0  0  0  0  0  0  0  0  0  0  0  0
    1.8247   -2.7131   -0.2072 H   0  0  0  0  0  0  0  0  0  0  0  0
    3.4916   -1.6457    3.0072 H   0  0  0  0  0  0  0  0  0  0  0  0
    3.5902   -0.6699    0.7645 H   0  0  0  0  0  0  0  0  0  0  0  0
    5.2463   -1.2234    1.0614 H   0  0  0  0  0  0  0  0  0  0  0  0
    4.9044   -1.6122   -1.7935 H   0  0  0  0  0  0  0  0  0  0  0  0
    3.1816   -1.2761   -1.6096 H   0  0  0  0  0  0  0  0  0  0  0  0
    3.7136   -2.8390   -2.2369 H   0  0  0  0  0  0  0  0  0  0  0  0
    4.9474   -4.3962   -0.7584 H   0  0  0  0  0  0  0  0  0  0  0  0
    6.0420   -3.2007   -0.1730 H   0  0  0  0  0  0  0  0  0  0  0  0
    6.9847   -5.0603    2.6085 H   0  0  0  0  0  0  0  0  0  0  0  0
    7.2249   -3.6655    1.6370 H   0  0  0  0  0  0  0  0  0  0  0  0
    7.1292   -5.2483    0.8747 H   0  0  0  0  0  0  0  0  0  0  0  0
    5.5452   -2.9298    3.0531 H   0  0  0  0  0  0  0  0  0  0  0  0
    4.1921   -3.9545    3.3984 H   0  0  0  0  0  0  0  0  0  0  0  0
    5.9597   -7.2175    0.9350 H   0  0  0  0  0  0  0  0  0  0  0  0
    5.3626   -6.3491   -0.4777 H   0  0  0  0  0  0  0  0  0  0  0  0
    4.4627   -7.6306    0.1793 H   0  0  0  0  0  0  0  0  0  0  0  0
    5.6090   -5.4688    4.0820 H   0  0  0  0  0  0  0  0  0  0  0  0
    6.2233   -6.9868    3.3714 H   0  0  0  0  0  0  0  0  0  0  0  0
    5.0816   -6.9936    4.7044 H   0  0  0  0  0  0  0  0  0  0  0  0
    1.5907   -9.0234    5.5245 H   0  0  0  0  0  0  0  0  0  0  0  0
    0.6191   -7.5874    3.5872 H   0  0  0  0  0  0  0  0  0  0  0  0
    0.5430   -9.0851    2.6437 H   0  0  0  0  0  0  0  0  0  0  0  0
   -0.9137   -9.8074    4.4142 H   0  0  0  0  0  0  0  0  0  0  0  0
  1  2  1  0
  1 29  1  0
  1 30  1  0
  1 31  1  0
  2 26  1  0
  2  3  2  0
  3  4  1  0
  3 32  1  0
  4  5  1  0
  4 33  1  0
  4 34  1  0
  5  6  1  0
  5 26  1  0
  5 35  1  1
  6 24  1  0
  6  7  1  6
  6  8  1  0
  7 36  1  0
  8 24  1  0
  8  9  1  0
  8 37  1  1
  9 10  1  0
  9 38  1  0
  9 39  1  0
 10 22  1  0
 10 11  1  0
 10 40  1  6
 11 12  1  0
 12 16  1  0
 12 13  1  0
 12 41  1  6
 13 14  1  0
 14 21  1  0
 14 15  1  0
 14 42  1  1
 15 16  1  0
 15 43  1  0
 15 44  1  0
 16 17  1  6
 16 18  1  0
 17 45  1  0
 17 46  1  0
 17 47  1  0
 18 19  1  0
 18 48  1  0
 18 49  1  0
 19 20  1  1
 19 21  1  0
 19 22  1  0
 20 50  1  0
 20 51  1  0
 20 52  1  0
 21 53  1  0
 21 54  1  0
 22 23  1  6
 22 24  1  0
 23 55  1  0
 23 56  1  0
 23 57  1  0
 24 25  1  1
 25 58  1  0
 25 59  1  0
 25 60  1  0
 26 27  1  0
 26 61  1  1
 27 28  1  0
 27 62  1  0
 27 63  1  0
 28 64  1  0
M  END
>  <i_m_ct_stereo_status>  (156) 
1

>  <s_m_source_file>  (156) 
/var/tmp/pbs.5076255.sched01/tmpazi1eam_/42934yjxx2.sdf

>  <i_m_source_file_index>  (156) 
24

>  <i_lp_mmshare_version>  (156) 
48012

>  <i_f3d_flags>  (156) 
0

>  <s_epik_input>  (156) 
W0NIM11DMT1bQ0hdW0NIMl1bQ0BIXShbQ0BIXTFbQ0gyXVtPSF0pW0NAQF0yKFtPSF0pW0NASF0oW0NIMl0zKVtDQF0yKFtDSDNdKVtDQF0oW0NIM10pKFtDQF0oW0NIMl00KShbQ0gzXSlbQ0gyXVtDQEhdKE81KVtDSDJdNilbQ0BASF0zT1tDQEBIXTVbQ0BdNDZbQ0gzXQ==

>  <s_epik_cmdline>  (156) 
J2VwaWtfcHl0aG9uJywgJy1waHQnLCAnMi4wJywgJy1waCcsICc3LjAnLCAnLXRuJywgJzgnLCAnLW1hJywgJzIwMCcsICctaW1hZScsICc8aW5maWxlLm1hZT4nLCAnLW9tYWUnLCAnPG91dGZpbGUubWFlPic=

>  <r_lp_tautomer_probability>  (156) 
1

>  <r_epik_Ionization_Penalty>  (156) 
1.60022e-06

>  <r_epik_Ionization_Penalty_Charging>  (156) 
0

>  <r_epik_Ionization_Penalty_Neutral>  (156) 
1.60022e-06

>  <r_epik_State_Penalty>  (156) 
-0

>  <r_epik_Charging_Adjusted_Penalty>  (156) 
0

>  <i_epik_Tot_Q>  (156) 
0

>  <i_epik_Tot_abs_Q>  (156) 
0

>  <s_epik_Chemistry_Notes>  (156) 
This compound contains an acetal/aminal-like group ( X-CH(R)-Y where X, Y are N, S, or O) that may be acid/base labile, releasing an aldehyde.

>  <s_lp_Force_Field>  (156) 
OPLS3e

>  <r_lp_Energy>  (156) 
65.5994

>  <b_lp_Chiralities_Consistent>  (156) 
1

>  <s_lp_Variant>  (156) 
43:0-1

>  <s_i_glide_gridfile>  (156) 
pfpi4k_grid

>  <i_i_glide_lignum>  (156) 
24

>  <i_i_glide_rotatable_bonds>  (156) 
4

>  <r_i_docking_score>  (156) 
-2.38074

>  <r_i_glide_ligand_efficiency>  (156) 
-0.0850263

>  <r_i_glide_ligand_efficiency_sa>  (156) 
-0.25819

>  <r_i_glide_ligand_efficiency_ln>  (156) 
-0.549544

>  <r_i_glide_gscore>  (156) 
-2.38074

>  <r_i_glide_lipo>  (156) 
-0.328027

>  <r_i_glide_hbond>  (156) 
-0.145347

>  <r_i_glide_metal>  (156) 
-0

>  <r_i_glide_rewards>  (156) 
-0.759953

>  <r_i_glide_evdw>  (156) 
-20.5908

>  <r_i_glide_ecoul>  (156) 
-2.25017

>  <r_i_glide_erotb>  (156) 
0.258143

>  <r_i_glide_esite>  (156) 
-0.0384846

>  <r_i_glide_emodel>  (156) 
-25.6534

>  <r_i_glide_energy>  (156) 
-22.841

>  <r_i_glide_einternal>  (156) 
0.832295

>  <r_i_glide_intrahb_reward>  (156) 
-0

>  <i_i_glide_confnum>  (156) 
4

>  <i_i_glide_posenum>  (156) 
33

>  <r_i_glide_eff_state_penalty>  (156) 
0

>  <ligand_id>  (156) 
43

>  <original_smiles>  (156) 
CC1=CCC(C2(O)C3CC4OC5OC6CC5(C)CC(C)(C6)C4(C)C32C)C1CO

>  <smiles>  (156) 
[H]OC([H])([H])C1([H])C(C([H])([H])[H])=C([H])C([H])([H])C1([H])C1(O[H])C2([H])C([H])([H])C3([H])OC4([H])OC5([H])C([H])([H])C4(C([H])([H])[H])C([H])([H])C(C([H])([H])[H])(C5([H])[H])C3(C([H])([H])[H])C21C([H])([H])[H]

$$$$
43:0:2
     RDKit          3D

 64 69  0  0  1  0  0  0  0  0999 V2000
    0.2207  -10.0487    4.3345 C   0  0  0  0  0  0  0  0  0  0  0  0
    1.5182   -9.3762    3.9423 C   0  0  0  0  0  0  0  0  0  0  0  0
    2.5814   -9.9895    3.4395 C   0  0  0  0  0  0  0  0  0  0  0  0
    3.7367   -9.0556    3.1952 C   0  0  0  0  0  0  0  0  0  0  0  0
    3.1959   -7.6732    3.6450 C   0  0  1  0  0  0  0  0  0  0  0  0
    3.3294   -6.6198    2.5457 C   0  0  1  0  0  0  0  0  0  0  0  0
    2.6206   -7.0534    1.4224 O   0  0  0  0  0  0  0  0  0  0  0  0
    3.1942   -5.1685    2.8919 C   0  0  2  0  0  0  0  0  0  0  0  0
    2.4659   -4.2415    1.9504 C   0  0  0  0  0  0  0  0  0  0  0  0
    3.2589   -4.2768    0.6262 C   0  0  1  0  0  0  0  0  0  0  0  0
    3.0497   -3.1602   -0.2448 O   0  0  0  0  0  0  0  0  0  0  0  0
    3.4960   -1.8816    0.0911 C   0  0  1  0  0  0  0  0  0  0  0  0
    3.5734   -1.6255    1.4545 O   0  0  0  0  0  0  0  0  0  0  0  0
    4.9183   -1.3703    1.8070 C   0  0  2  0  0  0  0  0  0  0  0  0
    5.4536   -0.6804    0.5715 C   0  0  0  0  0  0  0  0  0  0  0  0
    4.9008   -1.6243   -0.4749 C   0  0  2  0  0  0  0  0  0  0  0  0
    4.8125   -0.9987   -1.8739 C   0  0  0  0  0  0  0  0  0  0  0  0
    5.7237   -2.9219   -0.4806 C   0  0  0  0  0  0  0  0  0  0  0  0
    5.7916   -3.7009    0.8851 C   0  0  1  0  0  0  0  0  0  0  0  0
    7.2482   -4.2562    0.9108 C   0  0  0  0  0  0  0  0  0  0  0  0
    5.6207   -2.7023    2.0900 C   0  0  0  0  0  0  0  0  0  0  0  0
    4.6919   -4.8654    0.9074 C   0  0  2  0  0  0  0  0  0  0  0  0
    5.0560   -5.9545   -0.1494 C   0  0  0  0  0  0  0  0  0  0  0  0
    4.4947   -5.6229    2.2846 C   0  0  2  0  0  0  0  0  0  0  0  0
    5.7532   -5.8856    3.1290 C   0  0  0  0  0  0  0  0  0  0  0  0
    1.7215   -7.8891    4.1281 C   0  0  1  0  0  0  0  0  0  0  0  0
    0.6172   -7.0305    3.4419 C   0  0  0  0  0  0  0  0  0  0  0  0
   -0.6438   -7.1509    4.0617 O   0  0  0  0  0  0  0  0  0  0  0  0
   -0.0023   -9.8725    5.3912 H   0  0  0  0  0  0  0  0  0  0  0  0
    0.2681  -11.1280    4.1686 H   0  0  0  0  0  0  0  0  0  0  0  0
   -0.6055   -9.6695    3.7329 H   0  0  0  0  0  0  0  0  0  0  0  0
    2.6535  -11.0440    3.2124 H   0  0  0  0  0  0  0  0  0  0  0  0
    4.6118   -9.3553    3.7791 H   0  0  0  0  0  0  0  0  0  0  0  0
    4.0307   -9.1172    2.1429 H   0  0  0  0  0  0  0  0  0  0  0  0
    3.7440   -7.3782    4.5359 H   0  0  0  0  0  0  0  0  0  0  0  0
    2.9504   -7.9331    1.2291 H   0  0  0  0  0  0  0  0  0  0  0  0
    3.1801   -4.8873    3.9416 H   0  0  0  0  0  0  0  0  0  0  0  0
    1.4479   -4.5921    1.8155 H   0  0  0  0  0  0  0  0  0  0  0  0
    2.3864   -3.2748    2.4407 H   0  0  0  0  0  0  0  0  0  0  0  0
    2.7406   -5.0245    0.0355 H   0  0  0  0  0  0  0  0  0  0  0  0
    2.7774   -1.1615   -0.2996 H   0  0  0  0  0  0  0  0  0  0  0  0
    4.9615   -0.7254    2.6860 H   0  0  0  0  0  0  0  0  0  0  0  0
    5.0281    0.3181    0.4806 H   0  0  0  0  0  0  0  0  0  0  0  0
    6.5419   -0.6031    0.5637 H   0  0  0  0  0  0  0  0  0  0  0  0
    5.8070   -0.7724   -2.2480 H   0  0  0  0  0  0  0  0  0  0  0  0
    4.2394   -0.0740   -1.8644 H   0  0  0  0  0  0  0  0  0  0  0  0
    4.3308   -1.6791   -2.5743 H   0  0  0  0  0  0  0  0  0  0  0  0
    5.3401   -3.5427   -1.2867 H   0  0  0  0  0  0  0  0  0  0  0  0
    6.7283   -2.6477   -0.8046 H   0  0  0  0  0  0  0  0  0  0  0  0
    7.5320   -4.7933    1.8040 H   0  0  0  0  0  0  0  0  0  0  0  0
    7.9691   -3.4408    0.8468 H   0  0  0  0  0  0  0  0  0  0  0  0
    7.4476   -4.9237    0.0725 H   0  0  0  0  0  0  0  0  0  0  0  0
    6.5990   -2.4041    2.4553 H   0  0  0  0  0  0  0  0  0  0  0  0
    5.1369   -3.1595    2.9462 H   0  0  0  0  0  0  0  0  0  0  0  0
    5.8629   -6.5846    0.2229 H   0  0  0  0  0  0  0  0  0  0  0  0
    5.3384   -5.5626   -1.1221 H   0  0  0  0  0  0  0  0  0  0  0  0
    4.2455   -6.6350   -0.3862 H   0  0  0  0  0  0  0  0  0  0  0  0
    6.2666   -4.9745    3.4258 H   0  0  0  0  0  0  0  0  0  0  0  0
    6.4400   -6.5488    2.5987 H   0  0  0  0  0  0  0  0  0  0  0  0
    5.4880   -6.3765    4.0580 H   0  0  0  0  0  0  0  0  0  0  0  0
    1.7023   -7.6788    5.1991 H   0  0  0  0  0  0  0  0  0  0  0  0
    0.8459   -5.9597    3.4836 H   0  0  0  0  0  0  0  0  0  0  0  0
    0.5178   -7.3189    2.3936 H   0  0  0  0  0  0  0  0  0  0  0  0
   -0.9004   -8.0651    4.0705 H   0  0  0  0  0  0  0  0  0  0  0  0
  1  2  1  0
  1 29  1  0
  1 30  1  0
  1 31  1  0
  2 26  1  0
  2  3  2  0
  3  4  1  0
  3 32  1  0
  4  5  1  0
  4 33  1  0
  4 34  1  0
  5  6  1  0
  5 26  1  0
  5 35  1  1
  6 24  1  0
  6  7  1  6
  6  8  1  0
  7 36  1  0
  8 24  1  0
  8  9  1  0
  8 37  1  1
  9 10  1  0
  9 38  1  0
  9 39  1  0
 10 22  1  0
 10 11  1  0
 10 40  1  6
 11 12  1  0
 12 16  1  0
 12 13  1  0
 12 41  1  6
 13 14  1  0
 14 21  1  0
 14 15  1  0
 14 42  1  1
 15 16  1  0
 15 43  1  0
 15 44  1  0
 16 17  1  6
 16 18  1  0
 17 45  1  0
 17 46  1  0
 17 47  1  0
 18 19  1  0
 18 48  1  0
 18 49  1  0
 19 20  1  1
 19 21  1  0
 19 22  1  0
 20 50  1  0
 20 51  1  0
 20 52  1  0
 21 53  1  0
 21 54  1  0
 22 23  1  6
 22 24  1  0
 23 55  1  0
 23 56  1  0
 23 57  1  0
 24 25  1  1
 25 58  1  0
 25 59  1  0
 25 60  1  0
 26 27  1  0
 26 61  1  1
 27 28  1  0
 27 62  1  0
 27 63  1  0
 28 64  1  0
M  END
>  <i_m_ct_stereo_status>  (157) 
1

>  <s_m_source_file>  (157) 
/var/tmp/pbs.5076255.sched01/tmpazi1eam_/42934yjxx2.sdf

>  <i_m_source_file_index>  (157) 
24

>  <i_lp_mmshare_version>  (157) 
48012

>  <i_f3d_flags>  (157) 
0

>  <s_epik_input>  (157) 
W0NIM11DMT1bQ0hdW0NIMl1bQ0BIXShbQ0BIXTFbQ0gyXVtPSF0pW0NAQF0yKFtPSF0pW0NASF0oW0NIMl0zKVtDQF0yKFtDSDNdKVtDQF0oW0NIM10pKFtDQF0oW0NIMl00KShbQ0gzXSlbQ0gyXVtDQEhdKE81KVtDSDJdNilbQ0BASF0zT1tDQEBIXTVbQ0BdNDZbQ0gzXQ==

>  <s_epik_cmdline>  (157) 
J2VwaWtfcHl0aG9uJywgJy1waHQnLCAnMi4wJywgJy1waCcsICc3LjAnLCAnLXRuJywgJzgnLCAnLW1hJywgJzIwMCcsICctaW1hZScsICc8aW5maWxlLm1hZT4nLCAnLW9tYWUnLCAnPG91dGZpbGUubWFlPic=

>  <r_lp_tautomer_probability>  (157) 
1

>  <r_epik_Ionization_Penalty>  (157) 
1.60022e-06

>  <r_epik_Ionization_Penalty_Charging>  (157) 
0

>  <r_epik_Ionization_Penalty_Neutral>  (157) 
1.60022e-06

>  <r_epik_State_Penalty>  (157) 
-0

>  <r_epik_Charging_Adjusted_Penalty>  (157) 
0

>  <i_epik_Tot_Q>  (157) 
0

>  <i_epik_Tot_abs_Q>  (157) 
0

>  <s_epik_Chemistry_Notes>  (157) 
This compound contains an acetal/aminal-like group ( X-CH(R)-Y where X, Y are N, S, or O) that may be acid/base labile, releasing an aldehyde.

>  <s_lp_Force_Field>  (157) 
OPLS3e

>  <r_lp_Energy>  (157) 
65.5994

>  <b_lp_Chiralities_Consistent>  (157) 
1

>  <s_lp_Variant>  (157) 
43:0-1

>  <s_i_glide_gridfile>  (157) 
pfpi4k_grid

>  <i_i_glide_lignum>  (157) 
24

>  <i_i_glide_rotatable_bonds>  (157) 
4

>  <r_i_docking_score>  (157) 
-2.37177

>  <r_i_glide_ligand_efficiency>  (157) 
-0.0847062

>  <r_i_glide_ligand_efficiency_sa>  (157) 
-0.257218

>  <r_i_glide_ligand_efficiency_ln>  (157) 
-0.547475

>  <r_i_glide_gscore>  (157) 
-2.37177

>  <r_i_glide_lipo>  (157) 
-0.564061

>  <r_i_glide_hbond>  (157) 
0

>  <r_i_glide_metal>  (157) 
-0

>  <r_i_glide_rewards>  (157) 
-0.759953

>  <r_i_glide_evdw>  (157) 
-21.3968

>  <r_i_glide_ecoul>  (157) 
-1.16267

>  <r_i_glide_erotb>  (157) 
0.258143

>  <r_i_glide_esite>  (157) 
-0.0616616

>  <r_i_glide_emodel>  (157) 
-25.6357

>  <r_i_glide_energy>  (157) 
-22.5595

>  <r_i_glide_einternal>  (157) 
0.44415

>  <r_i_glide_intrahb_reward>  (157) 
-0

>  <i_i_glide_confnum>  (157) 
3

>  <i_i_glide_posenum>  (157) 
26

>  <r_i_glide_eff_state_penalty>  (157) 
0

>  <ligand_id>  (157) 
43

>  <original_smiles>  (157) 
CC1=CCC(C2(O)C3CC4OC5OC6CC5(C)CC(C)(C6)C4(C)C32C)C1CO

>  <smiles>  (157) 
[H]OC([H])([H])C1([H])C(C([H])([H])[H])=C([H])C([H])([H])C1([H])C1(O[H])C2([H])C([H])([H])C3([H])OC4([H])OC5([H])C([H])([H])C4(C([H])([H])[H])C([H])([H])C(C([H])([H])[H])(C5([H])[H])C3(C([H])([H])[H])C21C([H])([H])[H]

$$$$
44:0:0
     RDKit          3D

 83 89  0  0  1  0  0  0  0  0999 V2000
    7.3480   -8.0771    4.3180 C   0  0  0  0  0  0  0  0  0  0  0  0
    5.8087   -7.7698    4.3890 C   0  0  2  0  0  0  0  0  0  0  0  0
    5.2221   -9.0320    5.0471 C   0  0  0  0  0  0  0  0  0  0  0  0
    4.9478  -10.1639    4.0401 C   0  0  0  0  0  0  0  0  0  0  0  0
    4.2658   -9.7557    2.7186 C   0  0  1  0  0  0  0  0  0  0  0  0
    2.7308   -9.8181    2.6314 C   0  0  2  0  0  0  0  0  0  0  0  0
    1.9382   -8.6139    3.1169 C   0  0  2  0  0  0  0  0  0  0  0  0
    2.4727   -7.5284    4.0428 C   0  0  0  0  0  0  0  0  0  0  0  0
    3.6059   -6.5360    3.5395 C   0  0  2  0  0  0  0  0  0  0  0  0
    3.0936   -5.1460    2.8839 C   0  0  2  0  0  0  0  0  0  0  0  0
    1.7363   -4.7729    3.5784 C   0  0  0  0  0  0  0  0  0  0  0  0
    2.6975   -5.1806    1.3834 C   0  0  0  0  0  0  0  0  0  0  0  0
    2.6800   -3.7179    0.9262 C   0  0  2  0  0  0  0  0  0  0  0  0
    2.7951   -3.4290   -0.5774 C   0  0  0  0  0  0  0  0  0  0  0  0
    3.9331   -2.3997   -0.6983 C   0  0  1  0  0  0  0  0  0  0  0  0
    3.4131   -1.0906   -0.5282 O   0  0  0  0  0  0  0  0  0  0  0  0
    4.9224   -2.7949    0.4389 C   0  0  1  0  0  0  0  0  0  0  0  0
    5.7216   -3.9761   -0.1802 C   0  0  0  0  0  0  0  0  0  0  0  0
    5.9518   -1.6851    0.8042 C   0  0  0  0  0  0  0  0  0  0  0  0
    5.3679   -0.5083    1.3253 O   0  0  0  0  0  0  0  0  0  0  0  0
    3.9004   -3.1087    1.5970 C   0  0  2  0  0  0  0  0  0  0  0  0
    4.0979   -3.8879    2.9648 C   0  0  1  0  0  0  0  0  0  0  0  0
    3.6539   -2.8616    4.0725 C   0  0  0  0  0  0  0  0  0  0  0  0
    5.5467   -4.1410    3.4868 C   0  0  0  0  0  0  0  0  0  0  0  0
    6.5266   -5.1563    2.8940 C   0  0  0  0  0  0  0  0  0  0  0  0
    5.8645   -6.3571    2.2231 C   0  0  1  0  0  0  0  0  0  0  0  0
    6.7569   -7.2710    1.5933 O   0  0  0  0  0  0  0  0  0  0  0  0
    6.2358   -8.5071    1.5230 C   0  0  0  0  0  0  0  0  0  0  0  0
    6.7586   -9.5127    1.0508 O   0  0  0  0  0  0  0  0  0  0  0  0
    4.8125   -8.4471    2.0615 C   0  0  1  0  0  0  0  0  0  0  0  0
    4.0249   -8.1655    0.7468 C   0  0  0  0  0  0  0  0  0  0  0  0
    4.9724   -7.2690    3.0894 C   0  0  1  0  0  0  0  0  0  0  0  0
    1.5935  -10.0037    3.6359 C   0  0  0  0  0  0  0  0  0  0  0  0
    0.3073  -10.6289    3.1266 C   0  0  0  0  0  0  0  0  0  0  0  0
    1.7954  -10.4530    5.0732 C   0  0  0  0  0  0  0  0  0  0  0  0
    7.5642   -9.0298    3.8309 H   0  0  0  0  0  0  0  0  0  0  0  0
    7.7586   -8.1660    5.3255 H   0  0  0  0  0  0  0  0  0  0  0  0
    7.9657   -7.3353    3.8203 H   0  0  0  0  0  0  0  0  0  0  0  0
    5.7641   -6.9701    5.1295 H   0  0  0  0  0  0  0  0  0  0  0  0
    5.9248   -9.4308    5.7771 H   0  0  0  0  0  0  0  0  0  0  0  0
    4.3937   -8.7981    5.6977 H   0  0  0  0  0  0  0  0  0  0  0  0
    5.9118  -10.6077    3.7820 H   0  0  0  0  0  0  0  0  0  0  0  0
    4.4047  -10.9791    4.5103 H   0  0  0  0  0  0  0  0  0  0  0  0
    4.5624  -10.5683    2.0533 H   0  0  0  0  0  0  0  0  0  0  0  0
    2.4487  -10.1790    1.6460 H   0  0  0  0  0  0  0  0  0  0  0  0
    1.2420   -8.2094    2.3830 H   0  0  0  0  0  0  0  0  0  0  0  0
    1.5959   -7.0327    4.4447 H   0  0  0  0  0  0  0  0  0  0  0  0
    2.7920   -7.9875    4.9540 H   0  0  0  0  0  0  0  0  0  0  0  0
    3.8951   -6.1214    4.5044 H   0  0  0  0  0  0  0  0  0  0  0  0
    1.3340   -3.8033    3.2979 H   0  0  0  0  0  0  0  0  0  0  0  0
    1.8159   -4.7810    4.6664 H   0  0  0  0  0  0  0  0  0  0  0  0
    0.9332   -5.4501    3.2953 H   0  0  0  0  0  0  0  0  0  0  0  0
    3.4251   -5.6918    0.7784 H   0  0  0  0  0  0  0  0  0  0  0  0
    1.7454   -5.6765    1.1963 H   0  0  0  0  0  0  0  0  0  0  0  0
    1.8132   -3.1958    1.3121 H   0  0  0  0  0  0  0  0  0  0  0  0
    3.0569   -4.3384   -1.1175 H   0  0  0  0  0  0  0  0  0  0  0  0
    1.8591   -3.0760   -1.0098 H   0  0  0  0  0  0  0  0  0  0  0  0
    4.3816   -2.4415   -1.6918 H   0  0  0  0  0  0  0  0  0  0  0  0
    2.4620   -1.0909   -0.7245 H   0  0  0  0  0  0  0  0  0  0  0  0
    6.6076   -4.2437    0.3718 H   0  0  0  0  0  0  0  0  0  0  0  0
    6.1087   -3.7023   -1.1622 H   0  0  0  0  0  0  0  0  0  0  0  0
    5.1268   -4.8695   -0.3449 H   0  0  0  0  0  0  0  0  0  0  0  0
    6.6647   -2.0530    1.5407 H   0  0  0  0  0  0  0  0  0  0  0  0
    6.5172   -1.3935   -0.0795 H   0  0  0  0  0  0  0  0  0  0  0  0
    4.6091   -0.3182    0.7862 H   0  0  0  0  0  0  0  0  0  0  0  0
    3.5444   -2.1167    1.8675 H   0  0  0  0  0  0  0  0  0  0  0  0
    4.3645   -2.0372    4.1668 H   0  0  0  0  0  0  0  0  0  0  0  0
    3.5780   -3.3193    5.0609 H   0  0  0  0  0  0  0  0  0  0  0  0
    2.7094   -2.3568    3.8744 H   0  0  0  0  0  0  0  0  0  0  0  0
    6.0490   -3.1759    3.4834 H   0  0  0  0  0  0  0  0  0  0  0  0
    5.4778   -4.4144    4.5419 H   0  0  0  0  0  0  0  0  0  0  0  0
    7.2171   -4.6656    2.2174 H   0  0  0  0  0  0  0  0  0  0  0  0
    7.1776   -5.4565    3.7051 H   0  0  0  0  0  0  0  0  0  0  0  0
    5.2721   -5.9456    1.4269 H   0  0  0  0  0  0  0  0  0  0  0  0
    3.0154   -7.8136    0.9226 H   0  0  0  0  0  0  0  0  0  0  0  0
    3.9399   -9.0820    0.1608 H   0  0  0  0  0  0  0  0  0  0  0  0
    4.5041   -7.4483    0.0771 H   0  0  0  0  0  0  0  0  0  0  0  0
   -0.5363  -10.2863    3.7213 H   0  0  0  0  0  0  0  0  0  0  0  0
    0.3666  -11.7152    3.1874 H   0  0  0  0  0  0  0  0  0  0  0  0
    0.1137  -10.3513    2.0913 H   0  0  0  0  0  0  0  0  0  0  0  0
    0.9417  -10.1470    5.6797 H   0  0  0  0  0  0  0  0  0  0  0  0
    2.6844  -10.0355    5.5252 H   0  0  0  0  0  0  0  0  0  0  0  0
    1.8762  -11.5412    5.1250 H   0  0  0  0  0  0  0  0  0  0  0  0
  1  2  1  0
  1 36  1  0
  1 37  1  0
  1 38  1  0
  2 32  1  0
  2  3  1  0
  2 39  1  1
  3  4  1  0
  3 40  1  0
  3 41  1  0
  4  5  1  0
  4 42  1  0
  4 43  1  0
  5 30  1  0
  5  6  1  0
  5 44  1  6
  6 33  1  0
  6  7  1  0
  6 45  1  6
  7  8  1  0
  7 33  1  0
  7 46  1  6
  8  9  1  0
  8 47  1  0
  8 48  1  0
  9 32  1  0
  9 10  1  0
  9 49  1  1
 10 22  1  0
 10 11  1  1
 10 12  1  0
 11 50  1  0
 11 51  1  0
 11 52  1  0
 12 13  1  0
 12 53  1  0
 12 54  1  0
 13 21  1  0
 13 14  1  0
 13 55  1  1
 14 15  1  0
 14 56  1  0
 14 57  1  0
 15 16  1  0
 15 17  1  0
 15 58  1  6
 16 59  1  0
 17 18  1  6
 17 19  1  0
 17 21  1  0
 18 60  1  0
 18 61  1  0
 18 62  1  0
 19 20  1  0
 19 63  1  0
 19 64  1  0
 20 65  1  0
 21 22  1  0
 21 66  1  1
 22 23  1  1
 22 24  1  0
 23 67  1  0
 23 68  1  0
 23 69  1  0
 24 25  1  0
 24 70  1  0
 24 71  1  0
 25 26  1  0
 25 72  1  0
 25 73  1  0
 26 32  1  0
 26 27  1  0
 26 74  1  6
 27 28  1  0
 28 29  2  0
 28 30  1  0
 30 31  1  6
 32 30  1  6
 31 75  1  0
 31 76  1  0
 31 77  1  0
 33 34  1  0
 33 35  1  0
 34 78  1  0
 34 79  1  0
 34 80  1  0
 35 81  1  0
 35 82  1  0
 35 83  1  0
M  END
>  <i_m_ct_stereo_status>  (158) 
1

>  <s_m_source_file>  (158) 
/var/tmp/pbs.5076255.sched01/tmpazi1eam_/42934yjxx2.sdf

>  <i_m_source_file_index>  (158) 
25

>  <i_lp_mmshare_version>  (158) 
48012

>  <i_f3d_flags>  (158) 
0

>  <s_epik_input>  (158) 
W0NIM11bQ0BASF0xW0NIMl1bQ0gyXVtDQEBIXShbQ0BASF0yW0NASF0oW0NIMl0zKUMyKFtDSDNdKVtDSDNdKVtDQF00KFtDSDNdKUMoPU8pT1tDQEBIXTVbQ0gyXVtDSDJdW0NAXShbQ0gzXSkoW0NAQF02KFtDQEBIXTNbQ0BAXTE0NSlbQ0gzXSlbQ0BASF03W0NASF0oW0NIMl02KVtDSDJdW0NAQEhdKFtPSF0pW0NAQF03KFtDSDNdKVtDSDJdW09IXQ==

>  <s_epik_cmdline>  (158) 
J2VwaWtfcHl0aG9uJywgJy1waHQnLCAnMi4wJywgJy1waCcsICc3LjAnLCAnLXRuJywgJzgnLCAnLW1hJywgJzIwMCcsICctaW1hZScsICc8aW5maWxlLm1hZT4nLCAnLW9tYWUnLCAnPG91dGZpbGUubWFlPic=

>  <r_lp_tautomer_probability>  (158) 
1

>  <r_epik_Ionization_Penalty>  (158) 
1.6977e-06

>  <r_epik_Ionization_Penalty_Charging>  (158) 
0

>  <r_epik_Ionization_Penalty_Neutral>  (158) 
1.6977e-06

>  <r_epik_State_Penalty>  (158) 
-0

>  <r_epik_Charging_Adjusted_Penalty>  (158) 
0

>  <i_epik_Tot_Q>  (158) 
0

>  <i_epik_Tot_abs_Q>  (158) 
0

>  <s_epik_Chemistry_Notes>  (158) 
This compound has an ester and may undergo hydrolysis at high or low pH.

>  <s_lp_Force_Field>  (158) 
OPLS3e

>  <r_lp_Energy>  (158) 
148.008

>  <b_lp_Chiralities_Consistent>  (158) 
1

>  <s_lp_Variant>  (158) 
44:0-1

>  <s_i_glide_gridfile>  (158) 
pfpi4k_grid

>  <i_i_glide_lignum>  (158) 
25

>  <i_i_glide_rotatable_bonds>  (158) 
3

>  <r_i_docking_score>  (158) 
-3.04189

>  <r_i_glide_ligand_efficiency>  (158) 
-0.0869111

>  <r_i_glide_ligand_efficiency_sa>  (158) 
-0.284292

>  <r_i_glide_ligand_efficiency_ln>  (158) 
-0.667762

>  <r_i_glide_gscore>  (158) 
-3.04189

>  <r_i_glide_lipo>  (158) 
-0.27924

>  <r_i_glide_hbond>  (158) 
0

>  <r_i_glide_metal>  (158) 
-0

>  <r_i_glide_rewards>  (158) 
-0.766494

>  <r_i_glide_evdw>  (158) 
-22.5993

>  <r_i_glide_ecoul>  (158) 
-6.35091

>  <r_i_glide_erotb>  (158) 
0.0864456

>  <r_i_glide_esite>  (158) 
0

>  <r_i_glide_emodel>  (158) 
-37.5782

>  <r_i_glide_energy>  (158) 
-28.9502

>  <r_i_glide_einternal>  (158) 
2.89018

>  <r_i_glide_intrahb_reward>  (158) 
-0.5

>  <i_i_glide_confnum>  (158) 
4

>  <i_i_glide_posenum>  (158) 
18

>  <r_i_glide_eff_state_penalty>  (158) 
0

>  <ligand_id>  (158) 
44

>  <original_smiles>  (158) 
CC1CCC2C3C(CC4C5(C)CC6CC(O)C(C)(CO)C6C5(C)CCC5OC(=O)C2(C)C154)C3(C)C

>  <smiles>  (158) 
[H]OC([H])([H])C1(C([H])([H])[H])C([H])(O[H])C([H])([H])C2([H])C([H])([H])C3(C([H])([H])[H])C4([H])C([H])([H])C5([H])C([H])(C6([H])C([H])([H])C([H])([H])C([H])(C([H])([H])[H])C47C([H])(OC(=O)C67C([H])([H])[H])C([H])([H])C([H])([H])C3(C([H])([H])[H])C21[H])C5(C([H])([H])[H])C([H])([H])[H]

$$$$
44:0:1
     RDKit          3D

 83 89  0  0  1  0  0  0  0  0999 V2000
    7.6781   -6.8954    3.7968 C   0  0  0  0  0  0  0  0  0  0  0  0
    6.2416   -6.3386    4.1173 C   0  0  2  0  0  0  0  0  0  0  0  0
    5.7849   -7.2038    5.3039 C   0  0  0  0  0  0  0  0  0  0  0  0
    5.1632   -8.5451    4.8663 C   0  0  0  0  0  0  0  0  0  0  0  0
    4.1661   -8.4916    3.6905 C   0  0  1  0  0  0  0  0  0  0  0  0
    2.6714   -8.3172    4.0027 C   0  0  2  0  0  0  0  0  0  0  0  0
    2.1323   -6.9165    4.2008 C   0  0  2  0  0  0  0  0  0  0  0  0
    2.9721   -5.6857    4.5165 C   0  0  0  0  0  0  0  0  0  0  0  0
    3.9816   -5.1162    3.4325 C   0  0  2  0  0  0  0  0  0  0  0  0
    3.4090   -3.9518    2.4648 C   0  0  2  0  0  0  0  0  0  0  0  0
    2.3238   -3.1584    3.2787 C   0  0  0  0  0  0  0  0  0  0  0  0
    2.6109   -4.4135    1.2201 C   0  0  0  0  0  0  0  0  0  0  0  0
    2.5635   -3.1968    0.2886 C   0  0  2  0  0  0  0  0  0  0  0  0
    2.2608   -3.4370   -1.1966 C   0  0  0  0  0  0  0  0  0  0  0  0
    3.4104   -2.7319   -1.9353 C   0  0  1  0  0  0  0  0  0  0  0  0
    3.0754   -1.3763   -2.1577 O   0  0  0  0  0  0  0  0  0  0  0  0
    4.6487   -2.8929   -1.0072 C   0  0  1  0  0  0  0  0  0  0  0  0
    5.1291   -4.3250   -1.3436 C   0  0  0  0  0  0  0  0  0  0  0  0
    5.7512   -1.8633   -1.3735 C   0  0  0  0  0  0  0  0  0  0  0  0
    7.0162   -2.1280   -0.8159 O   0  0  0  0  0  0  0  0  0  0  0  0
    3.9677   -2.6081    0.3790 C   0  0  2  0  0  0  0  0  0  0  0  0
    4.4812   -2.9158    1.8470 C   0  0  1  0  0  0  0  0  0  0  0  0
    4.4254   -1.5248    2.5748 C   0  0  0  0  0  0  0  0  0  0  0  0
    5.9971   -3.2199    2.0829 C   0  0  0  0  0  0  0  0  0  0  0  0
    6.6911   -4.5145    1.6622 C   0  0  0  0  0  0  0  0  0  0  0  0
    5.7842   -5.7434    1.6508 C   0  0  1  0  0  0  0  0  0  0  0  0
    6.4088   -6.9392    1.2103 O   0  0  0  0  0  0  0  0  0  0  0  0
    5.8198   -8.0391    1.6955 C   0  0  0  0  0  0  0  0  0  0  0  0
    6.1454   -9.2102    1.5146 O   0  0  0  0  0  0  0  0  0  0  0  0
    4.5960   -7.5833    2.4926 C   0  0  1  0  0  0  0  0  0  0  0  0
    3.4843   -7.6205    1.3983 C   0  0  0  0  0  0  0  0  0  0  0  0
    5.1103   -6.1743    2.9625 C   0  0  1  0  0  0  0  0  0  0  0  0
    1.8534   -7.9839    5.2523 C   0  0  0  0  0  0  0  0  0  0  0  0
    0.4319   -8.5240    5.3406 C   0  0  0  0  0  0  0  0  0  0  0  0
    2.4179   -7.9608    6.6593 C   0  0  0  0  0  0  0  0  0  0  0  0
    7.6871   -7.9771    3.6482 H   0  0  0  0  0  0  0  0  0  0  0  0
    8.3518   -6.7118    4.6384 H   0  0  0  0  0  0  0  0  0  0  0  0
    8.1860   -6.4743    2.9339 H   0  0  0  0  0  0  0  0  0  0  0  0
    6.4645   -5.3436    4.5060 H   0  0  0  0  0  0  0  0  0  0  0  0
    6.6389   -7.4478    5.9354 H   0  0  0  0  0  0  0  0  0  0  0  0
    5.1932   -6.6372    6.0055 H   0  0  0  0  0  0  0  0  0  0  0  0
    5.9859   -9.1952    4.5647 H   0  0  0  0  0  0  0  0  0  0  0  0
    4.7237   -9.0594    5.7178 H   0  0  0  0  0  0  0  0  0  0  0  0
    4.2029   -9.5115    3.3073 H   0  0  0  0  0  0  0  0  0  0  0  0
    2.0904   -8.9346    3.3155 H   0  0  0  0  0  0  0  0  0  0  0  0
    1.2862   -6.6682    3.5596 H   0  0  0  0  0  0  0  0  0  0  0  0
    2.2793   -4.9505    4.9109 H   0  0  0  0  0  0  0  0  0  0  0  0
    3.5047   -5.8633    5.4259 H   0  0  0  0  0  0  0  0  0  0  0  0
    4.5567   -4.4578    4.0858 H   0  0  0  0  0  0  0  0  0  0  0  0
    1.9237   -2.2821    2.7754 H   0  0  0  0  0  0  0  0  0  0  0  0
    2.7037   -2.8202    4.2438 H   0  0  0  0  0  0  0  0  0  0  0  0
    1.4293   -3.7499    3.4579 H   0  0  0  0  0  0  0  0  0  0  0  0
    3.1011   -5.2013    0.6780 H   0  0  0  0  0  0  0  0  0  0  0  0
    1.6229   -4.7958    1.4703 H   0  0  0  0  0  0  0  0  0  0  0  0
    1.8563   -2.4590    0.6668 H   0  0  0  0  0  0  0  0  0  0  0  0
    2.2409   -4.5031   -1.3931 H   0  0  0  0  0  0  0  0  0  0  0  0
    1.2792   -3.0735   -1.5107 H   0  0  0  0  0  0  0  0  0  0  0  0
    3.5579   -3.1562   -2.9270 H   0  0  0  0  0  0  0  0  0  0  0  0
    2.3441   -1.1403   -1.5638 H   0  0  0  0  0  0  0  0  0  0  0  0
    6.0936   -4.5730   -0.9396 H   0  0  0  0  0  0  0  0  0  0  0  0
    5.2465   -4.4445   -2.4208 H   0  0  0  0  0  0  0  0  0  0  0  0
    4.4356   -5.1015   -1.0439 H   0  0  0  0  0  0  0  0  0  0  0  0
    5.8777   -1.8584   -2.4503 H   0  0  0  0  0  0  0  0  0  0  0  0
    5.4679   -0.8510   -1.0734 H   0  0  0  0  0  0  0  0  0  0  0  0
    7.2055   -3.0491   -0.9159 H   0  0  0  0  0  0  0  0  0  0  0  0
    3.7980   -1.5354    0.3279 H   0  0  0  0  0  0  0  0  0  0  0  0
    5.1904   -0.8401    2.1922 H   0  0  0  0  0  0  0  0  0  0  0  0
    4.5962   -1.6125    3.6495 H   0  0  0  0  0  0  0  0  0  0  0  0
    3.4962   -0.9691    2.4357 H   0  0  0  0  0  0  0  0  0  0  0  0
    6.6048   -2.3981    1.6951 H   0  0  0  0  0  0  0  0  0  0  0  0
    6.1447   -3.1574    3.1541 H   0  0  0  0  0  0  0  0  0  0  0  0
    7.1980   -4.3983    0.7141 H   0  0  0  0  0  0  0  0  0  0  0  0
    7.5270   -4.6529    2.3311 H   0  0  0  0  0  0  0  0  0  0  0  0
    5.0262   -5.5355    0.9181 H   0  0  0  0  0  0  0  0  0  0  0  0
    2.5877   -7.0708    1.6664 H   0  0  0  0  0  0  0  0  0  0  0  0
    3.1740   -8.6460    1.2101 H   0  0  0  0  0  0  0  0  0  0  0  0
    3.8163   -7.2431    0.4290 H   0  0  0  0  0  0  0  0  0  0  0  0
   -0.1705   -7.8788    5.9747 H   0  0  0  0  0  0  0  0  0  0  0  0
    0.4307   -9.5320    5.7594 H   0  0  0  0  0  0  0  0  0  0  0  0
   -0.0287   -8.5643    4.3539 H   0  0  0  0  0  0  0  0  0  0  0  0
    1.7941   -7.3328    7.3001 H   0  0  0  0  0  0  0  0  0  0  0  0
    3.4267   -7.5664    6.7032 H   0  0  0  0  0  0  0  0  0  0  0  0
    2.4369   -8.9700    7.0762 H   0  0  0  0  0  0  0  0  0  0  0  0
  1  2  1  0
  1 36  1  0
  1 37  1  0
  1 38  1  0
  2 32  1  0
  2  3  1  0
  2 39  1  1
  3  4  1  0
  3 40  1  0
  3 41  1  0
  4  5  1  0
  4 42  1  0
  4 43  1  0
  5 30  1  0
  5  6  1  0
  5 44  1  6
  6 33  1  0
  6  7  1  0
  6 45  1  6
  7  8  1  0
  7 33  1  0
  7 46  1  6
  8  9  1  0
  8 47  1  0
  8 48  1  0
  9 32  1  0
  9 10  1  0
  9 49  1  1
 10 22  1  0
 10 11  1  1
 10 12  1  0
 11 50  1  0
 11 51  1  0
 11 52  1  0
 12 13  1  0
 12 53  1  0
 12 54  1  0
 13 21  1  0
 13 14  1  0
 13 55  1  1
 14 15  1  0
 14 56  1  0
 14 57  1  0
 15 16  1  0
 15 17  1  0
 15 58  1  6
 16 59  1  0
 17 18  1  1
 17 19  1  0
 17 21  1  0
 18 60  1  0
 18 61  1  0
 18 62  1  0
 19 20  1  0
 19 63  1  0
 19 64  1  0
 20 65  1  0
 21 22  1  0
 21 66  1  1
 22 23  1  1
 22 24  1  0
 23 67  1  0
 23 68  1  0
 23 69  1  0
 24 25  1  0
 24 70  1  0
 24 71  1  0
 25 26  1  0
 25 72  1  0
 25 73  1  0
 26 32  1  0
 26 27  1  0
 26 74  1  6
 27 28  1  0
 28 29  2  0
 28 30  1  0
 30 31  1  6
 32 30  1  6
 31 75  1  0
 31 76  1  0
 31 77  1  0
 33 34  1  0
 33 35  1  0
 34 78  1  0
 34 79  1  0
 34 80  1  0
 35 81  1  0
 35 82  1  0
 35 83  1  0
M  END
>  <i_m_ct_stereo_status>  (159) 
1

>  <s_m_source_file>  (159) 
/var/tmp/pbs.5076255.sched01/tmpazi1eam_/42934yjxx2.sdf

>  <i_m_source_file_index>  (159) 
25

>  <i_lp_mmshare_version>  (159) 
48012

>  <i_f3d_flags>  (159) 
0

>  <s_epik_input>  (159) 
W0NIM11bQ0BASF0xW0NIMl1bQ0gyXVtDQEBIXShbQ0BASF0yW0NASF0oW0NIMl0zKUMyKFtDSDNdKVtDSDNdKVtDQF00KFtDSDNdKUMoPU8pT1tDQEBIXTVbQ0gyXVtDSDJdW0NAXShbQ0gzXSkoW0NAQF02KFtDQEBIXTNbQ0BAXTE0NSlbQ0gzXSlbQ0BASF03W0NASF0oW0NIMl02KVtDSDJdW0NAQEhdKFtPSF0pW0NAQF03KFtDSDNdKVtDSDJdW09IXQ==

>  <s_epik_cmdline>  (159) 
J2VwaWtfcHl0aG9uJywgJy1waHQnLCAnMi4wJywgJy1waCcsICc3LjAnLCAnLXRuJywgJzgnLCAnLW1hJywgJzIwMCcsICctaW1hZScsICc8aW5maWxlLm1hZT4nLCAnLW9tYWUnLCAnPG91dGZpbGUubWFlPic=

>  <r_lp_tautomer_probability>  (159) 
1

>  <r_epik_Ionization_Penalty>  (159) 
1.6977e-06

>  <r_epik_Ionization_Penalty_Charging>  (159) 
0

>  <r_epik_Ionization_Penalty_Neutral>  (159) 
1.6977e-06

>  <r_epik_State_Penalty>  (159) 
-0

>  <r_epik_Charging_Adjusted_Penalty>  (159) 
0

>  <i_epik_Tot_Q>  (159) 
0

>  <i_epik_Tot_abs_Q>  (159) 
0

>  <s_epik_Chemistry_Notes>  (159) 
This compound has an ester and may undergo hydrolysis at high or low pH.

>  <s_lp_Force_Field>  (159) 
OPLS3e

>  <r_lp_Energy>  (159) 
148.008

>  <b_lp_Chiralities_Consistent>  (159) 
1

>  <s_lp_Variant>  (159) 
44:0-1

>  <s_i_glide_gridfile>  (159) 
pfpi4k_grid

>  <i_i_glide_lignum>  (159) 
25

>  <i_i_glide_rotatable_bonds>  (159) 
3

>  <r_i_docking_score>  (159) 
-2.82945

>  <r_i_glide_ligand_efficiency>  (159) 
-0.0808413

>  <r_i_glide_ligand_efficiency_sa>  (159) 
-0.264437

>  <r_i_glide_ligand_efficiency_ln>  (159) 
-0.621126

>  <r_i_glide_gscore>  (159) 
-2.82945

>  <r_i_glide_lipo>  (159) 
-0.260446

>  <r_i_glide_hbond>  (159) 
-0.32

>  <r_i_glide_metal>  (159) 
-0

>  <r_i_glide_rewards>  (159) 
-0.216801

>  <r_i_glide_evdw>  (159) 
-20.251

>  <r_i_glide_ecoul>  (159) 
-7.37395

>  <r_i_glide_erotb>  (159) 
0.0864456

>  <r_i_glide_esite>  (159) 
0

>  <r_i_glide_emodel>  (159) 
-31.5741

>  <r_i_glide_energy>  (159) 
-27.625

>  <r_i_glide_einternal>  (159) 
1.21797

>  <r_i_glide_intrahb_reward>  (159) 
-0

>  <i_i_glide_confnum>  (159) 
5

>  <i_i_glide_posenum>  (159) 
34

>  <r_i_glide_eff_state_penalty>  (159) 
0

>  <ligand_id>  (159) 
44

>  <original_smiles>  (159) 
CC1CCC2C3C(CC4C5(C)CC6CC(O)C(C)(CO)C6C5(C)CCC5OC(=O)C2(C)C154)C3(C)C

>  <smiles>  (159) 
[H]OC([H])([H])C1(C([H])([H])[H])C([H])(O[H])C([H])([H])C2([H])C([H])([H])C3(C([H])([H])[H])C4([H])C([H])([H])C5([H])C([H])(C6([H])C([H])([H])C([H])([H])C([H])(C([H])([H])[H])C47C([H])(OC(=O)C67C([H])([H])[H])C([H])([H])C([H])([H])C3(C([H])([H])[H])C21[H])C5(C([H])([H])[H])C([H])([H])[H]

$$$$
44:0:2
     RDKit          3D

 83 89  0  0  1  0  0  0  0  0999 V2000
    7.3329   -7.3612    4.0008 C   0  0  0  0  0  0  0  0  0  0  0  0
    5.8982   -6.7872    4.2780 C   0  0  2  0  0  0  0  0  0  0  0  0
    5.3672   -7.6911    5.4080 C   0  0  0  0  0  0  0  0  0  0  0  0
    4.7376   -8.9995    4.8902 C   0  0  0  0  0  0  0  0  0  0  0  0
    3.8026   -8.8776    3.6697 C   0  0  1  0  0  0  0  0  0  0  0  0
    2.2919   -8.6949    3.9209 C   0  0  2  0  0  0  0  0  0  0  0  0
    1.7694   -7.2846    4.1558 C   0  0  2  0  0  0  0  0  0  0  0  0
    2.6217   -6.0874    4.5585 C   0  0  0  0  0  0  0  0  0  0  0  0
    3.6921   -5.4921    3.5474 C   0  0  2  0  0  0  0  0  0  0  0  0
    3.1795   -4.2746    2.6036 C   0  0  2  0  0  0  0  0  0  0  0  0
    2.0744   -3.4966    3.4041 C   0  0  0  0  0  0  0  0  0  0  0  0
    2.4253   -4.6677    1.3078 C   0  0  0  0  0  0  0  0  0  0  0  0
    2.4411   -3.4121    0.4243 C   0  0  2  0  0  0  0  0  0  0  0  0
    2.1996   -3.5848   -1.0816 C   0  0  0  0  0  0  0  0  0  0  0  0
    3.3768   -2.8604   -1.7559 C   0  0  1  0  0  0  0  0  0  0  0  0
    3.0250   -1.4968   -1.9310 O   0  0  0  0  0  0  0  0  0  0  0  0
    4.5668   -3.0711   -0.7751 C   0  0  1  0  0  0  0  0  0  0  0  0
    5.0636   -4.4928   -1.1245 C   0  0  0  0  0  0  0  0  0  0  0  0
    5.7619   -2.1089   -1.0044 C   0  0  0  0  0  0  0  0  0  0  0  0
    5.4732   -0.7666   -0.6871 O   0  0  0  0  0  0  0  0  0  0  0  0
    3.8403   -2.8492    0.6025 C   0  0  2  0  0  0  0  0  0  0  0  0
    4.2951   -3.2328    2.0726 C   0  0  1  0  0  0  0  0  0  0  0  0
    4.2396   -1.8753    2.8669 C   0  0  0  0  0  0  0  0  0  0  0  0
    5.7997   -3.5744    2.3414 C   0  0  0  0  0  0  0  0  0  0  0  0
    6.4913   -4.8734    1.9223 C   0  0  0  0  0  0  0  0  0  0  0  0
    5.5615   -6.0790    1.8116 C   0  0  1  0  0  0  0  0  0  0  0  0
    6.1760   -7.2634    1.3233 O   0  0  0  0  0  0  0  0  0  0  0  0
    5.5513   -8.3716    1.7580 C   0  0  0  0  0  0  0  0  0  0  0  0
    5.8874   -9.5357    1.5450 O   0  0  0  0  0  0  0  0  0  0  0  0
    4.3026   -7.9286    2.5369 C   0  0  1  0  0  0  0  0  0  0  0  0
    3.2386   -7.8924    1.4009 C   0  0  0  0  0  0  0  0  0  0  0  0
    4.8221   -6.5465    3.0846 C   0  0  1  0  0  0  0  0  0  0  0  0
    1.4255   -8.3885    5.1419 C   0  0  0  0  0  0  0  0  0  0  0  0
   -0.0031   -8.9047    5.1369 C   0  0  0  0  0  0  0  0  0  0  0  0
    1.9294   -8.4339    6.5787 C   0  0  0  0  0  0  0  0  0  0  0  0
    7.3246   -8.4349    3.8070 H   0  0  0  0  0  0  0  0  0  0  0  0
    7.9660   -7.2253    4.8793 H   0  0  0  0  0  0  0  0  0  0  0  0
    7.8826   -6.9135    3.1795 H   0  0  0  0  0  0  0  0  0  0  0  0
    6.1127   -5.8102    4.7209 H   0  0  0  0  0  0  0  0  0  0  0  0
    6.1834   -7.9746    6.0728 H   0  0  0  0  0  0  0  0  0  0  0  0
    4.7517   -7.1419    6.1023 H   0  0  0  0  0  0  0  0  0  0  0  0
    5.5614   -9.6514    4.5987 H   0  0  0  0  0  0  0  0  0  0  0  0
    4.2509   -9.5433    5.6960 H   0  0  0  0  0  0  0  0  0  0  0  0
    3.8404   -9.8818    3.2425 H   0  0  0  0  0  0  0  0  0  0  0  0
    1.7368   -9.2690    3.1796 H   0  0  0  0  0  0  0  0  0  0  0  0
    0.9566   -6.9877    3.4889 H   0  0  0  0  0  0  0  0  0  0  0  0
    1.9252   -5.3550    4.9496 H   0  0  0  0  0  0  0  0  0  0  0  0
    3.1064   -6.3100    5.4863 H   0  0  0  0  0  0  0  0  0  0  0  0
    4.2462   -4.8724    4.2534 H   0  0  0  0  0  0  0  0  0  0  0  0
    1.7139   -2.5920    2.9211 H   0  0  0  0  0  0  0  0  0  0  0  0
    2.4141   -3.2054    4.3991 H   0  0  0  0  0  0  0  0  0  0  0  0
    1.1600   -4.0767    3.5176 H   0  0  0  0  0  0  0  0  0  0  0  0
    2.9266   -5.4388    0.7584 H   0  0  0  0  0  0  0  0  0  0  0  0
    1.4207   -5.0476    1.4967 H   0  0  0  0  0  0  0  0  0  0  0  0
    1.7601   -2.6551    0.8006 H   0  0  0  0  0  0  0  0  0  0  0  0
    2.1957   -4.6454   -1.3170 H   0  0  0  0  0  0  0  0  0  0  0  0
    1.2361   -3.2039   -1.4205 H   0  0  0  0  0  0  0  0  0  0  0  0
    3.5719   -3.2614   -2.7513 H   0  0  0  0  0  0  0  0  0  0  0  0
    2.2227   -1.3172   -1.4387 H   0  0  0  0  0  0  0  0  0  0  0  0
    6.0264   -4.7278   -0.7046 H   0  0  0  0  0  0  0  0  0  0  0  0
    5.2231   -4.5865   -2.1997 H   0  0  0  0  0  0  0  0  0  0  0  0
    4.3648   -5.2813   -0.8674 H   0  0  0  0  0  0  0  0  0  0  0  0
    6.6185   -2.4061   -0.3966 H   0  0  0  0  0  0  0  0  0  0  0  0
    6.0791   -2.1458   -2.0460 H   0  0  0  0  0  0  0  0  0  0  0  0
    4.6228   -0.5609   -1.0590 H   0  0  0  0  0  0  0  0  0  0  0  0
    3.6576   -1.7752    0.6088 H   0  0  0  0  0  0  0  0  0  0  0  0
    5.0314   -1.1930    2.5500 H   0  0  0  0  0  0  0  0  0  0  0  0
    4.3584   -2.0141    3.9425 H   0  0  0  0  0  0  0  0  0  0  0  0
    3.3288   -1.2975    2.7161 H   0  0  0  0  0  0  0  0  0  0  0  0
    6.4277   -2.7619    1.9704 H   0  0  0  0  0  0  0  0  0  0  0  0
    5.9073   -3.5472    3.4238 H   0  0  0  0  0  0  0  0  0  0  0  0
    7.0508   -4.7176    1.0055 H   0  0  0  0  0  0  0  0  0  0  0  0
    7.2856   -5.0540    2.6342 H   0  0  0  0  0  0  0  0  0  0  0  0
    4.8372   -5.8117    1.0659 H   0  0  0  0  0  0  0  0  0  0  0  0
    2.3392   -7.3441    1.6549 H   0  0  0  0  0  0  0  0  0  0  0  0
    2.9228   -8.9041    1.1405 H   0  0  0  0  0  0  0  0  0  0  0  0
    3.6201   -7.4632    0.4796 H   0  0  0  0  0  0  0  0  0  0  0  0
   -0.6235   -8.2686    5.7609 H   0  0  0  0  0  0  0  0  0  0  0  0
   -0.0481   -9.9250    5.5212 H   0  0  0  0  0  0  0  0  0  0  0  0
   -0.4205   -8.9023    4.1284 H   0  0  0  0  0  0  0  0  0  0  0  0
    1.2861   -7.8234    7.2145 H   0  0  0  0  0  0  0  0  0  0  0  0
    2.9405   -8.0647    6.6878 H   0  0  0  0  0  0  0  0  0  0  0  0
    1.9074   -9.4610    6.9521 H   0  0  0  0  0  0  0  0  0  0  0  0
  1  2  1  0
  1 36  1  0
  1 37  1  0
  1 38  1  0
  2 32  1  0
  2  3  1  0
  2 39  1  1
  3  4  1  0
  3 40  1  0
  3 41  1  0
  4  5  1  0
  4 42  1  0
  4 43  1  0
  5 30  1  0
  5  6  1  0
  5 44  1  6
  6 33  1  0
  6  7  1  0
  6 45  1  6
  7  8  1  0
  7 33  1  0
  7 46  1  6
  8  9  1  0
  8 47  1  0
  8 48  1  0
  9 32  1  0
  9 10  1  0
  9 49  1  1
 10 22  1  0
 10 11  1  1
 10 12  1  0
 11 50  1  0
 11 51  1  0
 11 52  1  0
 12 13  1  0
 12 53  1  0
 12 54  1  0
 13 21  1  0
 13 14  1  0
 13 55  1  1
 14 15  1  0
 14 56  1  0
 14 57  1  0
 15 16  1  0
 15 17  1  0
 15 58  1  6
 16 59  1  0
 17 18  1  1
 17 19  1  0
 17 21  1  0
 18 60  1  0
 18 61  1  0
 18 62  1  0
 19 20  1  0
 19 63  1  0
 19 64  1  0
 20 65  1  0
 21 22  1  0
 21 66  1  1
 22 23  1  1
 22 24  1  0
 23 67  1  0
 23 68  1  0
 23 69  1  0
 24 25  1  0
 24 70  1  0
 24 71  1  0
 25 26  1  0
 25 72  1  0
 25 73  1  0
 26 32  1  0
 26 27  1  0
 26 74  1  6
 27 28  1  0
 28 29  2  0
 28 30  1  0
 30 31  1  6
 32 30  1  6
 31 75  1  0
 31 76  1  0
 31 77  1  0
 33 34  1  0
 33 35  1  0
 34 78  1  0
 34 79  1  0
 34 80  1  0
 35 81  1  0
 35 82  1  0
 35 83  1  0
M  END
>  <i_m_ct_stereo_status>  (160) 
1

>  <s_m_source_file>  (160) 
/var/tmp/pbs.5076255.sched01/tmpazi1eam_/42934yjxx2.sdf

>  <i_m_source_file_index>  (160) 
25

>  <i_lp_mmshare_version>  (160) 
48012

>  <i_f3d_flags>  (160) 
0

>  <s_epik_input>  (160) 
W0NIM11bQ0BASF0xW0NIMl1bQ0gyXVtDQEBIXShbQ0BASF0yW0NASF0oW0NIMl0zKUMyKFtDSDNdKVtDSDNdKVtDQF00KFtDSDNdKUMoPU8pT1tDQEBIXTVbQ0gyXVtDSDJdW0NAXShbQ0gzXSkoW0NAQF02KFtDQEBIXTNbQ0BAXTE0NSlbQ0gzXSlbQ0BASF03W0NASF0oW0NIMl02KVtDSDJdW0NAQEhdKFtPSF0pW0NAQF03KFtDSDNdKVtDSDJdW09IXQ==

>  <s_epik_cmdline>  (160) 
J2VwaWtfcHl0aG9uJywgJy1waHQnLCAnMi4wJywgJy1waCcsICc3LjAnLCAnLXRuJywgJzgnLCAnLW1hJywgJzIwMCcsICctaW1hZScsICc8aW5maWxlLm1hZT4nLCAnLW9tYWUnLCAnPG91dGZpbGUubWFlPic=

>  <r_lp_tautomer_probability>  (160) 
1

>  <r_epik_Ionization_Penalty>  (160) 
1.6977e-06

>  <r_epik_Ionization_Penalty_Charging>  (160) 
0

>  <r_epik_Ionization_Penalty_Neutral>  (160) 
1.6977e-06

>  <r_epik_State_Penalty>  (160) 
-0

>  <r_epik_Charging_Adjusted_Penalty>  (160) 
0

>  <i_epik_Tot_Q>  (160) 
0

>  <i_epik_Tot_abs_Q>  (160) 
0

>  <s_epik_Chemistry_Notes>  (160) 
This compound has an ester and may undergo hydrolysis at high or low pH.

>  <s_lp_Force_Field>  (160) 
OPLS3e

>  <r_lp_Energy>  (160) 
148.008

>  <b_lp_Chiralities_Consistent>  (160) 
1

>  <s_lp_Variant>  (160) 
44:0-1

>  <s_i_glide_gridfile>  (160) 
pfpi4k_grid

>  <i_i_glide_lignum>  (160) 
25

>  <i_i_glide_rotatable_bonds>  (160) 
3

>  <r_i_docking_score>  (160) 
-2.58473

>  <r_i_glide_ligand_efficiency>  (160) 
-0.0738493

>  <r_i_glide_ligand_efficiency_sa>  (160) 
-0.241566

>  <r_i_glide_ligand_efficiency_ln>  (160) 
-0.567405

>  <r_i_glide_gscore>  (160) 
-2.58473

>  <r_i_glide_lipo>  (160) 
-0.166225

>  <r_i_glide_hbond>  (160) 
0

>  <r_i_glide_metal>  (160) 
-0

>  <r_i_glide_rewards>  (160) 
-0.690886

>  <r_i_glide_evdw>  (160) 
-20.4482

>  <r_i_glide_ecoul>  (160) 
-5.27767

>  <r_i_glide_erotb>  (160) 
0.0864456

>  <r_i_glide_esite>  (160) 
0

>  <r_i_glide_emodel>  (160) 
-33.3437

>  <r_i_glide_energy>  (160) 
-25.7259

>  <r_i_glide_einternal>  (160) 
3.05504

>  <r_i_glide_intrahb_reward>  (160) 
-0.5

>  <i_i_glide_confnum>  (160) 
4

>  <i_i_glide_posenum>  (160) 
5

>  <r_i_glide_eff_state_penalty>  (160) 
0

>  <ligand_id>  (160) 
44

>  <original_smiles>  (160) 
CC1CCC2C3C(CC4C5(C)CC6CC(O)C(C)(CO)C6C5(C)CCC5OC(=O)C2(C)C154)C3(C)C

>  <smiles>  (160) 
[H]OC([H])([H])C1(C([H])([H])[H])C([H])(O[H])C([H])([H])C2([H])C([H])([H])C3(C([H])([H])[H])C4([H])C([H])([H])C5([H])C([H])(C6([H])C([H])([H])C([H])([H])C([H])(C([H])([H])[H])C47C([H])(OC(=O)C67C([H])([H])[H])C([H])([H])C([H])([H])C3(C([H])([H])[H])C21[H])C5(C([H])([H])[H])C([H])([H])[H]

$$$$
45:0:0
     RDKit          3D

 99106  0  0  1  0  0  0  0  0999 V2000
    5.6926   -3.7835   -1.9481 C   0  0  0  0  0  0  0  0  0  0  0  0
    5.5067   -4.4320   -0.5383 C   0  0  2  0  0  0  0  0  0  0  0  0
    4.0294   -4.5470   -0.0628 C   0  0  0  0  0  0  0  0  0  0  0  0
    3.4611   -3.7691    1.1325 C   0  0  2  0  0  0  0  0  0  0  0  0
    3.8525   -2.3299    1.4384 C   0  0  2  0  0  0  0  0  0  0  0  0
    4.4608   -1.4076    0.3755 C   0  0  0  0  0  0  0  0  0  0  0  0
    5.8567   -0.8322    0.6410 C   0  0  0  0  0  0  0  0  0  0  0  0
    7.0421   -1.7451    0.2278 C   0  0  1  0  0  0  0  0  0  0  0  0
    8.2532   -1.0701    0.4467 O   0  0  0  0  0  0  0  0  0  0  0  0
    7.1831   -3.0099    1.0500 C   0  0  0  0  0  0  0  0  0  0  0  0
    6.6923   -4.3406    0.4569 C   0  0  1  0  0  0  0  0  0  0  0  0
    6.6924   -5.5011    1.4740 C   0  0  0  0  0  0  0  0  0  0  0  0
    6.0798   -5.2847    2.8691 C   0  0  0  0  0  0  0  0  0  0  0  0
    4.5781   -5.2635    3.1682 C   0  0  2  0  0  0  0  0  0  0  0  0
    4.4325   -4.8584    4.5675 O   0  0  0  0  0  0  0  0  0  0  0  0
    4.6387   -5.4446    5.8251 C   0  0  1  0  0  0  0  0  0  0  0  0
    6.1619   -5.6016    6.0915 C   0  0  0  0  0  0  0  0  0  0  0  0
    4.0807   -4.4730    6.9253 C   0  0  0  0  0  0  0  0  0  0  0  0
    2.7152   -4.8667    7.5443 C   0  0  0  0  0  0  0  0  0  0  0  0
    1.4526   -5.0104    6.6386 C   0  0  2  0  0  0  0  0  0  0  0  0
    0.1787   -5.4664    7.4040 C   0  0  1  0  0  0  0  0  0  0  0  0
   -0.0732   -4.6845    8.7132 C   0  0  0  0  0  0  0  0  0  0  0  0
   -1.0247   -5.3566    6.4409 C   0  0  0  0  0  0  0  0  0  0  0  0
   -0.9130   -6.2510    5.1582 C   0  0  0  0  0  0  0  0  0  0  0  0
    0.4879   -6.8373    4.9121 C   0  0  1  0  0  0  0  0  0  0  0  0
    0.4729   -7.3668    3.3836 C   0  0  0  0  0  0  0  0  0  0  0  0
    1.7114   -7.8999    2.7219 N   0  0  1  0  0  0  0  0  0  0  0  0
    1.4038   -8.9877    1.8182 C   0  0  0  0  0  0  0  0  0  0  0  0
    2.6288   -6.9489    2.0222 C   0  0  0  0  0  0  0  0  0  0  0  0
    3.9202   -6.6692    2.8459 C   0  0  1  0  0  0  0  0  0  0  0  0
    4.9600   -8.1800    2.8635 S   0  0  0  0  0  0  0  0  0  0  0  0
    4.9551   -8.9060    4.5624 C   0  0  0  0  0  0  0  0  0  0  0  0
    3.5726   -9.2332    5.2085 C   0  0  1  0  0  0  0  0  0  0  0  0
    3.7158   -9.6432    6.5544 O   0  0  0  0  0  0  0  0  0  0  0  0
    2.6406   -8.2091    5.0535 O   0  0  0  0  0  0  0  0  0  0  0  0
    2.7735   -7.0246    5.8129 C   0  0  1  0  0  0  0  0  0  0  0  0
    4.1222   -6.7074    6.0249 O   0  0  0  0  0  0  0  0  0  0  0  0
    1.6809   -5.8705    5.3473 C   0  0  2  0  0  0  0  0  0  0  0  0
    1.6836   -4.8515    4.0760 C   0  0  0  0  0  0  0  0  0  0  0  0
    2.5601   -3.6515    3.6167 C   0  0  1  0  0  0  0  0  0  0  0  0
    2.8188   -2.7572    4.6706 O   0  0  0  0  0  0  0  0  0  0  0  0
    3.7737   -3.9981    2.6388 C   0  0  2  0  0  0  0  0  0  0  0  0
    4.6033   -2.8015    2.5669 O   0  0  0  0  0  0  0  0  0  0  0  0
    5.4827   -2.7268   -2.0133 H   0  0  0  0  0  0  0  0  0  0  0  0
    5.0277   -4.2862   -2.6533 H   0  0  0  0  0  0  0  0  0  0  0  0
    6.7022   -3.8241   -2.3497 H   0  0  0  0  0  0  0  0  0  0  0  0
    5.6380   -5.4743   -0.8139 H   0  0  0  0  0  0  0  0  0  0  0  0
    3.4168   -4.3147   -0.9322 H   0  0  0  0  0  0  0  0  0  0  0  0
    3.8486   -5.6030    0.0975 H   0  0  0  0  0  0  0  0  0  0  0  0
    2.3694   -3.7602    1.0537 H   0  0  0  0  0  0  0  0  0  0  0  0
    2.9531   -1.8178    1.7927 H   0  0  0  0  0  0  0  0  0  0  0  0
    4.4072   -1.8826   -0.5922 H   0  0  0  0  0  0  0  0  0  0  0  0
    3.7861   -0.5626    0.2271 H   0  0  0  0  0  0  0  0  0  0  0  0
    5.9319    0.0908    0.0711 H   0  0  0  0  0  0  0  0  0  0  0  0
    5.9238   -0.5220    1.6856 H   0  0  0  0  0  0  0  0  0  0  0  0
    7.0790   -1.9330   -0.8397 H   0  0  0  0  0  0  0  0  0  0  0  0
    8.0506   -0.3085    1.0304 H   0  0  0  0  0  0  0  0  0  0  0  0
    8.2491   -3.1790    1.2439 H   0  0  0  0  0  0  0  0  0  0  0  0
    6.7882   -2.7820    2.0275 H   0  0  0  0  0  0  0  0  0  0  0  0
    7.5336   -4.5878   -0.1920 H   0  0  0  0  0  0  0  0  0  0  0  0
    6.2820   -6.4062    1.0334 H   0  0  0  0  0  0  0  0  0  0  0  0
    7.7438   -5.7355    1.6565 H   0  0  0  0  0  0  0  0  0  0  0  0
    6.5484   -6.0412    3.4816 H   0  0  0  0  0  0  0  0  0  0  0  0
    6.4822   -4.3602    3.2909 H   0  0  0  0  0  0  0  0  0  0  0  0
    6.5822   -6.4044    5.5036 H   0  0  0  0  0  0  0  0  0  0  0  0
    6.3136   -5.8964    7.1239 H   0  0  0  0  0  0  0  0  0  0  0  0
    6.7001   -4.6781    5.8999 H   0  0  0  0  0  0  0  0  0  0  0  0
    4.7785   -4.4841    7.7562 H   0  0  0  0  0  0  0  0  0  0  0  0
    4.1382   -3.4419    6.5931 H   0  0  0  0  0  0  0  0  0  0  0  0
    2.8342   -5.7343    8.1924 H   0  0  0  0  0  0  0  0  0  0  0  0
    2.4986   -4.0492    8.2377 H   0  0  0  0  0  0  0  0  0  0  0  0
    1.2276   -3.9774    6.3507 H   0  0  0  0  0  0  0  0  0  0  0  0
    0.2997   -6.5083    7.6942 H   0  0  0  0  0  0  0  0  0  0  0  0
   -0.1038   -3.6109    8.5462 H   0  0  0  0  0  0  0  0  0  0  0  0
    0.7072   -4.8824    9.4477 H   0  0  0  0  0  0  0  0  0  0  0  0
   -1.0111   -4.9826    9.1756 H   0  0  0  0  0  0  0  0  0  0  0  0
   -1.9620   -5.4723    6.9896 H   0  0  0  0  0  0  0  0  0  0  0  0
   -1.0552   -4.3133    6.1213 H   0  0  0  0  0  0  0  0  0  0  0  0
   -1.5881   -7.0962    5.2553 H   0  0  0  0  0  0  0  0  0  0  0  0
   -1.2762   -5.8566    4.2298 H   0  0  0  0  0  0  0  0  0  0  0  0
    0.4702   -7.7143    5.5571 H   0  0  0  0  0  0  0  0  0  0  0  0
   -0.2610   -8.1807    3.4230 H   0  0  0  0  0  0  0  0  0  0  0  0
   -0.0476   -6.6748    2.7073 H   0  0  0  0  0  0  0  0  0  0  0  0
    0.9283   -8.4731    1.0074 H   0  0  0  0  0  0  0  0  0  0  0  0
    0.7477   -9.7753    2.2340 H   0  0  0  0  0  0  0  0  0  0  0  0
    2.2860   -9.5025    1.3966 H   0  0  0  0  0  0  0  0  0  0  0  0
    3.0094   -7.4154    1.1055 H   0  0  0  0  0  0  0  0  0  0  0  0
    2.1452   -6.0710    1.5812 H   0  0  0  0  0  0  0  0  0  0  0  0
    3.4459   -6.6828    3.7411 H   0  0  0  0  0  0  0  0  0  0  0  0
    5.4919   -9.8515    4.4878 H   0  0  0  0  0  0  0  0  0  0  0  0
    5.5721   -8.3167    5.2293 H   0  0  0  0  0  0  0  0  0  0  0  0
    3.1398  -10.0845    4.6786 H   0  0  0  0  0  0  0  0  0  0  0  0
    3.0025  -10.2300    6.7762 H   0  0  0  0  0  0  0  0  0  0  0  0
    2.4717   -7.3885    6.7956 H   0  0  0  0  0  0  0  0  0  0  0  0
    1.3406   -5.2233    3.1530 H   0  0  0  0  0  0  0  0  0  0  0  0
    0.7681   -4.2965    4.2922 H   0  0  0  0  0  0  0  0  0  0  0  0
    1.8419   -3.0501    3.0527 H   0  0  0  0  0  0  0  0  0  0  0  0
    3.4842   -3.1540    5.2042 H   0  0  0  0  0  0  0  0  0  0  0  0
    2.2340   -8.3040    3.4952 H   0  0  0  0  0  0  0  0  0  0  0  0
  1  2  1  0
  1 44  1  0
  1 45  1  0
  1 46  1  0
  2 11  1  0
  2  3  1  0
  2 47  1  6
  3  4  1  0
  3 48  1  0
  3 49  1  0
  4 42  1  0
  4  5  1  0
  4 50  1  1
  5 43  1  0
  5  6  1  0
  5 51  1  1
  6  7  1  0
  6 52  1  0
  6 53  1  0
  7  8  1  0
  7 54  1  0
  7 55  1  0
  8  9  1  0
  8 10  1  0
  8 56  1  6
  9 57  1  0
 10 11  1  0
 10 58  1  0
 10 59  1  0
 11 12  1  0
 11 60  1  6
 12 13  1  0
 12 61  1  0
 12 62  1  0
 14 13  1  6
 13 63  1  0
 13 64  1  0
 14 30  1  0
 14 42  1  0
 14 15  1  0
 15 16  1  0
 16 37  1  0
 16 17  1  1
 16 18  1  0
 17 65  1  0
 17 66  1  0
 17 67  1  0
 18 19  1  0
 18 68  1  0
 18 69  1  0
 19 20  1  0
 19 70  1  0
 19 71  1  0
 20 38  1  0
 20 21  1  0
 20 72  1  6
 21 22  1  0
 21 23  1  0
 21 73  1  1
 22 74  1  0
 22 75  1  0
 22 76  1  0
 23 24  1  0
 23 77  1  0
 23 78  1  0
 24 25  1  0
 24 79  1  0
 24 80  1  0
 25 38  1  0
 25 26  1  0
 25 81  1  1
 26 27  1  0
 26 82  1  0
 26 83  1  0
 27 28  1  0
 27 29  1  0
 27 99  1  1
 28 84  1  0
 28 85  1  0
 28 86  1  0
 29 30  1  0
 29 87  1  0
 29 88  1  0
 30 31  1  0
 30 89  1  1
 31 32  1  0
 32 33  1  0
 32 90  1  0
 32 91  1  0
 33 34  1  0
 33 35  1  0
 33 92  1  6
 34 93  1  0
 35 36  1  0
 36 37  1  0
 36 38  1  0
 36 94  1  1
 38 39  1  6
 39 40  1  0
 39 95  1  0
 39 96  1  0
 40 41  1  0
 40 42  1  0
 40 97  1  6
 41 98  1  0
 42 43  1  1
M  CHG  1  27   1
M  END
>  <i_m_ct_stereo_status>  (161) 
1

>  <s_m_source_file>  (161) 
/var/tmp/pbs.5076255.sched01/tmpazi1eam_/42934yjxx2.sdf

>  <i_m_source_file_index>  (161) 
26

>  <i_lp_mmshare_version>  (161) 
48012

>  <i_f3d_flags>  (161) 
0

>  <s_epik_input>  (161) 
W0NIM11bQ0BIXShbQ0gyXTEpW0NIXShbQ0gyXVtDSDJdMilbQ0gyXVtDQEhdKFtPSF0pW0NIMl1bQ0gyXVtDQEhdKE8zKVtDQEBIXTFbQ0BdMyhbQ0BAXTI0NSlbQ0BIXShbT0hdKVtDSDJdW0NAQF02N1tDQEBIXThbQ0gyXVtDSDJdW0NAQF0oTzQpKFtDSDNdKU9bQ0BASF03T1tDQEhdKFtPSF0pW0NIMl1TW0NIXTVbQ0gyXU4oW0NIM10pW0NIMl1bQ0BASF02W0NIMl1bQ0gyXVtDQEBIXThbQ0gzXQ==

>  <s_epik_cmdline>  (161) 
J2VwaWtfcHl0aG9uJywgJy1waHQnLCAnMi4wJywgJy1waCcsICc3LjAnLCAnLXRuJywgJzgnLCAnLW1hJywgJzIwMCcsICctaW1hZScsICc8aW5maWxlLm1hZT4nLCAnLW9tYWUnLCAnPG91dGZpbGUubWFlPic=

>  <r_epik_Ionization_Penalty>  (161) 
0.0166636

>  <r_epik_Ionization_Penalty_Charging>  (161) 
0.0166601

>  <r_epik_Ionization_Penalty_Neutral>  (161) 
3.51408e-06

>  <r_epik_State_Penalty>  (161) 
0.0131624

>  <r_epik_Charging_Adjusted_Penalty>  (161) 
0.0298225

>  <i_epik_Tot_Q>  (161) 
1

>  <i_epik_Tot_abs_Q>  (161) 
1

>  <s_epik_Chemistry_Notes>  (161) 
This compound contains an acetal/aminal-like group ( X-CH(R)-Y where X, Y are N, S, or O) that may be acid/base labile, releasing an aldehyde.

>  <s_lp_Force_Field>  (161) 
OPLS3e

>  <r_lp_Energy>  (161) 
241.32

>  <b_lp_Chiralities_Consistent>  (161) 
1

>  <s_lp_Variant>  (161) 
45:0-1

>  <s_i_glide_gridfile>  (161) 
pfpi4k_grid

>  <i_i_glide_lignum>  (161) 
26

>  <i_i_glide_rotatable_bonds>  (161) 
3

>  <r_i_docking_score>  (161) 
-4.12151

>  <r_i_glide_ligand_efficiency>  (161) 
-0.095849

>  <r_i_glide_ligand_efficiency_sa>  (161) 
-0.335797

>  <r_i_glide_ligand_efficiency_ln>  (161) 
-0.865644

>  <r_i_glide_gscore>  (161) 
-4.12151

>  <r_i_glide_lipo>  (161) 
-0.630038

>  <r_i_glide_hbond>  (161) 
-0.341335

>  <r_i_glide_metal>  (161) 
-0

>  <r_i_glide_rewards>  (161) 
-1

>  <r_i_glide_evdw>  (161) 
-18.1997

>  <r_i_glide_ecoul>  (161) 
-8.11897

>  <r_i_glide_erotb>  (161) 
0

>  <r_i_glide_esite>  (161) 
-0.0223028

>  <r_i_glide_emodel>  (161) 
-42.0528

>  <r_i_glide_energy>  (161) 
-26.3187

>  <r_i_glide_einternal>  (161) 
1.60564

>  <r_i_glide_intrahb_reward>  (161) 
-1

>  <i_i_glide_confnum>  (161) 
1

>  <i_i_glide_posenum>  (161) 
33

>  <r_i_glide_eff_state_penalty>  (161) 
0

>  <ligand_id>  (161) 
45

>  <original_smiles>  (161) 
CC1CC2C3CCC(O)CC1CCC14OC5(C)CCC6C(C)CCC7CN(C)CC1SCC(O)OC(O5)C76CC(O)C24O3

>  <smiles>  (161) 
[H]OC1([H])OC2([H])OC3(C([H])([H])[H])OC45C([H])([H])C([H])([H])C6([H])C([H])([H])C([H])(O[H])C([H])([H])C([H])([H])C7([H])OC4(C([H])(O[H])C([H])([H])C24C([H])(C([H])([H])C3([H])[H])C([H])(C([H])([H])[H])C([H])([H])C([H])([H])C4([H])C([H])([H])[N+]([H])(C([H])([H])[H])C([H])([H])C5([H])SC1([H])[H])C7([H])C([H])([H])C6([H])C([H])([H])[H]

$$$$
45:0:1
     RDKit          3D

 99106  0  0  1  0  0  0  0  0999 V2000
    4.7104   -3.9100   -1.6525 C   0  0  0  0  0  0  0  0  0  0  0  0
    4.6866   -4.5014   -0.2220 C   0  0  2  0  0  0  0  0  0  0  0  0
    3.3481   -4.3278    0.5589 C   0  0  0  0  0  0  0  0  0  0  0  0
    3.1825   -3.4708    1.8345 C   0  0  2  0  0  0  0  0  0  0  0  0
    3.8880   -2.1268    2.0007 C   0  0  2  0  0  0  0  0  0  0  0  0
    4.4195   -1.3390    0.7926 C   0  0  0  0  0  0  0  0  0  0  0  0
    5.9194   -1.0137    0.7451 C   0  0  0  0  0  0  0  0  0  0  0  0
    6.8412   -2.0833    0.1205 C   0  0  1  0  0  0  0  0  0  0  0  0
    8.1260   -1.4996    0.0994 O   0  0  0  0  0  0  0  0  0  0  0  0
    6.9239   -3.3873    0.9268 C   0  0  0  0  0  0  0  0  0  0  0  0
    6.0570   -4.6125    0.5002 C   0  0  1  0  0  0  0  0  0  0  0  0
    6.0627   -5.7637    1.5274 C   0  0  0  0  0  0  0  0  0  0  0  0
    5.8529   -5.4352    3.0217 C   0  0  0  0  0  0  0  0  0  0  0  0
    4.4382   -5.1736    3.6205 C   0  0  2  0  0  0  0  0  0  0  0  0
    4.6791   -4.7687    5.0124 O   0  0  0  0  0  0  0  0  0  0  0  0
    5.0256   -5.4170    6.2117 C   0  0  1  0  0  0  0  0  0  0  0  0
    6.4990   -5.8637    6.1420 C   0  0  0  0  0  0  0  0  0  0  0  0
    4.8889   -4.3713    7.3691 C   0  0  0  0  0  0  0  0  0  0  0  0
    3.6385   -4.4915    8.2808 C   0  0  0  0  0  0  0  0  0  0  0  0
    2.2095   -4.3971    7.6669 C   0  0  2  0  0  0  0  0  0  0  0  0
    1.0742   -4.6207    8.7027 C   0  0  1  0  0  0  0  0  0  0  0  0
    1.2582   -3.8277   10.0096 C   0  0  0  0  0  0  0  0  0  0  0  0
   -0.2618   -4.2486    8.0421 C   0  0  0  0  0  0  0  0  0  0  0  0
   -0.6140   -5.1191    6.8246 C   0  0  0  0  0  0  0  0  0  0  0  0
    0.5449   -5.9505    6.2113 C   0  0  1  0  0  0  0  0  0  0  0  0
    0.0806   -6.4682    4.7512 C   0  0  0  0  0  0  0  0  0  0  0  0
    1.0279   -7.2228    3.8237 N   0  0  1  0  0  0  0  0  0  0  0  0
    0.3054   -8.2534    3.0297 C   0  0  0  0  0  0  0  0  0  0  0  0
    1.9896   -6.4500    2.9263 C   0  0  0  0  0  0  0  0  0  0  0  0
    3.4642   -6.4341    3.4657 C   0  0  1  0  0  0  0  0  0  0  0  0
    4.1832   -8.1213    3.3049 S   0  0  0  0  0  0  0  0  0  0  0  0
    4.3961   -8.8523    4.9826 C   0  0  0  0  0  0  0  0  0  0  0  0
    3.1589   -8.9120    5.9255 C   0  0  1  0  0  0  0  0  0  0  0  0
    3.5101   -9.3597    7.2164 O   0  0  0  0  0  0  0  0  0  0  0  0
    2.4104   -7.7298    5.9346 O   0  0  0  0  0  0  0  0  0  0  0  0
    2.9150   -6.6044    6.6238 C   0  0  1  0  0  0  0  0  0  0  0  0
    4.3202   -6.5594    6.5442 O   0  0  0  0  0  0  0  0  0  0  0  0
    1.9835   -5.2647    6.3691 C   0  0  2  0  0  0  0  0  0  0  0  0
    1.8976   -4.2305    5.1181 C   0  0  0  0  0  0  0  0  0  0  0  0
    2.8774   -3.2282    4.4430 C   0  0  1  0  0  0  0  0  0  0  0  0
    3.5162   -2.4048    5.3924 O   0  0  0  0  0  0  0  0  0  0  0  0
    3.7796   -3.7801    3.2451 C   0  0  2  0  0  0  0  0  0  0  0  0
    4.7846   -2.7401    2.9680 O   0  0  0  0  0  0  0  0  0  0  0  0
    4.7517   -2.8303   -1.7276 H   0  0  0  0  0  0  0  0  0  0  0  0
    3.8160   -4.2092   -2.1909 H   0  0  0  0  0  0  0  0  0  0  0  0
    5.5525   -4.2990   -2.2264 H   0  0  0  0  0  0  0  0  0  0  0  0
    4.5648   -5.5427   -0.5315 H   0  0  0  0  0  0  0  0  0  0  0  0
    2.6136   -3.9734   -0.1666 H   0  0  0  0  0  0  0  0  0  0  0  0
    3.0020   -5.3293    0.7796 H   0  0  0  0  0  0  0  0  0  0  0  0
    2.1162   -3.2791    1.9632 H   0  0  0  0  0  0  0  0  0  0  0  0
    3.2240   -1.4448    2.5295 H   0  0  0  0  0  0  0  0  0  0  0  0
    4.0762   -1.7808   -0.1297 H   0  0  0  0  0  0  0  0  0  0  0  0
    3.9030   -0.3763    0.7810 H   0  0  0  0  0  0  0  0  0  0  0  0
    6.0232   -0.1143    0.1353 H   0  0  0  0  0  0  0  0  0  0  0  0
    6.2625   -0.7310    1.7412 H   0  0  0  0  0  0  0  0  0  0  0  0
    6.6159   -2.2768   -0.9220 H   0  0  0  0  0  0  0  0  0  0  0  0
    8.3402   -1.2145    0.9765 H   0  0  0  0  0  0  0  0  0  0  0  0
    7.9559   -3.7403    0.8960 H   0  0  0  0  0  0  0  0  0  0  0  0
    6.7955   -3.1214    1.9637 H   0  0  0  0  0  0  0  0  0  0  0  0
    6.6659   -5.0172   -0.3071 H   0  0  0  0  0  0  0  0  0  0  0  0
    5.3863   -6.5606    1.2229 H   0  0  0  0  0  0  0  0  0  0  0  0
    7.0523   -6.2197    1.4667 H   0  0  0  0  0  0  0  0  0  0  0  0
    6.2469   -6.3156    3.5176 H   0  0  0  0  0  0  0  0  0  0  0  0
    6.5285   -4.6514    3.3417 H   0  0  0  0  0  0  0  0  0  0  0  0
    6.6275   -6.7219    5.4912 H   0  0  0  0  0  0  0  0  0  0  0  0
    6.8212   -6.1935    7.1279 H   0  0  0  0  0  0  0  0  0  0  0  0
    7.1463   -5.0507    5.8144 H   0  0  0  0  0  0  0  0  0  0  0  0
    5.7355   -4.5167    8.0363 H   0  0  0  0  0  0  0  0  0  0  0  0
    5.0602   -3.3646    6.9993 H   0  0  0  0  0  0  0  0  0  0  0  0
    3.7312   -5.3830    8.9030 H   0  0  0  0  0  0  0  0  0  0  0  0
    3.7346   -3.6650    8.9827 H   0  0  0  0  0  0  0  0  0  0  0  0
    2.1202   -3.3425    7.4015 H   0  0  0  0  0  0  0  0  0  0  0  0
    1.0493   -5.6764    8.9769 H   0  0  0  0  0  0  0  0  0  0  0  0
    1.3848   -2.7619    9.8237 H   0  0  0  0  0  0  0  0  0  0  0  0
    2.1250   -4.1773   10.5654 H   0  0  0  0  0  0  0  0  0  0  0  0
    0.3998   -3.9503   10.6678 H   0  0  0  0  0  0  0  0  0  0  0  0
   -1.0762   -4.2973    8.7706 H   0  0  0  0  0  0  0  0  0  0  0  0
   -0.2129   -3.2066    7.7214 H   0  0  0  0  0  0  0  0  0  0  0  0
   -1.3811   -5.8197    7.1439 H   0  0  0  0  0  0  0  0  0  0  0  0
   -1.0951   -4.4912    6.0778 H   0  0  0  0  0  0  0  0  0  0  0  0
    0.5154   -6.8225    6.8684 H   0  0  0  0  0  0  0  0  0  0  0  0
   -0.7418   -7.1513    4.9713 H   0  0  0  0  0  0  0  0  0  0  0  0
   -0.4106   -5.6732    4.1862 H   0  0  0  0  0  0  0  0  0  0  0  0
   -0.3687   -7.7883    2.3106 H   0  0  0  0  0  0  0  0  0  0  0  0
   -0.2771   -8.9204    3.6636 H   0  0  0  0  0  0  0  0  0  0  0  0
    1.0014   -8.8780    2.4720 H   0  0  0  0  0  0  0  0  0  0  0  0
    2.0594   -6.9759    1.9767 H   0  0  0  0  0  0  0  0  0  0  0  0
    1.5915   -5.4940    2.6008 H   0  0  0  0  0  0  0  0  0  0  0  0
    3.1944   -6.3700    4.4419 H   0  0  0  0  0  0  0  0  0  0  0  0
    4.7139   -9.8826    4.8174 H   0  0  0  0  0  0  0  0  0  0  0  0
    5.2456   -8.3958    5.4799 H   0  0  0  0  0  0  0  0  0  0  0  0
    2.4707   -9.6643    5.5376 H   0  0  0  0  0  0  0  0  0  0  0  0
    4.2024   -8.8033    7.5364 H   0  0  0  0  0  0  0  0  0  0  0  0
    2.7553   -6.9159    7.6567 H   0  0  0  0  0  0  0  0  0  0  0  0
    1.3113   -4.5375    4.2878 H   0  0  0  0  0  0  0  0  0  0  0  0
    1.1641   -3.5253    5.5057 H   0  0  0  0  0  0  0  0  0  0  0  0
    2.1870   -2.4970    4.0236 H   0  0  0  0  0  0  0  0  0  0  0  0
    4.1548   -2.9420    5.8407 H   0  0  0  0  0  0  0  0  0  0  0  0
    1.6214   -7.7388    4.4611 H   0  0  0  0  0  0  0  0  0  0  0  0
  1  2  1  0
  1 44  1  0
  1 45  1  0
  1 46  1  0
  2 11  1  0
  2  3  1  0
  2 47  1  6
  3  4  1  0
  3 48  1  0
  3 49  1  0
  4 42  1  0
  4  5  1  0
  4 50  1  1
  5 43  1  0
  5  6  1  0
  5 51  1  1
  6  7  1  0
  6 52  1  0
  6 53  1  0
  7  8  1  0
  7 54  1  0
  7 55  1  0
  8  9  1  0
  8 10  1  0
  8 56  1  6
  9 57  1  0
 10 11  1  0
 10 58  1  0
 10 59  1  0
 11 12  1  0
 11 60  1  6
 12 13  1  0
 12 61  1  0
 12 62  1  0
 14 13  1  6
 13 63  1  0
 13 64  1  0
 14 30  1  0
 14 42  1  0
 14 15  1  0
 15 16  1  0
 16 37  1  0
 16 17  1  6
 16 18  1  0
 17 65  1  0
 17 66  1  0
 17 67  1  0
 18 19  1  0
 18 68  1  0
 18 69  1  0
 19 20  1  0
 19 70  1  0
 19 71  1  0
 20 38  1  0
 20 21  1  0
 20 72  1  6
 21 22  1  0
 21 23  1  0
 21 73  1  1
 22 74  1  0
 22 75  1  0
 22 76  1  0
 23 24  1  0
 23 77  1  0
 23 78  1  0
 24 25  1  0
 24 79  1  0
 24 80  1  0
 25 38  1  0
 25 26  1  0
 25 81  1  1
 26 27  1  0
 26 82  1  0
 26 83  1  0
 27 28  1  0
 27 29  1  0
 27 99  1  1
 28 84  1  0
 28 85  1  0
 28 86  1  0
 29 30  1  0
 29 87  1  0
 29 88  1  0
 30 31  1  0
 30 89  1  1
 31 32  1  0
 32 33  1  0
 32 90  1  0
 32 91  1  0
 33 34  1  0
 33 35  1  0
 33 92  1  6
 34 93  1  0
 35 36  1  0
 36 37  1  0
 36 38  1  0
 36 94  1  1
 38 39  1  6
 39 40  1  0
 39 95  1  0
 39 96  1  0
 40 41  1  0
 40 42  1  0
 40 97  1  6
 41 98  1  0
 42 43  1  6
M  CHG  1  27   1
M  END
>  <i_m_ct_stereo_status>  (162) 
1

>  <s_m_source_file>  (162) 
/var/tmp/pbs.5076255.sched01/tmpazi1eam_/42934yjxx2.sdf

>  <i_m_source_file_index>  (162) 
26

>  <i_lp_mmshare_version>  (162) 
48012

>  <i_f3d_flags>  (162) 
0

>  <s_epik_input>  (162) 
W0NIM11bQ0BIXShbQ0gyXTEpW0NIXShbQ0gyXVtDSDJdMilbQ0gyXVtDQEhdKFtPSF0pW0NIMl1bQ0gyXVtDQEhdKE8zKVtDQEBIXTFbQ0BdMyhbQ0BAXTI0NSlbQ0BIXShbT0hdKVtDSDJdW0NAQF02N1tDQEBIXThbQ0gyXVtDSDJdW0NAQF0oTzQpKFtDSDNdKU9bQ0BASF03T1tDQEhdKFtPSF0pW0NIMl1TW0NIXTVbQ0gyXU4oW0NIM10pW0NIMl1bQ0BASF02W0NIMl1bQ0gyXVtDQEBIXThbQ0gzXQ==

>  <s_epik_cmdline>  (162) 
J2VwaWtfcHl0aG9uJywgJy1waHQnLCAnMi4wJywgJy1waCcsICc3LjAnLCAnLXRuJywgJzgnLCAnLW1hJywgJzIwMCcsICctaW1hZScsICc8aW5maWxlLm1hZT4nLCAnLW9tYWUnLCAnPG91dGZpbGUubWFlPic=

>  <r_epik_Ionization_Penalty>  (162) 
0.0166636

>  <r_epik_Ionization_Penalty_Charging>  (162) 
0.0166601

>  <r_epik_Ionization_Penalty_Neutral>  (162) 
3.51408e-06

>  <r_epik_State_Penalty>  (162) 
0.0131624

>  <r_epik_Charging_Adjusted_Penalty>  (162) 
0.0298225

>  <i_epik_Tot_Q>  (162) 
1

>  <i_epik_Tot_abs_Q>  (162) 
1

>  <s_epik_Chemistry_Notes>  (162) 
This compound contains an acetal/aminal-like group ( X-CH(R)-Y where X, Y are N, S, or O) that may be acid/base labile, releasing an aldehyde.

>  <s_lp_Force_Field>  (162) 
OPLS3e

>  <r_lp_Energy>  (162) 
241.32

>  <b_lp_Chiralities_Consistent>  (162) 
1

>  <s_lp_Variant>  (162) 
45:0-1

>  <s_i_glide_gridfile>  (162) 
pfpi4k_grid

>  <i_i_glide_lignum>  (162) 
26

>  <i_i_glide_rotatable_bonds>  (162) 
3

>  <r_i_docking_score>  (162) 
-2.6718

>  <r_i_glide_ligand_efficiency>  (162) 
-0.062135

>  <r_i_glide_ligand_efficiency_sa>  (162) 
-0.217684

>  <r_i_glide_ligand_efficiency_ln>  (162) 
-0.561162

>  <r_i_glide_gscore>  (162) 
-2.6718

>  <r_i_glide_lipo>  (162) 
-0.455605

>  <r_i_glide_hbond>  (162) 
-0.0799109

>  <r_i_glide_metal>  (162) 
-0

>  <r_i_glide_rewards>  (162) 
-0.5

>  <r_i_glide_evdw>  (162) 
-20.7342

>  <r_i_glide_ecoul>  (162) 
-3.80359

>  <r_i_glide_erotb>  (162) 
0

>  <r_i_glide_esite>  (162) 
-0.0290395

>  <r_i_glide_emodel>  (162) 
-34.4735

>  <r_i_glide_energy>  (162) 
-24.5378

>  <r_i_glide_einternal>  (162) 
0.0429523

>  <r_i_glide_intrahb_reward>  (162) 
-0.5

>  <i_i_glide_confnum>  (162) 
1

>  <i_i_glide_posenum>  (162) 
37

>  <r_i_glide_eff_state_penalty>  (162) 
0

>  <ligand_id>  (162) 
45

>  <original_smiles>  (162) 
CC1CC2C3CCC(O)CC1CCC14OC5(C)CCC6C(C)CCC7CN(C)CC1SCC(O)OC(O5)C76CC(O)C24O3

>  <smiles>  (162) 
[H]OC1([H])OC2([H])OC3(C([H])([H])[H])OC45C([H])([H])C([H])([H])C6([H])C([H])([H])C([H])(O[H])C([H])([H])C([H])([H])C7([H])OC4(C([H])(O[H])C([H])([H])C24C([H])(C([H])([H])C3([H])[H])C([H])(C([H])([H])[H])C([H])([H])C([H])([H])C4([H])C([H])([H])[N+]([H])(C([H])([H])[H])C([H])([H])C5([H])SC1([H])[H])C7([H])C([H])([H])C6([H])C([H])([H])[H]

$$$$
45:0:2
     RDKit          3D

 99106  0  0  1  0  0  0  0  0999 V2000
    5.2985    0.0179    3.5290 C   0  0  0  0  0  0  0  0  0  0  0  0
    4.6796   -1.2469    4.1678 C   0  0  2  0  0  0  0  0  0  0  0  0
    5.0553   -2.5939    3.4833 C   0  0  0  0  0  0  0  0  0  0  0  0
    4.0497   -3.5224    2.7664 C   0  0  2  0  0  0  0  0  0  0  0  0
    2.9212   -2.9766    1.9034 C   0  0  2  0  0  0  0  0  0  0  0  0
    2.9564   -1.5527    1.3342 C   0  0  0  0  0  0  0  0  0  0  0  0
    1.8264   -0.5847    1.7096 C   0  0  0  0  0  0  0  0  0  0  0  0
    1.9978    0.2252    3.0112 C   0  0  1  0  0  0  0  0  0  0  0  0
    0.8642    1.0721    3.0750 O   0  0  0  0  0  0  0  0  0  0  0  0
    1.9933   -0.6393    4.2810 C   0  0  0  0  0  0  0  0  0  0  0  0
    3.3475   -1.0501    4.9456 C   0  0  1  0  0  0  0  0  0  0  0  0
    3.1959   -2.1018    6.0646 C   0  0  0  0  0  0  0  0  0  0  0  0
    2.3069   -3.3396    5.8155 C   0  0  0  0  0  0  0  0  0  0  0  0
    2.8250   -4.5682    5.0038 C   0  0  2  0  0  0  0  0  0  0  0  0
    1.6573   -5.4481    4.8849 O   0  0  0  0  0  0  0  0  0  0  0  0
    0.9699   -6.3447    5.7270 C   0  0  1  0  0  0  0  0  0  0  0  0
    0.1748   -5.5489    6.7780 C   0  0  0  0  0  0  0  0  0  0  0  0
   -0.0520   -7.1260    4.8364 C   0  0  0  0  0  0  0  0  0  0  0  0
    0.2965   -8.5944    4.4830 C   0  0  0  0  0  0  0  0  0  0  0  0
    1.5991   -8.9086    3.6953 C   0  0  2  0  0  0  0  0  0  0  0  0
    1.8541  -10.4188    3.4888 C   0  0  1  0  0  0  0  0  0  0  0  0
    0.6233  -11.1875    2.9913 C   0  0  0  0  0  0  0  0  0  0  0  0
    3.0130  -10.5831    2.4990 C   0  0  0  0  0  0  0  0  0  0  0  0
    4.3501   -9.9924    2.9871 C   0  0  0  0  0  0  0  0  0  0  0  0
    4.2597   -9.0161    4.1938 C   0  0  1  0  0  0  0  0  0  0  0  0
    5.6562   -8.2221    4.3011 C   0  0  0  0  0  0  0  0  0  0  0  0
    5.8776   -7.1062    5.3061 N   0  0  1  0  0  0  0  0  0  0  0  0
    7.2636   -7.0985    5.8241 C   0  0  0  0  0  0  0  0  0  0  0  0
    5.4414   -5.6906    4.9735 C   0  0  0  0  0  0  0  0  0  0  0  0
    4.1034   -5.2736    5.6657 C   0  0  1  0  0  0  0  0  0  0  0  0
    4.3903   -5.0776    7.4764 S   0  0  0  0  0  0  0  0  0  0  0  0
    3.5400   -6.4381    8.3842 C   0  0  0  0  0  0  0  0  0  0  0  0
    3.8550   -7.9074    7.9692 C   0  0  1  0  0  0  0  0  0  0  0  0
    3.0025   -8.8178    8.6504 O   0  0  0  0  0  0  0  0  0  0  0  0
    3.8788   -8.1031    6.5826 O   0  0  0  0  0  0  0  0  0  0  0  0
    2.6528   -8.1295    5.8733 C   0  0  1  0  0  0  0  0  0  0  0  0
    1.7270   -7.2399    6.4588 O   0  0  0  0  0  0  0  0  0  0  0  0
    2.8866   -8.1833    4.2436 C   0  0  2  0  0  0  0  0  0  0  0  0
    3.2614   -7.0196    3.1732 C   0  0  0  0  0  0  0  0  0  0  0  0
    2.5730   -5.7175    2.6582 C   0  0  1  0  0  0  0  0  0  0  0  0
    1.2223   -5.9262    2.2592 O   0  0  0  0  0  0  0  0  0  0  0  0
    2.9203   -4.3651    3.4373 C   0  0  2  0  0  0  0  0  0  0  0  0
    1.9750   -3.3511    2.9441 O   0  0  0  0  0  0  0  0  0  0  0  0
    4.8616    0.3230    2.5862 H   0  0  0  0  0  0  0  0  0  0  0  0
    6.3617   -0.1288    3.3383 H   0  0  0  0  0  0  0  0  0  0  0  0
    5.2199    0.8752    4.2019 H   0  0  0  0  0  0  0  0  0  0  0  0
    5.3720   -1.2916    5.0105 H   0  0  0  0  0  0  0  0  0  0  0  0
    5.8471   -2.3661    2.7661 H   0  0  0  0  0  0  0  0  0  0  0  0
    5.5678   -3.1760    4.2377 H   0  0  0  0  0  0  0  0  0  0  0  0
    4.6106   -4.1995    2.1314 H   0  0  0  0  0  0  0  0  0  0  0  0
    2.7801   -3.6391    1.0546 H   0  0  0  0  0  0  0  0  0  0  0  0
    3.9243   -1.1071    1.4855 H   0  0  0  0  0  0  0  0  0  0  0  0
    2.9214   -1.6368    0.2450 H   0  0  0  0  0  0  0  0  0  0  0  0
    1.7629    0.1426    0.8968 H   0  0  0  0  0  0  0  0  0  0  0  0
    0.8761   -1.1163    1.7047 H   0  0  0  0  0  0  0  0  0  0  0  0
    2.8552    0.8904    2.9801 H   0  0  0  0  0  0  0  0  0  0  0  0
    0.8496    1.6210    2.3045 H   0  0  0  0  0  0  0  0  0  0  0  0
    1.4502   -0.0944    5.0546 H   0  0  0  0  0  0  0  0  0  0  0  0
    1.3388   -1.4767    4.0894 H   0  0  0  0  0  0  0  0  0  0  0  0
    3.5789   -0.1429    5.5074 H   0  0  0  0  0  0  0  0  0  0  0  0
    4.1699   -2.4151    6.4387 H   0  0  0  0  0  0  0  0  0  0  0  0
    2.7439   -1.5837    6.9106 H   0  0  0  0  0  0  0  0  0  0  0  0
    2.1048   -3.6914    6.8225 H   0  0  0  0  0  0  0  0  0  0  0  0
    1.3249   -3.0484    5.4567 H   0  0  0  0  0  0  0  0  0  0  0  0
    0.8244   -5.1325    7.5414 H   0  0  0  0  0  0  0  0  0  0  0  0
   -0.5027   -6.2170    7.3143 H   0  0  0  0  0  0  0  0  0  0  0  0
   -0.4109   -4.7478    6.3234 H   0  0  0  0  0  0  0  0  0  0  0  0
   -0.9824   -7.1959    5.4015 H   0  0  0  0  0  0  0  0  0  0  0  0
   -0.3457   -6.5268    3.9769 H   0  0  0  0  0  0  0  0  0  0  0  0
    0.2162   -9.2218    5.3742 H   0  0  0  0  0  0  0  0  0  0  0  0
   -0.5272   -8.9288    3.8632 H   0  0  0  0  0  0  0  0  0  0  0  0
    1.3903   -8.5377    2.6944 H   0  0  0  0  0  0  0  0  0  0  0  0
    2.1374  -10.8708    4.4380 H   0  0  0  0  0  0  0  0  0  0  0  0
    0.2122  -10.7564    2.0796 H   0  0  0  0  0  0  0  0  0  0  0  0
   -0.1591  -11.1893    3.7438 H   0  0  0  0  0  0  0  0  0  0  0  0
    0.8626  -12.2305    2.7901 H   0  0  0  0  0  0  0  0  0  0  0  0
    3.1318  -11.6463    2.2679 H   0  0  0  0  0  0  0  0  0  0  0  0
    2.7512  -10.0967    1.5625 H   0  0  0  0  0  0  0  0  0  0  0  0
    4.9647  -10.8332    3.2902 H   0  0  0  0  0  0  0  0  0  0  0  0
    4.8873   -9.5496    2.1382 H   0  0  0  0  0  0  0  0  0  0  0  0
    4.2440   -9.7414    5.0222 H   0  0  0  0  0  0  0  0  0  0  0  0
    6.3695   -9.0019    4.5531 H   0  0  0  0  0  0  0  0  0  0  0  0
    6.0162   -7.8992    3.3211 H   0  0  0  0  0  0  0  0  0  0  0  0
    7.9708   -6.8190    5.0486 H   0  0  0  0  0  0  0  0  0  0  0  0
    7.5663   -8.0610    6.2123 H   0  0  0  0  0  0  0  0  0  0  0  0
    7.3865   -6.3922    6.6340 H   0  0  0  0  0  0  0  0  0  0  0  0
    6.1722   -5.0031    5.3793 H   0  0  0  0  0  0  0  0  0  0  0  0
    5.5169   -5.4576    3.9204 H   0  0  0  0  0  0  0  0  0  0  0  0
    3.6710   -6.1889    5.5879 H   0  0  0  0  0  0  0  0  0  0  0  0
    3.8387   -6.3413    9.4305 H   0  0  0  0  0  0  0  0  0  0  0  0
    2.4673   -6.2651    8.4085 H   0  0  0  0  0  0  0  0  0  0  0  0
    4.8673   -8.1494    8.2964 H   0  0  0  0  0  0  0  0  0  0  0  0
    3.2907   -9.6933    8.4772 H   0  0  0  0  0  0  0  0  0  0  0  0
    2.2530   -9.0939    6.1869 H   0  0  0  0  0  0  0  0  0  0  0  0
    4.2925   -6.7560    3.1081 H   0  0  0  0  0  0  0  0  0  0  0  0
    3.2588   -7.6027    2.2597 H   0  0  0  0  0  0  0  0  0  0  0  0
    3.0156   -5.6395    1.6707 H   0  0  0  0  0  0  0  0  0  0  0  0
    1.1666   -6.7954    1.8894 H   0  0  0  0  0  0  0  0  0  0  0  0
    5.2913   -7.3804    6.0922 H   0  0  0  0  0  0  0  0  0  0  0  0
  1  2  1  0
  1 44  1  0
  1 45  1  0
  1 46  1  0
  2 11  1  0
  2  3  1  0
  2 47  1  1
  3  4  1  0
  3 48  1  0
  3 49  1  0
  4 42  1  0
  4  5  1  0
  4 50  1  6
  5 43  1  0
  5  6  1  0
  5 51  1  6
  6  7  1  0
  6 52  1  0
  6 53  1  0
  7  8  1  0
  7 54  1  0
  7 55  1  0
  8  9  1  0
  8 10  1  0
  8 56  1  6
  9 57  1  0
 10 11  1  0
 10 58  1  0
 10 59  1  0
 11 12  1  0
 11 60  1  1
 12 13  1  0
 12 61  1  0
 12 62  1  0
 14 13  1  1
 13 63  1  0
 13 64  1  0
 14 30  1  0
 14 42  1  0
 14 15  1  0
 15 16  1  0
 16 37  1  0
 16 17  1  1
 16 18  1  0
 17 65  1  0
 17 66  1  0
 17 67  1  0
 18 19  1  0
 18 68  1  0
 18 69  1  0
 19 20  1  0
 19 70  1  0
 19 71  1  0
 20 38  1  0
 20 21  1  0
 20 72  1  6
 21 22  1  0
 21 23  1  0
 21 73  1  1
 22 74  1  0
 22 75  1  0
 22 76  1  0
 23 24  1  0
 23 77  1  0
 23 78  1  0
 24 25  1  0
 24 79  1  0
 24 80  1  0
 25 38  1  0
 25 26  1  0
 25 81  1  1
 26 27  1  0
 26 82  1  0
 26 83  1  0
 27 28  1  0
 27 29  1  0
 27 99  1  1
 28 84  1  0
 28 85  1  0
 28 86  1  0
 29 30  1  0
 29 87  1  0
 29 88  1  0
 30 31  1  0
 30 89  1  1
 31 32  1  0
 32 33  1  0
 32 90  1  0
 32 91  1  0
 33 34  1  0
 33 35  1  0
 33 92  1  1
 34 93  1  0
 35 36  1  0
 36 37  1  0
 36 38  1  0
 36 94  1  1
 38 39  1  6
 39 40  1  0
 39 95  1  0
 39 96  1  0
 40 41  1  0
 40 42  1  0
 40 97  1  6
 41 98  1  0
 42 43  1  6
M  CHG  1  27   1
M  END
>  <i_m_ct_stereo_status>  (163) 
1

>  <s_m_source_file>  (163) 
/var/tmp/pbs.5076255.sched01/tmpazi1eam_/42934yjxx2.sdf

>  <i_m_source_file_index>  (163) 
26

>  <i_lp_mmshare_version>  (163) 
48012

>  <i_f3d_flags>  (163) 
0

>  <s_epik_input>  (163) 
W0NIM11bQ0BIXShbQ0gyXTEpW0NIXShbQ0gyXVtDSDJdMilbQ0gyXVtDQEhdKFtPSF0pW0NIMl1bQ0gyXVtDQEhdKE8zKVtDQEBIXTFbQ0BdMyhbQ0BAXTI0NSlbQ0BIXShbT0hdKVtDSDJdW0NAQF02N1tDQEBIXThbQ0gyXVtDSDJdW0NAQF0oTzQpKFtDSDNdKU9bQ0BASF03T1tDQEhdKFtPSF0pW0NIMl1TW0NIXTVbQ0gyXU4oW0NIM10pW0NIMl1bQ0BASF02W0NIMl1bQ0gyXVtDQEBIXThbQ0gzXQ==

>  <s_epik_cmdline>  (163) 
J2VwaWtfcHl0aG9uJywgJy1waHQnLCAnMi4wJywgJy1waCcsICc3LjAnLCAnLXRuJywgJzgnLCAnLW1hJywgJzIwMCcsICctaW1hZScsICc8aW5maWxlLm1hZT4nLCAnLW9tYWUnLCAnPG91dGZpbGUubWFlPic=

>  <r_epik_Ionization_Penalty>  (163) 
0.0166636

>  <r_epik_Ionization_Penalty_Charging>  (163) 
0.0166601

>  <r_epik_Ionization_Penalty_Neutral>  (163) 
3.51408e-06

>  <r_epik_State_Penalty>  (163) 
0.0131624

>  <r_epik_Charging_Adjusted_Penalty>  (163) 
0.0298225

>  <i_epik_Tot_Q>  (163) 
1

>  <i_epik_Tot_abs_Q>  (163) 
1

>  <s_epik_Chemistry_Notes>  (163) 
This compound contains an acetal/aminal-like group ( X-CH(R)-Y where X, Y are N, S, or O) that may be acid/base labile, releasing an aldehyde.

>  <s_lp_Force_Field>  (163) 
OPLS3e

>  <r_lp_Energy>  (163) 
241.32

>  <b_lp_Chiralities_Consistent>  (163) 
1

>  <s_lp_Variant>  (163) 
45:0-1

>  <s_i_glide_gridfile>  (163) 
pfpi4k_grid

>  <i_i_glide_lignum>  (163) 
26

>  <i_i_glide_rotatable_bonds>  (163) 
3

>  <r_i_docking_score>  (163) 
-2.2823

>  <r_i_glide_ligand_efficiency>  (163) 
-0.0530768

>  <r_i_glide_ligand_efficiency_sa>  (163) 
-0.185949

>  <r_i_glide_ligand_efficiency_ln>  (163) 
-0.479354

>  <r_i_glide_gscore>  (163) 
-2.2823

>  <r_i_glide_lipo>  (163) 
-0.328326

>  <r_i_glide_hbond>  (163) 
0

>  <r_i_glide_metal>  (163) 
-0

>  <r_i_glide_rewards>  (163) 
-0.5

>  <r_i_glide_evdw>  (163) 
-22.6185

>  <r_i_glide_ecoul>  (163) 
-2.10283

>  <r_i_glide_erotb>  (163) 
0

>  <r_i_glide_esite>  (163) 
-0.00762628

>  <r_i_glide_emodel>  (163) 
-33.0808

>  <r_i_glide_energy>  (163) 
-24.7213

>  <r_i_glide_einternal>  (163) 
1.38979

>  <r_i_glide_intrahb_reward>  (163) 
-0.5

>  <i_i_glide_confnum>  (163) 
1

>  <i_i_glide_posenum>  (163) 
38

>  <r_i_glide_eff_state_penalty>  (163) 
0

>  <ligand_id>  (163) 
45

>  <original_smiles>  (163) 
CC1CC2C3CCC(O)CC1CCC14OC5(C)CCC6C(C)CCC7CN(C)CC1SCC(O)OC(O5)C76CC(O)C24O3

>  <smiles>  (163) 
[H]OC1([H])OC2([H])OC3(C([H])([H])[H])OC45C([H])([H])C([H])([H])C6([H])C([H])([H])C([H])(O[H])C([H])([H])C([H])([H])C7([H])OC4(C([H])(O[H])C([H])([H])C24C([H])(C([H])([H])C3([H])[H])C([H])(C([H])([H])[H])C([H])([H])C([H])([H])C4([H])C([H])([H])[N+]([H])(C([H])([H])[H])C([H])([H])C5([H])SC1([H])[H])C7([H])C([H])([H])C6([H])C([H])([H])[H]

$$$$
45:2:0
     RDKit          3D

 98105  0  0  1  0  0  0  0  0999 V2000
    4.4127    1.2829    4.7811 C   0  0  0  0  0  0  0  0  0  0  0  0
    3.7104   -0.0853    4.8348 C   0  0  2  0  0  0  0  0  0  0  0  0
    4.1589   -1.0015    3.6499 C   0  0  0  0  0  0  0  0  0  0  0  0
    3.2459   -1.9655    2.8504 C   0  0  2  0  0  0  0  0  0  0  0  0
    1.8710   -1.6699    2.2274 C   0  0  2  0  0  0  0  0  0  0  0  0
    1.0068   -0.4020    2.3339 C   0  0  0  0  0  0  0  0  0  0  0  0
    1.7704    0.9299    2.3424 C   0  0  0  0  0  0  0  0  0  0  0  0
    1.4406    1.8399    3.5396 C   0  0  1  0  0  0  0  0  0  0  0  0
    0.2364    2.5391    3.2722 O   0  0  0  0  0  0  0  0  0  0  0  0
    1.2960    1.1502    4.9265 C   0  0  0  0  0  0  0  0  0  0  0  0
    2.2403   -0.0198    5.3639 C   0  0  1  0  0  0  0  0  0  0  0  0
    1.4979   -1.3672    5.5886 C   0  0  0  0  0  0  0  0  0  0  0  0
    2.3927   -2.5761    5.9166 C   0  0  0  0  0  0  0  0  0  0  0  0
    2.6048   -3.7146    4.8658 C   0  0  2  0  0  0  0  0  0  0  0  0
    1.3667   -4.5029    4.7910 O   0  0  0  0  0  0  0  0  0  0  0  0
    0.8488   -5.5801    5.5587 C   0  0  1  0  0  0  0  0  0  0  0  0
    0.1873   -4.9614    6.8024 C   0  0  0  0  0  0  0  0  0  0  0  0
   -0.2550   -6.3490    4.7202 C   0  0  0  0  0  0  0  0  0  0  0  0
    0.0490   -7.8216    4.2615 C   0  0  0  0  0  0  0  0  0  0  0  0
    1.2853   -8.1347    3.3357 C   0  0  2  0  0  0  0  0  0  0  0  0
    1.6850   -9.6341    3.2388 C   0  0  1  0  0  0  0  0  0  0  0  0
    0.5004  -10.5887    3.0087 C   0  0  0  0  0  0  0  0  0  0  0  0
    2.7847   -9.8673    2.1770 C   0  0  0  0  0  0  0  0  0  0  0  0
    3.7401   -8.6753    1.9379 C   0  0  0  0  0  0  0  0  0  0  0  0
    3.9269   -7.7940    3.1917 C   0  0  1  0  0  0  0  0  0  0  0  0
    5.1549   -6.7997    2.9980 C   0  0  0  0  0  0  0  0  0  0  0  0
    5.7166   -5.9658    4.1127 N   0  0  0  0  0  0  0  0  0  0  0  0
    7.1630   -5.8721    3.9224 C   0  0  0  0  0  0  0  0  0  0  0  0
    5.2330   -4.5717    4.3747 C   0  0  0  0  0  0  0  0  0  0  0  0
    3.9356   -4.5085    5.2453 C   0  0  1  0  0  0  0  0  0  0  0  0
    4.4438   -4.5555    7.0261 S   0  0  0  0  0  0  0  0  0  0  0  0
    3.8021   -6.0654    7.8385 C   0  0  0  0  0  0  0  0  0  0  0  0
    4.0950   -7.4197    7.1474 C   0  0  1  0  0  0  0  0  0  0  0  0
    3.4491   -8.4785    7.8133 O   0  0  0  0  0  0  0  0  0  0  0  0
    3.8592   -7.3941    5.7696 O   0  0  0  0  0  0  0  0  0  0  0  0
    2.5317   -7.3345    5.2971 C   0  0  1  0  0  0  0  0  0  0  0  0
    1.7648   -6.4652    6.0794 O   0  0  0  0  0  0  0  0  0  0  0  0
    2.5236   -7.2112    3.6594 C   0  0  2  0  0  0  0  0  0  0  0  0
    2.1240   -5.9303    2.7415 C   0  0  0  0  0  0  0  0  0  0  0  0
    2.8654   -4.5806    2.4376 C   0  0  1  0  0  0  0  0  0  0  0  0
    2.6090   -4.2945    1.0675 O   0  0  0  0  0  0  0  0  0  0  0  0
    2.6137   -3.3016    3.3402 C   0  0  2  0  0  0  0  0  0  0  0  0
    1.2899   -2.8012    2.9418 O   0  0  0  0  0  0  0  0  0  0  0  0
    4.2074    1.8162    3.8571 H   0  0  0  0  0  0  0  0  0  0  0  0
    5.4936    1.1494    4.8296 H   0  0  0  0  0  0  0  0  0  0  0  0
    4.1225    1.9201    5.6184 H   0  0  0  0  0  0  0  0  0  0  0  0
    4.2530   -0.5119    5.6777 H   0  0  0  0  0  0  0  0  0  0  0  0
    4.6628   -0.3639    2.9199 H   0  0  0  0  0  0  0  0  0  0  0  0
    4.9852   -1.5992    4.0317 H   0  0  0  0  0  0  0  0  0  0  0  0
    3.8692   -2.2455    2.0008 H   0  0  0  0  0  0  0  0  0  0  0  0
    1.9557   -1.9013    1.1667 H   0  0  0  0  0  0  0  0  0  0  0  0
    0.3301   -0.3614    1.4798 H   0  0  0  0  0  0  0  0  0  0  0  0
    0.3076   -0.4596    3.1571 H   0  0  0  0  0  0  0  0  0  0  0  0
    2.8393    0.7579    2.2994 H   0  0  0  0  0  0  0  0  0  0  0  0
    1.5696    1.4727    1.4180 H   0  0  0  0  0  0  0  0  0  0  0  0
    2.2060    2.6124    3.6064 H   0  0  0  0  0  0  0  0  0  0  0  0
    0.3242    3.0169    2.4492 H   0  0  0  0  0  0  0  0  0  0  0  0
    1.3823    1.9459    5.6693 H   0  0  0  0  0  0  0  0  0  0  0  0
    0.2662    0.8099    5.0428 H   0  0  0  0  0  0  0  0  0  0  0  0
    2.4263    0.2627    6.4027 H   0  0  0  0  0  0  0  0  0  0  0  0
    0.8423   -1.2158    6.4467 H   0  0  0  0  0  0  0  0  0  0  0  0
    0.7817   -1.6111    4.8180 H   0  0  0  0  0  0  0  0  0  0  0  0
    3.3526   -2.2206    6.2686 H   0  0  0  0  0  0  0  0  0  0  0  0
    1.9917   -3.0196    6.8185 H   0  0  0  0  0  0  0  0  0  0  0  0
    0.9426   -4.6596    7.5225 H   0  0  0  0  0  0  0  0  0  0  0  0
   -0.4268   -5.7063    7.3064 H   0  0  0  0  0  0  0  0  0  0  0  0
   -0.4288   -4.1049    6.5316 H   0  0  0  0  0  0  0  0  0  0  0  0
   -1.1458   -6.4185    5.3434 H   0  0  0  0  0  0  0  0  0  0  0  0
   -0.5889   -5.7161    3.9067 H   0  0  0  0  0  0  0  0  0  0  0  0
    0.0719   -8.4600    5.1457 H   0  0  0  0  0  0  0  0  0  0  0  0
   -0.8370   -8.1596    3.7249 H   0  0  0  0  0  0  0  0  0  0  0  0
    0.9213   -7.9434    2.3247 H   0  0  0  0  0  0  0  0  0  0  0  0
    2.1093   -9.9325    4.1957 H   0  0  0  0  0  0  0  0  0  0  0  0
   -0.0253  -10.3645    2.0815 H   0  0  0  0  0  0  0  0  0  0  0  0
   -0.2179  -10.5361    3.8246 H   0  0  0  0  0  0  0  0  0  0  0  0
    0.8392  -11.6243    2.9544 H   0  0  0  0  0  0  0  0  0  0  0  0
    3.3651  -10.7366    2.4846 H   0  0  0  0  0  0  0  0  0  0  0  0
    2.3319  -10.1439    1.2242 H   0  0  0  0  0  0  0  0  0  0  0  0
    4.7015   -9.0789    1.6144 H   0  0  0  0  0  0  0  0  0  0  0  0
    3.3810   -8.0784    1.1047 H   0  0  0  0  0  0  0  0  0  0  0  0
    4.2708   -8.5459    3.9019 H   0  0  0  0  0  0  0  0  0  0  0  0
    5.9520   -7.5116    2.7792 H   0  0  0  0  0  0  0  0  0  0  0  0
    5.1139   -6.2585    2.0558 H   0  0  0  0  0  0  0  0  0  0  0  0
    7.6413   -5.3718    4.7654 H   0  0  0  0  0  0  0  0  0  0  0  0
    7.3989   -5.3243    3.0089 H   0  0  0  0  0  0  0  0  0  0  0  0
    7.6270   -6.8581    3.8543 H   0  0  0  0  0  0  0  0  0  0  0  0
    5.9860   -4.0695    4.9815 H   0  0  0  0  0  0  0  0  0  0  0  0
    5.2400   -3.9483    3.4852 H   0  0  0  0  0  0  0  0  0  0  0  0
    3.5940   -5.4184    4.9272 H   0  0  0  0  0  0  0  0  0  0  0  0
    4.2764   -6.1057    8.8185 H   0  0  0  0  0  0  0  0  0  0  0  0
    2.7458   -5.9596    8.0689 H   0  0  0  0  0  0  0  0  0  0  0  0
    5.1656   -7.6178    7.2234 H   0  0  0  0  0  0  0  0  0  0  0  0
    3.7727   -9.2924    7.4535 H   0  0  0  0  0  0  0  0  0  0  0  0
    2.1812   -8.3167    5.6037 H   0  0  0  0  0  0  0  0  0  0  0  0
    2.1924   -6.3935    1.7603 H   0  0  0  0  0  0  0  0  0  0  0  0
    1.0730   -5.6907    2.7361 H   0  0  0  0  0  0  0  0  0  0  0  0
    3.9076   -4.7544    2.3194 H   0  0  0  0  0  0  0  0  0  0  0  0
    3.1061   -3.5371    0.8070 H   0  0  0  0  0  0  0  0  0  0  0  0
  1  2  1  0
  1 44  1  0
  1 45  1  0
  1 46  1  0
  2 11  1  0
  2  3  1  0
  2 47  1  1
  3  4  1  0
  3 48  1  0
  3 49  1  0
  4 42  1  0
  4  5  1  0
  4 50  1  6
  5 43  1  0
  5  6  1  0
  5 51  1  6
  6  7  1  0
  6 52  1  0
  6 53  1  0
  7  8  1  0
  7 54  1  0
  7 55  1  0
  8  9  1  0
  8 10  1  0
  8 56  1  1
  9 57  1  0
 10 11  1  0
 10 58  1  0
 10 59  1  0
 11 12  1  0
 11 60  1  1
 12 13  1  0
 12 61  1  0
 12 62  1  0
 14 13  1  1
 13 63  1  0
 13 64  1  0
 14 30  1  0
 14 42  1  0
 14 15  1  0
 15 16  1  0
 16 37  1  0
 16 17  1  1
 16 18  1  0
 17 65  1  0
 17 66  1  0
 17 67  1  0
 18 19  1  0
 18 68  1  0
 18 69  1  0
 19 20  1  0
 19 70  1  0
 19 71  1  0
 20 38  1  0
 20 21  1  0
 20 72  1  6
 21 22  1  0
 21 23  1  0
 21 73  1  1
 22 74  1  0
 22 75  1  0
 22 76  1  0
 23 24  1  0
 23 77  1  0
 23 78  1  0
 24 25  1  0
 24 79  1  0
 24 80  1  0
 25 38  1  0
 25 26  1  0
 25 81  1  1
 26 27  1  0
 26 82  1  0
 26 83  1  0
 27 28  1  0
 27 29  1  0
 28 84  1  0
 28 85  1  0
 28 86  1  0
 29 30  1  0
 29 87  1  0
 29 88  1  0
 30 31  1  0
 30 89  1  6
 31 32  1  0
 32 33  1  0
 32 90  1  0
 32 91  1  0
 33 34  1  0
 33 35  1  0
 33 92  1  6
 34 93  1  0
 35 36  1  0
 36 37  1  0
 36 38  1  0
 36 94  1  6
 38 39  1  1
 39 40  1  0
 39 95  1  0
 39 96  1  0
 40 41  1  0
 40 42  1  0
 40 97  1  6
 41 98  1  0
 42 43  1  6
M  END
>  <i_m_ct_stereo_status>  (164) 
1

>  <s_m_source_file>  (164) 
/var/tmp/pbs.5076255.sched01/tmpazi1eam_/42934yjxx2.sdf

>  <i_m_source_file_index>  (164) 
28

>  <i_lp_mmshare_version>  (164) 
48012

>  <i_f3d_flags>  (164) 
0

>  <s_epik_input>  (164) 
W0NIM11bQ0BIXShbQ0gyXTEpW0NIXShbQ0gyXVtDSDJdMilbQ0gyXVtDQEhdKFtPSF0pW0NIMl1bQ0gyXVtDQEhdKE8zKVtDQEBIXTFbQ0BdMyhbQ0BAXTI0NSlbQ0BIXShbT0hdKVtDSDJdW0NAQF02N1tDQEBIXThbQ0gyXVtDSDJdW0NAQF0oTzQpKFtDSDNdKU9bQ0BASF03T1tDQEhdKFtPSF0pW0NIMl1TW0NIXTVbQ0gyXU4oW0NIM10pW0NIMl1bQ0BASF02W0NIMl1bQ0gyXVtDQEBIXThbQ0gzXQ==

>  <s_epik_cmdline>  (164) 
J2VwaWtfcHl0aG9uJywgJy1waHQnLCAnMi4wJywgJy1waCcsICc3LjAnLCAnLXRuJywgJzgnLCAnLW1hJywgJzIwMCcsICctaW1hZScsICc8aW5maWxlLm1hZT4nLCAnLW9tYWUnLCAnPG91dGZpbGUubWFlPic=

>  <r_epik_Ionization_Penalty>  (164) 
2.12426

>  <r_epik_Ionization_Penalty_Charging>  (164) 
0

>  <r_epik_Ionization_Penalty_Neutral>  (164) 
2.12426

>  <r_epik_State_Penalty>  (164) 
2.26214

>  <r_epik_Charging_Adjusted_Penalty>  (164) 
2.26214

>  <i_epik_Tot_Q>  (164) 
0

>  <i_epik_Tot_abs_Q>  (164) 
0

>  <s_epik_Chemistry_Notes>  (164) 
This compound contains an acetal/aminal-like group ( X-CH(R)-Y where X, Y are N, S, or O) that may be acid/base labile, releasing an aldehyde.

>  <s_lp_Force_Field>  (164) 
OPLS3e

>  <r_lp_Energy>  (164) 
234.38

>  <b_lp_Chiralities_Consistent>  (164) 
1

>  <s_lp_Variant>  (164) 
45:0-3

>  <s_i_glide_gridfile>  (164) 
pfpi4k_grid

>  <i_i_glide_lignum>  (164) 
28

>  <i_i_glide_rotatable_bonds>  (164) 
3

>  <r_i_docking_score>  (164) 
-1.42747

>  <r_i_glide_ligand_efficiency>  (164) 
-0.0331971

>  <r_i_glide_ligand_efficiency_sa>  (164) 
-0.116302

>  <r_i_glide_ligand_efficiency_ln>  (164) 
-0.299814

>  <r_i_glide_gscore>  (164) 
-1.42747

>  <r_i_glide_lipo>  (164) 
-0.0968373

>  <r_i_glide_hbond>  (164) 
-0.109585

>  <r_i_glide_metal>  (164) 
-0

>  <r_i_glide_rewards>  (164) 
0

>  <r_i_glide_evdw>  (164) 
-23.4801

>  <r_i_glide_ecoul>  (164) 
-0.299983

>  <r_i_glide_erotb>  (164) 
0

>  <r_i_glide_esite>  (164) 
-0.00204759

>  <r_i_glide_emodel>  (164) 
-25.7835

>  <r_i_glide_energy>  (164) 
-23.7801

>  <r_i_glide_einternal>  (164) 
1.1159

>  <r_i_glide_intrahb_reward>  (164) 
-0

>  <i_i_glide_confnum>  (164) 
1

>  <i_i_glide_posenum>  (164) 
15

>  <r_i_glide_eff_state_penalty>  (164) 
0

>  <ligand_id>  (164) 
45

>  <original_smiles>  (164) 
CC1CC2C3CCC(O)CC1CCC14OC5(C)CCC6C(C)CCC7CN(C)CC1SCC(O)OC(O5)C76CC(O)C24O3

>  <smiles>  (164) 
[H]OC1([H])OC2([H])OC3(C([H])([H])[H])OC45C([H])([H])C([H])([H])C6([H])C([H])([H])C([H])(O[H])C([H])([H])C([H])([H])C7([H])OC4(C([H])(O[H])C([H])([H])C24C([H])(C([H])([H])N(C([H])([H])[H])C([H])([H])C5([H])SC1([H])[H])C([H])([H])C([H])([H])C([H])(C([H])([H])[H])C4([H])C([H])([H])C3([H])[H])C7([H])C([H])([H])C6([H])C([H])([H])[H]

$$$$
45:3:0
     RDKit          3D

 98105  0  0  1  0  0  0  0  0999 V2000
    5.7413   -1.1035    2.3212 C   0  0  0  0  0  0  0  0  0  0  0  0
    4.4321   -0.5052    2.8802 C   0  0  2  0  0  0  0  0  0  0  0  0
    4.4056   -0.5331    4.4381 C   0  0  0  0  0  0  0  0  0  0  0  0
    3.1418   -0.6772    5.3103 C   0  0  2  0  0  0  0  0  0  0  0  0
    2.2692   -1.9388    5.3455 C   0  0  2  0  0  0  0  0  0  0  0  0
    2.5875   -3.3681    4.8210 C   0  0  0  0  0  0  0  0  0  0  0  0
    3.6106   -3.6127    3.6931 C   0  0  0  0  0  0  0  0  0  0  0  0
    3.1142   -3.4096    2.2527 C   0  0  1  0  0  0  0  0  0  0  0  0
    2.2306   -4.4772    1.9580 O   0  0  0  0  0  0  0  0  0  0  0  0
    2.3755   -2.0887    2.0044 C   0  0  0  0  0  0  0  0  0  0  0  0
    3.2023   -0.7803    1.9624 C   0  0  1  0  0  0  0  0  0  0  0  0
    2.3257    0.4632    1.7563 C   0  0  0  0  0  0  0  0  0  0  0  0
    1.2038    0.7964    2.7684 C   0  0  0  0  0  0  0  0  0  0  0  0
    1.4739    1.2896    4.2355 C   0  0  2  0  0  0  0  0  0  0  0  0
    0.1692    1.5798    4.8190 O   0  0  0  0  0  0  0  0  0  0  0  0
   -0.9096    2.4510    4.6111 C   0  0  1  0  0  0  0  0  0  0  0  0
   -1.4339    2.4300    3.1606 C   0  0  0  0  0  0  0  0  0  0  0  0
   -2.0316    1.9968    5.5876 C   0  0  0  0  0  0  0  0  0  0  0  0
   -2.1330    2.8306    6.9046 C   0  0  0  0  0  0  0  0  0  0  0  0
   -0.9277    2.9983    7.8928 C   0  0  2  0  0  0  0  0  0  0  0  0
   -1.2022    4.1453    8.9180 C   0  0  1  0  0  0  0  0  0  0  0  0
   -2.5636    4.0350    9.6303 C   0  0  0  0  0  0  0  0  0  0  0  0
   -0.0906    4.3395    9.9658 C   0  0  0  0  0  0  0  0  0  0  0  0
    1.3210    3.9545    9.5071 C   0  0  0  0  0  0  0  0  0  0  0  0
    1.5262    4.0770    7.9841 C   0  0  1  0  0  0  0  0  0  0  0  0
    3.0954    3.9410    7.6917 C   0  0  0  0  0  0  0  0  0  0  0  0
    3.6539    3.9250    6.3065 N   0  0  0  0  0  0  0  0  0  0  0  0
    5.0250    4.4352    6.3615 C   0  0  0  0  0  0  0  0  0  0  0  0
    3.6351    2.6745    5.4866 C   0  0  0  0  0  0  0  0  0  0  0  0
    2.6191    2.4287    4.2676 C   0  0  2  0  0  0  0  0  0  0  0  0
    2.5283    3.7339    2.9318 S   0  0  0  0  0  0  0  0  0  0  0  0
    2.6053    5.4064    3.6675 C   0  0  0  0  0  0  0  0  0  0  0  0
    1.3926    5.6571    4.5559 C   0  0  1  0  0  0  0  0  0  0  0  0
    0.2730    5.8815    3.7262 O   0  0  0  0  0  0  0  0  0  0  0  0
    1.3639    4.4842    5.3025 O   0  0  0  0  0  0  0  0  0  0  0  0
    0.2218    4.0881    5.9002 C   0  0  1  0  0  0  0  0  0  0  0  0
   -0.7244    3.7635    4.9323 O   0  0  0  0  0  0  0  0  0  0  0  0
    0.4901    3.1450    7.2038 C   0  0  2  0  0  0  0  0  0  0  0  0
    1.2649    1.7159    7.3167 C   0  0  0  0  0  0  0  0  0  0  0  0
    1.0966    0.3173    6.6612 C   0  0  1  0  0  0  0  0  0  0  0  0
   -0.2256   -0.1583    6.8162 O   0  0  0  0  0  0  0  0  0  0  0  0
    1.7675    0.0782    5.2296 C   0  0  2  0  0  0  0  0  0  0  0  0
    1.1754   -1.1860    4.7551 O   0  0  0  0  0  0  0  0  0  0  0  0
    5.7467   -2.1907    2.3042 H   0  0  0  0  0  0  0  0  0  0  0  0
    6.5972   -0.7732    2.9056 H   0  0  0  0  0  0  0  0  0  0  0  0
    5.9240   -0.7645    1.2994 H   0  0  0  0  0  0  0  0  0  0  0  0
    4.6344    0.5417    2.6814 H   0  0  0  0  0  0  0  0  0  0  0  0
    5.1126   -1.2897    4.7724 H   0  0  0  0  0  0  0  0  0  0  0  0
    4.9332    0.3602    4.7614 H   0  0  0  0  0  0  0  0  0  0  0  0
    3.4997   -0.5608    6.3367 H   0  0  0  0  0  0  0  0  0  0  0  0
    2.0220   -2.1194    6.3928 H   0  0  0  0  0  0  0  0  0  0  0  0
    3.0161   -3.9096    5.6711 H   0  0  0  0  0  0  0  0  0  0  0  0
    1.6670   -3.9097    4.6100 H   0  0  0  0  0  0  0  0  0  0  0  0
    4.5281   -3.0731    3.8796 H   0  0  0  0  0  0  0  0  0  0  0  0
    3.9385   -4.6524    3.7632 H   0  0  0  0  0  0  0  0  0  0  0  0
    3.9494   -3.4912    1.5554 H   0  0  0  0  0  0  0  0  0  0  0  0
    2.7171   -5.2879    2.0318 H   0  0  0  0  0  0  0  0  0  0  0  0
    1.8979   -2.1752    1.0283 H   0  0  0  0  0  0  0  0  0  0  0  0
    1.5263   -2.0248    2.6688 H   0  0  0  0  0  0  0  0  0  0  0  0
    3.6755   -0.8679    0.9827 H   0  0  0  0  0  0  0  0  0  0  0  0
    2.9462    1.3346    1.5592 H   0  0  0  0  0  0  0  0  0  0  0  0
    1.8128    0.3107    0.8101 H   0  0  0  0  0  0  0  0  0  0  0  0
    0.7258    1.6088    2.2451 H   0  0  0  0  0  0  0  0  0  0  0  0
    0.4654   -0.0003    2.7615 H   0  0  0  0  0  0  0  0  0  0  0  0
   -0.7663    2.9934    2.5105 H   0  0  0  0  0  0  0  0  0  0  0  0
   -2.3956    2.9404    3.1098 H   0  0  0  0  0  0  0  0  0  0  0  0
   -1.5678    1.4104    2.7964 H   0  0  0  0  0  0  0  0  0  0  0  0
   -2.9635    2.2113    5.0738 H   0  0  0  0  0  0  0  0  0  0  0  0
   -2.0534    0.9215    5.7175 H   0  0  0  0  0  0  0  0  0  0  0  0
   -2.4755    3.8294    6.6317 H   0  0  0  0  0  0  0  0  0  0  0  0
   -2.9632    2.4055    7.4657 H   0  0  0  0  0  0  0  0  0  0  0  0
   -0.9332    2.0934    8.4956 H   0  0  0  0  0  0  0  0  0  0  0  0
   -1.2393    5.0688    8.3424 H   0  0  0  0  0  0  0  0  0  0  0  0
   -2.6389    3.1016   10.1902 H   0  0  0  0  0  0  0  0  0  0  0  0
   -3.4072    4.0898    8.9429 H   0  0  0  0  0  0  0  0  0  0  0  0
   -2.6875    4.8496   10.3429 H   0  0  0  0  0  0  0  0  0  0  0  0
   -0.0900    5.3901   10.2438 H   0  0  0  0  0  0  0  0  0  0  0  0
   -0.3367    3.8003   10.8835 H   0  0  0  0  0  0  0  0  0  0  0  0
    2.0324    4.5938   10.0311 H   0  0  0  0  0  0  0  0  0  0  0  0
    1.5453    2.9458    9.8415 H   0  0  0  0  0  0  0  0  0  0  0  0
    1.2957    5.1241    7.7731 H   0  0  0  0  0  0  0  0  0  0  0  0
    3.5098    4.8348    8.1645 H   0  0  0  0  0  0  0  0  0  0  0  0
    3.5489    3.1328    8.2704 H   0  0  0  0  0  0  0  0  0  0  0  0
    5.4391    4.5502    5.3596 H   0  0  0  0  0  0  0  0  0  0  0  0
    5.6775    3.7658    6.9235 H   0  0  0  0  0  0  0  0  0  0  0  0
    5.0628    5.4219    6.8220 H   0  0  0  0  0  0  0  0  0  0  0  0
    4.5972    2.6689    4.9771 H   0  0  0  0  0  0  0  0  0  0  0  0
    3.7653    1.7946    6.1109 H   0  0  0  0  0  0  0  0  0  0  0  0
    3.3375    1.8482    3.7148 H   0  0  0  0  0  0  0  0  0  0  0  0
    3.5247    5.5259    4.2333 H   0  0  0  0  0  0  0  0  0  0  0  0
    2.6375    6.1587    2.8784 H   0  0  0  0  0  0  0  0  0  0  0  0
    1.5173    6.5337    5.1904 H   0  0  0  0  0  0  0  0  0  0  0  0
    0.3737    5.3309    2.9585 H   0  0  0  0  0  0  0  0  0  0  0  0
   -0.2112    5.0180    6.2691 H   0  0  0  0  0  0  0  0  0  0  0  0
    2.3258    1.7697    7.3986 H   0  0  0  0  0  0  0  0  0  0  0  0
    1.0601    1.4474    8.3527 H   0  0  0  0  0  0  0  0  0  0  0  0
    1.6074   -0.3196    7.3859 H   0  0  0  0  0  0  0  0  0  0  0  0
   -0.7331    0.3184    6.1711 H   0  0  0  0  0  0  0  0  0  0  0  0
  1  2  1  0
  1 44  1  0
  1 45  1  0
  1 46  1  0
  2 11  1  0
  2  3  1  0
  2 47  1  1
  3  4  1  0
  3 48  1  0
  3 49  1  0
  4 42  1  0
  4  5  1  0
  4 50  1  1
  5 43  1  0
  5  6  1  0
  5 51  1  1
  6  7  1  0
  6 52  1  0
  6 53  1  0
  7  8  1  0
  7 54  1  0
  7 55  1  0
  8  9  1  0
  8 10  1  0
  8 56  1  6
  9 57  1  0
 10 11  1  0
 10 58  1  0
 10 59  1  0
 11 12  1  0
 11 60  1  6
 12 13  1  0
 12 61  1  0
 12 62  1  0
 14 13  1  6
 13 63  1  0
 13 64  1  0
 14 30  1  0
 14 42  1  0
 14 15  1  0
 15 16  1  0
 16 37  1  0
 16 17  1  6
 16 18  1  0
 17 65  1  0
 17 66  1  0
 17 67  1  0
 18 19  1  0
 18 68  1  0
 18 69  1  0
 19 20  1  0
 19 70  1  0
 19 71  1  0
 20 38  1  0
 20 21  1  0
 20 72  1  1
 21 22  1  0
 21 23  1  0
 21 73  1  6
 22 74  1  0
 22 75  1  0
 22 76  1  0
 23 24  1  0
 23 77  1  0
 23 78  1  0
 24 25  1  0
 24 79  1  0
 24 80  1  0
 25 38  1  0
 25 26  1  0
 25 81  1  6
 26 27  1  0
 26 82  1  0
 26 83  1  0
 27 28  1  0
 27 29  1  0
 28 84  1  0
 28 85  1  0
 28 86  1  0
 29 30  1  0
 29 87  1  0
 29 88  1  0
 30 31  1  0
 30 89  1  6
 31 32  1  0
 32 33  1  0
 32 90  1  0
 32 91  1  0
 33 34  1  0
 33 35  1  0
 33 92  1  1
 34 93  1  0
 35 36  1  0
 36 37  1  0
 36 38  1  0
 36 94  1  1
 38 39  1  6
 39 40  1  0
 39 95  1  0
 39 96  1  0
 40 41  1  0
 40 42  1  0
 40 97  1  1
 41 98  1  0
 42 43  1  6
M  END
>  <i_m_ct_stereo_status>  (165) 
1

>  <s_m_source_file>  (165) 
/var/tmp/pbs.5076255.sched01/tmpazi1eam_/42934yjxx2.sdf

>  <i_m_source_file_index>  (165) 
29

>  <i_lp_mmshare_version>  (165) 
48012

>  <i_f3d_flags>  (165) 
0

>  <s_epik_input>  (165) 
W0NIM11bQ0BIXShbQ0gyXTEpW0NIXShbQ0gyXVtDSDJdMilbQ0gyXVtDQEhdKFtPSF0pW0NIMl1bQ0gyXVtDQEhdKE8zKVtDQEBIXTFbQ0BdMyhbQ0BAXTI0NSlbQ0BIXShbT0hdKVtDSDJdW0NAQF02N1tDQEBIXThbQ0gyXVtDSDJdW0NAQF0oTzQpKFtDSDNdKU9bQ0BASF03T1tDQEhdKFtPSF0pW0NIMl1TW0NIXTVbQ0gyXU4oW0NIM10pW0NIMl1bQ0BASF02W0NIMl1bQ0gyXVtDQEBIXThbQ0gzXQ==

>  <s_epik_cmdline>  (165) 
J2VwaWtfcHl0aG9uJywgJy1waHQnLCAnMi4wJywgJy1waCcsICc3LjAnLCAnLXRuJywgJzgnLCAnLW1hJywgJzIwMCcsICctaW1hZScsICc8aW5maWxlLm1hZT4nLCAnLW9tYWUnLCAnPG91dGZpbGUubWFlPic=

>  <r_epik_Ionization_Penalty>  (165) 
2.12426

>  <r_epik_Ionization_Penalty_Charging>  (165) 
0

>  <r_epik_Ionization_Penalty_Neutral>  (165) 
2.12426

>  <r_epik_State_Penalty>  (165) 
2.26214

>  <r_epik_Charging_Adjusted_Penalty>  (165) 
2.26214

>  <i_epik_Tot_Q>  (165) 
0

>  <i_epik_Tot_abs_Q>  (165) 
0

>  <s_epik_Chemistry_Notes>  (165) 
This compound contains an acetal/aminal-like group ( X-CH(R)-Y where X, Y are N, S, or O) that may be acid/base labile, releasing an aldehyde.

>  <s_lp_Force_Field>  (165) 
OPLS3e

>  <r_lp_Energy>  (165) 
242.997

>  <b_lp_Chiralities_Consistent>  (165) 
1

>  <s_lp_Variant>  (165) 
45:0-4

>  <s_i_glide_gridfile>  (165) 
pfpi4k_grid

>  <i_i_glide_lignum>  (165) 
29

>  <i_i_glide_rotatable_bonds>  (165) 
3

>  <r_i_docking_score>  (165) 
-2.34409

>  <r_i_glide_ligand_efficiency>  (165) 
-0.0545138

>  <r_i_glide_ligand_efficiency_sa>  (165) 
-0.190983

>  <r_i_glide_ligand_efficiency_ln>  (165) 
-0.492332

>  <r_i_glide_gscore>  (165) 
-2.34409

>  <r_i_glide_lipo>  (165) 
-0.293005

>  <r_i_glide_hbond>  (165) 
0

>  <r_i_glide_metal>  (165) 
-0

>  <r_i_glide_rewards>  (165) 
-0.5

>  <r_i_glide_evdw>  (165) 
-26.7904

>  <r_i_glide_ecoul>  (165) 
-1.11131

>  <r_i_glide_erotb>  (165) 
0

>  <r_i_glide_esite>  (165) 
-0.0448698

>  <r_i_glide_emodel>  (165) 
-37.0751

>  <r_i_glide_energy>  (165) 
-27.9017

>  <r_i_glide_einternal>  (165) 
0.715336

>  <r_i_glide_intrahb_reward>  (165) 
-0.5

>  <i_i_glide_confnum>  (165) 
2

>  <i_i_glide_posenum>  (165) 
10

>  <r_i_glide_eff_state_penalty>  (165) 
0

>  <ligand_id>  (165) 
45

>  <original_smiles>  (165) 
CC1CC2C3CCC(O)CC1CCC14OC5(C)CCC6C(C)CCC7CN(C)CC1SCC(O)OC(O5)C76CC(O)C24O3

>  <smiles>  (165) 
[H]OC1([H])OC2([H])OC3(C([H])([H])[H])OC45C([H])([H])C([H])([H])C6([H])C([H])([H])C([H])(O[H])C([H])([H])C([H])([H])C7([H])OC4(C([H])(O[H])C([H])([H])C24C([H])(C([H])([H])N(C([H])([H])[H])C([H])([H])C5([H])SC1([H])[H])C([H])([H])C([H])([H])C([H])(C([H])([H])[H])C4([H])C([H])([H])C3([H])[H])C7([H])C([H])([H])C6([H])C([H])([H])[H]

$$$$
45:3:1
     RDKit          3D

 98105  0  0  1  0  0  0  0  0999 V2000
    5.3584   -0.7420    2.7251 C   0  0  0  0  0  0  0  0  0  0  0  0
    4.0840   -0.0941    3.3153 C   0  0  2  0  0  0  0  0  0  0  0  0
    4.1464   -0.0489    4.8727 C   0  0  0  0  0  0  0  0  0  0  0  0
    2.9363   -0.1358    5.8231 C   0  0  2  0  0  0  0  0  0  0  0  0
    2.0619   -1.3893    5.9754 C   0  0  2  0  0  0  0  0  0  0  0  0
    2.3464   -2.8445    5.5118 C   0  0  0  0  0  0  0  0  0  0  0  0
    3.3018   -3.1555    4.3402 C   0  0  0  0  0  0  0  0  0  0  0  0
    2.7233   -3.0242    2.9228 C   0  0  1  0  0  0  0  0  0  0  0  0
    1.8191   -4.1007    2.7484 O   0  0  0  0  0  0  0  0  0  0  0  0
    1.9761   -1.7156    2.6432 C   0  0  0  0  0  0  0  0  0  0  0  0
    2.8048   -0.4167    2.4801 C   0  0  1  0  0  0  0  0  0  0  0  0
    1.9170    0.8164    2.2523 C   0  0  0  0  0  0  0  0  0  0  0  0
    0.8638    1.2181    3.3161 C   0  0  0  0  0  0  0  0  0  0  0  0
    1.2209    1.7854    4.7401 C   0  0  2  0  0  0  0  0  0  0  0  0
   -0.0451    2.1198    5.3812 O   0  0  0  0  0  0  0  0  0  0  0  0
   -1.1345    2.9908    5.1883 C   0  0  1  0  0  0  0  0  0  0  0  0
   -1.7369    2.8982    3.7717 C   0  0  0  0  0  0  0  0  0  0  0  0
   -2.1992    2.5936    6.2557 C   0  0  0  0  0  0  0  0  0  0  0  0
   -2.2125    3.4883    7.5387 C   0  0  0  0  0  0  0  0  0  0  0  0
   -0.9482    3.7011    8.4366 C   0  0  2  0  0  0  0  0  0  0  0  0
   -1.1595    4.9059    9.4076 C   0  0  1  0  0  0  0  0  0  0  0  0
   -2.4798    4.8481   10.2006 C   0  0  0  0  0  0  0  0  0  0  0  0
    0.0102    5.1497   10.3802 C   0  0  0  0  0  0  0  0  0  0  0  0
    1.3913    4.7303    9.8629 C   0  0  0  0  0  0  0  0  0  0  0  0
    1.5088    4.7683    8.3266 C   0  0  1  0  0  0  0  0  0  0  0  0
    3.0580    4.6029    7.9516 C   0  0  0  0  0  0  0  0  0  0  0  0
    3.5325    4.5084    6.5395 N   0  0  0  0  0  0  0  0  0  0  0  0
    4.9096    5.0084    6.4878 C   0  0  0  0  0  0  0  0  0  0  0  0
    3.4603    3.2141    5.7950 C   0  0  0  0  0  0  0  0  0  0  0  0
    2.3756    2.9138    4.6522 C   0  0  2  0  0  0  0  0  0  0  0  0
    2.2241    4.1435    3.2596 S   0  0  0  0  0  0  0  0  0  0  0  0
    2.3512    5.8594    3.8866 C   0  0  0  0  0  0  0  0  0  0  0  0
    1.2038    6.1955    4.8382 C   0  0  1  0  0  0  0  0  0  0  0  0
    0.0301    6.4390    4.0800 O   0  0  0  0  0  0  0  0  0  0  0  0
    1.1968    5.0493    5.6340 O   0  0  0  0  0  0  0  0  0  0  0  0
    0.0827    4.6861    6.3164 C   0  0  1  0  0  0  0  0  0  0  0  0
   -0.9211    4.3176    5.4271 O   0  0  0  0  0  0  0  0  0  0  0  0
    0.4248    3.8048    7.6550 C   0  0  2  0  0  0  0  0  0  0  0  0
    1.1948    2.3772    7.8002 C   0  0  0  0  0  0  0  0  0  0  0  0
    0.9806    0.9450    7.2298 C   0  0  1  0  0  0  0  0  0  0  0  0
   -0.3317    0.4886    7.4874 O   0  0  0  0  0  0  0  0  0  0  0  0
    1.5634    0.6234    5.7763 C   0  0  2  0  0  0  0  0  0  0  0  0
    0.9415   -0.6599    5.4047 O   0  0  0  0  0  0  0  0  0  0  0  0
    5.3476   -1.8294    2.7574 H   0  0  0  0  0  0  0  0  0  0  0  0
    6.2450   -0.4077    3.2638 H   0  0  0  0  0  0  0  0  0  0  0  0
    5.4993   -0.4550    1.6811 H   0  0  0  0  0  0  0  0  0  0  0  0
    4.2731    0.9450    3.0525 H   0  0  0  0  0  0  0  0  0  0  0  0
    4.8677   -0.7938    5.2041 H   0  0  0  0  0  0  0  0  0  0  0  0
    4.6984    0.8549    5.1187 H   0  0  0  0  0  0  0  0  0  0  0  0
    3.3550    0.0317    6.8196 H   0  0  0  0  0  0  0  0  0  0  0  0
    1.8689   -1.5109    7.0428 H   0  0  0  0  0  0  0  0  0  0  0  0
    2.8207   -3.3438    6.3623 H   0  0  0  0  0  0  0  0  0  0  0  0
    1.4130   -3.3911    5.3824 H   0  0  0  0  0  0  0  0  0  0  0  0
    4.2322   -2.6165    4.4450 H   0  0  0  0  0  0  0  0  0  0  0  0
    3.6262   -4.1921    4.4466 H   0  0  0  0  0  0  0  0  0  0  0  0
    3.5142   -3.1534    2.1834 H   0  0  0  0  0  0  0  0  0  0  0  0
    2.3002   -4.9081    2.8595 H   0  0  0  0  0  0  0  0  0  0  0  0
    1.4400   -1.8493    1.7023 H   0  0  0  0  0  0  0  0  0  0  0  0
    1.1695   -1.6065    3.3529 H   0  0  0  0  0  0  0  0  0  0  0  0
    3.2240   -0.5612    1.4818 H   0  0  0  0  0  0  0  0  0  0  0  0
    2.5258    1.6707    1.9666 H   0  0  0  0  0  0  0  0  0  0  0  0
    1.3505    0.6146    1.3417 H   0  0  0  0  0  0  0  0  0  0  0  0
    0.3624    2.0084    2.7805 H   0  0  0  0  0  0  0  0  0  0  0  0
    0.1198    0.4294    3.3969 H   0  0  0  0  0  0  0  0  0  0  0  0
   -1.1043    3.4266    3.0591 H   0  0  0  0  0  0  0  0  0  0  0  0
   -2.6992    3.4091    3.7514 H   0  0  0  0  0  0  0  0  0  0  0  0
   -1.8926    1.8633    3.4658 H   0  0  0  0  0  0  0  0  0  0  0  0
   -3.1709    2.7630    5.7988 H   0  0  0  0  0  0  0  0  0  0  0  0
   -2.2041    1.5256    6.4422 H   0  0  0  0  0  0  0  0  0  0  0  0
   -2.5693    4.4803    7.2720 H   0  0  0  0  0  0  0  0  0  0  0  0
   -3.0057    3.0885    8.1707 H   0  0  0  0  0  0  0  0  0  0  0  0
   -0.9237    2.8294    9.0882 H   0  0  0  0  0  0  0  0  0  0  0  0
   -1.2275    5.7981    8.7862 H   0  0  0  0  0  0  0  0  0  0  0  0
   -2.5331    3.9471   10.8141 H   0  0  0  0  0  0  0  0  0  0  0  0
   -3.3602    4.8736    9.5586 H   0  0  0  0  0  0  0  0  0  0  0  0
   -2.5584    5.7026   10.8717 H   0  0  0  0  0  0  0  0  0  0  0  0
    0.0322    6.2153   10.5988 H   0  0  0  0  0  0  0  0  0  0  0  0
   -0.1838    4.6638   11.3383 H   0  0  0  0  0  0  0  0  0  0  0  0
    2.1362    5.3878   10.3106 H   0  0  0  0  0  0  0  0  0  0  0  0
    1.6252    3.7379   10.2382 H   0  0  0  0  0  0  0  0  0  0  0  0
    1.2704    5.8031    8.0730 H   0  0  0  0  0  0  0  0  0  0  0  0
    3.5025    5.5166    8.3513 H   0  0  0  0  0  0  0  0  0  0  0  0
    3.5389    3.8235    8.5457 H   0  0  0  0  0  0  0  0  0  0  0  0
    5.2665    5.0645    5.4599 H   0  0  0  0  0  0  0  0  0  0  0  0
    5.5889    4.3648    7.0475 H   0  0  0  0  0  0  0  0  0  0  0  0
    4.9799    6.0177    6.8908 H   0  0  0  0  0  0  0  0  0  0  0  0
    4.3921    3.1726    5.2310 H   0  0  0  0  0  0  0  0  0  0  0  0
    3.6197    2.3671    6.4587 H   0  0  0  0  0  0  0  0  0  0  0  0
    3.0538    2.2965    4.0907 H   0  0  0  0  0  0  0  0  0  0  0  0
    3.3048    6.0004    4.3873 H   0  0  0  0  0  0  0  0  0  0  0  0
    2.3389    6.5467    3.0434 H   0  0  0  0  0  0  0  0  0  0  0  0
    1.4108    7.0918    5.4246 H   0  0  0  0  0  0  0  0  0  0  0  0
    0.2144    7.0882    3.4004 H   0  0  0  0  0  0  0  0  0  0  0  0
   -0.3272    5.6333    6.6646 H   0  0  0  0  0  0  0  0  0  0  0  0
    2.2578    2.4243    7.8248 H   0  0  0  0  0  0  0  0  0  0  0  0
    1.0491    2.1631    8.8591 H   0  0  0  0  0  0  0  0  0  0  0  0
    1.5296    0.3425    7.9569 H   0  0  0  0  0  0  0  0  0  0  0  0
   -0.8926    1.0337    6.9571 H   0  0  0  0  0  0  0  0  0  0  0  0
  1  2  1  0
  1 44  1  0
  1 45  1  0
  1 46  1  0
  2 11  1  0
  2  3  1  0
  2 47  1  6
  3  4  1  0
  3 48  1  0
  3 49  1  0
  4 42  1  0
  4  5  1  0
  4 50  1  1
  5 43  1  0
  5  6  1  0
  5 51  1  1
  6  7  1  0
  6 52  1  0
  6 53  1  0
  7  8  1  0
  7 54  1  0
  7 55  1  0
  8  9  1  0
  8 10  1  0
  8 56  1  6
  9 57  1  0
 10 11  1  0
 10 58  1  0
 10 59  1  0
 11 12  1  0
 11 60  1  6
 12 13  1  0
 12 61  1  0
 12 62  1  0
 14 13  1  6
 13 63  1  0
 13 64  1  0
 14 30  1  0
 14 42  1  0
 14 15  1  0
 15 16  1  0
 16 37  1  0
 16 17  1  6
 16 18  1  0
 17 65  1  0
 17 66  1  0
 17 67  1  0
 18 19  1  0
 18 68  1  0
 18 69  1  0
 19 20  1  0
 19 70  1  0
 19 71  1  0
 20 38  1  0
 20 21  1  0
 20 72  1  1
 21 22  1  0
 21 23  1  0
 21 73  1  6
 22 74  1  0
 22 75  1  0
 22 76  1  0
 23 24  1  0
 23 77  1  0
 23 78  1  0
 24 25  1  0
 24 79  1  0
 24 80  1  0
 25 38  1  0
 25 26  1  0
 25 81  1  6
 26 27  1  0
 26 82  1  0
 26 83  1  0
 27 28  1  0
 27 29  1  0
 28 84  1  0
 28 85  1  0
 28 86  1  0
 29 30  1  0
 29 87  1  0
 29 88  1  0
 30 31  1  0
 30 89  1  6
 31 32  1  0
 32 33  1  0
 32 90  1  0
 32 91  1  0
 33 34  1  0
 33 35  1  0
 33 92  1  1
 34 93  1  0
 35 36  1  0
 36 37  1  0
 36 38  1  0
 36 94  1  1
 38 39  1  6
 39 40  1  0
 39 95  1  0
 39 96  1  0
 40 41  1  0
 40 42  1  0
 40 97  1  1
 41 98  1  0
 42 43  1  6
M  END
>  <i_m_ct_stereo_status>  (166) 
1

>  <s_m_source_file>  (166) 
/var/tmp/pbs.5076255.sched01/tmpazi1eam_/42934yjxx2.sdf

>  <i_m_source_file_index>  (166) 
29

>  <i_lp_mmshare_version>  (166) 
48012

>  <i_f3d_flags>  (166) 
0

>  <s_epik_input>  (166) 
W0NIM11bQ0BIXShbQ0gyXTEpW0NIXShbQ0gyXVtDSDJdMilbQ0gyXVtDQEhdKFtPSF0pW0NIMl1bQ0gyXVtDQEhdKE8zKVtDQEBIXTFbQ0BdMyhbQ0BAXTI0NSlbQ0BIXShbT0hdKVtDSDJdW0NAQF02N1tDQEBIXThbQ0gyXVtDSDJdW0NAQF0oTzQpKFtDSDNdKU9bQ0BASF03T1tDQEhdKFtPSF0pW0NIMl1TW0NIXTVbQ0gyXU4oW0NIM10pW0NIMl1bQ0BASF02W0NIMl1bQ0gyXVtDQEBIXThbQ0gzXQ==

>  <s_epik_cmdline>  (166) 
J2VwaWtfcHl0aG9uJywgJy1waHQnLCAnMi4wJywgJy1waCcsICc3LjAnLCAnLXRuJywgJzgnLCAnLW1hJywgJzIwMCcsICctaW1hZScsICc8aW5maWxlLm1hZT4nLCAnLW9tYWUnLCAnPG91dGZpbGUubWFlPic=

>  <r_epik_Ionization_Penalty>  (166) 
2.12426

>  <r_epik_Ionization_Penalty_Charging>  (166) 
0

>  <r_epik_Ionization_Penalty_Neutral>  (166) 
2.12426

>  <r_epik_State_Penalty>  (166) 
2.26214

>  <r_epik_Charging_Adjusted_Penalty>  (166) 
2.26214

>  <i_epik_Tot_Q>  (166) 
0

>  <i_epik_Tot_abs_Q>  (166) 
0

>  <s_epik_Chemistry_Notes>  (166) 
This compound contains an acetal/aminal-like group ( X-CH(R)-Y where X, Y are N, S, or O) that may be acid/base labile, releasing an aldehyde.

>  <s_lp_Force_Field>  (166) 
OPLS3e

>  <r_lp_Energy>  (166) 
242.997

>  <b_lp_Chiralities_Consistent>  (166) 
1

>  <s_lp_Variant>  (166) 
45:0-4

>  <s_i_glide_gridfile>  (166) 
pfpi4k_grid

>  <i_i_glide_lignum>  (166) 
29

>  <i_i_glide_rotatable_bonds>  (166) 
3

>  <r_i_docking_score>  (166) 
-2.17242

>  <r_i_glide_ligand_efficiency>  (166) 
-0.0505214

>  <r_i_glide_ligand_efficiency_sa>  (166) 
-0.176997

>  <r_i_glide_ligand_efficiency_ln>  (166) 
-0.456276

>  <r_i_glide_gscore>  (166) 
-2.17242

>  <r_i_glide_lipo>  (166) 
-0.30061

>  <r_i_glide_hbond>  (166) 
0

>  <r_i_glide_metal>  (166) 
-0

>  <r_i_glide_rewards>  (166) 
0

>  <r_i_glide_evdw>  (166) 
-24.0908

>  <r_i_glide_ecoul>  (166) 
-4.17542

>  <r_i_glide_erotb>  (166) 
0

>  <r_i_glide_esite>  (166) 
-0.0409586

>  <r_i_glide_emodel>  (166) 
-31.4445

>  <r_i_glide_energy>  (166) 
-28.2662

>  <r_i_glide_einternal>  (166) 
2.21542

>  <r_i_glide_intrahb_reward>  (166) 
-0

>  <i_i_glide_confnum>  (166) 
2

>  <i_i_glide_posenum>  (166) 
23

>  <r_i_glide_eff_state_penalty>  (166) 
0

>  <ligand_id>  (166) 
45

>  <original_smiles>  (166) 
CC1CC2C3CCC(O)CC1CCC14OC5(C)CCC6C(C)CCC7CN(C)CC1SCC(O)OC(O5)C76CC(O)C24O3

>  <smiles>  (166) 
[H]OC1([H])OC2([H])OC3(C([H])([H])[H])OC45C([H])([H])C([H])([H])C6([H])C([H])([H])C([H])(O[H])C([H])([H])C([H])([H])C7([H])OC4(C([H])(O[H])C([H])([H])C24C([H])(C([H])([H])N(C([H])([H])[H])C([H])([H])C5([H])SC1([H])[H])C([H])([H])C([H])([H])C([H])(C([H])([H])[H])C4([H])C([H])([H])C3([H])[H])C7([H])C([H])([H])C6([H])C([H])([H])[H]

$$$$
45:3:2
     RDKit          3D

 98105  0  0  1  0  0  0  0  0999 V2000
    7.7816   -1.8958    0.3364 C   0  0  0  0  0  0  0  0  0  0  0  0
    6.5666   -2.5230    1.0546 C   0  0  2  0  0  0  0  0  0  0  0  0
    6.5097   -4.0600    0.8092 C   0  0  0  0  0  0  0  0  0  0  0  0
    5.2270   -4.9086    0.7513 C   0  0  2  0  0  0  0  0  0  0  0  0
    4.1788   -4.7554   -0.3585 C   0  0  2  0  0  0  0  0  0  0  0  0
    4.2890   -4.0251   -1.7246 C   0  0  0  0  0  0  0  0  0  0  0  0
    5.2746   -2.8730   -1.9737 C   0  0  0  0  0  0  0  0  0  0  0  0
    4.8329   -1.4849   -1.4949 C   0  0  1  0  0  0  0  0  0  0  0  0
    3.7972   -1.0539   -2.3584 O   0  0  0  0  0  0  0  0  0  0  0  0
    4.3084   -1.4284   -0.0586 C   0  0  0  0  0  0  0  0  0  0  0  0
    5.3321   -1.5680    1.0955 C   0  0  1  0  0  0  0  0  0  0  0  0
    4.6539   -1.5351    2.4742 C   0  0  0  0  0  0  0  0  0  0  0  0
    3.5845   -2.5949    2.8364 C   0  0  0  0  0  0  0  0  0  0  0  0
    3.8990   -4.1166    3.0716 C   0  0  2  0  0  0  0  0  0  0  0  0
    2.6479   -4.7331    3.4770 O   0  0  0  0  0  0  0  0  0  0  0  0
    1.7184   -4.6623    4.5312 C   0  0  1  0  0  0  0  0  0  0  0  0
    1.2227   -3.2258    4.7948 C   0  0  0  0  0  0  0  0  0  0  0  0
    0.5310   -5.5798    4.1215 C   0  0  0  0  0  0  0  0  0  0  0  0
    0.5338   -6.9902    4.7805 C   0  0  0  0  0  0  0  0  0  0  0  0
    1.7317   -7.9900    4.6152 C   0  0  2  0  0  0  0  0  0  0  0  0
    1.6210   -9.1637    5.6348 C   0  0  1  0  0  0  0  0  0  0  0  0
    0.2415   -9.8500    5.6396 C   0  0  0  0  0  0  0  0  0  0  0  0
    2.7276  -10.2307    5.5071 C   0  0  0  0  0  0  0  0  0  0  0  0
    4.0687   -9.7179    4.9732 C   0  0  0  0  0  0  0  0  0  0  0  0
    4.3190   -8.2287    5.2716 C   0  0  1  0  0  0  0  0  0  0  0  0
    5.8531   -7.9114    4.9364 C   0  0  0  0  0  0  0  0  0  0  0  0
    6.4228   -6.5344    5.0286 N   0  0  0  0  0  0  0  0  0  0  0  0
    7.8582   -6.6523    5.2996 C   0  0  0  0  0  0  0  0  0  0  0  0
    6.2094   -5.5514    3.9198 C   0  0  0  0  0  0  0  0  0  0  0  0
    5.1971   -4.3099    4.0122 C   0  0  2  0  0  0  0  0  0  0  0  0
    5.3277   -3.1669    5.4873 S   0  0  0  0  0  0  0  0  0  0  0  0
    5.6720   -4.1319    7.0094 C   0  0  0  0  0  0  0  0  0  0  0  0
    4.5046   -5.0610    7.3286 C   0  0  1  0  0  0  0  0  0  0  0  0
    3.4534   -4.2794    7.8467 O   0  0  0  0  0  0  0  0  0  0  0  0
    4.2791   -5.6378    6.0837 O   0  0  0  0  0  0  0  0  0  0  0  0
    3.0671   -6.1636    5.7793 C   0  0  1  0  0  0  0  0  0  0  0  0
    2.1179   -5.1479    5.7410 O   0  0  0  0  0  0  0  0  0  0  0  0
    3.1611   -7.3219    4.6313 C   0  0  2  0  0  0  0  0  0  0  0  0
    3.6971   -7.2328    3.0986 C   0  0  0  0  0  0  0  0  0  0  0  0
    3.3175   -6.3780    1.8508 C   0  0  1  0  0  0  0  0  0  0  0  0
    1.9459   -6.4997    1.5030 O   0  0  0  0  0  0  0  0  0  0  0  0
    3.9819   -4.9278    1.7086 C   0  0  2  0  0  0  0  0  0  0  0  0
    3.2222   -4.2782    0.6285 O   0  0  0  0  0  0  0  0  0  0  0  0
    7.6040   -1.7445   -0.7219 H   0  0  0  0  0  0  0  0  0  0  0  0
    8.6616   -2.5325    0.4229 H   0  0  0  0  0  0  0  0  0  0  0  0
    8.0452   -0.9343    0.7721 H   0  0  0  0  0  0  0  0  0  0  0  0
    6.9135   -2.4777    2.0801 H   0  0  0  0  0  0  0  0  0  0  0  0
    7.0813   -4.2811   -0.0911 H   0  0  0  0  0  0  0  0  0  0  0  0
    7.1660   -4.5027    1.5546 H   0  0  0  0  0  0  0  0  0  0  0  0
    5.5830   -5.9376    0.6572 H   0  0  0  0  0  0  0  0  0  0  0  0
    3.8918   -5.7685   -0.6436 H   0  0  0  0  0  0  0  0  0  0  0  0
    4.6395   -4.7665   -2.4428 H   0  0  0  0  0  0  0  0  0  0  0  0
    3.2951   -3.7590   -2.0926 H   0  0  0  0  0  0  0  0  0  0  0  0
    6.2617   -3.1409   -1.6263 H   0  0  0  0  0  0  0  0  0  0  0  0
    5.4237   -2.7978   -3.0516 H   0  0  0  0  0  0  0  0  0  0  0  0
    5.6545   -0.7799   -1.6186 H   0  0  0  0  0  0  0  0  0  0  0  0
    2.9729   -1.3939   -2.0406 H   0  0  0  0  0  0  0  0  0  0  0  0
    3.8397   -0.4535    0.0716 H   0  0  0  0  0  0  0  0  0  0  0  0
    3.4717   -2.0993    0.0516 H   0  0  0  0  0  0  0  0  0  0  0  0
    5.8094   -0.5865    1.0694 H   0  0  0  0  0  0  0  0  0  0  0  0
    5.4038   -1.4539    3.2594 H   0  0  0  0  0  0  0  0  0  0  0  0
    4.1412   -0.5747    2.5333 H   0  0  0  0  0  0  0  0  0  0  0  0
    3.2430   -2.1973    3.7789 H   0  0  0  0  0  0  0  0  0  0  0  0
    2.7286   -2.4857    2.1709 H   0  0  0  0  0  0  0  0  0  0  0  0
    1.9813   -2.6656    5.3347 H   0  0  0  0  0  0  0  0  0  0  0  0
    0.3531   -3.2613    5.4472 H   0  0  0  0  0  0  0  0  0  0  0  0
    0.9436   -2.7243    3.8675 H   0  0  0  0  0  0  0  0  0  0  0  0
   -0.3722   -5.1049    4.4947 H   0  0  0  0  0  0  0  0  0  0  0  0
    0.3882   -5.5845    3.0439 H   0  0  0  0  0  0  0  0  0  0  0  0
    0.3524   -6.8631    5.8460 H   0  0  0  0  0  0  0  0  0  0  0  0
   -0.3587   -7.4939    4.4092 H   0  0  0  0  0  0  0  0  0  0  0  0
    1.5726   -8.4569    3.6462 H   0  0  0  0  0  0  0  0  0  0  0  0
    1.7351   -8.7248    6.6241 H   0  0  0  0  0  0  0  0  0  0  0  0
    0.0179  -10.2739    4.6609 H   0  0  0  0  0  0  0  0  0  0  0  0
   -0.5710   -9.1806    5.9165 H   0  0  0  0  0  0  0  0  0  0  0  0
    0.2254  -10.6623    6.3612 H   0  0  0  0  0  0  0  0  0  0  0  0
    2.8810  -10.6542    6.4990 H   0  0  0  0  0  0  0  0  0  0  0  0
    2.3848  -11.0643    4.8981 H   0  0  0  0  0  0  0  0  0  0  0  0
    4.8596  -10.3229    5.4126 H   0  0  0  0  0  0  0  0  0  0  0  0
    4.1274   -9.9104    3.9049 H   0  0  0  0  0  0  0  0  0  0  0  0
    4.2536   -8.1657    6.3602 H   0  0  0  0  0  0  0  0  0  0  0  0
    6.3912   -8.5029    5.6804 H   0  0  0  0  0  0  0  0  0  0  0  0
    6.1647   -8.3662    3.9950 H   0  0  0  0  0  0  0  0  0  0  0  0
    8.3051   -5.6767    5.4823 H   0  0  0  0  0  0  0  0  0  0  0  0
    8.3863   -7.1150    4.4655 H   0  0  0  0  0  0  0  0  0  0  0  0
    8.0423   -7.2455    6.1944 H   0  0  0  0  0  0  0  0  0  0  0  0
    7.1687   -5.0684    3.8302 H   0  0  0  0  0  0  0  0  0  0  0  0
    6.1935   -6.0484    2.9520 H   0  0  0  0  0  0  0  0  0  0  0  0
    5.8230   -3.6815    3.4002 H   0  0  0  0  0  0  0  0  0  0  0  0
    6.5874   -4.7009    6.8934 H   0  0  0  0  0  0  0  0  0  0  0  0
    5.8359   -3.4537    7.8441 H   0  0  0  0  0  0  0  0  0  0  0  0
    4.7647   -5.8110    8.0770 H   0  0  0  0  0  0  0  0  0  0  0  0
    3.2791   -3.6089    7.2006 H   0  0  0  0  0  0  0  0  0  0  0  0
    2.7620   -6.6609    6.7011 H   0  0  0  0  0  0  0  0  0  0  0  0
    4.7481   -7.3216    2.9685 H   0  0  0  0  0  0  0  0  0  0  0  0
    3.4419   -8.2216    2.7212 H   0  0  0  0  0  0  0  0  0  0  0  0
    3.7287   -6.9994    1.0522 H   0  0  0  0  0  0  0  0  0  0  0  0
    1.7281   -7.4137    1.4950 H   0  0  0  0  0  0  0  0  0  0  0  0
  1  2  1  0
  1 44  1  0
  1 45  1  0
  1 46  1  0
  2 11  1  0
  2  3  1  0
  2 47  1  1
  3  4  1  0
  3 48  1  0
  3 49  1  0
  4 42  1  0
  4  5  1  0
  4 50  1  6
  5 43  1  0
  5  6  1  0
  5 51  1  6
  6  7  1  0
  6 52  1  0
  6 53  1  0
  7  8  1  0
  7 54  1  0
  7 55  1  0
  8  9  1  0
  8 10  1  0
  8 56  1  1
  9 57  1  0
 10 11  1  0
 10 58  1  0
 10 59  1  0
 11 12  1  0
 11 60  1  1
 12 13  1  0
 12 61  1  0
 12 62  1  0
 14 13  1  6
 13 63  1  0
 13 64  1  0
 14 30  1  0
 14 42  1  0
 14 15  1  0
 15 16  1  0
 16 37  1  0
 16 17  1  1
 16 18  1  0
 17 65  1  0
 17 66  1  0
 17 67  1  0
 18 19  1  0
 18 68  1  0
 18 69  1  0
 19 20  1  0
 19 70  1  0
 19 71  1  0
 20 38  1  0
 20 21  1  0
 20 72  1  6
 21 22  1  0
 21 23  1  0
 21 73  1  1
 22 74  1  0
 22 75  1  0
 22 76  1  0
 23 24  1  0
 23 77  1  0
 23 78  1  0
 24 25  1  0
 24 79  1  0
 24 80  1  0
 25 38  1  0
 25 26  1  0
 25 81  1  1
 26 27  1  0
 26 82  1  0
 26 83  1  0
 27 28  1  0
 27 29  1  0
 28 84  1  0
 28 85  1  0
 28 86  1  0
 29 30  1  0
 29 87  1  0
 29 88  1  0
 30 31  1  0
 30 89  1  6
 31 32  1  0
 32 33  1  0
 32 90  1  0
 32 91  1  0
 33 34  1  0
 33 35  1  0
 33 92  1  1
 34 93  1  0
 35 36  1  0
 36 37  1  0
 36 38  1  0
 36 94  1  1
 38 39  1  6
 39 40  1  0
 39 95  1  0
 39 96  1  0
 40 41  1  0
 40 42  1  0
 40 97  1  6
 41 98  1  0
 42 43  1  6
M  END
>  <i_m_ct_stereo_status>  (167) 
1

>  <s_m_source_file>  (167) 
/var/tmp/pbs.5076255.sched01/tmpazi1eam_/42934yjxx2.sdf

>  <i_m_source_file_index>  (167) 
29

>  <i_lp_mmshare_version>  (167) 
48012

>  <i_f3d_flags>  (167) 
0

>  <s_epik_input>  (167) 
W0NIM11bQ0BIXShbQ0gyXTEpW0NIXShbQ0gyXVtDSDJdMilbQ0gyXVtDQEhdKFtPSF0pW0NIMl1bQ0gyXVtDQEhdKE8zKVtDQEBIXTFbQ0BdMyhbQ0BAXTI0NSlbQ0BIXShbT0hdKVtDSDJdW0NAQF02N1tDQEBIXThbQ0gyXVtDSDJdW0NAQF0oTzQpKFtDSDNdKU9bQ0BASF03T1tDQEhdKFtPSF0pW0NIMl1TW0NIXTVbQ0gyXU4oW0NIM10pW0NIMl1bQ0BASF02W0NIMl1bQ0gyXVtDQEBIXThbQ0gzXQ==

>  <s_epik_cmdline>  (167) 
J2VwaWtfcHl0aG9uJywgJy1waHQnLCAnMi4wJywgJy1waCcsICc3LjAnLCAnLXRuJywgJzgnLCAnLW1hJywgJzIwMCcsICctaW1hZScsICc8aW5maWxlLm1hZT4nLCAnLW9tYWUnLCAnPG91dGZpbGUubWFlPic=

>  <r_epik_Ionization_Penalty>  (167) 
2.12426

>  <r_epik_Ionization_Penalty_Charging>  (167) 
0

>  <r_epik_Ionization_Penalty_Neutral>  (167) 
2.12426

>  <r_epik_State_Penalty>  (167) 
2.26214

>  <r_epik_Charging_Adjusted_Penalty>  (167) 
2.26214

>  <i_epik_Tot_Q>  (167) 
0

>  <i_epik_Tot_abs_Q>  (167) 
0

>  <s_epik_Chemistry_Notes>  (167) 
This compound contains an acetal/aminal-like group ( X-CH(R)-Y where X, Y are N, S, or O) that may be acid/base labile, releasing an aldehyde.

>  <s_lp_Force_Field>  (167) 
OPLS3e

>  <r_lp_Energy>  (167) 
242.997

>  <b_lp_Chiralities_Consistent>  (167) 
1

>  <s_lp_Variant>  (167) 
45:0-4

>  <s_i_glide_gridfile>  (167) 
pfpi4k_grid

>  <i_i_glide_lignum>  (167) 
29

>  <i_i_glide_rotatable_bonds>  (167) 
3

>  <r_i_docking_score>  (167) 
-2.15056

>  <r_i_glide_ligand_efficiency>  (167) 
-0.050013

>  <r_i_glide_ligand_efficiency_sa>  (167) 
-0.175215

>  <r_i_glide_ligand_efficiency_ln>  (167) 
-0.451684

>  <r_i_glide_gscore>  (167) 
-2.15056

>  <r_i_glide_lipo>  (167) 
-0.572415

>  <r_i_glide_hbond>  (167) 
0

>  <r_i_glide_metal>  (167) 
-0

>  <r_i_glide_rewards>  (167) 
0

>  <r_i_glide_evdw>  (167) 
-24.7289

>  <r_i_glide_ecoul>  (167) 
-2.27736

>  <r_i_glide_erotb>  (167) 
0

>  <r_i_glide_esite>  (167) 
-9.14519e-05

>  <r_i_glide_emodel>  (167) 
-30.6202

>  <r_i_glide_energy>  (167) 
-27.0063

>  <r_i_glide_einternal>  (167) 
0.766873

>  <r_i_glide_intrahb_reward>  (167) 
-0

>  <i_i_glide_confnum>  (167) 
2

>  <i_i_glide_posenum>  (167) 
19

>  <r_i_glide_eff_state_penalty>  (167) 
0

>  <ligand_id>  (167) 
45

>  <original_smiles>  (167) 
CC1CC2C3CCC(O)CC1CCC14OC5(C)CCC6C(C)CCC7CN(C)CC1SCC(O)OC(O5)C76CC(O)C24O3

>  <smiles>  (167) 
[H]OC1([H])OC2([H])OC3(C([H])([H])[H])OC45C([H])([H])C([H])([H])C6([H])C([H])([H])C([H])(O[H])C([H])([H])C([H])([H])C7([H])OC4(C([H])(O[H])C([H])([H])C24C([H])(C([H])([H])N(C([H])([H])[H])C([H])([H])C5([H])SC1([H])[H])C([H])([H])C([H])([H])C([H])(C([H])([H])[H])C4([H])C([H])([H])C3([H])[H])C7([H])C([H])([H])C6([H])C([H])([H])[H]

$$$$
47:0:0
     RDKit          3D

 12 13  0  0  1  0  0  0  0  0999 V2000
    2.7065   -2.7497   -3.5156 C   0  0  0  0  0  0  0  0  0  0  0  0
    3.9794   -2.7278   -3.9289 N   0  0  0  0  0  0  0  0  0  0  0  0
    4.9151   -3.0697   -3.0253 C   0  0  0  0  0  0  0  0  0  0  0  0
    4.5352   -3.4006   -1.7197 C   0  0  0  0  0  0  0  0  0  0  0  0
    5.4876   -3.8779   -0.3205 S   0  0  0  0  0  0  0  0  0  0  0  0
    3.9662   -4.0084    0.5717 C   0  0  0  0  0  0  0  0  0  0  0  0
    2.8363   -3.7305   -0.0904 N   0  0  0  0  0  0  0  0  0  0  0  0
    3.1455   -3.3800   -1.4037 C   0  0  0  0  0  0  0  0  0  0  0  0
    2.2177   -3.0591   -2.3118 N   0  0  0  0  0  0  0  0  0  0  0  0
    1.9665   -2.4780   -4.2519 H   0  0  0  0  0  0  0  0  0  0  0  0
    5.9494   -3.0655   -3.3365 H   0  0  0  0  0  0  0  0  0  0  0  0
    3.9077   -4.2981    1.6126 H   0  0  0  0  0  0  0  0  0  0  0  0
  1  9  2  0
  1  2  1  0
  1 10  1  0
  2  3  2  0
  3  4  1  0
  3 11  1  0
  4  8  2  0
  4  5  1  0
  5  6  1  0
  6  7  2  0
  6 12  1  0
  7  8  1  0
  8  9  1  0
M  END
>  <i_m_ct_stereo_status>  (168) 
1

>  <s_m_source_file>  (168) 
/var/tmp/pbs.5076255.sched01/tmpazi1eam_/42934yjxx2.sdf

>  <i_m_source_file_index>  (168) 
31

>  <i_lp_mmshare_version>  (168) 
48012

>  <i_f3d_flags>  (168) 
0

>  <s_epik_input>  (168) 
W2NIXTFuW2NIXW5jKGMxMiluW2NIXXMy

>  <s_epik_cmdline>  (168) 
J2VwaWtfcHl0aG9uJywgJy1waHQnLCAnMi4wJywgJy1waCcsICc3LjAnLCAnLXRuJywgJzgnLCAnLW1hJywgJzIwMCcsICctaW1hZScsICc8aW5maWxlLm1hZT4nLCAnLW9tYWUnLCAnPG91dGZpbGUubWFlPic=

>  <r_lp_tautomer_probability>  (168) 
1

>  <r_epik_Ionization_Penalty>  (168) 
1.84118e-08

>  <r_epik_Ionization_Penalty_Charging>  (168) 
0

>  <r_epik_Ionization_Penalty_Neutral>  (168) 
1.84118e-08

>  <r_epik_State_Penalty>  (168) 
-0

>  <r_epik_Charging_Adjusted_Penalty>  (168) 
0

>  <i_epik_Tot_Q>  (168) 
0

>  <i_epik_Tot_abs_Q>  (168) 
0

>  <s_lp_Force_Field>  (168) 
OPLS3e

>  <r_lp_Energy>  (168) 
8.14723

>  <b_lp_Chiralities_Consistent>  (168) 
1

>  <s_lp_Variant>  (168) 
47:0-1

>  <s_i_glide_gridfile>  (168) 
pfpi4k_grid

>  <i_i_glide_lignum>  (168) 
31

>  <i_i_glide_rotatable_bonds>  (168) 
0

>  <r_i_docking_score>  (168) 
-4.14627

>  <r_i_glide_ligand_efficiency>  (168) 
-0.460696

>  <r_i_glide_ligand_efficiency_sa>  (168) 
-0.958287

>  <r_i_glide_ligand_efficiency_ln>  (168) 
-1.29683

>  <r_i_glide_gscore>  (168) 
-4.14627

>  <r_i_glide_lipo>  (168) 
-0.241905

>  <r_i_glide_hbond>  (168) 
-0.147576

>  <r_i_glide_metal>  (168) 
-0

>  <r_i_glide_rewards>  (168) 
-2.70613

>  <r_i_glide_evdw>  (168) 
-17.237

>  <r_i_glide_ecoul>  (168) 
-1.25868

>  <r_i_glide_erotb>  (168) 
0

>  <r_i_glide_esite>  (168) 
0

>  <r_i_glide_emodel>  (168) 
-24.884

>  <r_i_glide_energy>  (168) 
-18.4956

>  <r_i_glide_einternal>  (168) 
0

>  <r_i_glide_intrahb_reward>  (168) 
-0

>  <i_i_glide_confnum>  (168) 
2

>  <i_i_glide_posenum>  (168) 
29

>  <r_i_glide_eff_state_penalty>  (168) 
0

>  <ligand_id>  (168) 
47

>  <original_smiles>  (168) 
c1ncc2scnc2n1

>  <smiles>  (168) 
[H]c1nc([H])c2sc([H])nc2n1

$$$$
47:0:1
     RDKit          3D

 12 13  0  0  1  0  0  0  0  0999 V2000
    1.9368   -6.2640    1.1015 C   0  0  0  0  0  0  0  0  0  0  0  0
    2.8548   -7.1913    1.3788 N   0  0  0  0  0  0  0  0  0  0  0  0
    2.4427   -8.2929    2.0343 C   0  0  0  0  0  0  0  0  0  0  0  0
    1.0995   -8.4020    2.4125 C   0  0  0  0  0  0  0  0  0  0  0  0
    0.2332   -9.6674    3.2730 S   0  0  0  0  0  0  0  0  0  0  0  0
   -1.2211   -8.6772    3.1145 C   0  0  0  0  0  0  0  0  0  0  0  0
   -1.1048   -7.5044    2.4803 N   0  0  0  0  0  0  0  0  0  0  0  0
    0.2138   -7.3435    2.0582 C   0  0  0  0  0  0  0  0  0  0  0  0
    0.6259   -6.2610    1.3842 N   0  0  0  0  0  0  0  0  0  0  0  0
    2.2973   -5.4025    0.5639 H   0  0  0  0  0  0  0  0  0  0  0  0
    3.1708   -9.0605    2.2558 H   0  0  0  0  0  0  0  0  0  0  0  0
   -2.1821   -8.9828    3.5042 H   0  0  0  0  0  0  0  0  0  0  0  0
  1  9  2  0
  1  2  1  0
  1 10  1  0
  2  3  2  0
  3  4  1  0
  3 11  1  0
  4  8  2  0
  4  5  1  0
  5  6  1  0
  6  7  2  0
  6 12  1  0
  7  8  1  0
  8  9  1  0
M  END
>  <i_m_ct_stereo_status>  (169) 
1

>  <s_m_source_file>  (169) 
/var/tmp/pbs.5076255.sched01/tmpazi1eam_/42934yjxx2.sdf

>  <i_m_source_file_index>  (169) 
31

>  <i_lp_mmshare_version>  (169) 
48012

>  <i_f3d_flags>  (169) 
0

>  <s_epik_input>  (169) 
W2NIXTFuW2NIXW5jKGMxMiluW2NIXXMy

>  <s_epik_cmdline>  (169) 
J2VwaWtfcHl0aG9uJywgJy1waHQnLCAnMi4wJywgJy1waCcsICc3LjAnLCAnLXRuJywgJzgnLCAnLW1hJywgJzIwMCcsICctaW1hZScsICc8aW5maWxlLm1hZT4nLCAnLW9tYWUnLCAnPG91dGZpbGUubWFlPic=

>  <r_lp_tautomer_probability>  (169) 
1

>  <r_epik_Ionization_Penalty>  (169) 
1.84118e-08

>  <r_epik_Ionization_Penalty_Charging>  (169) 
0

>  <r_epik_Ionization_Penalty_Neutral>  (169) 
1.84118e-08

>  <r_epik_State_Penalty>  (169) 
-0

>  <r_epik_Charging_Adjusted_Penalty>  (169) 
0

>  <i_epik_Tot_Q>  (169) 
0

>  <i_epik_Tot_abs_Q>  (169) 
0

>  <s_lp_Force_Field>  (169) 
OPLS3e

>  <r_lp_Energy>  (169) 
8.14723

>  <b_lp_Chiralities_Consistent>  (169) 
1

>  <s_lp_Variant>  (169) 
47:0-1

>  <s_i_glide_gridfile>  (169) 
pfpi4k_grid

>  <i_i_glide_lignum>  (169) 
31

>  <i_i_glide_rotatable_bonds>  (169) 
0

>  <r_i_docking_score>  (169) 
-4.1256

>  <r_i_glide_ligand_efficiency>  (169) 
-0.4584

>  <r_i_glide_ligand_efficiency_sa>  (169) 
-0.953511

>  <r_i_glide_ligand_efficiency_ln>  (169) 
-1.29037

>  <r_i_glide_gscore>  (169) 
-4.1256

>  <r_i_glide_lipo>  (169) 
0

>  <r_i_glide_hbond>  (169) 
-0.195881

>  <r_i_glide_metal>  (169) 
-0

>  <r_i_glide_rewards>  (169) 
-2.25

>  <r_i_glide_evdw>  (169) 
-15.1101

>  <r_i_glide_ecoul>  (169) 
-5.43942

>  <r_i_glide_erotb>  (169) 
0

>  <r_i_glide_esite>  (169) 
-0.108303

>  <r_i_glide_emodel>  (169) 
-26.9048

>  <r_i_glide_energy>  (169) 
-20.5495

>  <r_i_glide_einternal>  (169) 
0

>  <r_i_glide_intrahb_reward>  (169) 
-0

>  <i_i_glide_confnum>  (169) 
2

>  <i_i_glide_posenum>  (169) 
27

>  <r_i_glide_eff_state_penalty>  (169) 
0

>  <ligand_id>  (169) 
47

>  <original_smiles>  (169) 
c1ncc2scnc2n1

>  <smiles>  (169) 
[H]c1nc([H])c2sc([H])nc2n1

$$$$
47:0:2
     RDKit          3D

 12 13  0  0  1  0  0  0  0  0999 V2000
   -0.1442   -6.3503    5.5231 C   0  0  0  0  0  0  0  0  0  0  0  0
    0.8955   -7.0401    5.9910 N   0  0  0  0  0  0  0  0  0  0  0  0
    1.1675   -8.2167    5.3950 C   0  0  0  0  0  0  0  0  0  0  0  0
    0.3687   -8.6463    4.3272 C   0  0  0  0  0  0  0  0  0  0  0  0
    0.4534  -10.0802    3.3195 S   0  0  0  0  0  0  0  0  0  0  0  0
   -0.9751   -9.4702    2.4814 C   0  0  0  0  0  0  0  0  0  0  0  0
   -1.4786   -8.2948    2.8664 N   0  0  0  0  0  0  0  0  0  0  0  0
   -0.7222   -7.8224    3.9340 C   0  0  0  0  0  0  0  0  0  0  0  0
   -0.9880   -6.6581    4.5325 N   0  0  0  0  0  0  0  0  0  0  0  0
   -0.3348   -5.4132    6.0206 H   0  0  0  0  0  0  0  0  0  0  0  0
    2.0117   -8.7890    5.7526 H   0  0  0  0  0  0  0  0  0  0  0  0
   -1.4505  -10.0038    1.6726 H   0  0  0  0  0  0  0  0  0  0  0  0
  1  9  2  0
  1  2  1  0
  1 10  1  0
  2  3  2  0
  3  4  1  0
  3 11  1  0
  4  8  2  0
  4  5  1  0
  5  6  1  0
  6  7  2  0
  6 12  1  0
  7  8  1  0
  8  9  1  0
M  END
>  <i_m_ct_stereo_status>  (170) 
1

>  <s_m_source_file>  (170) 
/var/tmp/pbs.5076255.sched01/tmpazi1eam_/42934yjxx2.sdf

>  <i_m_source_file_index>  (170) 
31

>  <i_lp_mmshare_version>  (170) 
48012

>  <i_f3d_flags>  (170) 
0

>  <s_epik_input>  (170) 
W2NIXTFuW2NIXW5jKGMxMiluW2NIXXMy

>  <s_epik_cmdline>  (170) 
J2VwaWtfcHl0aG9uJywgJy1waHQnLCAnMi4wJywgJy1waCcsICc3LjAnLCAnLXRuJywgJzgnLCAnLW1hJywgJzIwMCcsICctaW1hZScsICc8aW5maWxlLm1hZT4nLCAnLW9tYWUnLCAnPG91dGZpbGUubWFlPic=

>  <r_lp_tautomer_probability>  (170) 
1

>  <r_epik_Ionization_Penalty>  (170) 
1.84118e-08

>  <r_epik_Ionization_Penalty_Charging>  (170) 
0

>  <r_epik_Ionization_Penalty_Neutral>  (170) 
1.84118e-08

>  <r_epik_State_Penalty>  (170) 
-0

>  <r_epik_Charging_Adjusted_Penalty>  (170) 
0

>  <i_epik_Tot_Q>  (170) 
0

>  <i_epik_Tot_abs_Q>  (170) 
0

>  <s_lp_Force_Field>  (170) 
OPLS3e

>  <r_lp_Energy>  (170) 
8.14723

>  <b_lp_Chiralities_Consistent>  (170) 
1

>  <s_lp_Variant>  (170) 
47:0-1

>  <s_i_glide_gridfile>  (170) 
pfpi4k_grid

>  <i_i_glide_lignum>  (170) 
31

>  <i_i_glide_rotatable_bonds>  (170) 
0

>  <r_i_docking_score>  (170) 
-3.57694

>  <r_i_glide_ligand_efficiency>  (170) 
-0.397437

>  <r_i_glide_ligand_efficiency_sa>  (170) 
-0.826703

>  <r_i_glide_ligand_efficiency_ln>  (170) 
-1.11876

>  <r_i_glide_gscore>  (170) 
-3.57694

>  <r_i_glide_lipo>  (170) 
-0.190973

>  <r_i_glide_hbond>  (170) 
0

>  <r_i_glide_metal>  (170) 
-0

>  <r_i_glide_rewards>  (170) 
-2.25

>  <r_i_glide_evdw>  (170) 
-14.6708

>  <r_i_glide_ecoul>  (170) 
-2.21352

>  <r_i_glide_erotb>  (170) 
0

>  <r_i_glide_esite>  (170) 
-0.0703983

>  <r_i_glide_emodel>  (170) 
-22.3913

>  <r_i_glide_energy>  (170) 
-16.8843

>  <r_i_glide_einternal>  (170) 
0

>  <r_i_glide_intrahb_reward>  (170) 
-0

>  <i_i_glide_confnum>  (170) 
1

>  <i_i_glide_posenum>  (170) 
20

>  <r_i_glide_eff_state_penalty>  (170) 
0

>  <ligand_id>  (170) 
47

>  <original_smiles>  (170) 
c1ncc2scnc2n1

>  <smiles>  (170) 
[H]c1nc([H])c2sc([H])nc2n1

$$$$
48:0:0
     RDKit          3D

 52 57  0  0  1  0  0  0  0  0999 V2000
    2.5172  -10.6726    4.4081 C   0  0  0  0  0  0  0  0  0  0  0  0
    1.4781   -9.6075    4.0193 C   0  0  2  0  0  0  0  0  0  0  0  0
    0.2495  -10.2967    3.2814 C   0  0  0  0  0  0  0  0  0  0  0  0
   -0.9902   -9.4778    2.6673 C   0  0  0  0  0  0  0  0  0  0  0  0
   -0.9735   -7.9100    2.6885 C   0  0  2  0  0  0  0  0  0  0  0  0
   -0.9070   -7.4866    4.1558 C   0  0  0  0  0  0  0  0  0  0  0  0
    0.3944   -6.7319    4.4506 C   0  0  2  0  0  0  0  0  0  0  0  0
    0.7968   -6.8722    5.8335 N   0  0  0  0  0  0  0  0  0  0  0  0
    0.6062   -5.6634    6.4496 C   0  0  0  0  0  0  0  0  0  0  0  0
    0.8732   -5.4055    7.9047 C   0  0  0  0  0  0  0  0  0  0  0  0
    1.7419   -6.2364    8.6580 C   0  0  0  0  0  0  0  0  0  0  0  0
    2.0032   -6.0027    9.9653 N   0  0  0  0  0  0  0  0  0  0  0  0
    1.4043   -4.9289   10.5237 C   0  0  0  0  0  0  0  0  0  0  0  0
    0.5472   -4.0934    9.7769 C   0  0  0  0  0  0  0  0  0  0  0  0
    0.2737   -4.3258    8.4739 N   0  0  0  0  0  0  0  0  0  0  0  0
    0.1298   -4.7705    5.6517 N   0  0  0  0  0  0  0  0  0  0  0  0
    0.0434   -5.3516    4.3568 O   0  0  0  0  0  0  0  0  0  0  0  0
    1.5321   -7.0147    3.4045 C   0  0  1  0  0  0  0  0  0  0  0  0
    2.5170   -6.0988    3.9475 O   0  0  0  0  0  0  0  0  0  0  0  0
    3.4427   -5.4391    2.9400 O   0  0  0  0  0  0  0  0  0  0  0  0
    3.1313   -5.8459    1.6416 C   0  0  1  0  0  0  0  0  0  0  0  0
    3.8433   -4.8780    0.6803 C   0  0  0  0  0  0  0  0  0  0  0  0
    3.7603   -7.3017    1.5544 C   0  0  0  0  0  0  0  0  0  0  0  0
    3.5896   -8.2893    2.7775 C   0  0  0  0  0  0  0  0  0  0  0  0
    2.1109   -8.4497    3.1818 C   0  0  1  0  0  0  0  0  0  0  0  0
    1.7132   -5.6389    1.3981 O   0  0  0  0  0  0  0  0  0  0  0  0
    1.0105   -6.6690    1.9665 C   0  0  2  0  0  0  0  0  0  0  0  0
   -0.4181   -6.8007    1.8782 O   0  0  0  0  0  0  0  0  0  0  0  0
    2.9340  -11.1704    3.5320 H   0  0  0  0  0  0  0  0  0  0  0  0
    2.0699  -11.4420    5.0401 H   0  0  0  0  0  0  0  0  0  0  0  0
    3.3396  -10.2337    4.9740 H   0  0  0  0  0  0  0  0  0  0  0  0
    1.1192   -9.2343    4.9726 H   0  0  0  0  0  0  0  0  0  0  0  0
    0.6520  -10.9128    2.4749 H   0  0  0  0  0  0  0  0  0  0  0  0
   -0.1684  -11.0234    3.9794 H   0  0  0  0  0  0  0  0  0  0  0  0
   -1.2324   -9.8841    1.6820 H   0  0  0  0  0  0  0  0  0  0  0  0
   -1.8621   -9.7817    3.2467 H   0  0  0  0  0  0  0  0  0  0  0  0
   -0.1495   -8.3913    2.2382 H   0  0  0  0  0  0  0  0  0  0  0  0
   -1.7782   -6.8702    4.3727 H   0  0  0  0  0  0  0  0  0  0  0  0
   -1.0095   -8.3501    4.8141 H   0  0  0  0  0  0  0  0  0  0  0  0
    1.4554   -7.5891    6.0975 H   0  0  0  0  0  0  0  0  0  0  0  0
    2.2395   -7.0939    8.2206 H   0  0  0  0  0  0  0  0  0  0  0  0
    1.6066   -4.7354   11.5680 H   0  0  0  0  0  0  0  0  0  0  0  0
    0.0766   -3.2364   10.2341 H   0  0  0  0  0  0  0  0  0  0  0  0
    3.4652   -3.8656    0.8063 H   0  0  0  0  0  0  0  0  0  0  0  0
    3.6895   -5.1569   -0.3614 H   0  0  0  0  0  0  0  0  0  0  0  0
    4.9170   -4.8471    0.8597 H   0  0  0  0  0  0  0  0  0  0  0  0
    3.4274   -7.7841    0.6395 H   0  0  0  0  0  0  0  0  0  0  0  0
    4.8346   -7.1907    1.4097 H   0  0  0  0  0  0  0  0  0  0  0  0
    3.9759   -9.2594    2.4701 H   0  0  0  0  0  0  0  0  0  0  0  0
    4.2020   -7.9729    3.6231 H   0  0  0  0  0  0  0  0  0  0  0  0
    1.8402   -8.8964    2.2315 H   0  0  0  0  0  0  0  0  0  0  0  0
    1.2666   -7.3784    1.1766 H   0  0  0  0  0  0  0  0  0  0  0  0
  1  2  1  0
  1 29  1  0
  1 30  1  0
  1 31  1  0
  2 25  1  0
  2  3  1  0
  2 32  1  1
  3  4  1  0
  3 33  1  0
  3 34  1  0
  4  5  1  0
  4 35  1  0
  4 36  1  0
  5 28  1  0
  5  6  1  0
  5 37  1  6
  6  7  1  0
  6 38  1  0
  6 39  1  0
  7 17  1  1
  7  8  1  0
  7 18  1  0
  8  9  1  0
  8 40  1  0
  9 10  1  0
  9 16  2  0
 10 15  1  0
 10 11  2  0
 11 12  1  0
 11 41  1  0
 12 13  2  0
 13 14  1  0
 13 42  1  0
 14 15  2  0
 14 43  1  0
 16 17  1  0
 18 25  1  0
 18 27  1  0
 18 19  1  1
 19 20  1  0
 20 21  1  0
 21 22  1  6
 21 23  1  0
 21 26  1  0
 22 44  1  0
 22 45  1  0
 22 46  1  0
 23 24  1  0
 23 47  1  0
 23 48  1  0
 24 25  1  0
 24 49  1  0
 24 50  1  0
 25 51  1  6
 26 27  1  0
 27 28  1  0
 27 52  1  6
M  END
>  <i_m_ct_stereo_status>  (171) 
1

>  <s_m_source_file>  (171) 
/var/tmp/pbs.5076255.sched01/tmpazi1eam_/42934yjxx2.sdf

>  <i_m_source_file_index>  (171) 
32

>  <i_lp_mmshare_version>  (171) 
48012

>  <i_f3d_flags>  (171) 
0

>  <s_epik_input>  (171) 
TzFPW0NAQF0oW0NIM10pKFtDSDJdW0NIMl0yKU9bQ0BASF0zT1tDQEBIXShbQ0gyXTQpW0NIMl1bQ0gyXVtDQEBIXShbQ0gzXSlbQ0BIXTJbQ0BAXTEzW0NAXTQ1W05IXUMoPU5PNSljNltjSF1uW2NIXVtjSF1uNg==

>  <s_epik_cmdline>  (171) 
J2VwaWtfcHl0aG9uJywgJy1waHQnLCAnMi4wJywgJy1waCcsICc3LjAnLCAnLXRuJywgJzgnLCAnLW1hJywgJzIwMCcsICctaW1hZScsICc8aW5maWxlLm1hZT4nLCAnLW9tYWUnLCAnPG91dGZpbGUubWFlPic=

>  <r_epik_Ionization_Penalty>  (171) 
0.00147408

>  <r_epik_Ionization_Penalty_Charging>  (171) 
0

>  <r_epik_Ionization_Penalty_Neutral>  (171) 
0.00147408

>  <r_epik_State_Penalty>  (171) 
0.00092124

>  <r_epik_Charging_Adjusted_Penalty>  (171) 
0.00092124

>  <i_epik_Tot_Q>  (171) 
0

>  <i_epik_Tot_abs_Q>  (171) 
0

>  <s_epik_Chemistry_Notes>  (171) 
This compound has an imine and may undergo hydrolysis. This compound contains an acetal/aminal-like group ( X-CH(R)-Y where X, Y are N, S, or O) that may be acid/base labile, releasing an aldehyde.

>  <s_lp_Force_Field>  (171) 
OPLS3e

>  <r_lp_Energy>  (171) 
151.311

>  <b_lp_Chiralities_Consistent>  (171) 
1

>  <s_lp_Variant>  (171) 
48:0-1

>  <s_i_glide_gridfile>  (171) 
pfpi4k_grid

>  <i_i_glide_lignum>  (171) 
32

>  <i_i_glide_rotatable_bonds>  (171) 
1

>  <r_i_docking_score>  (171) 
-3.03332

>  <r_i_glide_ligand_efficiency>  (171) 
-0.108333

>  <r_i_glide_ligand_efficiency_sa>  (171) 
-0.328962

>  <r_i_glide_ligand_efficiency_ln>  (171) 
-0.700179

>  <r_i_glide_gscore>  (171) 
-3.03332

>  <r_i_glide_lipo>  (171) 
-0.167831

>  <r_i_glide_hbond>  (171) 
-0.240833

>  <r_i_glide_metal>  (171) 
-0

>  <r_i_glide_rewards>  (171) 
-0.788983

>  <r_i_glide_evdw>  (171) 
-26.0844

>  <r_i_glide_ecoul>  (171) 
-3.61286

>  <r_i_glide_erotb>  (171) 
0.129144

>  <r_i_glide_esite>  (171) 
-0.118672

>  <r_i_glide_emodel>  (171) 
-36.6692

>  <r_i_glide_energy>  (171) 
-29.6972

>  <r_i_glide_einternal>  (171) 
0.0294641

>  <r_i_glide_intrahb_reward>  (171) 
-0

>  <i_i_glide_confnum>  (171) 
4

>  <i_i_glide_posenum>  (171) 
4

>  <r_i_glide_eff_state_penalty>  (171) 
0

>  <ligand_id>  (171) 
48

>  <original_smiles>  (171) 
CC1CCC2CC3(NC(c4cnccn4)=NO3)C34OOC(C)(CCC13)OC4O2

>  <smiles>  (171) 
[H]c1nc([H])c(C2=NOC3(N2[H])C([H])([H])C2([H])OC4([H])OC5(C([H])([H])[H])OOC43C([H])(C([H])([H])C5([H])[H])C([H])(C([H])([H])[H])C([H])([H])C2([H])[H])nc1[H]

$$$$
48:0:1
     RDKit          3D

 52 57  0  0  1  0  0  0  0  0999 V2000
    5.3222   -9.3752    1.4052 C   0  0  0  0  0  0  0  0  0  0  0  0
    4.8606   -8.1487    2.2054 C   0  0  2  0  0  0  0  0  0  0  0  0
    5.6514   -8.0907    3.5875 C   0  0  0  0  0  0  0  0  0  0  0  0
    5.3678   -6.9895    4.7227 C   0  0  0  0  0  0  0  0  0  0  0  0
    4.1835   -5.9725    4.5198 C   0  0  2  0  0  0  0  0  0  0  0  0
    4.4887   -5.1623    3.2579 C   0  0  0  0  0  0  0  0  0  0  0  0
    3.4218   -5.3823    2.1777 C   0  0  2  0  0  0  0  0  0  0  0  0
    3.9676   -5.2116    0.8501 N   0  0  0  0  0  0  0  0  0  0  0  0
    3.4579   -4.0542    0.3320 C   0  0  0  0  0  0  0  0  0  0  0  0
    3.7878   -3.5508   -1.0364 C   0  0  0  0  0  0  0  0  0  0  0  0
    2.7785   -3.0650   -1.9031 C   0  0  0  0  0  0  0  0  0  0  0  0
    3.0620   -2.6002   -3.1435 N   0  0  0  0  0  0  0  0  0  0  0  0
    4.3583   -2.6000   -3.5023 C   0  0  0  0  0  0  0  0  0  0  0  0
    5.3716   -3.0699   -2.6375 C   0  0  0  0  0  0  0  0  0  0  0  0
    5.0929   -3.5528   -1.4036 N   0  0  0  0  0  0  0  0  0  0  0  0
    2.6390   -3.4642    1.1334 N   0  0  0  0  0  0  0  0  0  0  0  0
    2.5230   -4.2737    2.3036 O   0  0  0  0  0  0  0  0  0  0  0  0
    2.6070   -6.7120    2.3775 C   0  0  1  0  0  0  0  0  0  0  0  0
    1.6865   -6.5413    1.2656 O   0  0  0  0  0  0  0  0  0  0  0  0
    0.2827   -7.0921    1.4659 O   0  0  0  0  0  0  0  0  0  0  0  0
    0.1567   -7.6665    2.7361 C   0  0  1  0  0  0  0  0  0  0  0  0
   -1.3482   -7.8680    2.9904 C   0  0  0  0  0  0  0  0  0  0  0  0
    0.9039   -9.0664    2.6097 C   0  0  0  0  0  0  0  0  0  0  0  0
    2.2830   -9.1386    1.8377 C   0  0  0  0  0  0  0  0  0  0  0  0
    3.3030   -8.1153    2.3776 C   0  0  1  0  0  0  0  0  0  0  0  0
    0.5772   -6.6965    3.7336 O   0  0  0  0  0  0  0  0  0  0  0  0
    1.9501   -6.6994    3.8006 C   0  0  2  0  0  0  0  0  0  0  0  0
    2.7204   -5.9262    4.7371 O   0  0  0  0  0  0  0  0  0  0  0  0
    5.0886  -10.3098    1.9152 H   0  0  0  0  0  0  0  0  0  0  0  0
    6.3994   -9.3538    1.2313 H   0  0  0  0  0  0  0  0  0  0  0  0
    4.8321   -9.4035    0.4350 H   0  0  0  0  0  0  0  0  0  0  0  0
    5.1861   -7.3058    1.6046 H   0  0  0  0  0  0  0  0  0  0  0  0
    5.5364   -9.0665    4.0646 H   0  0  0  0  0  0  0  0  0  0  0  0
    6.7151   -8.0374    3.3506 H   0  0  0  0  0  0  0  0  0  0  0  0
    5.3210   -7.4852    5.7022 H   0  0  0  0  0  0  0  0  0  0  0  0
    6.2790   -6.3960    4.8050 H   0  0  0  0  0  0  0  0  0  0  0  0
    3.9329   -6.9940    4.4448 H   0  0  0  0  0  0  0  0  0  0  0  0
    4.5518   -4.1100    3.5344 H   0  0  0  0  0  0  0  0  0  0  0  0
    5.4805   -5.4032    2.8769 H   0  0  0  0  0  0  0  0  0  0  0  0
    4.2925   -6.0016    0.3102 H   0  0  0  0  0  0  0  0  0  0  0  0
    1.7355   -3.0651   -1.6259 H   0  0  0  0  0  0  0  0  0  0  0  0
    4.5922   -2.2183   -4.4856 H   0  0  0  0  0  0  0  0  0  0  0  0
    6.4058   -3.0581   -2.9427 H   0  0  0  0  0  0  0  0  0  0  0  0
   -1.8664   -6.9119    3.0072 H   0  0  0  0  0  0  0  0  0  0  0  0
   -1.5354   -8.3543    3.9474 H   0  0  0  0  0  0  0  0  0  0  0  0
   -1.8138   -8.4753    2.2143 H   0  0  0  0  0  0  0  0  0  0  0  0
    1.0053   -9.5144    3.5955 H   0  0  0  0  0  0  0  0  0  0  0  0
    0.2397   -9.7490    2.0823 H   0  0  0  0  0  0  0  0  0  0  0  0
    2.6814  -10.1449    1.9590 H   0  0  0  0  0  0  0  0  0  0  0  0
    2.1287   -9.0240    0.7677 H   0  0  0  0  0  0  0  0  0  0  0  0
    3.3346   -8.5962    3.3501 H   0  0  0  0  0  0  0  0  0  0  0  0
    1.9881   -7.6368    4.3584 H   0  0  0  0  0  0  0  0  0  0  0  0
  1  2  1  0
  1 29  1  0
  1 30  1  0
  1 31  1  0
  2 25  1  0
  2  3  1  0
  2 32  1  6
  3  4  1  0
  3 33  1  0
  3 34  1  0
  4  5  1  0
  4 35  1  0
  4 36  1  0
  5 28  1  0
  5  6  1  0
  5 37  1  1
  6  7  1  0
  6 38  1  0
  6 39  1  0
  7 17  1  1
  7  8  1  0
  7 18  1  0
  8  9  1  0
  8 40  1  0
  9 10  1  0
  9 16  2  0
 10 15  1  0
 10 11  2  0
 11 12  1  0
 11 41  1  0
 12 13  2  0
 13 14  1  0
 13 42  1  0
 14 15  2  0
 14 43  1  0
 16 17  1  0
 18 25  1  0
 18 27  1  0
 18 19  1  6
 19 20  1  0
 20 21  1  0
 21 22  1  1
 21 23  1  0
 21 26  1  0
 22 44  1  0
 22 45  1  0
 22 46  1  0
 23 24  1  0
 23 47  1  0
 23 48  1  0
 24 25  1  0
 24 49  1  0
 24 50  1  0
 25 51  1  1
 26 27  1  0
 27 28  1  0
 27 52  1  1
M  END
>  <i_m_ct_stereo_status>  (172) 
1

>  <s_m_source_file>  (172) 
/var/tmp/pbs.5076255.sched01/tmpazi1eam_/42934yjxx2.sdf

>  <i_m_source_file_index>  (172) 
32

>  <i_lp_mmshare_version>  (172) 
48012

>  <i_f3d_flags>  (172) 
0

>  <s_epik_input>  (172) 
TzFPW0NAQF0oW0NIM10pKFtDSDJdW0NIMl0yKU9bQ0BASF0zT1tDQEBIXShbQ0gyXTQpW0NIMl1bQ0gyXVtDQEBIXShbQ0gzXSlbQ0BIXTJbQ0BAXTEzW0NAXTQ1W05IXUMoPU5PNSljNltjSF1uW2NIXVtjSF1uNg==

>  <s_epik_cmdline>  (172) 
J2VwaWtfcHl0aG9uJywgJy1waHQnLCAnMi4wJywgJy1waCcsICc3LjAnLCAnLXRuJywgJzgnLCAnLW1hJywgJzIwMCcsICctaW1hZScsICc8aW5maWxlLm1hZT4nLCAnLW9tYWUnLCAnPG91dGZpbGUubWFlPic=

>  <r_epik_Ionization_Penalty>  (172) 
0.00147408

>  <r_epik_Ionization_Penalty_Charging>  (172) 
0

>  <r_epik_Ionization_Penalty_Neutral>  (172) 
0.00147408

>  <r_epik_State_Penalty>  (172) 
0.00092124

>  <r_epik_Charging_Adjusted_Penalty>  (172) 
0.00092124

>  <i_epik_Tot_Q>  (172) 
0

>  <i_epik_Tot_abs_Q>  (172) 
0

>  <s_epik_Chemistry_Notes>  (172) 
This compound has an imine and may undergo hydrolysis. This compound contains an acetal/aminal-like group ( X-CH(R)-Y where X, Y are N, S, or O) that may be acid/base labile, releasing an aldehyde.

>  <s_lp_Force_Field>  (172) 
OPLS3e

>  <r_lp_Energy>  (172) 
151.311

>  <b_lp_Chiralities_Consistent>  (172) 
1

>  <s_lp_Variant>  (172) 
48:0-1

>  <s_i_glide_gridfile>  (172) 
pfpi4k_grid

>  <i_i_glide_lignum>  (172) 
32

>  <i_i_glide_rotatable_bonds>  (172) 
1

>  <r_i_docking_score>  (172) 
-2.85271

>  <r_i_glide_ligand_efficiency>  (172) 
-0.101882

>  <r_i_glide_ligand_efficiency_sa>  (172) 
-0.309375

>  <r_i_glide_ligand_efficiency_ln>  (172) 
-0.658488

>  <r_i_glide_gscore>  (172) 
-2.85271

>  <r_i_glide_lipo>  (172) 
-0.412212

>  <r_i_glide_hbond>  (172) 
0

>  <r_i_glide_metal>  (172) 
-0

>  <r_i_glide_rewards>  (172) 
-0.763824

>  <r_i_glide_evdw>  (172) 
-33.9422

>  <r_i_glide_ecoul>  (172) 
-0.190708

>  <r_i_glide_erotb>  (172) 
0.129144

>  <r_i_glide_esite>  (172) 
-0.0800993

>  <r_i_glide_emodel>  (172) 
-39.439

>  <r_i_glide_energy>  (172) 
-34.1329

>  <r_i_glide_einternal>  (172) 
2.51014

>  <r_i_glide_intrahb_reward>  (172) 
-0

>  <i_i_glide_confnum>  (172) 
4

>  <i_i_glide_posenum>  (172) 
23

>  <r_i_glide_eff_state_penalty>  (172) 
0

>  <ligand_id>  (172) 
48

>  <original_smiles>  (172) 
CC1CCC2CC3(NC(c4cnccn4)=NO3)C34OOC(C)(CCC13)OC4O2

>  <smiles>  (172) 
[H]c1nc([H])c(C2=NOC3(N2[H])C([H])([H])C2([H])OC4([H])OC5(C([H])([H])[H])OOC43C([H])(C([H])([H])C5([H])[H])C([H])(C([H])([H])[H])C([H])([H])C2([H])[H])nc1[H]

$$$$
48:0:2
     RDKit          3D

 52 57  0  0  1  0  0  0  0  0999 V2000
    5.2837   -9.4380    1.4193 C   0  0  0  0  0  0  0  0  0  0  0  0
    4.8295   -8.2097    2.2206 C   0  0  2  0  0  0  0  0  0  0  0  0
    5.6196   -8.1595    3.6026 C   0  0  0  0  0  0  0  0  0  0  0  0
    5.3424   -7.0587    4.7395 C   0  0  0  0  0  0  0  0  0  0  0  0
    4.1667   -6.0334    4.5380 C   0  0  2  0  0  0  0  0  0  0  0  0
    4.4795   -5.2236    3.2782 C   0  0  0  0  0  0  0  0  0  0  0  0
    3.4139   -5.4367    2.1975 C   0  0  2  0  0  0  0  0  0  0  0  0
    3.9637   -5.2608    0.8686 N   0  0  0  0  0  0  0  0  0  0  0  0
    3.4448   -4.1010    0.3567 C   0  0  0  0  0  0  0  0  0  0  0  0
    3.7502   -3.5753   -1.0101 C   0  0  0  0  0  0  0  0  0  0  0  0
    5.0682   -3.5864   -1.5375 C   0  0  0  0  0  0  0  0  0  0  0  0
    5.3560   -3.0746   -2.7567 N   0  0  0  0  0  0  0  0  0  0  0  0
    4.3179   -2.5805   -3.4670 C   0  0  0  0  0  0  0  0  0  0  0  0
    3.0035   -2.5824   -2.9536 C   0  0  0  0  0  0  0  0  0  0  0  0
    2.7187   -3.0672   -1.7281 N   0  0  0  0  0  0  0  0  0  0  0  0
    2.6345   -3.5160    1.1702 N   0  0  0  0  0  0  0  0  0  0  0  0
    2.5221   -4.3263    2.3352 O   0  0  0  0  0  0  0  0  0  0  0  0
    2.5875   -6.7591    2.3937 C   0  0  1  0  0  0  0  0  0  0  0  0
    1.6692   -6.5817    1.2801 O   0  0  0  0  0  0  0  0  0  0  0  0
    0.2619   -7.1217    1.4801 O   0  0  0  0  0  0  0  0  0  0  0  0
    0.1301   -7.6967    2.7490 C   0  0  1  0  0  0  0  0  0  0  0  0
   -1.3759   -7.8901    3.0034 C   0  0  0  0  0  0  0  0  0  0  0  0
    0.8676   -9.1004    2.6218 C   0  0  0  0  0  0  0  0  0  0  0  0
    2.2457   -9.1784    1.8492 C   0  0  0  0  0  0  0  0  0  0  0  0
    3.2732   -8.1677    2.3942 C   0  0  1  0  0  0  0  0  0  0  0  0
    0.5568   -6.7308    3.7482 O   0  0  0  0  0  0  0  0  0  0  0  0
    1.9294   -6.7445    3.8157 C   0  0  2  0  0  0  0  0  0  0  0  0
    2.7032   -5.9771    4.7536 O   0  0  0  0  0  0  0  0  0  0  0  0
    5.0438  -10.3715    1.9284 H   0  0  0  0  0  0  0  0  0  0  0  0
    6.3605   -9.4230    1.2451 H   0  0  0  0  0  0  0  0  0  0  0  0
    4.7929   -9.4622    0.4494 H   0  0  0  0  0  0  0  0  0  0  0  0
    5.1601   -7.3683    1.6208 H   0  0  0  0  0  0  0  0  0  0  0  0
    5.4975   -9.1350    4.0781 H   0  0  0  0  0  0  0  0  0  0  0  0
    6.6832   -8.1125    3.3663 H   0  0  0  0  0  0  0  0  0  0  0  0
    5.2912   -7.5550    5.7179 H   0  0  0  0  0  0  0  0  0  0  0  0
    6.2580   -6.4709    4.8229 H   0  0  0  0  0  0  0  0  0  0  0  0
    3.9088   -7.0529    4.4602 H   0  0  0  0  0  0  0  0  0  0  0  0
    4.5464   -4.1718    3.5555 H   0  0  0  0  0  0  0  0  0  0  0  0
    5.4702   -5.4705    2.8979 H   0  0  0  0  0  0  0  0  0  0  0  0
    4.2560   -6.0603    0.3265 H   0  0  0  0  0  0  0  0  0  0  0  0
    5.9051   -3.9677   -0.9671 H   0  0  0  0  0  0  0  0  0  0  0  0
    4.5341   -2.1750   -4.4433 H   0  0  0  0  0  0  0  0  0  0  0  0
    2.1881   -2.1793   -3.5324 H   0  0  0  0  0  0  0  0  0  0  0  0
   -1.8882   -6.9318    3.0213 H   0  0  0  0  0  0  0  0  0  0  0  0
   -1.5668   -8.3774    3.9600 H   0  0  0  0  0  0  0  0  0  0  0  0
   -1.8448   -8.4936    2.2261 H   0  0  0  0  0  0  0  0  0  0  0  0
    0.9649   -9.5528    3.6074 H   0  0  0  0  0  0  0  0  0  0  0  0
    0.1984   -9.7785    2.0930 H   0  0  0  0  0  0  0  0  0  0  0  0
    2.6359  -10.1886    1.9655 H   0  0  0  0  0  0  0  0  0  0  0  0
    2.0934   -9.0458    0.7808 H   0  0  0  0  0  0  0  0  0  0  0  0
    3.3003   -8.6510    3.3654 H   0  0  0  0  0  0  0  0  0  0  0  0
    1.9598   -7.6830    4.3725 H   0  0  0  0  0  0  0  0  0  0  0  0
  1  2  1  0
  1 29  1  0
  1 30  1  0
  1 31  1  0
  2 25  1  0
  2  3  1  0
  2 32  1  6
  3  4  1  0
  3 33  1  0
  3 34  1  0
  4  5  1  0
  4 35  1  0
  4 36  1  0
  5 28  1  0
  5  6  1  0
  5 37  1  1
  6  7  1  0
  6 38  1  0
  6 39  1  0
  7 17  1  1
  7  8  1  0
  7 18  1  0
  8  9  1  0
  8 40  1  0
  9 10  1  0
  9 16  2  0
 10 15  1  0
 10 11  2  0
 11 12  1  0
 11 41  1  0
 12 13  2  0
 13 14  1  0
 13 42  1  0
 14 15  2  0
 14 43  1  0
 16 17  1  0
 18 25  1  0
 18 27  1  0
 18 19  1  6
 19 20  1  0
 20 21  1  0
 21 22  1  1
 21 23  1  0
 21 26  1  0
 22 44  1  0
 22 45  1  0
 22 46  1  0
 23 24  1  0
 23 47  1  0
 23 48  1  0
 24 25  1  0
 24 49  1  0
 24 50  1  0
 25 51  1  1
 26 27  1  0
 27 28  1  0
 27 52  1  1
M  END
>  <i_m_ct_stereo_status>  (173) 
1

>  <s_m_source_file>  (173) 
/var/tmp/pbs.5076255.sched01/tmpazi1eam_/42934yjxx2.sdf

>  <i_m_source_file_index>  (173) 
32

>  <i_lp_mmshare_version>  (173) 
48012

>  <i_f3d_flags>  (173) 
0

>  <s_epik_input>  (173) 
TzFPW0NAQF0oW0NIM10pKFtDSDJdW0NIMl0yKU9bQ0BASF0zT1tDQEBIXShbQ0gyXTQpW0NIMl1bQ0gyXVtDQEBIXShbQ0gzXSlbQ0BIXTJbQ0BAXTEzW0NAXTQ1W05IXUMoPU5PNSljNltjSF1uW2NIXVtjSF1uNg==

>  <s_epik_cmdline>  (173) 
J2VwaWtfcHl0aG9uJywgJy1waHQnLCAnMi4wJywgJy1waCcsICc3LjAnLCAnLXRuJywgJzgnLCAnLW1hJywgJzIwMCcsICctaW1hZScsICc8aW5maWxlLm1hZT4nLCAnLW9tYWUnLCAnPG91dGZpbGUubWFlPic=

>  <r_epik_Ionization_Penalty>  (173) 
0.00147408

>  <r_epik_Ionization_Penalty_Charging>  (173) 
0

>  <r_epik_Ionization_Penalty_Neutral>  (173) 
0.00147408

>  <r_epik_State_Penalty>  (173) 
0.00092124

>  <r_epik_Charging_Adjusted_Penalty>  (173) 
0.00092124

>  <i_epik_Tot_Q>  (173) 
0

>  <i_epik_Tot_abs_Q>  (173) 
0

>  <s_epik_Chemistry_Notes>  (173) 
This compound has an imine and may undergo hydrolysis. This compound contains an acetal/aminal-like group ( X-CH(R)-Y where X, Y are N, S, or O) that may be acid/base labile, releasing an aldehyde.

>  <s_lp_Force_Field>  (173) 
OPLS3e

>  <r_lp_Energy>  (173) 
151.311

>  <b_lp_Chiralities_Consistent>  (173) 
1

>  <s_lp_Variant>  (173) 
48:0-1

>  <s_i_glide_gridfile>  (173) 
pfpi4k_grid

>  <i_i_glide_lignum>  (173) 
32

>  <i_i_glide_rotatable_bonds>  (173) 
1

>  <r_i_docking_score>  (173) 
-2.58142

>  <r_i_glide_ligand_efficiency>  (173) 
-0.0921935

>  <r_i_glide_ligand_efficiency_sa>  (173) 
-0.279954

>  <r_i_glide_ligand_efficiency_ln>  (173) 
-0.595867

>  <r_i_glide_gscore>  (173) 
-2.58142

>  <r_i_glide_lipo>  (173) 
-0.249694

>  <r_i_glide_hbond>  (173) 
0

>  <r_i_glide_metal>  (173) 
-0

>  <r_i_glide_rewards>  (173) 
-0.764129

>  <r_i_glide_evdw>  (173) 
-33.9711

>  <r_i_glide_ecoul>  (173) 
0.543692

>  <r_i_glide_erotb>  (173) 
0.129144

>  <r_i_glide_esite>  (173) 
-0.0797377

>  <r_i_glide_emodel>  (173) 
-39.0655

>  <r_i_glide_energy>  (173) 
-33.4274

>  <r_i_glide_einternal>  (173) 
0.414784

>  <r_i_glide_intrahb_reward>  (173) 
-0

>  <i_i_glide_confnum>  (173) 
1

>  <i_i_glide_posenum>  (173) 
18

>  <r_i_glide_eff_state_penalty>  (173) 
0

>  <ligand_id>  (173) 
48

>  <original_smiles>  (173) 
CC1CCC2CC3(NC(c4cnccn4)=NO3)C34OOC(C)(CCC13)OC4O2

>  <smiles>  (173) 
[H]c1nc([H])c(C2=NOC3(N2[H])C([H])([H])C2([H])OC4([H])OC5(C([H])([H])[H])OOC43C([H])(C([H])([H])C5([H])[H])C([H])(C([H])([H])[H])C([H])([H])C2([H])[H])nc1[H]

$$$$
50:0:0
     RDKit          3D

 69 75  0  0  1  0  0  0  0  0999 V2000
   -1.4143   -8.4415    4.0474 C   0  0  0  0  0  0  0  0  0  0  0  0
   -0.9753   -7.1790    4.5511 O   0  0  0  0  0  0  0  0  0  0  0  0
    0.4137   -6.9943    4.6346 C   0  0  2  0  0  0  0  0  0  0  0  0
    1.0882   -7.6693    3.6190 O   0  0  0  0  0  0  0  0  0  0  0  0
    2.4868   -7.4858    3.5134 C   0  0  1  0  0  0  0  0  0  0  0  0
    2.9346   -6.0569    3.1469 C   0  0  2  0  0  0  0  0  0  0  0  0
    2.2297   -5.4629    1.9097 C   0  0  0  0  0  0  0  0  0  0  0  0
    3.3486   -4.7183    1.2071 C   0  0  2  0  0  0  0  0  0  0  0  0
    3.1139   -4.2940   -0.1410 O   0  0  0  0  0  0  0  0  0  0  0  0
    4.2434   -3.8355   -0.7731 C   0  0  0  0  0  0  0  0  0  0  0  0
    4.0462   -3.1604   -1.9916 N   0  0  0  0  0  0  0  0  0  0  0  0
    2.7422   -2.9037   -2.4259 C   0  0  0  0  0  0  0  0  0  0  0  0
    2.8840   -2.2267   -3.6172 C   0  0  0  0  0  0  0  0  0  0  0  0
    4.2293   -2.0661   -3.9233 N   0  0  0  0  0  0  0  0  0  0  0  0
    4.8664   -2.6496   -2.9163 C   0  0  0  0  0  0  0  0  0  0  0  0
    5.5043   -3.9805   -0.2857 C   0  0  0  0  0  0  0  0  0  0  0  0
    5.7935   -4.7355    1.0046 C   0  0  0  0  0  0  0  0  0  0  0  0
    4.5848   -5.6121    1.3653 C   0  0  2  0  0  0  0  0  0  0  0  0
    4.5361   -6.8499    0.4295 C   0  0  0  0  0  0  0  0  0  0  0  0
    4.4613   -6.0021    2.8617 C   0  0  2  0  0  0  0  0  0  0  0  0
    5.2177   -7.2700    3.3382 C   0  0  0  0  0  0  0  0  0  0  0  0
    4.7169   -7.7107    4.7297 C   0  0  0  0  0  0  0  0  0  0  0  0
    3.1845   -8.0475    4.7743 C   0  0  2  0  0  0  0  0  0  0  0  0
    3.0534   -9.5972    4.6514 C   0  0  0  0  0  0  0  0  0  0  0  0
    2.5145   -7.4309    6.0743 C   0  0  2  0  0  0  0  0  0  0  0  0
    3.0254   -6.1329    6.3293 O   0  0  0  0  0  0  0  0  0  0  0  0
    3.4382   -6.0739    7.6533 C   0  0  0  0  0  0  0  0  0  0  0  0
    3.1019   -7.2361    8.3257 O   0  0  0  0  0  0  0  0  0  0  0  0
    2.8311   -8.2233    7.3566 C   0  0  1  0  0  0  0  0  0  0  0  0
    1.5526   -8.9908    7.7486 C   0  0  0  0  0  0  0  0  0  0  0  0
    0.5339   -8.6865    6.6541 C   0  0  0  0  0  0  0  0  0  0  0  0
    0.9566   -7.3322    6.0678 C   0  0  2  0  0  0  0  0  0  0  0  0
    0.3913   -6.2201    7.0035 C   0  0  0  0  0  0  0  0  0  0  0  0
   -2.5031   -8.4933    4.0361 H   0  0  0  0  0  0  0  0  0  0  0  0
   -1.0556   -9.2637    4.6497 H   0  0  0  0  0  0  0  0  0  0  0  0
   -1.0640   -8.6284    3.0327 H   0  0  0  0  0  0  0  0  0  0  0  0
    0.5409   -5.9237    4.4502 H   0  0  0  0  0  0  0  0  0  0  0  0
    2.7449   -8.1172    2.6623 H   0  0  0  0  0  0  0  0  0  0  0  0
    2.7398   -5.3925    3.9865 H   0  0  0  0  0  0  0  0  0  0  0  0
    1.8267   -6.2480    1.2693 H   0  0  0  0  0  0  0  0  0  0  0  0
    1.4119   -4.7956    2.1861 H   0  0  0  0  0  0  0  0  0  0  0  0
    3.5195   -3.8079    1.7828 H   0  0  0  0  0  0  0  0  0  0  0  0
    1.8477   -3.1865   -1.8893 H   0  0  0  0  0  0  0  0  0  0  0  0
    2.1046   -1.8375   -4.2859 H   0  0  0  0  0  0  0  0  0  0  0  0
    5.9334   -2.6979   -2.8632 H   0  0  0  0  0  0  0  0  0  0  0  0
    6.3600   -3.5802   -0.7864 H   0  0  0  0  0  0  0  0  0  0  0  0
    6.6976   -5.3359    0.8778 H   0  0  0  0  0  0  0  0  0  0  0  0
    6.0075   -3.9969    1.7813 H   0  0  0  0  0  0  0  0  0  0  0  0
    5.4479   -7.4418    0.5034 H   0  0  0  0  0  0  0  0  0  0  0  0
    4.4382   -6.5682   -0.6188 H   0  0  0  0  0  0  0  0  0  0  0  0
    3.7054   -7.5119    0.6619 H   0  0  0  0  0  0  0  0  0  0  0  0
    4.8499   -5.1689    3.4548 H   0  0  0  0  0  0  0  0  0  0  0  0
    5.1196   -8.1094    2.6448 H   0  0  0  0  0  0  0  0  0  0  0  0
    6.2828   -7.0558    3.3982 H   0  0  0  0  0  0  0  0  0  0  0  0
    5.2934   -8.5772    5.0497 H   0  0  0  0  0  0  0  0  0  0  0  0
    5.0036   -6.9373    5.4449 H   0  0  0  0  0  0  0  0  0  0  0  0
    3.4344  -10.1546    5.5063 H   0  0  0  0  0  0  0  0  0  0  0  0
    3.6083   -9.9646    3.7878 H   0  0  0  0  0  0  0  0  0  0  0  0
    2.0329   -9.9261    4.4743 H   0  0  0  0  0  0  0  0  0  0  0  0
    4.5129   -5.8885    7.6990 H   0  0  0  0  0  0  0  0  0  0  0  0
    2.9072   -5.2570    8.1403 H   0  0  0  0  0  0  0  0  0  0  0  0
    3.7031   -8.8730    7.2573 H   0  0  0  0  0  0  0  0  0  0  0  0
    1.7290  -10.0645    7.7885 H   0  0  0  0  0  0  0  0  0  0  0  0
    1.1863   -8.6809    8.7300 H   0  0  0  0  0  0  0  0  0  0  0  0
    0.6289   -9.4940    5.9433 H   0  0  0  0  0  0  0  0  0  0  0  0
   -0.4871   -8.6952    7.0280 H   0  0  0  0  0  0  0  0  0  0  0  0
    0.6777   -6.3609    8.0464 H   0  0  0  0  0  0  0  0  0  0  0  0
   -0.6970   -6.2058    6.9861 H   0  0  0  0  0  0  0  0  0  0  0  0
    0.7190   -5.2220    6.7067 H   0  0  0  0  0  0  0  0  0  0  0  0
  1  2  1  0
  1 34  1  0
  1 35  1  0
  1 36  1  0
  2  3  1  0
  3 32  1  0
  3  4  1  0
  3 37  1  6
  4  5  1  0
  5 23  1  0
  5  6  1  0
  5 38  1  6
  6 20  1  0
  6  7  1  0
  6 39  1  1
  7  8  1  0
  7 40  1  0
  7 41  1  0
  8 18  1  0
  8  9  1  0
  8 42  1  1
  9 10  1  0
 10 11  1  0
 10 16  2  0
 11 15  1  0
 11 12  1  0
 12 13  2  0
 12 43  1  0
 13 14  1  0
 13 44  1  0
 14 15  2  0
 15 45  1  0
 16 17  1  0
 16 46  1  0
 17 18  1  0
 17 47  1  0
 17 48  1  0
 18 19  1  6
 18 20  1  0
 19 49  1  0
 19 50  1  0
 19 51  1  0
 20 21  1  0
 20 52  1  1
 21 22  1  0
 21 53  1  0
 21 54  1  0
 22 23  1  0
 22 55  1  0
 22 56  1  0
 23 24  1  1
 23 25  1  0
 24 57  1  0
 24 58  1  0
 24 59  1  0
 25 29  1  0
 25 32  1  0
 25 26  1  1
 26 27  1  0
 27 28  1  0
 27 60  1  0
 27 61  1  0
 28 29  1  0
 29 30  1  0
 29 62  1  6
 30 31  1  0
 30 63  1  0
 30 64  1  0
 31 32  1  0
 31 65  1  0
 31 66  1  0
 32 33  1  1
 33 67  1  0
 33 68  1  0
 33 69  1  0
M  END
>  <i_m_ct_stereo_status>  (174) 
1

>  <s_m_source_file>  (174) 
/var/tmp/pbs.5076255.sched01/tmpazi1eam_/42934yjxx2.sdf

>  <i_m_source_file_index>  (174) 
34

>  <i_lp_mmshare_version>  (174) 
48012

>  <i_f3d_flags>  (174) 
0

>  <s_epik_input>  (174) 
TzFbQ0gyXU9bQ0BIXTJbQ0gyXVtDSDJdW0NAXTMoW0NIM10pW0NASF0oT1tDSDNdKU9bQ0BIXShbQ0BAXTQoW0NAXTEyMylbQ0gzXSlbQ0BIXTVbQ0BASF0oW0NIMl1bQ0gyXTQpW0NAQF02KFtDSDNdKVtDQEhdKFtDSDJdNSlPQyg9W0NIXVtDSDJdNiluN1tjSF1bY0hdbltjSF03

>  <s_epik_cmdline>  (174) 
J2VwaWtfcHl0aG9uJywgJy1waHQnLCAnMi4wJywgJy1waCcsICc3LjAnLCAnLXRuJywgJzgnLCAnLW1hJywgJzIwMCcsICctaW1hZScsICc8aW5maWxlLm1hZT4nLCAnLW9tYWUnLCAnPG91dGZpbGUubWFlPic=

>  <r_epik_Ionization_Penalty>  (174) 
0.382902

>  <r_epik_Ionization_Penalty_Charging>  (174) 
0.382902

>  <r_epik_Ionization_Penalty_Neutral>  (174) 
6.75946e-13

>  <r_epik_State_Penalty>  (174) 
0.381087

>  <r_epik_Charging_Adjusted_Penalty>  (174) 
0.763989

>  <i_epik_Tot_Q>  (174) 
0

>  <i_epik_Tot_abs_Q>  (174) 
0

>  <s_epik_Chemistry_Notes>  (174) 
This compound contains an acetal/aminal-like group ( X-CH(R)-Y where X, Y are N, S, or O) that may be acid/base labile, releasing an aldehyde.

>  <s_lp_Force_Field>  (174) 
OPLS3e

>  <r_lp_Energy>  (174) 
61.1274

>  <b_lp_Chiralities_Consistent>  (174) 
1

>  <s_lp_Variant>  (174) 
50:0-1

>  <s_i_glide_gridfile>  (174) 
pfpi4k_grid

>  <i_i_glide_lignum>  (174) 
34

>  <i_i_glide_rotatable_bonds>  (174) 
2

>  <r_i_docking_score>  (174) 
-2.96877

>  <r_i_glide_ligand_efficiency>  (174) 
-0.0899627

>  <r_i_glide_ligand_efficiency_sa>  (174) 
-0.288559

>  <r_i_glide_ligand_efficiency_ln>  (174) 
-0.660239

>  <r_i_glide_gscore>  (174) 
-2.96877

>  <r_i_glide_lipo>  (174) 
-0.574573

>  <r_i_glide_hbond>  (174) 
-0.151583

>  <r_i_glide_metal>  (174) 
-0

>  <r_i_glide_rewards>  (174) 
-0.471889

>  <r_i_glide_evdw>  (174) 
-26.7924

>  <r_i_glide_ecoul>  (174) 
-3.24192

>  <r_i_glide_erotb>  (174) 
0.096412

>  <r_i_glide_esite>  (174) 
-0.0412308

>  <r_i_glide_emodel>  (174) 
-33.0816

>  <r_i_glide_energy>  (174) 
-30.0343

>  <r_i_glide_einternal>  (174) 
4.47183

>  <r_i_glide_intrahb_reward>  (174) 
-0

>  <i_i_glide_confnum>  (174) 
2

>  <i_i_glide_posenum>  (174) 
30

>  <r_i_glide_eff_state_penalty>  (174) 
0

>  <ligand_id>  (174) 
50

>  <original_smiles>  (174) 
COC1OC2C3CC4OC(n5ccnc5)=CCC4(C)C3CCC2(C)C23OCOC2CCC13C

>  <smiles>  (174) 
[H]C1=C(n2c([H])nc([H])c2[H])OC2([H])C([H])([H])C3([H])C4([H])OC([H])(OC([H])([H])[H])C5(C([H])([H])[H])C([H])([H])C([H])([H])C6([H])OC([H])([H])OC65C4(C([H])([H])[H])C([H])([H])C([H])([H])C3([H])C2(C([H])([H])[H])C1([H])[H]

$$$$
50:0:1
     RDKit          3D

 69 75  0  0  1  0  0  0  0  0999 V2000
   -0.6640   -8.9642    3.0681 C   0  0  0  0  0  0  0  0  0  0  0  0
   -0.4826   -7.6784    3.6758 O   0  0  0  0  0  0  0  0  0  0  0  0
    0.8364   -7.2427    3.8830 C   0  0  2  0  0  0  0  0  0  0  0  0
    1.6928   -7.6710    2.8718 O   0  0  0  0  0  0  0  0  0  0  0  0
    3.0349   -7.2199    2.8974 C   0  0  1  0  0  0  0  0  0  0  0  0
    3.2253   -5.7046    2.6926 C   0  0  2  0  0  0  0  0  0  0  0  0
    2.5036   -5.1349    1.4566 C   0  0  0  0  0  0  0  0  0  0  0  0
    3.4989   -4.1327    0.9041 C   0  0  2  0  0  0  0  0  0  0  0  0
    3.2905   -3.6743   -0.4358 O   0  0  0  0  0  0  0  0  0  0  0  0
    4.3496   -2.9285   -0.9178 C   0  0  0  0  0  0  0  0  0  0  0  0
    4.0761   -2.1357   -2.0429 N   0  0  0  0  0  0  0  0  0  0  0  0
    2.9994   -2.4499   -2.8643 C   0  0  0  0  0  0  0  0  0  0  0  0
    3.0115   -1.5001   -3.8561 C   0  0  0  0  0  0  0  0  0  0  0  0
    4.0804   -0.6255   -3.6797 N   0  0  0  0  0  0  0  0  0  0  0  0
    4.6435   -1.0465   -2.5589 C   0  0  0  0  0  0  0  0  0  0  0  0
    5.5606   -2.8597   -0.3269 C   0  0  0  0  0  0  0  0  0  0  0  0
    5.9097   -3.6683    0.9134 C   0  0  0  0  0  0  0  0  0  0  0  0
    4.8686   -4.7853    1.1016 C   0  0  2  0  0  0  0  0  0  0  0  0
    5.1176   -5.9065    0.0640 C   0  0  0  0  0  0  0  0  0  0  0  0
    4.7268   -5.3374    2.5431 C   0  0  2  0  0  0  0  0  0  0  0  0
    5.6783   -6.4872    2.9666 C   0  0  0  0  0  0  0  0  0  0  0  0
    5.1814   -7.1473    4.2703 C   0  0  0  0  0  0  0  0  0  0  0  0
    3.7438   -7.7649    4.1587 C   0  0  2  0  0  0  0  0  0  0  0  0
    3.9191   -9.2918    3.8932 C   0  0  0  0  0  0  0  0  0  0  0  0
    2.8869   -7.4139    5.4479 C   0  0  2  0  0  0  0  0  0  0  0  0
    3.1205   -6.0750    5.8533 O   0  0  0  0  0  0  0  0  0  0  0  0
    3.4261   -6.0749    7.2077 C   0  0  0  0  0  0  0  0  0  0  0  0
    3.2755   -7.3392    7.7501 O   0  0  0  0  0  0  0  0  0  0  0  0
    3.2639   -8.2584    6.6814 C   0  0  1  0  0  0  0  0  0  0  0  0
    2.1329   -9.2821    6.9042 C   0  0  0  0  0  0  0  0  0  0  0  0
    1.1514   -9.0615    5.7586 C   0  0  0  0  0  0  0  0  0  0  0  0
    1.3443   -7.6039    5.3225 C   0  0  2  0  0  0  0  0  0  0  0  0
    0.5122   -6.7132    6.2928 C   0  0  0  0  0  0  0  0  0  0  0  0
   -1.7261   -9.1663    2.9334 H   0  0  0  0  0  0  0  0  0  0  0  0
   -0.2891   -9.7924    3.6661 H   0  0  0  0  0  0  0  0  0  0  0  0
   -0.1829   -9.0213    2.0921 H   0  0  0  0  0  0  0  0  0  0  0  0
    0.7659   -6.1526    3.7994 H   0  0  0  0  0  0  0  0  0  0  0  0
    3.4625   -7.7052    2.0187 H   0  0  0  0  0  0  0  0  0  0  0  0
    2.8504   -5.1740    3.5655 H   0  0  0  0  0  0  0  0  0  0  0  0
    2.2968   -5.9107    0.7196 H   0  0  0  0  0  0  0  0  0  0  0  0
    1.5609   -4.6622    1.7280 H   0  0  0  0  0  0  0  0  0  0  0  0
    3.4504   -3.2584    1.5558 H   0  0  0  0  0  0  0  0  0  0  0  0
    2.3186   -3.2804   -2.6834 H   0  0  0  0  0  0  0  0  0  0  0  0
    2.3039   -1.3573   -4.6686 H   0  0  0  0  0  0  0  0  0  0  0  0
    5.4909   -0.5504   -2.1307 H   0  0  0  0  0  0  0  0  0  0  0  0
    6.3475   -2.2410   -0.7167 H   0  0  0  0  0  0  0  0  0  0  0  0
    6.9168   -4.0751    0.8124 H   0  0  0  0  0  0  0  0  0  0  0  0
    5.9271   -2.9841    1.7644 H   0  0  0  0  0  0  0  0  0  0  0  0
    6.1316   -6.2926    0.1615 H   0  0  0  0  0  0  0  0  0  0  0  0
    5.0210   -5.5504   -0.9615 H   0  0  0  0  0  0  0  0  0  0  0  0
    4.4221   -6.7373    0.1658 H   0  0  0  0  0  0  0  0  0  0  0  0
    4.9088   -4.5102    3.2356 H   0  0  0  0  0  0  0  0  0  0  0  0
    5.7888   -7.2566    2.1977 H   0  0  0  0  0  0  0  0  0  0  0  0
    6.6756   -6.0872    3.1352 H   0  0  0  0  0  0  0  0  0  0  0  0
    5.8903   -7.9209    4.5601 H   0  0  0  0  0  0  0  0  0  0  0  0
    5.2682   -6.4109    5.0723 H   0  0  0  0  0  0  0  0  0  0  0  0
    4.3434   -9.8512    4.7261 H   0  0  0  0  0  0  0  0  0  0  0  0
    4.5890   -9.4628    3.0502 H   0  0  0  0  0  0  0  0  0  0  0  0
    2.9947   -9.7837    3.6022 H   0  0  0  0  0  0  0  0  0  0  0  0
    4.4405   -5.7002    7.3578 H   0  0  0  0  0  0  0  0  0  0  0  0
    2.7167   -5.4238    7.7165 H   0  0  0  0  0  0  0  0  0  0  0  0
    4.2486   -8.7227    6.5985 H   0  0  0  0  0  0  0  0  0  0  0  0
    2.5035  -10.3051    6.8616 H   0  0  0  0  0  0  0  0  0  0  0  0
    1.6495   -9.1498    7.8740 H   0  0  0  0  0  0  0  0  0  0  0  0
    1.4537   -9.7644    4.9947 H   0  0  0  0  0  0  0  0  0  0  0  0
    0.1241   -9.2890    6.0386 H   0  0  0  0  0  0  0  0  0  0  0  0
    0.7432   -6.9047    7.3421 H   0  0  0  0  0  0  0  0  0  0  0  0
   -0.5543   -6.8982    6.1698 H   0  0  0  0  0  0  0  0  0  0  0  0
    0.6622   -5.6472    6.1143 H   0  0  0  0  0  0  0  0  0  0  0  0
  1  2  1  0
  1 34  1  0
  1 35  1  0
  1 36  1  0
  2  3  1  0
  3 32  1  0
  3  4  1  0
  3 37  1  1
  4  5  1  0
  5 23  1  0
  5  6  1  0
  5 38  1  6
  6 20  1  0
  6  7  1  0
  6 39  1  1
  7  8  1  0
  7 40  1  0
  7 41  1  0
  8 18  1  0
  8  9  1  0
  8 42  1  1
  9 10  1  0
 10 11  1  0
 10 16  2  0
 11 15  1  0
 11 12  1  0
 12 13  2  0
 12 43  1  0
 13 14  1  0
 13 44  1  0
 14 15  2  0
 15 45  1  0
 16 17  1  0
 16 46  1  0
 17 18  1  0
 17 47  1  0
 17 48  1  0
 18 19  1  6
 18 20  1  0
 19 49  1  0
 19 50  1  0
 19 51  1  0
 20 21  1  0
 20 52  1  1
 21 22  1  0
 21 53  1  0
 21 54  1  0
 22 23  1  0
 22 55  1  0
 22 56  1  0
 23 24  1  6
 23 25  1  0
 24 57  1  0
 24 58  1  0
 24 59  1  0
 25 29  1  0
 25 32  1  0
 25 26  1  1
 26 27  1  0
 27 28  1  0
 27 60  1  0
 27 61  1  0
 28 29  1  0
 29 30  1  0
 29 62  1  6
 30 31  1  0
 30 63  1  0
 30 64  1  0
 31 32  1  0
 31 65  1  0
 31 66  1  0
 32 33  1  1
 33 67  1  0
 33 68  1  0
 33 69  1  0
M  END
>  <i_m_ct_stereo_status>  (175) 
1

>  <s_m_source_file>  (175) 
/var/tmp/pbs.5076255.sched01/tmpazi1eam_/42934yjxx2.sdf

>  <i_m_source_file_index>  (175) 
34

>  <i_lp_mmshare_version>  (175) 
48012

>  <i_f3d_flags>  (175) 
0

>  <s_epik_input>  (175) 
TzFbQ0gyXU9bQ0BIXTJbQ0gyXVtDSDJdW0NAXTMoW0NIM10pW0NASF0oT1tDSDNdKU9bQ0BIXShbQ0BAXTQoW0NAXTEyMylbQ0gzXSlbQ0BIXTVbQ0BASF0oW0NIMl1bQ0gyXTQpW0NAQF02KFtDSDNdKVtDQEhdKFtDSDJdNSlPQyg9W0NIXVtDSDJdNiluN1tjSF1bY0hdbltjSF03

>  <s_epik_cmdline>  (175) 
J2VwaWtfcHl0aG9uJywgJy1waHQnLCAnMi4wJywgJy1waCcsICc3LjAnLCAnLXRuJywgJzgnLCAnLW1hJywgJzIwMCcsICctaW1hZScsICc8aW5maWxlLm1hZT4nLCAnLW9tYWUnLCAnPG91dGZpbGUubWFlPic=

>  <r_epik_Ionization_Penalty>  (175) 
0.382902

>  <r_epik_Ionization_Penalty_Charging>  (175) 
0.382902

>  <r_epik_Ionization_Penalty_Neutral>  (175) 
6.75946e-13

>  <r_epik_State_Penalty>  (175) 
0.381087

>  <r_epik_Charging_Adjusted_Penalty>  (175) 
0.763989

>  <i_epik_Tot_Q>  (175) 
0

>  <i_epik_Tot_abs_Q>  (175) 
0

>  <s_epik_Chemistry_Notes>  (175) 
This compound contains an acetal/aminal-like group ( X-CH(R)-Y where X, Y are N, S, or O) that may be acid/base labile, releasing an aldehyde.

>  <s_lp_Force_Field>  (175) 
OPLS3e

>  <r_lp_Energy>  (175) 
61.1274

>  <b_lp_Chiralities_Consistent>  (175) 
1

>  <s_lp_Variant>  (175) 
50:0-1

>  <s_i_glide_gridfile>  (175) 
pfpi4k_grid

>  <i_i_glide_lignum>  (175) 
34

>  <i_i_glide_rotatable_bonds>  (175) 
2

>  <r_i_docking_score>  (175) 
-2.18461

>  <r_i_glide_ligand_efficiency>  (175) 
-0.0662002

>  <r_i_glide_ligand_efficiency_sa>  (175) 
-0.21234

>  <r_i_glide_ligand_efficiency_ln>  (175) 
-0.485846

>  <r_i_glide_gscore>  (175) 
-2.18461

>  <r_i_glide_lipo>  (175) 
-0.345856

>  <r_i_glide_hbond>  (175) 
0

>  <r_i_glide_metal>  (175) 
-0

>  <r_i_glide_rewards>  (175) 
-0.296083

>  <r_i_glide_evdw>  (175) 
-27.2559

>  <r_i_glide_ecoul>  (175) 
-1.44447

>  <r_i_glide_erotb>  (175) 
0.096412

>  <r_i_glide_esite>  (175) 
-0.0596166

>  <r_i_glide_emodel>  (175) 
-29.322

>  <r_i_glide_energy>  (175) 
-28.7003

>  <r_i_glide_einternal>  (175) 
5.54863

>  <r_i_glide_intrahb_reward>  (175) 
-0

>  <i_i_glide_confnum>  (175) 
2

>  <i_i_glide_posenum>  (175) 
15

>  <r_i_glide_eff_state_penalty>  (175) 
0

>  <ligand_id>  (175) 
50

>  <original_smiles>  (175) 
COC1OC2C3CC4OC(n5ccnc5)=CCC4(C)C3CCC2(C)C23OCOC2CCC13C

>  <smiles>  (175) 
[H]C1=C(n2c([H])nc([H])c2[H])OC2([H])C([H])([H])C3([H])C4([H])OC([H])(OC([H])([H])[H])C5(C([H])([H])[H])C([H])([H])C([H])([H])C6([H])OC([H])([H])OC65C4(C([H])([H])[H])C([H])([H])C([H])([H])C3([H])C2(C([H])([H])[H])C1([H])[H]

$$$$
50:0:2
     RDKit          3D

 69 75  0  0  1  0  0  0  0  0999 V2000
   -0.9854   -7.9424    1.9018 C   0  0  0  0  0  0  0  0  0  0  0  0
   -0.2725   -8.5680    2.9568 O   0  0  0  0  0  0  0  0  0  0  0  0
    0.9183   -7.9286    3.2923 C   0  0  2  0  0  0  0  0  0  0  0  0
    1.9274   -8.2337    2.3840 O   0  0  0  0  0  0  0  0  0  0  0  0
    3.1821   -7.5831    2.5815 C   0  0  1  0  0  0  0  0  0  0  0  0
    3.1657   -6.0409    2.4576 C   0  0  2  0  0  0  0  0  0  0  0  0
    2.5195   -5.5109    1.1618 C   0  0  0  0  0  0  0  0  0  0  0  0
    3.4094   -4.3377    0.7862 C   0  0  2  0  0  0  0  0  0  0  0  0
    3.2866   -3.8211   -0.5386 O   0  0  0  0  0  0  0  0  0  0  0  0
    4.2683   -2.9037   -0.8600 C   0  0  0  0  0  0  0  0  0  0  0  0
    4.0221   -2.1312   -2.0099 N   0  0  0  0  0  0  0  0  0  0  0  0
    2.9633   -2.4317   -2.8624 C   0  0  0  0  0  0  0  0  0  0  0  0
    3.0077   -1.4847   -3.8610 C   0  0  0  0  0  0  0  0  0  0  0  0
    4.0800   -0.6187   -3.6478 N   0  0  0  0  0  0  0  0  0  0  0  0
    4.6196   -1.0508   -2.5182 C   0  0  0  0  0  0  0  0  0  0  0  0
    5.3809   -2.6983   -0.1183 C   0  0  0  0  0  0  0  0  0  0  0  0
    5.7024   -3.5170    1.1238 C   0  0  0  0  0  0  0  0  0  0  0  0
    4.8350   -4.7899    1.1282 C   0  0  2  0  0  0  0  0  0  0  0  0
    5.3849   -5.8015    0.0887 C   0  0  0  0  0  0  0  0  0  0  0  0
    4.6007   -5.4417    2.5147 C   0  0  2  0  0  0  0  0  0  0  0  0
    5.6675   -6.4429    3.0254 C   0  0  0  0  0  0  0  0  0  0  0  0
    5.1286   -7.2535    4.2202 C   0  0  0  0  0  0  0  0  0  0  0  0
    3.8256   -8.0743    3.9040 C   0  0  2  0  0  0  0  0  0  0  0  0
    4.2783   -9.5366    3.6106 C   0  0  0  0  0  0  0  0  0  0  0  0
    2.7732   -7.9268    5.0821 C   0  0  2  0  0  0  0  0  0  0  0  0
    2.7535   -6.5930    5.5682 O   0  0  0  0  0  0  0  0  0  0  0  0
    2.8843   -6.6170    6.9480 C   0  0  0  0  0  0  0  0  0  0  0  0
    2.8797   -7.9219    7.4070 O   0  0  0  0  0  0  0  0  0  0  0  0
    3.1285   -8.7746    6.3086 C   0  0  1  0  0  0  0  0  0  0  0  0
    2.1582   -9.9719    6.3064 C   0  0  0  0  0  0  0  0  0  0  0  0
    1.2678   -9.8290    5.0562 C   0  0  0  0  0  0  0  0  0  0  0  0
    1.3017   -8.3268    4.7484 C   0  0  2  0  0  0  0  0  0  0  0  0
    0.2358   -7.6455    5.6523 C   0  0  0  0  0  0  0  0  0  0  0  0
   -1.8856   -8.5157    1.6818 H   0  0  0  0  0  0  0  0  0  0  0  0
   -0.4016   -7.8584    0.9851 H   0  0  0  0  0  0  0  0  0  0  0  0
   -1.3039   -6.9425    2.1932 H   0  0  0  0  0  0  0  0  0  0  0  0
    0.7420   -6.8523    3.2509 H   0  0  0  0  0  0  0  0  0  0  0  0
    3.7882   -7.9449    1.7486 H   0  0  0  0  0  0  0  0  0  0  0  0
    2.6151   -5.6189    3.2981 H   0  0  0  0  0  0  0  0  0  0  0  0
    2.5271   -6.2648    0.3746 H   0  0  0  0  0  0  0  0  0  0  0  0
    1.4884   -5.2012    1.3281 H   0  0  0  0  0  0  0  0  0  0  0  0
    3.1413   -3.5205    1.4584 H   0  0  0  0  0  0  0  0  0  0  0  0
    2.2753   -3.2517   -2.6943 H   0  0  0  0  0  0  0  0  0  0  0  0
    2.3414   -1.3468   -4.7068 H   0  0  0  0  0  0  0  0  0  0  0  0
    5.4558   -0.5556   -2.0685 H   0  0  0  0  0  0  0  0  0  0  0  0
    6.1034   -1.9494   -0.3913 H   0  0  0  0  0  0  0  0  0  0  0  0
    6.7670   -3.7557    1.1390 H   0  0  0  0  0  0  0  0  0  0  0  0
    5.5008   -2.8815    1.9876 H   0  0  0  0  0  0  0  0  0  0  0  0
    6.4254   -6.0568    0.2953 H   0  0  0  0  0  0  0  0  0  0  0  0
    5.3599   -5.3991   -0.9230 H   0  0  0  0  0  0  0  0  0  0  0  0
    4.8129   -6.7268    0.0696 H   0  0  0  0  0  0  0  0  0  0  0  0
    4.5626   -4.6380    3.2528 H   0  0  0  0  0  0  0  0  0  0  0  0
    5.9886   -7.1403    2.2532 H   0  0  0  0  0  0  0  0  0  0  0  0
    6.5649   -5.9026    3.3267 H   0  0  0  0  0  0  0  0  0  0  0  0
    5.9133   -7.9170    4.5822 H   0  0  0  0  0  0  0  0  0  0  0  0
    4.9996   -6.5532    5.0431 H   0  0  0  0  0  0  0  0  0  0  0  0
    4.6855  -10.0638    4.4716 H   0  0  0  0  0  0  0  0  0  0  0  0
    5.0648   -9.5531    2.8541 H   0  0  0  0  0  0  0  0  0  0  0  0
    3.4828  -10.1506    3.1965 H   0  0  0  0  0  0  0  0  0  0  0  0
    3.7979   -6.0954    7.2446 H   0  0  0  0  0  0  0  0  0  0  0  0
    2.0239   -6.1103    7.3887 H   0  0  0  0  0  0  0  0  0  0  0  0
    4.1753   -9.0756    6.3467 H   0  0  0  0  0  0  0  0  0  0  0  0
    2.6894  -10.9232    6.3051 H   0  0  0  0  0  0  0  0  0  0  0  0
    1.5526   -9.9526    7.2147 H   0  0  0  0  0  0  0  0  0  0  0  0
    1.6577  -10.4235    4.2378 H   0  0  0  0  0  0  0  0  0  0  0  0
    0.2622  -10.2029    5.2427 H   0  0  0  0  0  0  0  0  0  0  0  0
    0.3803   -7.8619    6.7111 H   0  0  0  0  0  0  0  0  0  0  0  0
   -0.7621   -7.9995    5.3968 H   0  0  0  0  0  0  0  0  0  0  0  0
    0.2315   -6.5618    5.5338 H   0  0  0  0  0  0  0  0  0  0  0  0
  1  2  1  0
  1 34  1  0
  1 35  1  0
  1 36  1  0
  2  3  1  0
  3 32  1  0
  3  4  1  0
  3 37  1  1
  4  5  1  0
  5 23  1  0
  5  6  1  0
  5 38  1  6
  6 20  1  0
  6  7  1  0
  6 39  1  1
  7  8  1  0
  7 40  1  0
  7 41  1  0
  8 18  1  0
  8  9  1  0
  8 42  1  1
  9 10  1  0
 10 11  1  0
 10 16  2  0
 11 15  1  0
 11 12  1  0
 12 13  2  0
 12 43  1  0
 13 14  1  0
 13 44  1  0
 14 15  2  0
 15 45  1  0
 16 17  1  0
 16 46  1  0
 17 18  1  0
 17 47  1  0
 17 48  1  0
 18 19  1  6
 18 20  1  0
 19 49  1  0
 19 50  1  0
 19 51  1  0
 20 21  1  0
 20 52  1  1
 21 22  1  0
 21 53  1  0
 21 54  1  0
 22 23  1  0
 22 55  1  0
 22 56  1  0
 23 24  1  6
 23 25  1  0
 24 57  1  0
 24 58  1  0
 24 59  1  0
 25 29  1  0
 25 32  1  0
 25 26  1  1
 26 27  1  0
 27 28  1  0
 27 60  1  0
 27 61  1  0
 28 29  1  0
 29 30  1  0
 29 62  1  6
 30 31  1  0
 30 63  1  0
 30 64  1  0
 31 32  1  0
 31 65  1  0
 31 66  1  0
 32 33  1  1
 33 67  1  0
 33 68  1  0
 33 69  1  0
M  END
>  <i_m_ct_stereo_status>  (176) 
1

>  <s_m_source_file>  (176) 
/var/tmp/pbs.5076255.sched01/tmpazi1eam_/42934yjxx2.sdf

>  <i_m_source_file_index>  (176) 
34

>  <i_lp_mmshare_version>  (176) 
48012

>  <i_f3d_flags>  (176) 
0

>  <s_epik_input>  (176) 
TzFbQ0gyXU9bQ0BIXTJbQ0gyXVtDSDJdW0NAXTMoW0NIM10pW0NASF0oT1tDSDNdKU9bQ0BIXShbQ0BAXTQoW0NAXTEyMylbQ0gzXSlbQ0BIXTVbQ0BASF0oW0NIMl1bQ0gyXTQpW0NAQF02KFtDSDNdKVtDQEhdKFtDSDJdNSlPQyg9W0NIXVtDSDJdNiluN1tjSF1bY0hdbltjSF03

>  <s_epik_cmdline>  (176) 
J2VwaWtfcHl0aG9uJywgJy1waHQnLCAnMi4wJywgJy1waCcsICc3LjAnLCAnLXRuJywgJzgnLCAnLW1hJywgJzIwMCcsICctaW1hZScsICc8aW5maWxlLm1hZT4nLCAnLW9tYWUnLCAnPG91dGZpbGUubWFlPic=

>  <r_epik_Ionization_Penalty>  (176) 
0.382902

>  <r_epik_Ionization_Penalty_Charging>  (176) 
0.382902

>  <r_epik_Ionization_Penalty_Neutral>  (176) 
6.75946e-13

>  <r_epik_State_Penalty>  (176) 
0.381087

>  <r_epik_Charging_Adjusted_Penalty>  (176) 
0.763989

>  <i_epik_Tot_Q>  (176) 
0

>  <i_epik_Tot_abs_Q>  (176) 
0

>  <s_epik_Chemistry_Notes>  (176) 
This compound contains an acetal/aminal-like group ( X-CH(R)-Y where X, Y are N, S, or O) that may be acid/base labile, releasing an aldehyde.

>  <s_lp_Force_Field>  (176) 
OPLS3e

>  <r_lp_Energy>  (176) 
61.1274

>  <b_lp_Chiralities_Consistent>  (176) 
1

>  <s_lp_Variant>  (176) 
50:0-1

>  <s_i_glide_gridfile>  (176) 
pfpi4k_grid

>  <i_i_glide_lignum>  (176) 
34

>  <i_i_glide_rotatable_bonds>  (176) 
2

>  <r_i_docking_score>  (176) 
-1.97362

>  <r_i_glide_ligand_efficiency>  (176) 
-0.0598067

>  <r_i_glide_ligand_efficiency_sa>  (176) 
-0.191832

>  <r_i_glide_ligand_efficiency_ln>  (176) 
-0.438923

>  <r_i_glide_gscore>  (176) 
-1.97362

>  <r_i_glide_lipo>  (176) 
-0.31799

>  <r_i_glide_hbond>  (176) 
0

>  <r_i_glide_metal>  (176) 
-0

>  <r_i_glide_rewards>  (176) 
-0.296083

>  <r_i_glide_evdw>  (176) 
-29.2413

>  <r_i_glide_ecoul>  (176) 
0.480469

>  <r_i_glide_erotb>  (176) 
0.096412

>  <r_i_glide_esite>  (176) 
-0.0659633

>  <r_i_glide_emodel>  (176) 
-31.7158

>  <r_i_glide_energy>  (176) 
-28.7609

>  <r_i_glide_einternal>  (176) 
0.697651

>  <r_i_glide_intrahb_reward>  (176) 
-0

>  <i_i_glide_confnum>  (176) 
2

>  <i_i_glide_posenum>  (176) 
24

>  <r_i_glide_eff_state_penalty>  (176) 
0

>  <ligand_id>  (176) 
50

>  <original_smiles>  (176) 
COC1OC2C3CC4OC(n5ccnc5)=CCC4(C)C3CCC2(C)C23OCOC2CCC13C

>  <smiles>  (176) 
[H]C1=C(n2c([H])nc([H])c2[H])OC2([H])C([H])([H])C3([H])C4([H])OC([H])(OC([H])([H])[H])C5(C([H])([H])[H])C([H])([H])C([H])([H])C6([H])OC([H])([H])OC65C4(C([H])([H])[H])C([H])([H])C([H])([H])C3([H])C2(C([H])([H])[H])C1([H])[H]

$$$$
50:1:0
     RDKit          3D

 70 76  0  0  1  0  0  0  0  0999 V2000
    0.5516  -10.4466    2.4352 C   0  0  0  0  0  0  0  0  0  0  0  0
    0.0391   -9.2236    2.9643 O   0  0  0  0  0  0  0  0  0  0  0  0
    0.9804   -8.3072    3.4489 C   0  0  2  0  0  0  0  0  0  0  0  0
    2.1727   -8.3401    2.7351 O   0  0  0  0  0  0  0  0  0  0  0  0
    3.1792   -7.4045    3.0640 C   0  0  1  0  0  0  0  0  0  0  0  0
    2.8261   -5.9293    2.7887 C   0  0  2  0  0  0  0  0  0  0  0  0
    2.3033   -5.6536    1.3665 C   0  0  0  0  0  0  0  0  0  0  0  0
    2.9461   -4.3242    1.0097 C   0  0  2  0  0  0  0  0  0  0  0  0
    2.9202   -3.9333   -0.3538 O   0  0  0  0  0  0  0  0  0  0  0  0
    3.7046   -2.8229   -0.6402 C   0  0  0  0  0  0  0  0  0  0  0  0
    3.4778   -2.2210   -1.8975 N   0  0  0  0  0  0  0  0  0  0  0  0
    3.9558   -1.0277   -2.3895 C   0  0  0  0  0  0  0  0  0  0  0  0
    3.4207   -0.9050   -3.6373 C   0  0  0  0  0  0  0  0  0  0  0  0
    2.6578   -2.0304   -3.8685 N   0  0  0  0  0  0  0  0  0  0  0  0
    2.6867   -2.8212   -2.7822 C   0  0  0  0  0  0  0  0  0  0  0  0
    4.6054   -2.3167    0.2404 C   0  0  0  0  0  0  0  0  0  0  0  0
    4.8912   -2.9578    1.5930 C   0  0  0  0  0  0  0  0  0  0  0  0
    4.3575   -4.4006    1.5997 C   0  0  2  0  0  0  0  0  0  0  0  0
    5.2957   -5.3078    0.7620 C   0  0  0  0  0  0  0  0  0  0  0  0
    4.0541   -5.0006    3.0017 C   0  0  2  0  0  0  0  0  0  0  0  0
    5.2205   -5.7032    3.7514 C   0  0  0  0  0  0  0  0  0  0  0  0
    4.6807   -6.5382    4.9354 C   0  0  0  0  0  0  0  0  0  0  0  0
    3.6758   -7.6645    4.5054 C   0  0  2  0  0  0  0  0  0  0  0  0
    4.4823   -8.9951    4.4240 C   0  0  0  0  0  0  0  0  0  0  0  0
    2.4336   -7.7050    5.4974 C   0  0  2  0  0  0  0  0  0  0  0  0
    2.0201   -6.3894    5.8351 O   0  0  0  0  0  0  0  0  0  0  0  0
    1.9201   -6.3064    7.2157 C   0  0  0  0  0  0  0  0  0  0  0  0
    2.1273   -7.5376    7.8094 O   0  0  0  0  0  0  0  0  0  0  0  0
    2.7576   -8.3645    6.8509 C   0  0  1  0  0  0  0  0  0  0  0  0
    2.0900   -9.7539    6.8561 C   0  0  0  0  0  0  0  0  0  0  0  0
    1.4492   -9.9053    5.4821 C   0  0  0  0  0  0  0  0  0  0  0  0
    1.1790   -8.4804    4.9970 C   0  0  2  0  0  0  0  0  0  0  0  0
   -0.1628   -8.0154    5.6381 C   0  0  0  0  0  0  0  0  0  0  0  0
   -0.2562  -11.0198    1.9976 H   0  0  0  0  0  0  0  0  0  0  0  0
    1.0254  -11.0956    3.1526 H   0  0  0  0  0  0  0  0  0  0  0  0
    1.2676  -10.2563    1.6427 H   0  0  0  0  0  0  0  0  0  0  0  0
    0.5223   -7.3295    3.2568 H   0  0  0  0  0  0  0  0  0  0  0  0
    3.9803   -7.6612    2.3720 H   0  0  0  0  0  0  0  0  0  0  0  0
    2.0561   -5.6099    3.4912 H   0  0  0  0  0  0  0  0  0  0  0  0
    2.6230   -6.4282    0.6680 H   0  0  0  0  0  0  0  0  0  0  0  0
    1.2184   -5.6057    1.3372 H   0  0  0  0  0  0  0  0  0  0  0  0
    2.3969   -3.5597    1.5626 H   0  0  0  0  0  0  0  0  0  0  0  0
    4.5892   -0.3562   -1.8259 H   0  0  0  0  0  0  0  0  0  0  0  0
    3.5222   -0.1032   -4.3581 H   0  0  0  0  0  0  0  0  0  0  0  0
    2.1560   -3.7570   -2.6826 H   0  0  0  0  0  0  0  0  0  0  0  0
    5.1837   -1.4319    0.0199 H   0  0  0  0  0  0  0  0  0  0  0  0
    5.9657   -2.9311    1.7937 H   0  0  0  0  0  0  0  0  0  0  0  0
    4.4135   -2.3443    2.3603 H   0  0  0  0  0  0  0  0  0  0  0  0
    6.3176   -5.2963    1.1476 H   0  0  0  0  0  0  0  0  0  0  0  0
    5.3565   -4.9849   -0.2780 H   0  0  0  0  0  0  0  0  0  0  0  0
    4.9624   -6.3433    0.7486 H   0  0  0  0  0  0  0  0  0  0  0  0
    3.7149   -4.1926    3.6496 H   0  0  0  0  0  0  0  0  0  0  0  0
    5.8126   -6.3476    3.1094 H   0  0  0  0  0  0  0  0  0  0  0  0
    5.9104   -4.9498    4.1397 H   0  0  0  0  0  0  0  0  0  0  0  0
    5.5267   -6.9840    5.4668 H   0  0  0  0  0  0  0  0  0  0  0  0
    4.2624   -5.8508    5.6637 H   0  0  0  0  0  0  0  0  0  0  0  0
    4.8400   -9.3688    5.3820 H   0  0  0  0  0  0  0  0  0  0  0  0
    5.3725   -8.8675    3.8046 H   0  0  0  0  0  0  0  0  0  0  0  0
    3.9335   -9.7980    3.9400 H   0  0  0  0  0  0  0  0  0  0  0  0
    2.6296   -5.5665    7.5958 H   0  0  0  0  0  0  0  0  0  0  0  0
    0.9025   -5.9973    7.4677 H   0  0  0  0  0  0  0  0  0  0  0  0
    3.8272   -8.4050    7.0658 H   0  0  0  0  0  0  0  0  0  0  0  0
    2.8189  -10.5528    6.9969 H   0  0  0  0  0  0  0  0  0  0  0  0
    1.3489   -9.8452    7.6529 H   0  0  0  0  0  0  0  0  0  0  0  0
    2.1913  -10.4151    4.8910 H   0  0  0  0  0  0  0  0  0  0  0  0
    0.5534  -10.5239    5.5097 H   0  0  0  0  0  0  0  0  0  0  0  0
   -0.1650   -8.1301    6.7234 H   0  0  0  0  0  0  0  0  0  0  0  0
   -1.0003   -8.6111    5.2696 H   0  0  0  0  0  0  0  0  0  0  0  0
   -0.3941   -6.9718    5.4182 H   0  0  0  0  0  0  0  0  0  0  0  0
    2.1367   -2.1969   -4.7173 H   0  0  0  0  0  0  0  0  0  0  0  0
  1  2  1  0
  1 34  1  0
  1 35  1  0
  1 36  1  0
  2  3  1  0
  3 32  1  0
  3  4  1  0
  3 37  1  1
  4  5  1  0
  5 23  1  0
  5  6  1  0
  5 38  1  6
  6 20  1  0
  6  7  1  0
  6 39  1  1
  7  8  1  0
  7 40  1  0
  7 41  1  0
  8 18  1  0
  8  9  1  0
  8 42  1  1
  9 10  1  0
 10 11  1  0
 10 16  2  0
 11 15  1  0
 11 12  1  0
 12 13  2  0
 12 43  1  0
 13 14  1  0
 13 44  1  0
 14 15  2  0
 14 70  1  0
 15 45  1  0
 16 17  1  0
 16 46  1  0
 17 18  1  0
 17 47  1  0
 17 48  1  0
 18 19  1  6
 18 20  1  0
 19 49  1  0
 19 50  1  0
 19 51  1  0
 20 21  1  0
 20 52  1  1
 21 22  1  0
 21 53  1  0
 21 54  1  0
 22 23  1  0
 22 55  1  0
 22 56  1  0
 23 24  1  6
 23 25  1  0
 24 57  1  0
 24 58  1  0
 24 59  1  0
 25 29  1  0
 25 32  1  0
 25 26  1  1
 26 27  1  0
 27 28  1  0
 27 60  1  0
 27 61  1  0
 28 29  1  0
 29 30  1  0
 29 62  1  1
 30 31  1  0
 30 63  1  0
 30 64  1  0
 31 32  1  0
 31 65  1  0
 31 66  1  0
 32 33  1  1
 33 67  1  0
 33 68  1  0
 33 69  1  0
M  CHG  1  14   1
M  END
>  <i_m_ct_stereo_status>  (177) 
1

>  <s_m_source_file>  (177) 
/var/tmp/pbs.5076255.sched01/tmpazi1eam_/42934yjxx2.sdf

>  <i_m_source_file_index>  (177) 
35

>  <i_lp_mmshare_version>  (177) 
48012

>  <i_f3d_flags>  (177) 
0

>  <s_epik_input>  (177) 
TzFbQ0gyXU9bQ0BIXTJbQ0gyXVtDSDJdW0NAXTMoW0NIM10pW0NASF0oT1tDSDNdKU9bQ0BIXShbQ0BAXTQoW0NAXTEyMylbQ0gzXSlbQ0BIXTVbQ0BASF0oW0NIMl1bQ0gyXTQpW0NAQF02KFtDSDNdKVtDQEhdKFtDSDJdNSlPQyg9W0NIXVtDSDJdNiluN1tjSF1bY0hdbltjSF03

>  <s_epik_cmdline>  (177) 
J2VwaWtfcHl0aG9uJywgJy1waHQnLCAnMi4wJywgJy1waCcsICc3LjAnLCAnLXRuJywgJzgnLCAnLW1hJywgJzIwMCcsICctaW1hZScsICc8aW5maWxlLm1hZT4nLCAnLW9tYWUnLCAnPG91dGZpbGUubWFlPic=

>  <r_epik_Ionization_Penalty>  (177) 
0.439825

>  <r_epik_Ionization_Penalty_Charging>  (177) 
0

>  <r_epik_Ionization_Penalty_Neutral>  (177) 
0.439825

>  <r_epik_State_Penalty>  (177) 
0.441829

>  <r_epik_Charging_Adjusted_Penalty>  (177) 
0.441829

>  <i_epik_Tot_Q>  (177) 
1

>  <i_epik_Tot_abs_Q>  (177) 
1

>  <s_epik_Chemistry_Notes>  (177) 
This compound contains an acetal/aminal-like group ( X-CH(R)-Y where X, Y are N, S, or O) that may be acid/base labile, releasing an aldehyde.

>  <s_lp_Force_Field>  (177) 
OPLS3e

>  <r_lp_Energy>  (177) 
66.389

>  <b_lp_Chiralities_Consistent>  (177) 
1

>  <s_lp_Variant>  (177) 
50:0-2

>  <s_i_glide_gridfile>  (177) 
pfpi4k_grid

>  <i_i_glide_lignum>  (177) 
35

>  <i_i_glide_rotatable_bonds>  (177) 
2

>  <r_i_docking_score>  (177) 
-2.99438

>  <r_i_glide_ligand_efficiency>  (177) 
-0.0907387

>  <r_i_glide_ligand_efficiency_sa>  (177) 
-0.291048

>  <r_i_glide_ligand_efficiency_ln>  (177) 
-0.665934

>  <r_i_glide_gscore>  (177) 
-2.99438

>  <r_i_glide_lipo>  (177) 
-0.588788

>  <r_i_glide_hbond>  (177) 
0

>  <r_i_glide_metal>  (177) 
-0

>  <r_i_glide_rewards>  (177) 
-0.289211

>  <r_i_glide_evdw>  (177) 
-26.9861

>  <r_i_glide_ecoul>  (177) 
-5.28245

>  <r_i_glide_erotb>  (177) 
0.0960258

>  <r_i_glide_esite>  (177) 
-0.0707328

>  <r_i_glide_emodel>  (177) 
-35.4139

>  <r_i_glide_energy>  (177) 
-32.2685

>  <r_i_glide_einternal>  (177) 
4.61606

>  <r_i_glide_intrahb_reward>  (177) 
-0

>  <i_i_glide_confnum>  (177) 
2

>  <i_i_glide_posenum>  (177) 
1

>  <r_i_glide_eff_state_penalty>  (177) 
0

>  <ligand_id>  (177) 
50

>  <original_smiles>  (177) 
COC1OC2C3CC4OC(n5ccnc5)=CCC4(C)C3CCC2(C)C23OCOC2CCC13C

>  <smiles>  (177) 
[H]C1=C(n2c([H])c([H])[n+]([H])c2[H])OC2([H])C([H])([H])C3([H])C4([H])OC([H])(OC([H])([H])[H])C5(C([H])([H])[H])C([H])([H])C([H])([H])C6([H])OC([H])([H])OC65C4(C([H])([H])[H])C([H])([H])C([H])([H])C3([H])C2(C([H])([H])[H])C1([H])[H]

$$$$
50:1:1
     RDKit          3D

 70 76  0  0  1  0  0  0  0  0999 V2000
    5.6463   -4.2817   -0.0566 C   0  0  0  0  0  0  0  0  0  0  0  0
    5.8085   -5.5288    0.6110 O   0  0  0  0  0  0  0  0  0  0  0  0
    4.9241   -5.7012    1.6752 C   0  0  2  0  0  0  0  0  0  0  0  0
    5.2111   -4.8303    2.7150 O   0  0  0  0  0  0  0  0  0  0  0  0
    4.3333   -4.8491    3.8383 C   0  0  1  0  0  0  0  0  0  0  0  0
    2.8594   -4.4700    3.5614 C   0  0  2  0  0  0  0  0  0  0  0  0
    2.6691   -3.1378    2.8124 C   0  0  0  0  0  0  0  0  0  0  0  0
    1.4536   -2.5208    3.4849 C   0  0  2  0  0  0  0  0  0  0  0  0
    1.2047   -1.1444    3.2564 O   0  0  0  0  0  0  0  0  0  0  0  0
    0.2139   -0.6060    4.0453 C   0  0  0  0  0  0  0  0  0  0  0  0
   -0.2979    0.6623    3.6318 N   0  0  0  0  0  0  0  0  0  0  0  0
   -1.3999    1.3223    4.0583 C   0  0  0  0  0  0  0  0  0  0  0  0
   -1.4499    2.4815    3.3238 C   0  0  0  0  0  0  0  0  0  0  0  0
   -0.3706    2.4472    2.4918 N   0  0  0  0  0  0  0  0  0  0  0  0
    0.3371    1.3375    2.6776 C   0  0  0  0  0  0  0  0  0  0  0  0
   -0.3082   -1.2566    5.1280 C   0  0  0  0  0  0  0  0  0  0  0  0
    0.2201   -2.6063    5.5983 C   0  0  0  0  0  0  0  0  0  0  0  0
    1.6007   -2.8715    4.9696 C   0  0  2  0  0  0  0  0  0  0  0  0
    2.6688   -1.9960    5.6711 C   0  0  0  0  0  0  0  0  0  0  0  0
    2.0315   -4.3626    4.8755 C   0  0  2  0  0  0  0  0  0  0  0  0
    2.7597   -4.9766    6.1030 C   0  0  0  0  0  0  0  0  0  0  0  0
    3.4173   -6.3209    5.7242 C   0  0  0  0  0  0  0  0  0  0  0  0
    4.4839   -6.2016    4.5765 C   0  0  2  0  0  0  0  0  0  0  0  0
    5.8835   -6.1422    5.2548 C   0  0  0  0  0  0  0  0  0  0  0  0
    4.3053   -7.3861    3.5305 C   0  0  2  0  0  0  0  0  0  0  0  0
    2.9255   -7.6419    3.3001 O   0  0  0  0  0  0  0  0  0  0  0  0
    2.7017   -9.0023    3.4540 C   0  0  0  0  0  0  0  0  0  0  0  0
    3.8901   -9.6773    3.6696 O   0  0  0  0  0  0  0  0  0  0  0  0
    4.8640   -8.7188    4.0424 C   0  0  1  0  0  0  0  0  0  0  0  0
    6.1887   -8.9658    3.2859 C   0  0  0  0  0  0  0  0  0  0  0  0
    6.4068   -7.7453    2.3639 C   0  0  0  0  0  0  0  0  0  0  0  0
    4.9952   -7.1990    2.1455 C   0  0  2  0  0  0  0  0  0  0  0  0
    4.3441   -8.0198    1.0005 C   0  0  0  0  0  0  0  0  0  0  0  0
    6.3621   -4.2056   -0.8737 H   0  0  0  0  0  0  0  0  0  0  0  0
    5.8239   -3.4389    0.6100 H   0  0  0  0  0  0  0  0  0  0  0  0
    4.6508   -4.1811   -0.4883 H   0  0  0  0  0  0  0  0  0  0  0  0
    3.9243   -5.4797    1.2981 H   0  0  0  0  0  0  0  0  0  0  0  0
    4.7322   -4.0647    4.4804 H   0  0  0  0  0  0  0  0  0  0  0  0
    2.3954   -5.2548    2.9615 H   0  0  0  0  0  0  0  0  0  0  0  0
    3.5386   -2.4884    2.9364 H   0  0  0  0  0  0  0  0  0  0  0  0
    2.5072   -3.2820    1.7451 H   0  0  0  0  0  0  0  0  0  0  0  0
    0.5894   -3.0664    3.1057 H   0  0  0  0  0  0  0  0  0  0  0  0
   -2.0935    0.9463    4.8013 H   0  0  0  0  0  0  0  0  0  0  0  0
   -2.1761    3.2857    3.3389 H   0  0  0  0  0  0  0  0  0  0  0  0
    1.2417    1.0697    2.1412 H   0  0  0  0  0  0  0  0  0  0  0  0
   -1.1045   -0.8316    5.7131 H   0  0  0  0  0  0  0  0  0  0  0  0
    0.2768   -2.6170    6.6928 H   0  0  0  0  0  0  0  0  0  0  0  0
   -0.5097   -3.3696    5.3177 H   0  0  0  0  0  0  0  0  0  0  0  0
    2.7162   -2.1962    6.7443 H   0  0  0  0  0  0  0  0  0  0  0  0
    2.4583   -0.9306    5.5680 H   0  0  0  0  0  0  0  0  0  0  0  0
    3.6642   -2.1598    5.2631 H   0  0  0  0  0  0  0  0  0  0  0  0
    1.1369   -4.9606    4.7230 H   0  0  0  0  0  0  0  0  0  0  0  0
    3.5134   -4.3236    6.5207 H   0  0  0  0  0  0  0  0  0  0  0  0
    2.0381   -5.1501    6.9078 H   0  0  0  0  0  0  0  0  0  0  0  0
    3.8818   -6.7507    6.6182 H   0  0  0  0  0  0  0  0  0  0  0  0
    2.6260   -7.0246    5.5028 H   0  0  0  0  0  0  0  0  0  0  0  0
    6.1848   -7.0606    5.7551 H   0  0  0  0  0  0  0  0  0  0  0  0
    5.9008   -5.3675    6.0263 H   0  0  0  0  0  0  0  0  0  0  0  0
    6.6772   -5.8658    4.5672 H   0  0  0  0  0  0  0  0  0  0  0  0
    1.9911   -9.1746    4.2696 H   0  0  0  0  0  0  0  0  0  0  0  0
    2.2694   -9.3937    2.5257 H   0  0  0  0  0  0  0  0  0  0  0  0
    4.9759   -8.7622    5.1255 H   0  0  0  0  0  0  0  0  0  0  0  0
    7.0257   -9.0960    3.9724 H   0  0  0  0  0  0  0  0  0  0  0  0
    6.1132   -9.8847    2.7042 H   0  0  0  0  0  0  0  0  0  0  0  0
    7.0570   -7.0199    2.8339 H   0  0  0  0  0  0  0  0  0  0  0  0
    6.8956   -8.0357    1.4363 H   0  0  0  0  0  0  0  0  0  0  0  0
    4.3496   -9.0963    1.1926 H   0  0  0  0  0  0  0  0  0  0  0  0
    4.8738   -7.8761    0.0615 H   0  0  0  0  0  0  0  0  0  0  0  0
    3.3103   -7.7197    0.8444 H   0  0  0  0  0  0  0  0  0  0  0  0
   -0.1527    3.2153    1.7970 H   0  0  0  0  0  0  0  0  0  0  0  0
  1  2  1  0
  1 34  1  0
  1 35  1  0
  1 36  1  0
  2  3  1  0
  3 32  1  0
  3  4  1  0
  3 37  1  6
  4  5  1  0
  5 23  1  0
  5  6  1  0
  5 38  1  1
  6 20  1  0
  6  7  1  0
  6 39  1  6
  7  8  1  0
  7 40  1  0
  7 41  1  0
  8 18  1  0
  8  9  1  0
  8 42  1  6
  9 10  1  0
 10 11  1  0
 10 16  2  0
 11 15  1  0
 11 12  1  0
 12 13  2  0
 12 43  1  0
 13 14  1  0
 13 44  1  0
 14 15  2  0
 14 70  1  0
 15 45  1  0
 16 17  1  0
 16 46  1  0
 17 18  1  0
 17 47  1  0
 17 48  1  0
 18 19  1  1
 18 20  1  0
 19 49  1  0
 19 50  1  0
 19 51  1  0
 20 21  1  0
 20 52  1  6
 21 22  1  0
 21 53  1  0
 21 54  1  0
 22 23  1  0
 22 55  1  0
 22 56  1  0
 23 24  1  1
 23 25  1  0
 24 57  1  0
 24 58  1  0
 24 59  1  0
 25 29  1  0
 25 32  1  0
 25 26  1  6
 26 27  1  0
 27 28  1  0
 27 60  1  0
 27 61  1  0
 28 29  1  0
 29 30  1  0
 29 62  1  1
 30 31  1  0
 30 63  1  0
 30 64  1  0
 31 32  1  0
 31 65  1  0
 31 66  1  0
 32 33  1  6
 33 67  1  0
 33 68  1  0
 33 69  1  0
M  CHG  1  14   1
M  END
>  <i_m_ct_stereo_status>  (178) 
1

>  <s_m_source_file>  (178) 
/var/tmp/pbs.5076255.sched01/tmpazi1eam_/42934yjxx2.sdf

>  <i_m_source_file_index>  (178) 
35

>  <i_lp_mmshare_version>  (178) 
48012

>  <i_f3d_flags>  (178) 
0

>  <s_epik_input>  (178) 
TzFbQ0gyXU9bQ0BIXTJbQ0gyXVtDSDJdW0NAXTMoW0NIM10pW0NASF0oT1tDSDNdKU9bQ0BIXShbQ0BAXTQoW0NAXTEyMylbQ0gzXSlbQ0BIXTVbQ0BASF0oW0NIMl1bQ0gyXTQpW0NAQF02KFtDSDNdKVtDQEhdKFtDSDJdNSlPQyg9W0NIXVtDSDJdNiluN1tjSF1bY0hdbltjSF03

>  <s_epik_cmdline>  (178) 
J2VwaWtfcHl0aG9uJywgJy1waHQnLCAnMi4wJywgJy1waCcsICc3LjAnLCAnLXRuJywgJzgnLCAnLW1hJywgJzIwMCcsICctaW1hZScsICc8aW5maWxlLm1hZT4nLCAnLW9tYWUnLCAnPG91dGZpbGUubWFlPic=

>  <r_epik_Ionization_Penalty>  (178) 
0.439825

>  <r_epik_Ionization_Penalty_Charging>  (178) 
0

>  <r_epik_Ionization_Penalty_Neutral>  (178) 
0.439825

>  <r_epik_State_Penalty>  (178) 
0.441829

>  <r_epik_Charging_Adjusted_Penalty>  (178) 
0.441829

>  <i_epik_Tot_Q>  (178) 
1

>  <i_epik_Tot_abs_Q>  (178) 
1

>  <s_epik_Chemistry_Notes>  (178) 
This compound contains an acetal/aminal-like group ( X-CH(R)-Y where X, Y are N, S, or O) that may be acid/base labile, releasing an aldehyde.

>  <s_lp_Force_Field>  (178) 
OPLS3e

>  <r_lp_Energy>  (178) 
66.389

>  <b_lp_Chiralities_Consistent>  (178) 
1

>  <s_lp_Variant>  (178) 
50:0-2

>  <s_i_glide_gridfile>  (178) 
pfpi4k_grid

>  <i_i_glide_lignum>  (178) 
35

>  <i_i_glide_rotatable_bonds>  (178) 
2

>  <r_i_docking_score>  (178) 
-2.67071

>  <r_i_glide_ligand_efficiency>  (178) 
-0.0809305

>  <r_i_glide_ligand_efficiency_sa>  (178) 
-0.259587

>  <r_i_glide_ligand_efficiency_ln>  (178) 
-0.593952

>  <r_i_glide_gscore>  (178) 
-2.67071

>  <r_i_glide_lipo>  (178) 
-0.177198

>  <r_i_glide_hbond>  (178) 
-0.2

>  <r_i_glide_metal>  (178) 
-0

>  <r_i_glide_rewards>  (178) 
-0.342354

>  <r_i_glide_evdw>  (178) 
-19.672

>  <r_i_glide_ecoul>  (178) 
-5.8925

>  <r_i_glide_erotb>  (178) 
0.0960258

>  <r_i_glide_esite>  (178) 
-0.179708

>  <r_i_glide_emodel>  (178) 
-30.2579

>  <r_i_glide_energy>  (178) 
-25.5645

>  <r_i_glide_einternal>  (178) 
0.410908

>  <r_i_glide_intrahb_reward>  (178) 
-0

>  <i_i_glide_confnum>  (178) 
2

>  <i_i_glide_posenum>  (178) 
35

>  <r_i_glide_eff_state_penalty>  (178) 
0

>  <ligand_id>  (178) 
50

>  <original_smiles>  (178) 
COC1OC2C3CC4OC(n5ccnc5)=CCC4(C)C3CCC2(C)C23OCOC2CCC13C

>  <smiles>  (178) 
[H]C1=C(n2c([H])c([H])[n+]([H])c2[H])OC2([H])C([H])([H])C3([H])C4([H])OC([H])(OC([H])([H])[H])C5(C([H])([H])[H])C([H])([H])C([H])([H])C6([H])OC([H])([H])OC65C4(C([H])([H])[H])C([H])([H])C([H])([H])C3([H])C2(C([H])([H])[H])C1([H])[H]

$$$$
50:1:2
     RDKit          3D

 70 76  0  0  1  0  0  0  0  0999 V2000
    4.4088   -6.1815    0.0693 C   0  0  0  0  0  0  0  0  0  0  0  0
    4.2649   -7.3722    0.8355 O   0  0  0  0  0  0  0  0  0  0  0  0
    3.4993   -7.1983    1.9874 C   0  0  2  0  0  0  0  0  0  0  0  0
    4.1347   -6.3425    2.8828 O   0  0  0  0  0  0  0  0  0  0  0  0
    3.4266   -6.0142    4.0746 C   0  0  1  0  0  0  0  0  0  0  0  0
    2.0844   -5.2652    3.8883 C   0  0  2  0  0  0  0  0  0  0  0  0
    2.1654   -4.0080    2.9988 C   0  0  0  0  0  0  0  0  0  0  0  0
    1.2402   -3.0248    3.6980 C   0  0  2  0  0  0  0  0  0  0  0  0
    1.3097   -1.6609    3.2962 O   0  0  0  0  0  0  0  0  0  0  0  0
    0.6109   -0.8019    4.1223 C   0  0  0  0  0  0  0  0  0  0  0  0
    0.4410    0.5032    3.6136 N   0  0  0  0  0  0  0  0  0  0  0  0
   -0.0493    1.6200    4.2498 C   0  0  0  0  0  0  0  0  0  0  0  0
   -0.0210    2.6332    3.3263 C   0  0  0  0  0  0  0  0  0  0  0  0
    0.4818    2.1003    2.1673 N   0  0  0  0  0  0  0  0  0  0  0  0
    0.7611    0.7931    2.3366 C   0  0  0  0  0  0  0  0  0  0  0  0
    0.1058   -1.1679    5.3293 C   0  0  0  0  0  0  0  0  0  0  0  0
    0.3133   -2.5542    5.9195 C   0  0  0  0  0  0  0  0  0  0  0  0
    1.4808   -3.2515    5.1959 C   0  0  2  0  0  0  0  0  0  0  0  0
    2.8253   -2.6441    5.6757 C   0  0  0  0  0  0  0  0  0  0  0  0
    1.4892   -4.8035    5.2516 C   0  0  2  0  0  0  0  0  0  0  0  0
    2.1654   -5.4805    6.4735 C   0  0  0  0  0  0  0  0  0  0  0  0
    2.3990   -6.9845    6.2103 C   0  0  0  0  0  0  0  0  0  0  0  0
    3.2989   -7.2806    4.9569 C   0  0  2  0  0  0  0  0  0  0  0  0
    4.7411   -7.5440    5.4909 C   0  0  0  0  0  0  0  0  0  0  0  0
    2.6840   -8.4583    4.0893 C   0  0  2  0  0  0  0  0  0  0  0  0
    1.2707   -8.3399    4.0236 O   0  0  0  0  0  0  0  0  0  0  0  0
    0.7038   -9.5631    4.3633 C   0  0  0  0  0  0  0  0  0  0  0  0
    1.6931  -10.5141    4.5482 O   0  0  0  0  0  0  0  0  0  0  0  0
    2.9242   -9.8416    4.7084 C   0  0  1  0  0  0  0  0  0  0  0  0
    4.0334  -10.5148    3.8704 C   0  0  0  0  0  0  0  0  0  0  0  0
    4.4503   -9.5002    2.7858 C   0  0  0  0  0  0  0  0  0  0  0  0
    3.2215   -8.5950    2.6275 C   0  0  2  0  0  0  0  0  0  0  0  0
    2.2415   -9.3118    1.6580 C   0  0  0  0  0  0  0  0  0  0  0  0
    5.0042   -6.3804   -0.8171 H   0  0  0  0  0  0  0  0  0  0  0  0
    4.9195   -5.3977    0.6268 H   0  0  0  0  0  0  0  0  0  0  0  0
    3.4463   -5.7992   -0.2690 H   0  0  0  0  0  0  0  0  0  0  0  0
    2.5577   -6.7398    1.6784 H   0  0  0  0  0  0  0  0  0  0  0  0
    4.0961   -5.3105    4.5721 H   0  0  0  0  0  0  0  0  0  0  0  0
    1.3604   -5.9435    3.4367 H   0  0  0  0  0  0  0  0  0  0  0  0
    3.1827   -3.6168    2.9575 H   0  0  0  0  0  0  0  0  0  0  0  0
    1.8406   -4.2074    1.9784 H   0  0  0  0  0  0  0  0  0  0  0  0
    0.2212   -3.3444    3.4780 H   0  0  0  0  0  0  0  0  0  0  0  0
   -0.3670    1.6336    5.2790 H   0  0  0  0  0  0  0  0  0  0  0  0
   -0.3090    3.6679    3.3872 H   0  0  0  0  0  0  0  0  0  0  0  0
    1.1515    0.1259    1.5782 H   0  0  0  0  0  0  0  0  0  0  0  0
   -0.4617   -0.4792    5.9362 H   0  0  0  0  0  0  0  0  0  0  0  0
    0.5016   -2.4827    6.9934 H   0  0  0  0  0  0  0  0  0  0  0  0
   -0.6201   -3.1078    5.8039 H   0  0  0  0  0  0  0  0  0  0  0  0
    2.9526   -2.7446    6.7561 H   0  0  0  0  0  0  0  0  0  0  0  0
    2.8942   -1.5785    5.4575 H   0  0  0  0  0  0  0  0  0  0  0  0
    3.6836   -3.1174    5.2017 H   0  0  0  0  0  0  0  0  0  0  0  0
    0.4521   -5.1447    5.2561 H   0  0  0  0  0  0  0  0  0  0  0  0
    3.1216   -5.0249    6.7306 H   0  0  0  0  0  0  0  0  0  0  0  0
    1.5359   -5.3650    7.3560 H   0  0  0  0  0  0  0  0  0  0  0  0
    2.8319   -7.4428    7.1002 H   0  0  0  0  0  0  0  0  0  0  0  0
    1.4187   -7.4529    6.1453 H   0  0  0  0  0  0  0  0  0  0  0  0
    4.8465   -8.4587    6.0729 H   0  0  0  0  0  0  0  0  0  0  0  0
    5.0611   -6.7352    6.1516 H   0  0  0  0  0  0  0  0  0  0  0  0
    5.4886   -7.5700    4.7015 H   0  0  0  0  0  0  0  0  0  0  0  0
    0.0799   -9.4577    5.2551 H   0  0  0  0  0  0  0  0  0  0  0  0
    0.0749   -9.9026    3.5382 H   0  0  0  0  0  0  0  0  0  0  0  0
    3.1572   -9.8112    5.7739 H   0  0  0  0  0  0  0  0  0  0  0  0
    4.8819  -10.8114    4.4861 H   0  0  0  0  0  0  0  0  0  0  0  0
    3.6452  -11.4288    3.4146 H   0  0  0  0  0  0  0  0  0  0  0  0
    5.3271   -8.9430    3.0969 H   0  0  0  0  0  0  0  0  0  0  0  0
    4.7246  -10.0047    1.8602 H   0  0  0  0  0  0  0  0  0  0  0  0
    1.9827  -10.3113    2.0030 H   0  0  0  0  0  0  0  0  0  0  0  0
    2.6781   -9.4373    0.6665 H   0  0  0  0  0  0  0  0  0  0  0  0
    1.3110   -8.7580    1.5346 H   0  0  0  0  0  0  0  0  0  0  0  0
    0.5844    2.6614    1.3188 H   0  0  0  0  0  0  0  0  0  0  0  0
  1  2  1  0
  1 34  1  0
  1 35  1  0
  1 36  1  0
  2  3  1  0
  3 32  1  0
  3  4  1  0
  3 37  1  6
  4  5  1  0
  5 23  1  0
  5  6  1  0
  5 38  1  1
  6 20  1  0
  6  7  1  0
  6 39  1  6
  7  8  1  0
  7 40  1  0
  7 41  1  0
  8 18  1  0
  8  9  1  0
  8 42  1  1
  9 10  1  0
 10 11  1  0
 10 16  2  0
 11 15  1  0
 11 12  1  0
 12 13  2  0
 12 43  1  0
 13 14  1  0
 13 44  1  0
 14 15  2  0
 14 70  1  0
 15 45  1  0
 16 17  1  0
 16 46  1  0
 17 18  1  0
 17 47  1  0
 17 48  1  0
 18 19  1  1
 18 20  1  0
 19 49  1  0
 19 50  1  0
 19 51  1  0
 20 21  1  0
 20 52  1  6
 21 22  1  0
 21 53  1  0
 21 54  1  0
 22 23  1  0
 22 55  1  0
 22 56  1  0
 23 24  1  1
 23 25  1  0
 24 57  1  0
 24 58  1  0
 24 59  1  0
 25 29  1  0
 25 32  1  0
 25 26  1  6
 26 27  1  0
 27 28  1  0
 27 60  1  0
 27 61  1  0
 28 29  1  0
 29 30  1  0
 29 62  1  1
 30 31  1  0
 30 63  1  0
 30 64  1  0
 31 32  1  0
 31 65  1  0
 31 66  1  0
 32 33  1  6
 33 67  1  0
 33 68  1  0
 33 69  1  0
M  CHG  1  14   1
M  END
>  <i_m_ct_stereo_status>  (179) 
1

>  <s_m_source_file>  (179) 
/var/tmp/pbs.5076255.sched01/tmpazi1eam_/42934yjxx2.sdf

>  <i_m_source_file_index>  (179) 
35

>  <i_lp_mmshare_version>  (179) 
48012

>  <i_f3d_flags>  (179) 
0

>  <s_epik_input>  (179) 
TzFbQ0gyXU9bQ0BIXTJbQ0gyXVtDSDJdW0NAXTMoW0NIM10pW0NASF0oT1tDSDNdKU9bQ0BIXShbQ0BAXTQoW0NAXTEyMylbQ0gzXSlbQ0BIXTVbQ0BASF0oW0NIMl1bQ0gyXTQpW0NAQF02KFtDSDNdKVtDQEhdKFtDSDJdNSlPQyg9W0NIXVtDSDJdNiluN1tjSF1bY0hdbltjSF03

>  <s_epik_cmdline>  (179) 
J2VwaWtfcHl0aG9uJywgJy1waHQnLCAnMi4wJywgJy1waCcsICc3LjAnLCAnLXRuJywgJzgnLCAnLW1hJywgJzIwMCcsICctaW1hZScsICc8aW5maWxlLm1hZT4nLCAnLW9tYWUnLCAnPG91dGZpbGUubWFlPic=

>  <r_epik_Ionization_Penalty>  (179) 
0.439825

>  <r_epik_Ionization_Penalty_Charging>  (179) 
0

>  <r_epik_Ionization_Penalty_Neutral>  (179) 
0.439825

>  <r_epik_State_Penalty>  (179) 
0.441829

>  <r_epik_Charging_Adjusted_Penalty>  (179) 
0.441829

>  <i_epik_Tot_Q>  (179) 
1

>  <i_epik_Tot_abs_Q>  (179) 
1

>  <s_epik_Chemistry_Notes>  (179) 
This compound contains an acetal/aminal-like group ( X-CH(R)-Y where X, Y are N, S, or O) that may be acid/base labile, releasing an aldehyde.

>  <s_lp_Force_Field>  (179) 
OPLS3e

>  <r_lp_Energy>  (179) 
66.389

>  <b_lp_Chiralities_Consistent>  (179) 
1

>  <s_lp_Variant>  (179) 
50:0-2

>  <s_i_glide_gridfile>  (179) 
pfpi4k_grid

>  <i_i_glide_lignum>  (179) 
35

>  <i_i_glide_rotatable_bonds>  (179) 
2

>  <r_i_docking_score>  (179) 
-2.5327

>  <r_i_glide_ligand_efficiency>  (179) 
-0.0767484

>  <r_i_glide_ligand_efficiency_sa>  (179) 
-0.246173

>  <r_i_glide_ligand_efficiency_ln>  (179) 
-0.563259

>  <r_i_glide_gscore>  (179) 
-2.5327

>  <r_i_glide_lipo>  (179) 
-0.17984

>  <r_i_glide_hbond>  (179) 
-0.152713

>  <r_i_glide_metal>  (179) 
-0

>  <r_i_glide_rewards>  (179) 
-0.329505

>  <r_i_glide_evdw>  (179) 
-21.1682

>  <r_i_glide_ecoul>  (179) 
-4.72801

>  <r_i_glide_erotb>  (179) 
0.0960258

>  <r_i_glide_esite>  (179) 
-0.199054

>  <r_i_glide_emodel>  (179) 
-30.3615

>  <r_i_glide_energy>  (179) 
-25.8962

>  <r_i_glide_einternal>  (179) 
0.355189

>  <r_i_glide_intrahb_reward>  (179) 
-0

>  <i_i_glide_confnum>  (179) 
4

>  <i_i_glide_posenum>  (179) 
2

>  <r_i_glide_eff_state_penalty>  (179) 
0

>  <ligand_id>  (179) 
50

>  <original_smiles>  (179) 
COC1OC2C3CC4OC(n5ccnc5)=CCC4(C)C3CCC2(C)C23OCOC2CCC13C

>  <smiles>  (179) 
[H]C1=C(n2c([H])c([H])[n+]([H])c2[H])OC2([H])C([H])([H])C3([H])C4([H])OC([H])(OC([H])([H])[H])C5(C([H])([H])[H])C([H])([H])C([H])([H])C6([H])OC([H])([H])OC65C4(C([H])([H])[H])C([H])([H])C([H])([H])C3([H])C2(C([H])([H])[H])C1([H])[H]

$$$$
52:0:0
     RDKit          3D

 35 40  0  0  1  0  0  0  0  0999 V2000
    7.5556   -3.5317    0.7348 O   0  0  0  0  0  0  0  0  0  0  0  0
    7.1428   -2.4774    0.2216 C   0  0  0  0  0  0  0  0  0  0  0  0
    7.8476   -1.4614    0.0291 O   0  0  0  0  0  0  0  0  0  0  0  0
    5.6547   -2.3555   -0.2347 C   0  0  1  0  0  0  0  0  0  0  0  0
    4.9914   -1.3913    0.8283 C   0  0  0  0  0  0  0  0  0  0  0  0
    3.7431   -1.9325    1.5398 C   0  0  2  0  0  0  0  0  0  0  0  0
    3.7424   -3.1979    2.3764 C   0  0  0  0  0  0  0  0  0  0  0  0
    2.9280   -3.1559    1.0926 C   0  0  2  0  0  0  0  0  0  0  0  0
    3.3185   -3.9552   -0.1474 C   0  0  1  0  0  0  0  0  0  0  0  0
    2.5779   -3.4534   -1.5432 C   0  0  1  0  0  0  0  0  0  0  0  0
    2.9807   -3.0585   -3.0727 C   0  0  0  0  0  0  0  0  0  0  0  0
    4.0941   -1.9646   -2.6825 C   0  0  2  0  0  0  0  0  0  0  0  0
    3.6548   -0.6334   -2.7917 O   0  0  0  0  0  0  0  0  0  0  0  0
    3.7822   -2.8019   -1.6411 C   0  0  2  0  0  0  0  0  0  0  0  0
    4.9077   -3.8731   -1.6078 C   0  0  1  0  0  0  0  0  0  0  0  0
    6.0644   -3.2921   -2.3656 C   0  0  0  0  0  0  0  0  0  0  0  0
    5.5663   -1.9755   -1.8980 C   0  0  2  0  0  0  0  0  0  0  0  0
    4.9396   -3.8029   -0.2050 C   0  0  1  0  0  0  0  0  0  0  0  0
    5.6883   -1.1229    1.6072 H   0  0  0  0  0  0  0  0  0  0  0  0
    4.7335   -0.4577    0.3318 H   0  0  0  0  0  0  0  0  0  0  0  0
    3.1476   -1.1209    1.9839 H   0  0  0  0  0  0  0  0  0  0  0  0
    4.6515   -3.8036    2.3995 H   0  0  0  0  0  0  0  0  0  0  0  0
    3.1791   -3.1694    3.3022 H   0  0  0  0  0  0  0  0  0  0  0  0
    1.8505   -3.0774    1.2502 H   0  0  0  0  0  0  0  0  0  0  0  0
    3.0732   -5.0028    0.0421 H   0  0  0  0  0  0  0  0  0  0  0  0
    1.6865   -2.8681   -1.3353 H   0  0  0  0  0  0  0  0  0  0  0  0
    3.3577   -3.9075   -3.6662 H   0  0  0  0  0  0  0  0  0  0  0  0
    2.1149   -2.6270   -3.6014 H   0  0  0  0  0  0  0  0  0  0  0  0
    2.8096   -0.5894   -2.3805 H   0  0  0  0  0  0  0  0  0  0  0  0
    3.5419   -1.9587   -0.9452 H   0  0  0  0  0  0  0  0  0  0  0  0
    4.6190   -4.8738   -1.9677 H   0  0  0  0  0  0  0  0  0  0  0  0
    7.0566   -3.6199   -2.0678 H   0  0  0  0  0  0  0  0  0  0  0  0
    5.9475   -3.4191   -3.4491 H   0  0  0  0  0  0  0  0  0  0  0  0
    6.2103   -1.1520   -2.1974 H   0  0  0  0  0  0  0  0  0  0  0  0
    5.4922   -4.6275    0.2437 H   0  0  0  0  0  0  0  0  0  0  0  0
  1  2  2  0
  2  3  1  0
  4  2  1  1
  4 17  1  0
  4 18  1  0
  4  5  1  0
  5  6  1  0
  5 19  1  0
  5 20  1  0
  6  8  1  0
  6  7  1  0
  6 21  1  1
  7  8  1  0
  7 22  1  0
  7 23  1  0
  8  9  1  0
  8 24  1  1
  9 18  1  0
  9 10  1  0
  9 25  1  1
 10 14  1  0
 10 11  1  0
 10 26  1  1
 11 12  1  0
 11 27  1  0
 11 28  1  0
 12 17  1  0
 12 13  1  6
 12 14  1  0
 13 29  1  0
 14 15  1  0
 14 30  1  1
 15 16  1  0
 15 18  1  0
 15 31  1  1
 16 17  1  0
 16 32  1  0
 16 33  1  0
 17 34  1  1
 18 35  1  1
M  CHG  1   3  -1
M  END
>  <i_m_ct_stereo_status>  (180) 
1

>  <s_m_source_file>  (180) 
/var/tmp/pbs.5076255.sched01/tmpazi1eam_/42934yjxx2.sdf

>  <i_m_source_file_index>  (180) 
37

>  <i_lp_mmshare_version>  (180) 
48012

>  <i_f3d_flags>  (180) 
0

>  <s_epik_input>  (180) 
Tz1DKFtPSF0pW0NAXTEyW0NAQEhdM1tDQF00KFtPSF0pW0NASF01W0NAQEhdKFtDSDJdNClbQ0BIXShbQ0BASF02W0NASF0oW0NIMl0xKVtDSDJdNilbQ0BIXTJbQ0BASF01W0NIMl0z

>  <s_epik_cmdline>  (180) 
J2VwaWtfcHl0aG9uJywgJy1waHQnLCAnMi4wJywgJy1waCcsICc3LjAnLCAnLXRuJywgJzgnLCAnLW1hJywgJzIwMCcsICctaW1hZScsICc8aW5maWxlLm1hZT4nLCAnLW9tYWUnLCAnPG91dGZpbGUubWFlPic=

>  <r_epik_Ionization_Penalty>  (180) 
0.0115362

>  <r_epik_Ionization_Penalty_Charging>  (180) 
0.0115119

>  <r_epik_Ionization_Penalty_Neutral>  (180) 
2.42983e-05

>  <r_epik_State_Penalty>  (180) 
0.00886324

>  <r_epik_Charging_Adjusted_Penalty>  (180) 
0.0203751

>  <i_epik_Tot_Q>  (180) 
-1

>  <i_epik_Tot_abs_Q>  (180) 
1

>  <s_lp_Force_Field>  (180) 
OPLS3e

>  <r_lp_Energy>  (180) 
295.045

>  <b_lp_Chiralities_Consistent>  (180) 
1

>  <s_lp_Variant>  (180) 
52:0-1

>  <s_i_glide_gridfile>  (180) 
pfpi4k_grid

>  <i_i_glide_lignum>  (180) 
37

>  <i_i_glide_rotatable_bonds>  (180) 
2

>  <r_i_docking_score>  (180) 
-3.83546

>  <r_i_glide_ligand_efficiency>  (180) 
-0.213081

>  <r_i_glide_ligand_efficiency_sa>  (180) 
-0.55843

>  <r_i_glide_ligand_efficiency_ln>  (180) 
-0.985885

>  <r_i_glide_gscore>  (180) 
-3.83546

>  <r_i_glide_lipo>  (180) 
-0.569471

>  <r_i_glide_hbond>  (180) 
-0.112074

>  <r_i_glide_metal>  (180) 
-0

>  <r_i_glide_rewards>  (180) 
-1.86364

>  <r_i_glide_evdw>  (180) 
-20.8515

>  <r_i_glide_ecoul>  (180) 
-1.65128

>  <r_i_glide_erotb>  (180) 
0

>  <r_i_glide_esite>  (180) 
0

>  <r_i_glide_emodel>  (180) 
-28.9027

>  <r_i_glide_energy>  (180) 
-22.5028

>  <r_i_glide_einternal>  (180) 
0.82835

>  <r_i_glide_intrahb_reward>  (180) 
-0

>  <i_i_glide_confnum>  (180) 
2

>  <i_i_glide_posenum>  (180) 
29

>  <r_i_glide_eff_state_penalty>  (180) 
0

>  <ligand_id>  (180) 
52

>  <original_smiles>  (180) 
O=C(O)C12CC3CC3C3C4CC5(O)C4C(CC51)C32

>  <smiles>  (180) 
[H]OC12C([H])([H])C3([H])C4([H])C5([H])C([H])([H])C5([H])C([H])([H])C5(C(=O)[O-])C4([H])C([H])(C([H])([H])C15[H])C32[H]

$$$$
52:0:1
     RDKit          3D

 35 40  0  0  1  0  0  0  0  0999 V2000
    2.0757   -5.2255    0.0809 O   0  0  0  0  0  0  0  0  0  0  0  0
    2.8170   -4.6914    0.9551 C   0  0  0  0  0  0  0  0  0  0  0  0
    2.7368   -4.9225    2.1740 O   0  0  0  0  0  0  0  0  0  0  0  0
    3.8733   -3.6670    0.4689 C   0  0  1  0  0  0  0  0  0  0  0  0
    3.0955   -2.4457   -0.1354 C   0  0  0  0  0  0  0  0  0  0  0  0
    3.3915   -2.0080   -1.6009 C   0  0  2  0  0  0  0  0  0  0  0  0
    3.2110   -2.9475   -2.7620 C   0  0  0  0  0  0  0  0  0  0  0  0
    4.6061   -2.4651   -2.4231 C   0  0  2  0  0  0  0  0  0  0  0  0
    5.6391   -3.4033   -1.7907 C   0  0  1  0  0  0  0  0  0  0  0  0
    6.8607   -2.5356   -1.0633 C   0  0  1  0  0  0  0  0  0  0  0  0
    7.6793   -2.5596    0.3366 C   0  0  0  0  0  0  0  0  0  0  0  0
    6.3700   -2.3922    1.2752 C   0  0  2  0  0  0  0  0  0  0  0  0
    6.1183   -1.0392    1.6087 O   0  0  0  0  0  0  0  0  0  0  0  0
    6.0975   -2.8917    0.0120 C   0  0  2  0  0  0  0  0  0  0  0  0
    5.9382   -4.4366    0.1112 C   0  0  1  0  0  0  0  0  0  0  0  0
    5.7070   -4.7096    1.5674 C   0  0  0  0  0  0  0  0  0  0  0  0
    5.0630   -3.3538    1.6640 C   0  0  2  0  0  0  0  0  0  0  0  0
    4.8023   -4.3063   -0.7171 C   0  0  1  0  0  0  0  0  0  0  0  0
    2.0298   -2.6601   -0.1169 H   0  0  0  0  0  0  0  0  0  0  0  0
    3.2255   -1.5703    0.4947 H   0  0  0  0  0  0  0  0  0  0  0  0
    2.9925   -1.0270   -1.8239 H   0  0  0  0  0  0  0  0  0  0  0  0
    2.8697   -3.9434   -2.5173 H   0  0  0  0  0  0  0  0  0  0  0  0
    2.7701   -2.5029   -3.6623 H   0  0  0  0  0  0  0  0  0  0  0  0
    5.0223   -1.7169   -3.0989 H   0  0  0  0  0  0  0  0  0  0  0  0
    6.0164   -4.0234   -2.6030 H   0  0  0  0  0  0  0  0  0  0  0  0
    6.7703   -1.4856   -1.3122 H   0  0  0  0  0  0  0  0  0  0  0  0
    8.2648   -3.4876    0.5112 H   0  0  0  0  0  0  0  0  0  0  0  0
    8.3409   -1.6842    0.3931 H   0  0  0  0  0  0  0  0  0  0  0  0
    6.9640   -0.5993    1.6750 H   0  0  0  0  0  0  0  0  0  0  0  0
    5.3564   -2.1036   -0.1494 H   0  0  0  0  0  0  0  0  0  0  0  0
    6.7574   -5.0052   -0.3132 H   0  0  0  0  0  0  0  0  0  0  0  0
    5.1153   -5.6085    1.7615 H   0  0  0  0  0  0  0  0  0  0  0  0
    6.6338   -4.7537    2.1269 H   0  0  0  0  0  0  0  0  0  0  0  0
    4.6508   -3.1477    2.6605 H   0  0  0  0  0  0  0  0  0  0  0  0
    4.4449   -5.2903   -1.0768 H   0  0  0  0  0  0  0  0  0  0  0  0
  1  2  2  0
  2  3  1  0
  4  2  1  1
  4 17  1  0
  4 18  1  0
  4  5  1  0
  5  6  1  0
  5 19  1  0
  5 20  1  0
  6  8  1  0
  6  7  1  0
  6 21  1  6
  7  8  1  0
  7 22  1  0
  7 23  1  0
  8  9  1  0
  8 24  1  6
  9 18  1  0
  9 10  1  0
  9 25  1  6
 10 14  1  0
 10 11  1  0
 10 26  1  6
 11 12  1  0
 11 27  1  0
 11 28  1  0
 12 17  1  0
 12 13  1  1
 12 14  1  0
 13 29  1  0
 14 15  1  0
 14 30  1  6
 15 16  1  0
 15 18  1  0
 15 31  1  6
 16 17  1  0
 16 32  1  0
 16 33  1  0
 17 34  1  1
 18 35  1  6
M  CHG  1   3  -1
M  END
>  <i_m_ct_stereo_status>  (181) 
1

>  <s_m_source_file>  (181) 
/var/tmp/pbs.5076255.sched01/tmpazi1eam_/42934yjxx2.sdf

>  <i_m_source_file_index>  (181) 
37

>  <i_lp_mmshare_version>  (181) 
48012

>  <i_f3d_flags>  (181) 
0

>  <s_epik_input>  (181) 
Tz1DKFtPSF0pW0NAXTEyW0NAQEhdM1tDQF00KFtPSF0pW0NASF01W0NAQEhdKFtDSDJdNClbQ0BIXShbQ0BASF02W0NASF0oW0NIMl0xKVtDSDJdNilbQ0BIXTJbQ0BASF01W0NIMl0z

>  <s_epik_cmdline>  (181) 
J2VwaWtfcHl0aG9uJywgJy1waHQnLCAnMi4wJywgJy1waCcsICc3LjAnLCAnLXRuJywgJzgnLCAnLW1hJywgJzIwMCcsICctaW1hZScsICc8aW5maWxlLm1hZT4nLCAnLW9tYWUnLCAnPG91dGZpbGUubWFlPic=

>  <r_epik_Ionization_Penalty>  (181) 
0.0115362

>  <r_epik_Ionization_Penalty_Charging>  (181) 
0.0115119

>  <r_epik_Ionization_Penalty_Neutral>  (181) 
2.42983e-05

>  <r_epik_State_Penalty>  (181) 
0.00886324

>  <r_epik_Charging_Adjusted_Penalty>  (181) 
0.0203751

>  <i_epik_Tot_Q>  (181) 
-1

>  <i_epik_Tot_abs_Q>  (181) 
1

>  <s_lp_Force_Field>  (181) 
OPLS3e

>  <r_lp_Energy>  (181) 
295.045

>  <b_lp_Chiralities_Consistent>  (181) 
1

>  <s_lp_Variant>  (181) 
52:0-1

>  <s_i_glide_gridfile>  (181) 
pfpi4k_grid

>  <i_i_glide_lignum>  (181) 
37

>  <i_i_glide_rotatable_bonds>  (181) 
2

>  <r_i_docking_score>  (181) 
-3.78166

>  <r_i_glide_ligand_efficiency>  (181) 
-0.210092

>  <r_i_glide_ligand_efficiency_sa>  (181) 
-0.550597

>  <r_i_glide_ligand_efficiency_ln>  (181) 
-0.972056

>  <r_i_glide_gscore>  (181) 
-3.78166

>  <r_i_glide_lipo>  (181) 
-0.745226

>  <r_i_glide_hbond>  (181) 
-0.256227

>  <r_i_glide_metal>  (181) 
-0

>  <r_i_glide_rewards>  (181) 
-1.73663

>  <r_i_glide_evdw>  (181) 
-18.2251

>  <r_i_glide_ecoul>  (181) 
-0.753648

>  <r_i_glide_erotb>  (181) 
0

>  <r_i_glide_esite>  (181) 
-0.0192716

>  <r_i_glide_emodel>  (181) 
-25.2949

>  <r_i_glide_energy>  (181) 
-18.9787

>  <r_i_glide_einternal>  (181) 
0.698184

>  <r_i_glide_intrahb_reward>  (181) 
-0

>  <i_i_glide_confnum>  (181) 
2

>  <i_i_glide_posenum>  (181) 
34

>  <r_i_glide_eff_state_penalty>  (181) 
0

>  <ligand_id>  (181) 
52

>  <original_smiles>  (181) 
O=C(O)C12CC3CC3C3C4CC5(O)C4C(CC51)C32

>  <smiles>  (181) 
[H]OC12C([H])([H])C3([H])C4([H])C5([H])C([H])([H])C5([H])C([H])([H])C5(C(=O)[O-])C4([H])C([H])(C([H])([H])C15[H])C32[H]

$$$$
52:0:2
     RDKit          3D

 35 40  0  0  1  0  0  0  0  0999 V2000
    2.4733   -4.2362    1.2452 O   0  0  0  0  0  0  0  0  0  0  0  0
    3.1440   -3.2116    1.4863 C   0  0  0  0  0  0  0  0  0  0  0  0
    3.0264   -2.5042    2.5010 O   0  0  0  0  0  0  0  0  0  0  0  0
    4.2321   -2.7852    0.4759 C   0  0  1  0  0  0  0  0  0  0  0  0
    3.6765   -1.5060   -0.2715 C   0  0  0  0  0  0  0  0  0  0  0  0
    3.6062   -1.5479   -1.8288 C   0  0  2  0  0  0  0  0  0  0  0  0
    2.8371   -2.6171   -2.5821 C   0  0  0  0  0  0  0  0  0  0  0  0
    4.3477   -2.5591   -2.7019 C   0  0  2  0  0  0  0  0  0  0  0  0
    5.2378   -3.6300   -2.0570 C   0  0  1  0  0  0  0  0  0  0  0  0
    6.8282   -3.1583   -1.9009 C   0  0  1  0  0  0  0  0  0  0  0  0
    7.9928   -3.2167   -0.7702 C   0  0  0  0  0  0  0  0  0  0  0  0
    7.1510   -2.4176    0.3582 C   0  0  2  0  0  0  0  0  0  0  0  0
    7.4536   -1.0558    0.4677 O   0  0  0  0  0  0  0  0  0  0  0  0
    6.3461   -2.9255   -0.6402 C   0  0  2  0  0  0  0  0  0  0  0  0
    5.7702   -4.2654   -0.0559 C   0  0  1  0  0  0  0  0  0  0  0  0
    5.9054   -4.1553    1.4405 C   0  0  0  0  0  0  0  0  0  0  0  0
    5.7562   -2.6849    1.2485 C   0  0  2  0  0  0  0  0  0  0  0  0
    4.5278   -3.9393   -0.6201 C   0  0  1  0  0  0  0  0  0  0  0  0
    2.6636   -1.2887    0.0674 H   0  0  0  0  0  0  0  0  0  0  0  0
    4.2511   -0.6224    0.0163 H   0  0  0  0  0  0  0  0  0  0  0  0
    3.4934   -0.5621   -2.2585 H   0  0  0  0  0  0  0  0  0  0  0  0
    2.3627   -3.4242   -2.0166 H   0  0  0  0  0  0  0  0  0  0  0  0
    2.2756   -2.2728   -3.4447 H   0  0  0  0  0  0  0  0  0  0  0  0
    4.7252   -2.1924   -3.6490 H   0  0  0  0  0  0  0  0  0  0  0  0
    5.1549   -4.5265   -2.6836 H   0  0  0  0  0  0  0  0  0  0  0  0
    7.0399   -2.2882   -2.5007 H   0  0  0  0  0  0  0  0  0  0  0  0
    8.2908   -4.2351   -0.4892 H   0  0  0  0  0  0  0  0  0  0  0  0
    8.8694   -2.6621   -1.1191 H   0  0  0  0  0  0  0  0  0  0  0  0
    7.3849   -0.7942    1.3761 H   0  0  0  0  0  0  0  0  0  0  0  0
    5.8693   -1.9535   -0.8583 H   0  0  0  0  0  0  0  0  0  0  0  0
    6.1993   -5.1909   -0.4428 H   0  0  0  0  0  0  0  0  0  0  0  0
    5.1569   -4.6914    2.0283 H   0  0  0  0  0  0  0  0  0  0  0  0
    6.9029   -4.4273    1.7813 H   0  0  0  0  0  0  0  0  0  0  0  0
    5.7427   -2.1378    2.1928 H   0  0  0  0  0  0  0  0  0  0  0  0
    3.8374   -4.7840   -0.6329 H   0  0  0  0  0  0  0  0  0  0  0  0
  1  2  2  0
  2  3  1  0
  4  2  1  1
  4 17  1  0
  4 18  1  0
  4  5  1  0
  5  6  1  0
  5 19  1  0
  5 20  1  0
  6  8  1  0
  6  7  1  0
  6 21  1  6
  7  8  1  0
  7 22  1  0
  7 23  1  0
  8  9  1  0
  8 24  1  6
  9 18  1  0
  9 10  1  0
  9 25  1  6
 10 14  1  0
 10 11  1  0
 10 26  1  6
 11 12  1  0
 11 27  1  0
 11 28  1  0
 12 17  1  0
 12 13  1  1
 12 14  1  0
 13 29  1  0
 14 15  1  0
 14 30  1  6
 15 16  1  0
 15 18  1  0
 15 31  1  6
 16 17  1  0
 16 32  1  0
 16 33  1  0
 17 34  1  1
 18 35  1  6
M  CHG  1   3  -1
M  END
>  <i_m_ct_stereo_status>  (182) 
1

>  <s_m_source_file>  (182) 
/var/tmp/pbs.5076255.sched01/tmpazi1eam_/42934yjxx2.sdf

>  <i_m_source_file_index>  (182) 
37

>  <i_lp_mmshare_version>  (182) 
48012

>  <i_f3d_flags>  (182) 
0

>  <s_epik_input>  (182) 
Tz1DKFtPSF0pW0NAXTEyW0NAQEhdM1tDQF00KFtPSF0pW0NASF01W0NAQEhdKFtDSDJdNClbQ0BIXShbQ0BASF02W0NASF0oW0NIMl0xKVtDSDJdNilbQ0BIXTJbQ0BASF01W0NIMl0z

>  <s_epik_cmdline>  (182) 
J2VwaWtfcHl0aG9uJywgJy1waHQnLCAnMi4wJywgJy1waCcsICc3LjAnLCAnLXRuJywgJzgnLCAnLW1hJywgJzIwMCcsICctaW1hZScsICc8aW5maWxlLm1hZT4nLCAnLW9tYWUnLCAnPG91dGZpbGUubWFlPic=

>  <r_epik_Ionization_Penalty>  (182) 
0.0115362

>  <r_epik_Ionization_Penalty_Charging>  (182) 
0.0115119

>  <r_epik_Ionization_Penalty_Neutral>  (182) 
2.42983e-05

>  <r_epik_State_Penalty>  (182) 
0.00886324

>  <r_epik_Charging_Adjusted_Penalty>  (182) 
0.0203751

>  <i_epik_Tot_Q>  (182) 
-1

>  <i_epik_Tot_abs_Q>  (182) 
1

>  <s_lp_Force_Field>  (182) 
OPLS3e

>  <r_lp_Energy>  (182) 
295.045

>  <b_lp_Chiralities_Consistent>  (182) 
1

>  <s_lp_Variant>  (182) 
52:0-1

>  <s_i_glide_gridfile>  (182) 
pfpi4k_grid

>  <i_i_glide_lignum>  (182) 
37

>  <i_i_glide_rotatable_bonds>  (182) 
2

>  <r_i_docking_score>  (182) 
-3.62204

>  <r_i_glide_ligand_efficiency>  (182) 
-0.201225

>  <r_i_glide_ligand_efficiency_sa>  (182) 
-0.527357

>  <r_i_glide_ligand_efficiency_ln>  (182) 
-0.931027

>  <r_i_glide_gscore>  (182) 
-3.62204

>  <r_i_glide_lipo>  (182) 
-0.670751

>  <r_i_glide_hbond>  (182) 
-0.0893276

>  <r_i_glide_metal>  (182) 
-0

>  <r_i_glide_rewards>  (182) 
-1.73663

>  <r_i_glide_evdw>  (182) 
-19.8608

>  <r_i_glide_ecoul>  (182) 
-0.871969

>  <r_i_glide_erotb>  (182) 
0

>  <r_i_glide_esite>  (182) 
-0.00149418

>  <r_i_glide_emodel>  (182) 
-26.3314

>  <r_i_glide_energy>  (182) 
-20.7328

>  <r_i_glide_einternal>  (182) 
1.5888

>  <r_i_glide_intrahb_reward>  (182) 
-0

>  <i_i_glide_confnum>  (182) 
2

>  <i_i_glide_posenum>  (182) 
35

>  <r_i_glide_eff_state_penalty>  (182) 
0

>  <ligand_id>  (182) 
52

>  <original_smiles>  (182) 
O=C(O)C12CC3CC3C3C4CC5(O)C4C(CC51)C32

>  <smiles>  (182) 
[H]OC12C([H])([H])C3([H])C4([H])C5([H])C([H])([H])C5([H])C([H])([H])C5(C(=O)[O-])C4([H])C([H])(C([H])([H])C15[H])C32[H]

$$$$
52:1:0
     RDKit          3D

 36 41  0  0  1  0  0  0  0  0999 V2000
    3.7500   -2.0778    2.9648 O   0  0  0  0  0  0  0  0  0  0  0  0
    3.4976   -2.0656    1.7647 C   0  0  0  0  0  0  0  0  0  0  0  0
    2.2145   -2.1529    1.2759 O   0  0  0  0  0  0  0  0  0  0  0  0
    4.6009   -1.9833    0.6742 C   0  0  1  0  0  0  0  0  0  0  0  0
    4.2652   -0.7070   -0.2041 C   0  0  0  0  0  0  0  0  0  0  0  0
    4.2612   -0.8786   -1.7502 C   0  0  2  0  0  0  0  0  0  0  0  0
    3.2522   -1.7615   -2.4501 C   0  0  0  0  0  0  0  0  0  0  0  0
    4.7062   -2.1116   -2.5395 C   0  0  2  0  0  0  0  0  0  0  0  0
    5.3188   -3.2818   -1.7994 C   0  0  1  0  0  0  0  0  0  0  0  0
    6.9634   -3.1199   -1.6872 C   0  0  1  0  0  0  0  0  0  0  0  0
    8.1127   -3.3585   -0.5735 C   0  0  0  0  0  0  0  0  0  0  0  0
    7.4993   -2.3128    0.4842 C   0  0  2  0  0  0  0  0  0  0  0  0
    8.1603   -1.0648    0.4717 O   0  0  0  0  0  0  0  0  0  0  0  0
    6.5869   -2.7303   -0.4490 C   0  0  2  0  0  0  0  0  0  0  0  0
    5.7413   -3.8283    0.2370 C   0  0  1  0  0  0  0  0  0  0  0  0
    5.9739   -3.6261    1.7079 C   0  0  0  0  0  0  0  0  0  0  0  0
    6.1477   -2.1647    1.4062 C   0  0  2  0  0  0  0  0  0  0  0  0
    4.5835   -3.2695   -0.3289 C   0  0  1  0  0  0  0  0  0  0  0  0
    2.0968   -1.9281    0.3552 H   0  0  0  0  0  0  0  0  0  0  0  0
    3.2996   -0.2810    0.0651 H   0  0  0  0  0  0  0  0  0  0  0  0
    4.9662    0.1001    0.0381 H   0  0  0  0  0  0  0  0  0  0  0  0
    4.3869    0.0677   -2.2649 H   0  0  0  0  0  0  0  0  0  0  0  0
    2.5980   -2.3772   -1.8308 H   0  0  0  0  0  0  0  0  0  0  0  0
    2.8139   -1.3274   -3.3485 H   0  0  0  0  0  0  0  0  0  0  0  0
    5.1339   -1.9273   -3.5228 H   0  0  0  0  0  0  0  0  0  0  0  0
    5.0350   -4.1913   -2.3390 H   0  0  0  0  0  0  0  0  0  0  0  0
    7.3763   -2.3623   -2.3388 H   0  0  0  0  0  0  0  0  0  0  0  0
    8.1861   -4.3880   -0.1940 H   0  0  0  0  0  0  0  0  0  0  0  0
    9.0711   -3.0260   -0.9781 H   0  0  0  0  0  0  0  0  0  0  0  0
    7.8068   -0.5044    1.1528 H   0  0  0  0  0  0  0  0  0  0  0  0
    6.3394   -1.6980   -0.7406 H   0  0  0  0  0  0  0  0  0  0  0  0
    5.9637   -4.8409   -0.1177 H   0  0  0  0  0  0  0  0  0  0  0  0
    5.1684   -3.9821    2.3449 H   0  0  0  0  0  0  0  0  0  0  0  0
    6.9116   -4.0826    2.0337 H   0  0  0  0  0  0  0  0  0  0  0  0
    6.2887   -1.5486    2.3000 H   0  0  0  0  0  0  0  0  0  0  0  0
    3.7016   -3.9128   -0.2032 H   0  0  0  0  0  0  0  0  0  0  0  0
  1  2  2  0
  2  3  1  0
  4  2  1  1
  3 19  1  0
  4 17  1  0
  4 18  1  0
  4  5  1  0
  5  6  1  0
  5 20  1  0
  5 21  1  0
  6  8  1  0
  6  7  1  0
  6 22  1  6
  7  8  1  0
  7 23  1  0
  7 24  1  0
  8  9  1  0
  8 25  1  6
  9 18  1  0
  9 10  1  0
  9 26  1  6
 10 14  1  0
 10 11  1  0
 10 27  1  6
 11 12  1  0
 11 28  1  0
 11 29  1  0
 12 17  1  0
 12 13  1  1
 12 14  1  0
 13 30  1  0
 14 15  1  0
 14 31  1  6
 15 16  1  0
 15 18  1  0
 15 32  1  6
 16 17  1  0
 16 33  1  0
 16 34  1  0
 17 35  1  1
 18 36  1  6
M  END
>  <i_m_ct_stereo_status>  (183) 
1

>  <s_m_source_file>  (183) 
/var/tmp/pbs.5076255.sched01/tmpazi1eam_/42934yjxx2.sdf

>  <i_m_source_file_index>  (183) 
38

>  <i_lp_mmshare_version>  (183) 
48012

>  <i_f3d_flags>  (183) 
0

>  <s_epik_input>  (183) 
Tz1DKFtPSF0pW0NAXTEyW0NAQEhdM1tDQF00KFtPSF0pW0NASF01W0NAQEhdKFtDSDJdNClbQ0BIXShbQ0BASF02W0NASF0oW0NIMl0xKVtDSDJdNilbQ0BIXTJbQ0BASF01W0NIMl0z

>  <s_epik_cmdline>  (183) 
J2VwaWtfcHl0aG9uJywgJy1waHQnLCAnMi4wJywgJy1waCcsICc3LjAnLCAnLXRuJywgJzgnLCAnLW1hJywgJzIwMCcsICctaW1hZScsICc8aW5maWxlLm1hZT4nLCAnLW9tYWUnLCAnPG91dGZpbGUubWFlPic=

>  <r_epik_Ionization_Penalty>  (183) 
2.3407

>  <r_epik_Ionization_Penalty_Charging>  (183) 
0

>  <r_epik_Ionization_Penalty_Neutral>  (183) 
2.3407

>  <r_epik_State_Penalty>  (183) 
2.4943

>  <r_epik_Charging_Adjusted_Penalty>  (183) 
2.4943

>  <i_epik_Tot_Q>  (183) 
0

>  <i_epik_Tot_abs_Q>  (183) 
0

>  <s_lp_Force_Field>  (183) 
OPLS3e

>  <r_lp_Energy>  (183) 
297.922

>  <b_lp_Chiralities_Consistent>  (183) 
1

>  <s_lp_Variant>  (183) 
52:0-2

>  <s_i_glide_gridfile>  (183) 
pfpi4k_grid

>  <i_i_glide_lignum>  (183) 
38

>  <i_i_glide_rotatable_bonds>  (183) 
3

>  <r_i_docking_score>  (183) 
-4.58451

>  <r_i_glide_ligand_efficiency>  (183) 
-0.254695

>  <r_i_glide_ligand_efficiency_sa>  (183) 
-0.667489

>  <r_i_glide_ligand_efficiency_ln>  (183) 
-1.17842

>  <r_i_glide_gscore>  (183) 
-4.58451

>  <r_i_glide_lipo>  (183) 
-0.896432

>  <r_i_glide_hbond>  (183) 
-0.263104

>  <r_i_glide_metal>  (183) 
-0

>  <r_i_glide_rewards>  (183) 
-1.72976

>  <r_i_glide_evdw>  (183) 
-20.2297

>  <r_i_glide_ecoul>  (183) 
-6.41523

>  <r_i_glide_erotb>  (183) 
0.28724

>  <r_i_glide_esite>  (183) 
-0.00868117

>  <r_i_glide_emodel>  (183) 
-31.6965

>  <r_i_glide_energy>  (183) 
-26.6449

>  <r_i_glide_einternal>  (183) 
3.908

>  <r_i_glide_intrahb_reward>  (183) 
-0

>  <i_i_glide_confnum>  (183) 
4

>  <i_i_glide_posenum>  (183) 
29

>  <r_i_glide_eff_state_penalty>  (183) 
0

>  <ligand_id>  (183) 
52

>  <original_smiles>  (183) 
O=C(O)C12CC3CC3C3C4CC5(O)C4C(CC51)C32

>  <smiles>  (183) 
[H]OC(=O)C12C([H])([H])C3([H])C([H])([H])C3([H])C3([H])C4([H])C([H])([H])C5(O[H])C4([H])C([H])(C([H])([H])C51[H])C32[H]

$$$$
52:1:1
     RDKit          3D

 36 41  0  0  1  0  0  0  0  0999 V2000
    2.6577   -3.5801    1.5571 O   0  0  0  0  0  0  0  0  0  0  0  0
    3.3868   -2.5821    1.5391 C   0  0  0  0  0  0  0  0  0  0  0  0
    3.3268   -1.5821    2.4515 O   0  0  0  0  0  0  0  0  0  0  0  0
    4.5103   -2.3678    0.5007 C   0  0  1  0  0  0  0  0  0  0  0  0
    4.0920   -1.0610   -0.2904 C   0  0  0  0  0  0  0  0  0  0  0  0
    4.1475   -1.1003   -1.8408 C   0  0  2  0  0  0  0  0  0  0  0  0
    3.2071   -2.0185   -2.6232 C   0  0  0  0  0  0  0  0  0  0  0  0
    4.6875   -2.2496   -2.6880 C   0  0  2  0  0  0  0  0  0  0  0  0
    5.3663   -3.4229   -2.0121 C   0  0  1  0  0  0  0  0  0  0  0  0
    6.9970   -3.1981   -1.8525 C   0  0  1  0  0  0  0  0  0  0  0  0
    8.1307   -3.4332   -0.7336 C   0  0  0  0  0  0  0  0  0  0  0  0
    7.4513   -2.4726    0.3674 C   0  0  2  0  0  0  0  0  0  0  0  0
    8.0248   -1.1941    0.3932 O   0  0  0  0  0  0  0  0  0  0  0  0
    6.5631   -2.8998   -0.5958 C   0  0  2  0  0  0  0  0  0  0  0  0
    5.7775   -4.1066    0.0151 C   0  0  1  0  0  0  0  0  0  0  0  0
    5.9565   -3.9598    1.5003 C   0  0  0  0  0  0  0  0  0  0  0  0
    6.0492   -2.4843    1.2675 C   0  0  2  0  0  0  0  0  0  0  0  0
    4.6076   -3.5684   -0.5800 C   0  0  1  0  0  0  0  0  0  0  0  0
    3.9347   -0.8811    2.2536 H   0  0  0  0  0  0  0  0  0  0  0  0
    3.0547   -0.7749   -0.0581 H   0  0  0  0  0  0  0  0  0  0  0  0
    4.7115   -0.2061    0.0282 H   0  0  0  0  0  0  0  0  0  0  0  0
    4.2329   -0.1072   -2.2806 H   0  0  0  0  0  0  0  0  0  0  0  0
    2.5692   -2.6966   -2.0583 H   0  0  0  0  0  0  0  0  0  0  0  0
    2.7419   -1.5610   -3.5045 H   0  0  0  0  0  0  0  0  0  0  0  0
    5.1251   -1.9856   -3.6469 H   0  0  0  0  0  0  0  0  0  0  0  0
    5.1582   -4.3168   -2.6113 H   0  0  0  0  0  0  0  0  0  0  0  0
    7.3525   -2.3567   -2.4397 H   0  0  0  0  0  0  0  0  0  0  0  0
    8.2776   -4.4767   -0.3904 H   0  0  0  0  0  0  0  0  0  0  0  0
    9.0849   -3.0419   -1.0832 H   0  0  0  0  0  0  0  0  0  0  0  0
    8.9678   -1.3340    0.3445 H   0  0  0  0  0  0  0  0  0  0  0  0
    6.2450   -1.8663   -0.8393 H   0  0  0  0  0  0  0  0  0  0  0  0
    6.0527   -5.0934   -0.3596 H   0  0  0  0  0  0  0  0  0  0  0  0
    5.1405   -4.3572    2.1117 H   0  0  0  0  0  0  0  0  0  0  0  0
    6.8955   -4.3820    1.8474 H   0  0  0  0  0  0  0  0  0  0  0  0
    6.1311   -1.9110    2.2029 H   0  0  0  0  0  0  0  0  0  0  0  0
    3.7718   -4.2798   -0.5517 H   0  0  0  0  0  0  0  0  0  0  0  0
  1  2  2  0
  2  3  1  0
  4  2  1  1
  3 19  1  0
  4 17  1  0
  4 18  1  0
  4  5  1  0
  5  6  1  0
  5 20  1  0
  5 21  1  0
  6  8  1  0
  6  7  1  0
  6 22  1  6
  7  8  1  0
  7 23  1  0
  7 24  1  0
  8  9  1  0
  8 25  1  6
  9 18  1  0
  9 10  1  0
  9 26  1  6
 10 14  1  0
 10 11  1  0
 10 27  1  6
 11 12  1  0
 11 28  1  0
 11 29  1  0
 12 17  1  0
 12 13  1  1
 12 14  1  0
 13 30  1  0
 14 15  1  0
 14 31  1  6
 15 16  1  0
 15 18  1  0
 15 32  1  6
 16 17  1  0
 16 33  1  0
 16 34  1  0
 17 35  1  1
 18 36  1  6
M  END
>  <i_m_ct_stereo_status>  (184) 
1

>  <s_m_source_file>  (184) 
/var/tmp/pbs.5076255.sched01/tmpazi1eam_/42934yjxx2.sdf

>  <i_m_source_file_index>  (184) 
38

>  <i_lp_mmshare_version>  (184) 
48012

>  <i_f3d_flags>  (184) 
0

>  <s_epik_input>  (184) 
Tz1DKFtPSF0pW0NAXTEyW0NAQEhdM1tDQF00KFtPSF0pW0NASF01W0NAQEhdKFtDSDJdNClbQ0BIXShbQ0BASF02W0NASF0oW0NIMl0xKVtDSDJdNilbQ0BIXTJbQ0BASF01W0NIMl0z

>  <s_epik_cmdline>  (184) 
J2VwaWtfcHl0aG9uJywgJy1waHQnLCAnMi4wJywgJy1waCcsICc3LjAnLCAnLXRuJywgJzgnLCAnLW1hJywgJzIwMCcsICctaW1hZScsICc8aW5maWxlLm1hZT4nLCAnLW9tYWUnLCAnPG91dGZpbGUubWFlPic=

>  <r_epik_Ionization_Penalty>  (184) 
2.3407

>  <r_epik_Ionization_Penalty_Charging>  (184) 
0

>  <r_epik_Ionization_Penalty_Neutral>  (184) 
2.3407

>  <r_epik_State_Penalty>  (184) 
2.4943

>  <r_epik_Charging_Adjusted_Penalty>  (184) 
2.4943

>  <i_epik_Tot_Q>  (184) 
0

>  <i_epik_Tot_abs_Q>  (184) 
0

>  <s_lp_Force_Field>  (184) 
OPLS3e

>  <r_lp_Energy>  (184) 
297.922

>  <b_lp_Chiralities_Consistent>  (184) 
1

>  <s_lp_Variant>  (184) 
52:0-2

>  <s_i_glide_gridfile>  (184) 
pfpi4k_grid

>  <i_i_glide_lignum>  (184) 
38

>  <i_i_glide_rotatable_bonds>  (184) 
3

>  <r_i_docking_score>  (184) 
-3.51907

>  <r_i_glide_ligand_efficiency>  (184) 
-0.195504

>  <r_i_glide_ligand_efficiency_sa>  (184) 
-0.512366

>  <r_i_glide_ligand_efficiency_ln>  (184) 
-0.90456

>  <r_i_glide_gscore>  (184) 
-3.51907

>  <r_i_glide_lipo>  (184) 
-0.905053

>  <r_i_glide_hbond>  (184) 
-0.0384837

>  <r_i_glide_metal>  (184) 
-0

>  <r_i_glide_rewards>  (184) 
-1.72976

>  <r_i_glide_evdw>  (184) 
-21.1534

>  <r_i_glide_ecoul>  (184) 
-0.456341

>  <r_i_glide_erotb>  (184) 
0.28724

>  <r_i_glide_esite>  (184) 
-0.00689535

>  <r_i_glide_emodel>  (184) 
-26.3486

>  <r_i_glide_energy>  (184) 
-21.6097

>  <r_i_glide_einternal>  (184) 
1.71462

>  <r_i_glide_intrahb_reward>  (184) 
-0

>  <i_i_glide_confnum>  (184) 
1

>  <i_i_glide_posenum>  (184) 
1

>  <r_i_glide_eff_state_penalty>  (184) 
0

>  <ligand_id>  (184) 
52

>  <original_smiles>  (184) 
O=C(O)C12CC3CC3C3C4CC5(O)C4C(CC51)C32

>  <smiles>  (184) 
[H]OC(=O)C12C([H])([H])C3([H])C([H])([H])C3([H])C3([H])C4([H])C([H])([H])C5(O[H])C4([H])C([H])(C([H])([H])C51[H])C32[H]

$$$$
52:1:2
     RDKit          3D

 36 41  0  0  1  0  0  0  0  0999 V2000
    3.1221   -3.4929    2.8105 O   0  0  0  0  0  0  0  0  0  0  0  0
    3.1691   -3.8288    1.6394 C   0  0  0  0  0  0  0  0  0  0  0  0
    2.3327   -4.7285    1.0187 O   0  0  0  0  0  0  0  0  0  0  0  0
    4.2061   -3.2262    0.6486 C   0  0  1  0  0  0  0  0  0  0  0  0
    3.4407   -2.0468   -0.0596 C   0  0  0  0  0  0  0  0  0  0  0  0
    3.5114   -1.9353   -1.6075 C   0  0  2  0  0  0  0  0  0  0  0  0
    2.9028   -2.9926   -2.4899 C   0  0  0  0  0  0  0  0  0  0  0  0
    4.3989   -2.7936   -2.5210 C   0  0  2  0  0  0  0  0  0  0  0  0
    5.3750   -3.7873   -1.9070 C   0  0  1  0  0  0  0  0  0  0  0  0
    6.8828   -3.1203   -1.6790 C   0  0  1  0  0  0  0  0  0  0  0  0
    7.9958   -3.0787   -0.5161 C   0  0  0  0  0  0  0  0  0  0  0  0
    7.0227   -2.4358    0.5990 C   0  0  2  0  0  0  0  0  0  0  0  0
    7.1270   -1.0409    0.6992 O   0  0  0  0  0  0  0  0  0  0  0  0
    6.3416   -3.0428   -0.4183 C   0  0  2  0  0  0  0  0  0  0  0  0
    5.9344   -4.4646    0.1027 C   0  0  1  0  0  0  0  0  0  0  0  0
    6.0275   -4.3861    1.6002 C   0  0  0  0  0  0  0  0  0  0  0  0
    5.6861   -2.9333    1.4561 C   0  0  2  0  0  0  0  0  0  0  0  0
    4.6767   -4.2707   -0.5088 C   0  0  1  0  0  0  0  0  0  0  0  0
    2.5930   -4.8991    0.1296 H   0  0  0  0  0  0  0  0  0  0  0  0
    2.3777   -2.1258    0.1849 H   0  0  0  0  0  0  0  0  0  0  0  0
    3.7646   -1.0891    0.3461 H   0  0  0  0  0  0  0  0  0  0  0  0
    3.3092   -0.9291   -1.9560 H   0  0  0  0  0  0  0  0  0  0  0  0
    2.4689   -3.8522   -1.9824 H   0  0  0  0  0  0  0  0  0  0  0  0
    2.3614   -2.6215   -3.3594 H   0  0  0  0  0  0  0  0  0  0  0  0
    4.7633   -2.3157   -3.4288 H   0  0  0  0  0  0  0  0  0  0  0  0
    5.4077   -4.6421   -2.5807 H   0  0  0  0  0  0  0  0  0  0  0  0
    6.9951   -2.1710   -2.1983 H   0  0  0  0  0  0  0  0  0  0  0  0
    8.4214   -4.0730   -0.2516 H   0  0  0  0  0  0  0  0  0  0  0  0
    8.8126   -2.3996   -0.7944 H   0  0  0  0  0  0  0  0  0  0  0  0
    7.5825   -0.8698    1.5156 H   0  0  0  0  0  0  0  0  0  0  0  0
    5.7397   -2.1406   -0.5958 H   0  0  0  0  0  0  0  0  0  0  0  0
    6.5027   -5.2896   -0.3038 H   0  0  0  0  0  0  0  0  0  0  0  0
    5.3534   -5.0558    2.1398 H   0  0  0  0  0  0  0  0  0  0  0  0
    7.0455   -4.5402    1.9421 H   0  0  0  0  0  0  0  0  0  0  0  0
    5.5863   -2.4328    2.4347 H   0  0  0  0  0  0  0  0  0  0  0  0
    4.1261   -5.2069   -0.5705 H   0  0  0  0  0  0  0  0  0  0  0  0
  1  2  2  0
  2  3  1  0
  4  2  1  1
  3 19  1  0
  4 17  1  0
  4 18  1  0
  4  5  1  0
  5  6  1  0
  5 20  1  0
  5 21  1  0
  6  8  1  0
  6  7  1  0
  6 22  1  6
  7  8  1  0
  7 23  1  0
  7 24  1  0
  8  9  1  0
  8 25  1  6
  9 18  1  0
  9 10  1  0
  9 26  1  6
 10 14  1  0
 10 11  1  0
 10 27  1  6
 11 12  1  0
 11 28  1  0
 11 29  1  0
 12 17  1  0
 12 13  1  1
 12 14  1  0
 13 30  1  0
 14 15  1  0
 14 31  1  6
 15 16  1  0
 15 18  1  0
 15 32  1  6
 16 17  1  0
 16 33  1  0
 16 34  1  0
 17 35  1  1
 18 36  1  6
M  END
>  <i_m_ct_stereo_status>  (185) 
1

>  <s_m_source_file>  (185) 
/var/tmp/pbs.5076255.sched01/tmpazi1eam_/42934yjxx2.sdf

>  <i_m_source_file_index>  (185) 
38

>  <i_lp_mmshare_version>  (185) 
48012

>  <i_f3d_flags>  (185) 
0

>  <s_epik_input>  (185) 
Tz1DKFtPSF0pW0NAXTEyW0NAQEhdM1tDQF00KFtPSF0pW0NASF01W0NAQEhdKFtDSDJdNClbQ0BIXShbQ0BASF02W0NASF0oW0NIMl0xKVtDSDJdNilbQ0BIXTJbQ0BASF01W0NIMl0z

>  <s_epik_cmdline>  (185) 
J2VwaWtfcHl0aG9uJywgJy1waHQnLCAnMi4wJywgJy1waCcsICc3LjAnLCAnLXRuJywgJzgnLCAnLW1hJywgJzIwMCcsICctaW1hZScsICc8aW5maWxlLm1hZT4nLCAnLW9tYWUnLCAnPG91dGZpbGUubWFlPic=

>  <r_epik_Ionization_Penalty>  (185) 
2.3407

>  <r_epik_Ionization_Penalty_Charging>  (185) 
0

>  <r_epik_Ionization_Penalty_Neutral>  (185) 
2.3407

>  <r_epik_State_Penalty>  (185) 
2.4943

>  <r_epik_Charging_Adjusted_Penalty>  (185) 
2.4943

>  <i_epik_Tot_Q>  (185) 
0

>  <i_epik_Tot_abs_Q>  (185) 
0

>  <s_lp_Force_Field>  (185) 
OPLS3e

>  <r_lp_Energy>  (185) 
297.922

>  <b_lp_Chiralities_Consistent>  (185) 
1

>  <s_lp_Variant>  (185) 
52:0-2

>  <s_i_glide_gridfile>  (185) 
pfpi4k_grid

>  <i_i_glide_lignum>  (185) 
38

>  <i_i_glide_rotatable_bonds>  (185) 
3

>  <r_i_docking_score>  (185) 
-3.48979

>  <r_i_glide_ligand_efficiency>  (185) 
-0.193877

>  <r_i_glide_ligand_efficiency_sa>  (185) 
-0.508102

>  <r_i_glide_ligand_efficiency_ln>  (185) 
-0.897032

>  <r_i_glide_gscore>  (185) 
-3.48979

>  <r_i_glide_lipo>  (185) 
-0.631094

>  <r_i_glide_hbond>  (185) 
-0.0409584

>  <r_i_glide_metal>  (185) 
-0

>  <r_i_glide_rewards>  (185) 
-1.73153

>  <r_i_glide_evdw>  (185) 
-19.9895

>  <r_i_glide_ecoul>  (185) 
-2.49317

>  <r_i_glide_erotb>  (185) 
0.28724

>  <r_i_glide_esite>  (185) 
0

>  <r_i_glide_emodel>  (185) 
-26.4766

>  <r_i_glide_energy>  (185) 
-22.4827

>  <r_i_glide_einternal>  (185) 
3.24437

>  <r_i_glide_intrahb_reward>  (185) 
-0

>  <i_i_glide_confnum>  (185) 
2

>  <i_i_glide_posenum>  (185) 
3

>  <r_i_glide_eff_state_penalty>  (185) 
0

>  <ligand_id>  (185) 
52

>  <original_smiles>  (185) 
O=C(O)C12CC3CC3C3C4CC5(O)C4C(CC51)C32

>  <smiles>  (185) 
[H]OC(=O)C12C([H])([H])C3([H])C([H])([H])C3([H])C3([H])C4([H])C([H])([H])C5(O[H])C4([H])C([H])(C([H])([H])C51[H])C32[H]

$$$$
53:0:0
     RDKit          3D

 80 85  0  0  1  0  0  0  0  0999 V2000
    2.6539   -1.7537    9.1903 C   0  0  0  0  0  0  0  0  0  0  0  0
    2.3384   -1.0595    7.8738 C   0  0  0  0  0  0  0  0  0  0  0  0
    1.0745   -0.9977    7.3195 C   0  0  0  0  0  0  0  0  0  0  0  0
    0.3245   -0.1465    6.1477 C   0  0  1  0  0  0  0  0  0  0  0  0
   -0.2004   -1.2751    5.1912 C   0  0  1  0  0  0  0  0  0  0  0  0
   -1.3821   -0.9720    4.4795 O   0  0  0  0  0  0  0  0  0  0  0  0
    0.9531   -2.1222    4.3550 C   0  0  1  0  0  0  0  0  0  0  0  0
    2.2156   -1.7385    3.2126 C   0  0  2  0  0  0  0  0  0  0  0  0
    3.2874   -2.8672    3.1202 C   0  0  0  0  0  0  0  0  0  0  0  0
    3.8706   -3.0543    4.5286 C   0  0  0  0  0  0  0  0  0  0  0  0
    2.9394   -2.3160    5.5622 C   0  0  2  0  0  0  0  0  0  0  0  0
    1.5810   -3.1462    5.3276 C   0  0  0  0  0  0  0  0  0  0  0  0
    0.9770   -3.7340    6.6739 C   0  0  0  0  0  0  0  0  0  0  0  0
    1.4655   -4.5475    4.5707 C   0  0  0  0  0  0  0  0  0  0  0  0
    3.0672   -0.5229    5.6671 C   0  0  2  0  0  0  0  0  0  0  0  0
    4.0912   -0.2857    4.5479 C   0  0  0  0  0  0  0  0  0  0  0  0
    3.2835   -0.4912    3.2355 C   0  0  1  0  0  0  0  0  0  0  0  0
    4.1659   -0.2589    1.9449 C   0  0  0  0  0  0  0  0  0  0  0  0
    3.5110   -0.7226    0.6296 C   0  0  0  0  0  0  0  0  0  0  0  0
    5.6578   -0.6778    2.0255 C   0  0  0  0  0  0  0  0  0  0  0  0
    3.4884   -0.5416    7.1045 C   0  0  0  0  0  0  0  0  0  0  0  0
    4.6118   -0.2459    7.5164 O   0  0  0  0  0  0  0  0  0  0  0  0
    2.1293    1.0090    5.7978 C   0  0  2  0  0  0  0  0  0  0  0  0
    3.0673    2.2049    5.4142 C   0  0  0  0  0  0  0  0  0  0  0  0
    1.3717    1.5321    7.2079 C   0  0  1  0  0  0  0  0  0  0  0  0
    1.4362    2.8949    7.5987 O   0  0  0  0  0  0  0  0  0  0  0  0
   -0.1213    0.8704    7.2764 C   0  0  2  0  0  0  0  0  0  0  0  0
   -0.4042    0.5201    8.6444 O   0  0  0  0  0  0  0  0  0  0  0  0
   -1.3531    1.6845    6.8930 C   0  0  0  0  0  0  0  0  0  0  0  0
   -2.5019    1.3370    7.1504 O   0  0  0  0  0  0  0  0  0  0  0  0
   -1.0437    2.9366    6.1718 C   0  0  0  0  0  0  0  0  0  0  0  0
   -0.0661    2.5231    5.0777 C   0  0  1  0  0  0  0  0  0  0  0  0
    0.5968    3.8062    4.5065 C   0  0  0  0  0  0  0  0  0  0  0  0
    0.7571    1.0522    5.0833 C   0  0  2  0  0  0  0  0  0  0  0  0
    0.5706    0.9019    3.4814 C   0  0  0  0  0  0  0  0  0  0  0  0
   -0.7014    0.9195    2.8401 O   0  0  0  0  0  0  0  0  0  0  0  0
    3.4181   -2.5208    9.0583 H   0  0  0  0  0  0  0  0  0  0  0  0
    1.7744   -2.2302    9.6246 H   0  0  0  0  0  0  0  0  0  0  0  0
    3.0221   -1.0322    9.9182 H   0  0  0  0  0  0  0  0  0  0  0  0
    0.3470   -1.5466    7.9087 H   0  0  0  0  0  0  0  0  0  0  0  0
   -0.6901   -1.9744    5.8521 H   0  0  0  0  0  0  0  0  0  0  0  0
   -1.1898   -0.2609    3.8633 H   0  0  0  0  0  0  0  0  0  0  0  0
    0.2722   -2.6806    3.7139 H   0  0  0  0  0  0  0  0  0  0  0  0
    1.7105   -1.7208    2.2492 H   0  0  0  0  0  0  0  0  0  0  0  0
    2.9271   -3.7840    2.6674 H   0  0  0  0  0  0  0  0  0  0  0  0
    4.0849   -2.6841    2.4302 H   0  0  0  0  0  0  0  0  0  0  0  0
    3.9517   -4.1146    4.7598 H   0  0  0  0  0  0  0  0  0  0  0  0
    4.9270   -2.8187    4.5862 H   0  0  0  0  0  0  0  0  0  0  0  0
    3.3752   -2.7862    6.4480 H   0  0  0  0  0  0  0  0  0  0  0  0
    1.4992   -3.4201    7.5664 H   0  0  0  0  0  0  0  0  0  0  0  0
    1.1435   -4.8082    6.7926 H   0  0  0  0  0  0  0  0  0  0  0  0
   -0.0965   -3.6250    6.8123 H   0  0  0  0  0  0  0  0  0  0  0  0
    2.2341   -5.2743    4.8365 H   0  0  0  0  0  0  0  0  0  0  0  0
    1.3585   -4.5235    3.4952 H   0  0  0  0  0  0  0  0  0  0  0  0
    0.5125   -5.0386    4.7817 H   0  0  0  0  0  0  0  0  0  0  0  0
    4.6118    0.6615    4.5452 H   0  0  0  0  0  0  0  0  0  0  0  0
    4.9775   -0.8851    4.6622 H   0  0  0  0  0  0  0  0  0  0  0  0
    2.7849    0.4450    3.2022 H   0  0  0  0  0  0  0  0  0  0  0  0
    4.2109    0.8237    1.8302 H   0  0  0  0  0  0  0  0  0  0  0  0
    3.3345   -1.7963    0.5924 H   0  0  0  0  0  0  0  0  0  0  0  0
    4.1373   -0.4894   -0.2299 H   0  0  0  0  0  0  0  0  0  0  0  0
    2.5499   -0.2337    0.4814 H   0  0  0  0  0  0  0  0  0  0  0  0
    5.8182   -1.7283    2.2439 H   0  0  0  0  0  0  0  0  0  0  0  0
    6.1926   -0.1004    2.7838 H   0  0  0  0  0  0  0  0  0  0  0  0
    6.1572   -0.4698    1.0765 H   0  0  0  0  0  0  0  0  0  0  0  0
    2.7243    3.1962    5.6639 H   0  0  0  0  0  0  0  0  0  0  0  0
    3.2548    2.2603    4.3414 H   0  0  0  0  0  0  0  0  0  0  0  0
    4.0194    2.1382    5.9414 H   0  0  0  0  0  0  0  0  0  0  0  0
    1.9365    1.2605    8.0938 H   0  0  0  0  0  0  0  0  0  0  0  0
    1.0316    3.4108    6.9174 H   0  0  0  0  0  0  0  0  0  0  0  0
   -0.3891    1.3153    9.1593 H   0  0  0  0  0  0  0  0  0  0  0  0
   -1.9587    3.3769    5.7675 H   0  0  0  0  0  0  0  0  0  0  0  0
   -0.6467    3.6774    6.8604 H   0  0  0  0  0  0  0  0  0  0  0  0
   -0.8997    2.4594    4.3945 H   0  0  0  0  0  0  0  0  0  0  0  0
    1.0437    4.4234    5.2874 H   0  0  0  0  0  0  0  0  0  0  0  0
   -0.1631    4.4394    4.0412 H   0  0  0  0  0  0  0  0  0  0  0  0
    1.3472    3.6255    3.7378 H   0  0  0  0  0  0  0  0  0  0  0  0
    1.1470    1.6615    2.9557 H   0  0  0  0  0  0  0  0  0  0  0  0
    0.8075   -0.0199    3.0440 H   0  0  0  0  0  0  0  0  0  0  0  0
   -0.5686    1.0409    1.9063 H   0  0  0  0  0  0  0  0  0  0  0  0
  1  2  1  0
  1 37  1  0
  1 38  1  0
  1 39  1  0
  2 21  1  0
  2  3  2  0
  4  3  1  1
  3 40  1  0
  4 27  1  0
  4 34  1  0
  4  5  1  0
  5  6  1  0
  5  7  1  0
  5 41  1  1
  6 42  1  0
  7 12  1  0
  7  8  1  0
  7 43  1  6
  8 17  1  0
  8  9  1  0
  8 44  1  6
  9 10  1  0
  9 45  1  0
  9 46  1  0
 10 11  1  0
 10 47  1  0
 10 48  1  0
 11 12  1  0
 11 15  1  0
 11 49  1  1
 12 13  1  0
 12 14  1  0
 13 50  1  0
 13 51  1  0
 13 52  1  0
 14 53  1  0
 14 54  1  0
 14 55  1  0
 15 16  1  0
 15 21  1  1
 15 23  1  0
 16 17  1  0
 16 56  1  0
 16 57  1  0
 17 18  1  0
 17 58  1  1
 18 19  1  0
 18 20  1  0
 18 59  1  0
 19 60  1  0
 19 61  1  0
 19 62  1  0
 20 63  1  0
 20 64  1  0
 20 65  1  0
 21 22  2  0
 23 34  1  0
 23 24  1  6
 23 25  1  0
 24 66  1  0
 24 67  1  0
 24 68  1  0
 25 26  1  0
 25 27  1  0
 25 69  1  1
 26 70  1  0
 27 28  1  1
 27 29  1  0
 28 71  1  0
 29 30  2  0
 29 31  1  0
 31 32  1  0
 31 72  1  0
 31 73  1  0
 32 33  1  0
 32 34  1  0
 32 74  1  6
 33 75  1  0
 33 76  1  0
 33 77  1  0
 34 35  1  6
 35 36  1  0
 35 78  1  0
 35 79  1  0
 36 80  1  0
M  END
>  <i_m_ct_stereo_status>  (186) 
1

>  <s_m_source_file>  (186) 
/var/tmp/pbs.5076255.sched01/tmpazi1eam_/42934yjxx2.sdf

>  <i_m_source_file_index>  (186) 
39

>  <i_lp_mmshare_version>  (186) 
48012

>  <i_f3d_flags>  (186) 
0

>  <s_epik_input>  (186) 
Tz1DMVtDSDJdW0NAQEhdKFtDSDNdKVtDQEBdMihbQ0gyXVtPSF0pW0NAQF0oW0NIM10pKFtDQEBIXShbT0hdKVtDQEBdMShbQ0BAXTIzNClbT0hdKVtDQEBdNShDKD1PKUMoW0NIM10pPVtDSF0zKVtDQEBIXTZbQ0gyXVtDSDJdW0NAQEhdKFtDQEhdKFtDQEBIXTRbT0hdKUM2KFtDSDNdKVtDSDNdKVtDQEBIXShbQ0gyXTUpW0NIXShbQ0gzXSlbQ0gzXQ==

>  <s_epik_cmdline>  (186) 
J2VwaWtfcHl0aG9uJywgJy1waHQnLCAnMi4wJywgJy1waCcsICc3LjAnLCAnLXRuJywgJzgnLCAnLW1hJywgJzIwMCcsICctaW1hZScsICc8aW5maWxlLm1hZT4nLCAnLW9tYWUnLCAnPG91dGZpbGUubWFlPic=

>  <r_lp_tautomer_probability>  (186) 
1

>  <r_epik_Ionization_Penalty>  (186) 
2.7174e-07

>  <r_epik_Ionization_Penalty_Charging>  (186) 
0

>  <r_epik_Ionization_Penalty_Neutral>  (186) 
2.7174e-07

>  <r_epik_State_Penalty>  (186) 
-0

>  <r_epik_Charging_Adjusted_Penalty>  (186) 
0

>  <i_epik_Tot_Q>  (186) 
0

>  <i_epik_Tot_abs_Q>  (186) 
0

>  <s_lp_Force_Field>  (186) 
OPLS3e

>  <r_lp_Energy>  (186) 
522.742

>  <b_lp_Chiralities_Consistent>  (186) 
1

>  <s_lp_Variant>  (186) 
53:0-1

>  <s_i_glide_gridfile>  (186) 
pfpi4k_grid

>  <i_i_glide_lignum>  (186) 
39

>  <i_i_glide_rotatable_bonds>  (186) 
6

>  <r_i_docking_score>  (186) 
-1.98403

>  <r_i_glide_ligand_efficiency>  (186) 
-0.0551119

>  <r_i_glide_ligand_efficiency_sa>  (186) 
-0.181976

>  <r_i_glide_ligand_efficiency_ln>  (186) 
-0.432861

>  <r_i_glide_gscore>  (186) 
-1.98403

>  <r_i_glide_lipo>  (186) 
-0.173084

>  <r_i_glide_hbond>  (186) 
-0.150998

>  <r_i_glide_metal>  (186) 
-0

>  <r_i_glide_rewards>  (186) 
0

>  <r_i_glide_evdw>  (186) 
-20.2303

>  <r_i_glide_ecoul>  (186) 
-4.69648

>  <r_i_glide_erotb>  (186) 
0.0814674

>  <r_i_glide_esite>  (186) 
-0.0254283

>  <r_i_glide_emodel>  (186) 
-24.6631

>  <r_i_glide_energy>  (186) 
-24.9268

>  <r_i_glide_einternal>  (186) 
7.20982

>  <r_i_glide_intrahb_reward>  (186) 
-0

>  <i_i_glide_confnum>  (186) 
5

>  <i_i_glide_posenum>  (186) 
34

>  <r_i_glide_eff_state_penalty>  (186) 
0

>  <ligand_id>  (186) 
53

>  <original_smiles>  (186) 
CC1=CC23C(O)C4C5CCC(C4(C)C)C(CC5C(C)C)(C1=O)C1(C)C(O)C2(O)C(=O)CC(C)C13CO

>  <smiles>  (186) 
[H]OC([H])([H])C12C([H])(C([H])([H])[H])C([H])([H])C(=O)C3(O[H])C([H])(O[H])C1(C([H])([H])[H])C14C(=O)C(C([H])([H])[H])=C([H])C32C([H])(O[H])C2([H])C([H])(C([H])([H])C([H])([H])C1([H])C2(C([H])([H])[H])C([H])([H])[H])C([H])(C([H])(C([H])([H])[H])C([H])([H])[H])C4([H])[H]

$$$$
53:0:1
     RDKit          3D

 80 85  0  0  1  0  0  0  0  0999 V2000
    2.3463    3.7225    2.5659 C   0  0  0  0  0  0  0  0  0  0  0  0
    2.1385    2.7155    3.6834 C   0  0  0  0  0  0  0  0  0  0  0  0
    1.4214    1.5481    3.5338 C   0  0  0  0  0  0  0  0  0  0  0  0
    1.2373    0.1524    4.3617 C   0  0  1  0  0  0  0  0  0  0  0  0
   -0.3150    0.1106    4.5914 C   0  0  1  0  0  0  0  0  0  0  0  0
   -0.9149   -1.1626    4.6740 O   0  0  0  0  0  0  0  0  0  0  0  0
   -0.9329    1.2439    5.6349 C   0  0  1  0  0  0  0  0  0  0  0  0
   -0.6870    1.6824    7.3059 C   0  0  2  0  0  0  0  0  0  0  0  0
   -1.2085    3.1226    7.6193 C   0  0  0  0  0  0  0  0  0  0  0  0
   -0.4479    4.0795    6.6765 C   0  0  0  0  0  0  0  0  0  0  0  0
    0.2658    3.2401    5.5594 C   0  0  2  0  0  0  0  0  0  0  0  0
   -1.0247    2.5741    4.8578 C   0  0  0  0  0  0  0  0  0  0  0  0
   -1.0709    2.8105    3.2892 C   0  0  0  0  0  0  0  0  0  0  0  0
   -2.5305    3.0510    5.0572 C   0  0  0  0  0  0  0  0  0  0  0  0
    1.7825    2.3741    6.0079 C   0  0  2  0  0  0  0  0  0  0  0  0
    1.8243    2.7179    7.5042 C   0  0  0  0  0  0  0  0  0  0  0  0
    0.7187    1.8312    8.1449 C   0  0  1  0  0  0  0  0  0  0  0  0
    0.6290    2.0265    9.7071 C   0  0  0  0  0  0  0  0  0  0  0  0
   -0.5816    1.3262   10.3591 C   0  0  0  0  0  0  0  0  0  0  0  0
    0.8192    3.4627   10.2585 C   0  0  0  0  0  0  0  0  0  0  0  0
    2.6219    3.1139    5.0198 C   0  0  0  0  0  0  0  0  0  0  0  0
    3.4914    3.9338    5.3047 O   0  0  0  0  0  0  0  0  0  0  0  0
    2.6805    0.8145    5.8446 C   0  0  2  0  0  0  0  0  0  0  0  0
    3.8005    0.7755    6.9405 C   0  0  0  0  0  0  0  0  0  0  0  0
    3.4827    0.3366    4.4378 C   0  0  1  0  0  0  0  0  0  0  0  0
    4.7563   -0.2708    4.5297 O   0  0  0  0  0  0  0  0  0  0  0  0
    2.4118   -0.4374    3.4730 C   0  0  2  0  0  0  0  0  0  0  0  0
    2.6690   -0.0851    2.0953 O   0  0  0  0  0  0  0  0  0  0  0  0
    2.4054   -1.9623    3.4112 C   0  0  0  0  0  0  0  0  0  0  0  0
    1.8026   -2.6044    2.5528 O   0  0  0  0  0  0  0  0  0  0  0  0
    3.1528   -2.6192    4.5050 C   0  0  0  0  0  0  0  0  0  0  0  0
    2.6688   -1.9436    5.7806 C   0  0  1  0  0  0  0  0  0  0  0  0
    3.6647   -2.3008    6.9155 C   0  0  0  0  0  0  0  0  0  0  0  0
    1.8323   -0.4885    5.7813 C   0  0  2  0  0  0  0  0  0  0  0  0
    0.8768   -1.0021    6.9865 C   0  0  0  0  0  0  0  0  0  0  0  0
    0.0839   -2.1933    6.9544 O   0  0  0  0  0  0  0  0  0  0  0  0
    1.9649    4.7107    2.8247 H   0  0  0  0  0  0  0  0  0  0  0  0
    1.8392    3.3950    1.6545 H   0  0  0  0  0  0  0  0  0  0  0  0
    3.4096    3.8227    2.3283 H   0  0  0  0  0  0  0  0  0  0  0  0
    0.9888    1.4570    2.5462 H   0  0  0  0  0  0  0  0  0  0  0  0
   -0.7220    0.3096    3.6116 H   0  0  0  0  0  0  0  0  0  0  0  0
   -0.5762   -1.6968    3.9659 H   0  0  0  0  0  0  0  0  0  0  0  0
   -1.9428    0.8401    5.6799 H   0  0  0  0  0  0  0  0  0  0  0  0
   -1.3313    1.0075    7.8577 H   0  0  0  0  0  0  0  0  0  0  0  0
   -2.2855    3.2243    7.5571 H   0  0  0  0  0  0  0  0  0  0  0  0
   -1.1001    3.4230    8.6326 H   0  0  0  0  0  0  0  0  0  0  0  0
   -1.1302    4.7997    6.2394 H   0  0  0  0  0  0  0  0  0  0  0  0
    0.1711    4.7879    7.2125 H   0  0  0  0  0  0  0  0  0  0  0  0
    0.4943    4.0861    4.9086 H   0  0  0  0  0  0  0  0  0  0  0  0
   -0.1953    3.2924    2.8854 H   0  0  0  0  0  0  0  0  0  0  0  0
   -1.7955    3.5711    2.9827 H   0  0  0  0  0  0  0  0  0  0  0  0
   -1.3387    1.9529    2.6748 H   0  0  0  0  0  0  0  0  0  0  0  0
   -2.6596    4.1303    5.0249 H   0  0  0  0  0  0  0  0  0  0  0  0
   -3.0752    2.6482    5.8988 H   0  0  0  0  0  0  0  0  0  0  0  0
   -3.1835    2.6453    4.2801 H   0  0  0  0  0  0  0  0  0  0  0  0
    2.7685    2.5976    8.0115 H   0  0  0  0  0  0  0  0  0  0  0  0
    1.7513    3.7766    7.6834 H   0  0  0  0  0  0  0  0  0  0  0  0
    1.2439    0.9138    8.1753 H   0  0  0  0  0  0  0  0  0  0  0  0
    1.4858    1.4914   10.1090 H   0  0  0  0  0  0  0  0  0  0  0  0
   -1.5318    1.7349   10.0175 H   0  0  0  0  0  0  0  0  0  0  0  0
   -0.5837    1.4488   11.4428 H   0  0  0  0  0  0  0  0  0  0  0  0
   -0.5789    0.2534   10.1656 H   0  0  0  0  0  0  0  0  0  0  0  0
    0.1111    4.1912    9.8938 H   0  0  0  0  0  0  0  0  0  0  0  0
    1.8248    3.8358   10.0471 H   0  0  0  0  0  0  0  0  0  0  0  0
    0.7423    3.4584   11.3522 H   0  0  0  0  0  0  0  0  0  0  0  0
    4.5678    0.0281    6.8279 H   0  0  0  0  0  0  0  0  0  0  0  0
    3.4052    0.5887    7.9337 H   0  0  0  0  0  0  0  0  0  0  0  0
    4.3735    1.7056    6.9527 H   0  0  0  0  0  0  0  0  0  0  0  0
    3.9127    1.1781    3.9000 H   0  0  0  0  0  0  0  0  0  0  0  0
    5.0874   -0.3776    3.6493 H   0  0  0  0  0  0  0  0  0  0  0  0
    1.9771   -0.4420    1.5507 H   0  0  0  0  0  0  0  0  0  0  0  0
    2.9574   -3.6973    4.5051 H   0  0  0  0  0  0  0  0  0  0  0  0
    4.2252   -2.5239    4.3361 H   0  0  0  0  0  0  0  0  0  0  0  0
    1.9611   -2.7450    5.9150 H   0  0  0  0  0  0  0  0  0  0  0  0
    4.6939   -2.0705    6.6409 H   0  0  0  0  0  0  0  0  0  0  0  0
    3.6550   -3.3778    7.0943 H   0  0  0  0  0  0  0  0  0  0  0  0
    3.4533   -1.8282    7.8740 H   0  0  0  0  0  0  0  0  0  0  0  0
    1.4568   -1.1044    7.9017 H   0  0  0  0  0  0  0  0  0  0  0  0
    0.0404   -0.4138    7.2069 H   0  0  0  0  0  0  0  0  0  0  0  0
    0.6317   -2.9377    6.7263 H   0  0  0  0  0  0  0  0  0  0  0  0
  1  2  1  0
  1 37  1  0
  1 38  1  0
  1 39  1  0
  2 21  1  0
  2  3  2  0
  4  3  1  1
  3 40  1  0
  4 27  1  0
  4 34  1  0
  4  5  1  0
  5  6  1  0
  5  7  1  0
  5 41  1  6
  6 42  1  0
  7 12  1  0
  7  8  1  0
  7 43  1  1
  8 17  1  0
  8  9  1  0
  8 44  1  1
  9 10  1  0
  9 45  1  0
  9 46  1  0
 10 11  1  0
 10 47  1  0
 10 48  1  0
 11 12  1  0
 11 15  1  0
 11 49  1  6
 12 13  1  0
 12 14  1  0
 13 50  1  0
 13 51  1  0
 13 52  1  0
 14 53  1  0
 14 54  1  0
 14 55  1  0
 15 16  1  0
 15 21  1  6
 15 23  1  0
 16 17  1  0
 16 56  1  0
 16 57  1  0
 17 18  1  0
 17 58  1  1
 18 19  1  0
 18 20  1  0
 18 59  1  0
 19 60  1  0
 19 61  1  0
 19 62  1  0
 20 63  1  0
 20 64  1  0
 20 65  1  0
 21 22  2  0
 23 34  1  0
 23 24  1  1
 23 25  1  0
 24 66  1  0
 24 67  1  0
 24 68  1  0
 25 26  1  0
 25 27  1  0
 25 69  1  6
 26 70  1  0
 27 28  1  6
 27 29  1  0
 28 71  1  0
 29 30  2  0
 29 31  1  0
 31 32  1  0
 31 72  1  0
 31 73  1  0
 32 33  1  0
 32 34  1  0
 32 74  1  1
 33 75  1  0
 33 76  1  0
 33 77  1  0
 34 35  1  1
 35 36  1  0
 35 78  1  0
 35 79  1  0
 36 80  1  0
M  END
>  <i_m_ct_stereo_status>  (187) 
1

>  <s_m_source_file>  (187) 
/var/tmp/pbs.5076255.sched01/tmpazi1eam_/42934yjxx2.sdf

>  <i_m_source_file_index>  (187) 
39

>  <i_lp_mmshare_version>  (187) 
48012

>  <i_f3d_flags>  (187) 
0

>  <s_epik_input>  (187) 
Tz1DMVtDSDJdW0NAQEhdKFtDSDNdKVtDQEBdMihbQ0gyXVtPSF0pW0NAQF0oW0NIM10pKFtDQEBIXShbT0hdKVtDQEBdMShbQ0BAXTIzNClbT0hdKVtDQEBdNShDKD1PKUMoW0NIM10pPVtDSF0zKVtDQEBIXTZbQ0gyXVtDSDJdW0NAQEhdKFtDQEhdKFtDQEBIXTRbT0hdKUM2KFtDSDNdKVtDSDNdKVtDQEBIXShbQ0gyXTUpW0NIXShbQ0gzXSlbQ0gzXQ==

>  <s_epik_cmdline>  (187) 
J2VwaWtfcHl0aG9uJywgJy1waHQnLCAnMi4wJywgJy1waCcsICc3LjAnLCAnLXRuJywgJzgnLCAnLW1hJywgJzIwMCcsICctaW1hZScsICc8aW5maWxlLm1hZT4nLCAnLW9tYWUnLCAnPG91dGZpbGUubWFlPic=

>  <r_lp_tautomer_probability>  (187) 
1

>  <r_epik_Ionization_Penalty>  (187) 
2.7174e-07

>  <r_epik_Ionization_Penalty_Charging>  (187) 
0

>  <r_epik_Ionization_Penalty_Neutral>  (187) 
2.7174e-07

>  <r_epik_State_Penalty>  (187) 
-0

>  <r_epik_Charging_Adjusted_Penalty>  (187) 
0

>  <i_epik_Tot_Q>  (187) 
0

>  <i_epik_Tot_abs_Q>  (187) 
0

>  <s_lp_Force_Field>  (187) 
OPLS3e

>  <r_lp_Energy>  (187) 
522.742

>  <b_lp_Chiralities_Consistent>  (187) 
1

>  <s_lp_Variant>  (187) 
53:0-1

>  <s_i_glide_gridfile>  (187) 
pfpi4k_grid

>  <i_i_glide_lignum>  (187) 
39

>  <i_i_glide_rotatable_bonds>  (187) 
6

>  <r_i_docking_score>  (187) 
-1.62272

>  <r_i_glide_ligand_efficiency>  (187) 
-0.0450755

>  <r_i_glide_ligand_efficiency_sa>  (187) 
-0.148836

>  <r_i_glide_ligand_efficiency_ln>  (187) 
-0.354033

>  <r_i_glide_gscore>  (187) 
-1.62272

>  <r_i_glide_lipo>  (187) 
-0.00993371

>  <r_i_glide_hbond>  (187) 
0

>  <r_i_glide_metal>  (187) 
-0

>  <r_i_glide_rewards>  (187) 
0

>  <r_i_glide_evdw>  (187) 
-22.3405

>  <r_i_glide_ecoul>  (187) 
-3.82439

>  <r_i_glide_erotb>  (187) 
0.0814674

>  <r_i_glide_esite>  (187) 
-0.00356813

>  <r_i_glide_emodel>  (187) 
-25.1865

>  <r_i_glide_energy>  (187) 
-26.1649

>  <r_i_glide_einternal>  (187) 
7.20248

>  <r_i_glide_intrahb_reward>  (187) 
-0

>  <i_i_glide_confnum>  (187) 
6

>  <i_i_glide_posenum>  (187) 
35

>  <r_i_glide_eff_state_penalty>  (187) 
0

>  <ligand_id>  (187) 
53

>  <original_smiles>  (187) 
CC1=CC23C(O)C4C5CCC(C4(C)C)C(CC5C(C)C)(C1=O)C1(C)C(O)C2(O)C(=O)CC(C)C13CO

>  <smiles>  (187) 
[H]OC([H])([H])C12C([H])(C([H])([H])[H])C([H])([H])C(=O)C3(O[H])C([H])(O[H])C1(C([H])([H])[H])C14C(=O)C(C([H])([H])[H])=C([H])C32C([H])(O[H])C2([H])C([H])(C([H])([H])C([H])([H])C1([H])C2(C([H])([H])[H])C([H])([H])[H])C([H])(C([H])(C([H])([H])[H])C([H])([H])[H])C4([H])[H]

$$$$
53:0:2
     RDKit          3D

 80 85  0  0  1  0  0  0  0  0999 V2000
    2.7730    3.8395    3.1512 C   0  0  0  0  0  0  0  0  0  0  0  0
    2.2903    2.8591    4.2065 C   0  0  0  0  0  0  0  0  0  0  0  0
    1.8238    1.5869    3.9348 C   0  0  0  0  0  0  0  0  0  0  0  0
    1.4863    0.2211    4.7550 C   0  0  1  0  0  0  0  0  0  0  0  0
   -0.0428    0.0122    4.4268 C   0  0  1  0  0  0  0  0  0  0  0  0
   -0.4957   -1.3189    4.4155 O   0  0  0  0  0  0  0  0  0  0  0  0
   -1.1165    1.1008    5.0837 C   0  0  1  0  0  0  0  0  0  0  0  0
   -1.5350    1.6485    6.6879 C   0  0  2  0  0  0  0  0  0  0  0  0
   -2.2648    3.0105    6.6435 C   0  0  0  0  0  0  0  0  0  0  0  0
   -1.3052    4.0048    5.9762 C   0  0  0  0  0  0  0  0  0  0  0  0
   -0.1537    3.2112    5.2668 C   0  0  2  0  0  0  0  0  0  0  0  0
   -1.0354    2.3776    4.2222 C   0  0  0  0  0  0  0  0  0  0  0  0
   -0.5404    2.5174    2.7281 C   0  0  0  0  0  0  0  0  0  0  0  0
   -2.5351    2.7062    3.7945 C   0  0  0  0  0  0  0  0  0  0  0  0
    1.1646    2.5511    6.2829 C   0  0  2  0  0  0  0  0  0  0  0  0
    0.6350    2.9898    7.6555 C   0  0  0  0  0  0  0  0  0  0  0  0
   -0.5328    2.0111    7.9422 C   0  0  1  0  0  0  0  0  0  0  0  0
   -1.1972    2.2561    9.3593 C   0  0  0  0  0  0  0  0  0  0  0  0
   -1.2421    3.7232    9.8752 C   0  0  0  0  0  0  0  0  0  0  0  0
   -0.5167    1.4150   10.4781 C   0  0  0  0  0  0  0  0  0  0  0  0
    2.2204    3.3574    5.5912 C   0  0  0  0  0  0  0  0  0  0  0  0
    2.8386    4.2866    6.1175 O   0  0  0  0  0  0  0  0  0  0  0  0
    2.2077    1.1274    6.5823 C   0  0  2  0  0  0  0  0  0  0  0  0
    2.8508    1.2773    8.0069 C   0  0  0  0  0  0  0  0  0  0  0  0
    3.4950    0.6900    5.5999 C   0  0  1  0  0  0  0  0  0  0  0  0
    4.7049    0.2563    6.1989 O   0  0  0  0  0  0  0  0  0  0  0  0
    2.9467   -0.2601    4.3932 C   0  0  2  0  0  0  0  0  0  0  0  0
    3.6444    0.0818    3.1825 O   0  0  0  0  0  0  0  0  0  0  0  0
    3.0934   -1.7755    4.4680 C   0  0  0  0  0  0  0  0  0  0  0  0
    2.8652   -2.5235    3.5297 O   0  0  0  0  0  0  0  0  0  0  0  0
    3.4687   -2.2819    5.8012 C   0  0  0  0  0  0  0  0  0  0  0  0
    2.4902   -1.6118    6.7510 C   0  0  1  0  0  0  0  0  0  0  0  0
    3.0224   -1.7869    8.2007 C   0  0  0  0  0  0  0  0  0  0  0  0
    1.5797   -0.2650    6.3328 C   0  0  2  0  0  0  0  0  0  0  0  0
    0.3069   -0.8479    7.1592 C   0  0  0  0  0  0  0  0  0  0  0  0
   -0.2860   -2.1382    6.9927 O   0  0  0  0  0  0  0  0  0  0  0  0
    2.2189    4.7818    3.1939 H   0  0  0  0  0  0  0  0  0  0  0  0
    2.6846    3.4404    2.1452 H   0  0  0  0  0  0  0  0  0  0  0  0
    3.8146    4.0650    3.3334 H   0  0  0  0  0  0  0  0  0  0  0  0
    1.7629    1.3989    2.8656 H   0  0  0  0  0  0  0  0  0  0  0  0
   -0.0907    0.1145    3.3533 H   0  0  0  0  0  0  0  0  0  0  0  0
    0.0204   -1.7923    3.7777 H   0  0  0  0  0  0  0  0  0  0  0  0
   -2.0376    0.5921    4.7839 H   0  0  0  0  0  0  0  0  0  0  0  0
   -2.2733    0.9414    7.0703 H   0  0  0  0  0  0  0  0  0  0  0  0
   -3.2522    2.9808    6.2085 H   0  0  0  0  0  0  0  0  0  0  0  0
   -2.5932    3.3491    7.6076 H   0  0  0  0  0  0  0  0  0  0  0  0
   -1.8408    4.5882    5.2399 H   0  0  0  0  0  0  0  0  0  0  0  0
   -1.0032    4.8240    6.6190 H   0  0  0  0  0  0  0  0  0  0  0  0
    0.2009    4.0529    4.6706 H   0  0  0  0  0  0  0  0  0  0  0  0
    0.3722    3.0835    2.6189 H   0  0  0  0  0  0  0  0  0  0  0  0
   -1.1621    3.1832    2.1317 H   0  0  0  0  0  0  0  0  0  0  0  0
   -0.4937    1.6189    2.1182 H   0  0  0  0  0  0  0  0  0  0  0  0
   -2.7435    3.7539    3.5873 H   0  0  0  0  0  0  0  0  0  0  0  0
   -3.3205    2.3396    4.4128 H   0  0  0  0  0  0  0  0  0  0  0  0
   -2.8222    2.1606    2.8927 H   0  0  0  0  0  0  0  0  0  0  0  0
    1.3324    3.0052    8.4835 H   0  0  0  0  0  0  0  0  0  0  0  0
    0.4093    4.0401    7.6943 H   0  0  0  0  0  0  0  0  0  0  0  0
    0.0461    1.1621    8.2049 H   0  0  0  0  0  0  0  0  0  0  0  0
   -2.2084    1.8602    9.3092 H   0  0  0  0  0  0  0  0  0  0  0  0
   -0.2449    4.1420    9.9723 H   0  0  0  0  0  0  0  0  0  0  0  0
   -1.6833    3.7580   10.8674 H   0  0  0  0  0  0  0  0  0  0  0  0
   -1.8123    4.4334    9.2840 H   0  0  0  0  0  0  0  0  0  0  0  0
    0.5485    1.6481   10.5644 H   0  0  0  0  0  0  0  0  0  0  0  0
   -0.6043    0.3395   10.3174 H   0  0  0  0  0  0  0  0  0  0  0  0
   -0.9615    1.6225   11.4528 H   0  0  0  0  0  0  0  0  0  0  0  0
    3.6719    0.6231    8.2456 H   0  0  0  0  0  0  0  0  0  0  0  0
    2.1335    1.0828    8.8107 H   0  0  0  0  0  0  0  0  0  0  0  0
    3.2799    2.2682    8.1466 H   0  0  0  0  0  0  0  0  0  0  0  0
    4.0182    1.5575    5.1974 H   0  0  0  0  0  0  0  0  0  0  0  0
    5.3555    0.1558    5.5161 H   0  0  0  0  0  0  0  0  0  0  0  0
    3.5744    1.0124    3.0082 H   0  0  0  0  0  0  0  0  0  0  0  0
    3.3885   -3.3655    5.8331 H   0  0  0  0  0  0  0  0  0  0  0  0
    4.5059   -2.0568    6.0212 H   0  0  0  0  0  0  0  0  0  0  0  0
    1.8672   -2.4862    6.6982 H   0  0  0  0  0  0  0  0  0  0  0  0
    4.0581   -1.4471    8.2971 H   0  0  0  0  0  0  0  0  0  0  0  0
    3.0544   -2.8505    8.4549 H   0  0  0  0  0  0  0  0  0  0  0  0
    2.4316   -1.3042    8.9778 H   0  0  0  0  0  0  0  0  0  0  0  0
    0.5106   -0.8080    8.2270 H   0  0  0  0  0  0  0  0  0  0  0  0
   -0.6115   -0.3671    7.0000 H   0  0  0  0  0  0  0  0  0  0  0  0
    0.3868   -2.7757    6.7972 H   0  0  0  0  0  0  0  0  0  0  0  0
  1  2  1  0
  1 37  1  0
  1 38  1  0
  1 39  1  0
  2 21  1  0
  2  3  2  0
  4  3  1  1
  3 40  1  0
  4 27  1  0
  4 34  1  0
  4  5  1  0
  5  6  1  0
  5  7  1  0
  5 41  1  6
  6 42  1  0
  7 12  1  0
  7  8  1  0
  7 43  1  6
  8 17  1  0
  8  9  1  0
  8 44  1  1
  9 10  1  0
  9 45  1  0
  9 46  1  0
 10 11  1  0
 10 47  1  0
 10 48  1  0
 11 12  1  0
 11 15  1  0
 11 49  1  6
 12 13  1  0
 12 14  1  0
 13 50  1  0
 13 51  1  0
 13 52  1  0
 14 53  1  0
 14 54  1  0
 14 55  1  0
 15 16  1  0
 15 21  1  6
 15 23  1  0
 16 17  1  0
 16 56  1  0
 16 57  1  0
 17 18  1  0
 17 58  1  1
 18 19  1  0
 18 20  1  0
 18 59  1  0
 19 60  1  0
 19 61  1  0
 19 62  1  0
 20 63  1  0
 20 64  1  0
 20 65  1  0
 21 22  2  0
 23 34  1  0
 23 24  1  1
 23 25  1  0
 24 66  1  0
 24 67  1  0
 24 68  1  0
 25 26  1  0
 25 27  1  0
 25 69  1  6
 26 70  1  0
 27 28  1  6
 27 29  1  0
 28 71  1  0
 29 30  2  0
 29 31  1  0
 31 32  1  0
 31 72  1  0
 31 73  1  0
 32 33  1  0
 32 34  1  0
 32 74  1  1
 33 75  1  0
 33 76  1  0
 33 77  1  0
 34 35  1  1
 35 36  1  0
 35 78  1  0
 35 79  1  0
 36 80  1  0
M  END
>  <i_m_ct_stereo_status>  (188) 
1

>  <s_m_source_file>  (188) 
/var/tmp/pbs.5076255.sched01/tmpazi1eam_/42934yjxx2.sdf

>  <i_m_source_file_index>  (188) 
39

>  <i_lp_mmshare_version>  (188) 
48012

>  <i_f3d_flags>  (188) 
0

>  <s_epik_input>  (188) 
Tz1DMVtDSDJdW0NAQEhdKFtDSDNdKVtDQEBdMihbQ0gyXVtPSF0pW0NAQF0oW0NIM10pKFtDQEBIXShbT0hdKVtDQEBdMShbQ0BAXTIzNClbT0hdKVtDQEBdNShDKD1PKUMoW0NIM10pPVtDSF0zKVtDQEBIXTZbQ0gyXVtDSDJdW0NAQEhdKFtDQEhdKFtDQEBIXTRbT0hdKUM2KFtDSDNdKVtDSDNdKVtDQEBIXShbQ0gyXTUpW0NIXShbQ0gzXSlbQ0gzXQ==

>  <s_epik_cmdline>  (188) 
J2VwaWtfcHl0aG9uJywgJy1waHQnLCAnMi4wJywgJy1waCcsICc3LjAnLCAnLXRuJywgJzgnLCAnLW1hJywgJzIwMCcsICctaW1hZScsICc8aW5maWxlLm1hZT4nLCAnLW9tYWUnLCAnPG91dGZpbGUubWFlPic=

>  <r_lp_tautomer_probability>  (188) 
1

>  <r_epik_Ionization_Penalty>  (188) 
2.7174e-07

>  <r_epik_Ionization_Penalty_Charging>  (188) 
0

>  <r_epik_Ionization_Penalty_Neutral>  (188) 
2.7174e-07

>  <r_epik_State_Penalty>  (188) 
-0

>  <r_epik_Charging_Adjusted_Penalty>  (188) 
0

>  <i_epik_Tot_Q>  (188) 
0

>  <i_epik_Tot_abs_Q>  (188) 
0

>  <s_lp_Force_Field>  (188) 
OPLS3e

>  <r_lp_Energy>  (188) 
522.742

>  <b_lp_Chiralities_Consistent>  (188) 
1

>  <s_lp_Variant>  (188) 
53:0-1

>  <s_i_glide_gridfile>  (188) 
pfpi4k_grid

>  <i_i_glide_lignum>  (188) 
39

>  <i_i_glide_rotatable_bonds>  (188) 
6

>  <r_i_docking_score>  (188) 
-1.4921

>  <r_i_glide_ligand_efficiency>  (188) 
-0.0414473

>  <r_i_glide_ligand_efficiency_sa>  (188) 
-0.136856

>  <r_i_glide_ligand_efficiency_ln>  (188) 
-0.325537

>  <r_i_glide_gscore>  (188) 
-1.4921

>  <r_i_glide_lipo>  (188) 
-0.106653

>  <r_i_glide_hbond>  (188) 
0

>  <r_i_glide_metal>  (188) 
-0

>  <r_i_glide_rewards>  (188) 
0

>  <r_i_glide_evdw>  (188) 
-19.1505

>  <r_i_glide_ecoul>  (188) 
-3.39598

>  <r_i_glide_erotb>  (188) 
0.0814674

>  <r_i_glide_esite>  (188) 
0

>  <r_i_glide_emodel>  (188) 
-22.0863

>  <r_i_glide_energy>  (188) 
-22.5464

>  <r_i_glide_einternal>  (188) 
5.49536

>  <r_i_glide_intrahb_reward>  (188) 
-0

>  <i_i_glide_confnum>  (188) 
6

>  <i_i_glide_posenum>  (188) 
2

>  <r_i_glide_eff_state_penalty>  (188) 
0

>  <ligand_id>  (188) 
53

>  <original_smiles>  (188) 
CC1=CC23C(O)C4C5CCC(C4(C)C)C(CC5C(C)C)(C1=O)C1(C)C(O)C2(O)C(=O)CC(C)C13CO

>  <smiles>  (188) 
[H]OC([H])([H])C12C([H])(C([H])([H])[H])C([H])([H])C(=O)C3(O[H])C([H])(O[H])C1(C([H])([H])[H])C14C(=O)C(C([H])([H])[H])=C([H])C32C([H])(O[H])C2([H])C([H])(C([H])([H])C([H])([H])C1([H])C2(C([H])([H])[H])C([H])([H])[H])C([H])(C([H])(C([H])([H])[H])C([H])([H])[H])C4([H])[H]

$$$$
54:0:0
     RDKit          3D

 57 64  0  0  1  0  0  0  0  0999 V2000
   -2.2152    2.7630    3.1692 C   0  0  0  0  0  0  0  0  0  0  0  0
   -0.9177    3.2071    3.8502 C   0  0  2  0  0  0  0  0  0  0  0  0
   -0.7104    4.7524    3.7183 C   0  0  0  0  0  0  0  0  0  0  0  0
   -0.4483    5.3101    5.0612 O   0  0  0  0  0  0  0  0  0  0  0  0
    0.2137    4.2658    5.7552 C   0  0  1  0  0  0  0  0  0  0  0  0
    0.8526    4.0750    7.2038 C   0  0  0  0  0  0  0  0  0  0  0  0
    2.1920    3.1564    7.4359 C   0  0  1  0  0  0  0  0  0  0  0  0
    2.4471    3.2280    8.8262 O   0  0  0  0  0  0  0  0  0  0  0  0
    2.5778    1.6157    6.9896 C   0  0  1  0  0  0  0  0  0  0  0  0
    2.0196    0.2993    7.7971 C   0  0  2  0  0  0  0  0  0  0  0  0
    1.5682   -1.2533    7.4739 C   0  0  0  0  0  0  0  0  0  0  0  0
    0.3802   -1.7173    6.4215 C   0  0  0  0  0  0  0  0  0  0  0  0
   -0.3793   -0.7011    5.4102 C   0  0  2  0  0  0  0  0  0  0  0  0
   -1.7850   -0.8813    5.5014 O   0  0  0  0  0  0  0  0  0  0  0  0
   -0.0494   -0.6774    3.9056 C   0  0  1  0  0  0  0  0  0  0  0  0
   -0.5751    0.2121    3.0383 O   0  0  0  0  0  0  0  0  0  0  0  0
    0.7077    0.7125    3.5278 C   0  0  2  0  0  0  0  0  0  0  0  0
    0.3257    2.1951    3.7506 C   0  0  2  0  0  0  0  0  0  0  0  0
   -0.1145    1.8955    5.1309 C   0  0  0  0  0  0  0  0  0  0  0  0
   -0.8006    3.1626    5.3702 C   0  0  2  0  0  0  0  0  0  0  0  0
   -2.1313    3.2644    6.1279 C   0  0  0  0  0  0  0  0  0  0  0  0
    0.1975    0.6043    5.7967 C   0  0  1  0  0  0  0  0  0  0  0  0
   -0.1763    0.8441    7.3143 C   0  0  0  0  0  0  0  0  0  0  0  0
   -1.3443    0.9834    7.6777 O   0  0  0  0  0  0  0  0  0  0  0  0
    0.7699    0.7584    8.1856 O   0  0  0  0  0  0  0  0  0  0  0  0
    1.5652    0.4287    4.8641 C   0  0  1  0  0  0  0  0  0  0  0  0
    2.4606   -0.8867    4.5776 C   0  0  0  0  0  0  0  0  0  0  0  0
    2.7533    1.3715    5.4322 C   0  0  1  0  0  0  0  0  0  0  0  0
    3.1490    2.5325    4.7329 O   0  0  0  0  0  0  0  0  0  0  0  0
   -3.0473    3.4281    3.4002 H   0  0  0  0  0  0  0  0  0  0  0  0
   -2.5110    1.7666    3.5042 H   0  0  0  0  0  0  0  0  0  0  0  0
   -2.0985    2.7297    2.0880 H   0  0  0  0  0  0  0  0  0  0  0  0
    0.1142    4.9926    3.0438 H   0  0  0  0  0  0  0  0  0  0  0  0
   -1.5910    5.2435    3.3059 H   0  0  0  0  0  0  0  0  0  0  0  0
    1.1313    4.2603    5.1616 H   0  0  0  0  0  0  0  0  0  0  0  0
    1.1237    5.0779    7.5410 H   0  0  0  0  0  0  0  0  0  0  0  0
    0.0785    3.7640    7.9012 H   0  0  0  0  0  0  0  0  0  0  0  0
    2.9916    3.7573    7.0055 H   0  0  0  0  0  0  0  0  0  0  0  0
    1.7649    2.7616    9.2868 H   0  0  0  0  0  0  0  0  0  0  0  0
    3.6186    1.5889    7.3163 H   0  0  0  0  0  0  0  0  0  0  0  0
    2.3751   -0.1008    6.8883 H   0  0  0  0  0  0  0  0  0  0  0  0
    2.4443   -1.8877    7.2913 H   0  0  0  0  0  0  0  0  0  0  0  0
    1.2458   -1.6480    8.4377 H   0  0  0  0  0  0  0  0  0  0  0  0
    0.7065   -2.6045    5.8815 H   0  0  0  0  0  0  0  0  0  0  0  0
   -0.3992   -2.1293    7.0659 H   0  0  0  0  0  0  0  0  0  0  0  0
   -2.1878   -0.2907    4.8847 H   0  0  0  0  0  0  0  0  0  0  0  0
    0.1366   -1.6328    3.4152 H   0  0  0  0  0  0  0  0  0  0  0  0
    1.1790    2.8432    3.6168 H   0  0  0  0  0  0  0  0  0  0  0  0
    0.7193    2.2881    5.6101 H   0  0  0  0  0  0  0  0  0  0  0  0
   -2.0042    3.3721    7.2054 H   0  0  0  0  0  0  0  0  0  0  0  0
   -2.7413    2.3770    5.9485 H   0  0  0  0  0  0  0  0  0  0  0  0
   -2.7089    4.1209    5.7843 H   0  0  0  0  0  0  0  0  0  0  0  0
    3.1643   -1.1609    5.3612 H   0  0  0  0  0  0  0  0  0  0  0  0
    3.0882   -0.6718    3.7091 H   0  0  0  0  0  0  0  0  0  0  0  0
    1.9918   -1.8346    4.3263 H   0  0  0  0  0  0  0  0  0  0  0  0
    3.7090    0.8512    5.3587 H   0  0  0  0  0  0  0  0  0  0  0  0
    3.3767    2.2988    3.8449 H   0  0  0  0  0  0  0  0  0  0  0  0
  2  1  1  1
  1 30  1  0
  1 31  1  0
  1 32  1  0
  2 18  1  0
  2 20  1  0
  2  3  1  0
  3  4  1  0
  3 33  1  0
  3 34  1  0
  4  5  1  0
  5 20  1  0
  5  6  1  0
  5 35  1  6
  6  7  1  0
  6 36  1  0
  6 37  1  0
  7  8  1  0
  7  9  1  0
  7 38  1  6
  8 39  1  0
  9 28  1  0
  9 10  1  0
  9 40  1  1
 10 25  1  0
 10 11  1  0
 10 41  1  1
 11 12  1  0
 11 42  1  0
 11 43  1  0
 12 13  1  0
 12 44  1  0
 12 45  1  0
 13 22  1  0
 13 14  1  6
 13 15  1  0
 14 46  1  0
 15 17  1  0
 15 16  1  0
 15 47  1  6
 17 16  1  1
 17 26  1  0
 17 18  1  0
 18 19  1  0
 18 48  1  1
 19 20  1  0
 22 19  1  6
 19 49  1  0
 20 21  1  1
 21 50  1  0
 21 51  1  0
 21 52  1  0
 22 23  1  0
 22 26  1  0
 23 24  2  0
 23 25  1  0
 26 27  1  6
 26 28  1  0
 27 53  1  0
 27 54  1  0
 27 55  1  0
 28 29  1  0
 28 56  1  1
 29 57  1  0
M  END
>  <i_m_ct_stereo_status>  (189) 
1

>  <s_m_source_file>  (189) 
/var/tmp/pbs.5076255.sched01/tmpazi1eam_/42934yjxx2.sdf

>  <i_m_source_file_index>  (189) 
40

>  <i_lp_mmshare_version>  (189) 
48012

>  <i_f3d_flags>  (189) 
0

>  <s_epik_input>  (189) 
TzFbQ0BASF0oW0NAQF0xMjMpW0NAXTQoW09IXSlbQ0BAXTU2W0NIXTdbQ0BASF0yW0NAQF04KFtDSDNdKVtDQF03KFtDSDNdKVtDQEBIXShPW0NIMl04KVtDSDJdW0NAQEhdKFtPSF0pW0NAQEhdKFtDQEBIXShbQ0gyXVtDSDJdNClPQzU9TylbQ0BIXShbT0hdKVtDQF0zNltDSDNd

>  <s_epik_cmdline>  (189) 
J2VwaWtfcHl0aG9uJywgJy1waHQnLCAnMi4wJywgJy1waCcsICc3LjAnLCAnLXRuJywgJzgnLCAnLW1hJywgJzIwMCcsICctaW1hZScsICc8aW5maWxlLm1hZT4nLCAnLW9tYWUnLCAnPG91dGZpbGUubWFlPic=

>  <r_lp_tautomer_probability>  (189) 
1

>  <r_epik_Ionization_Penalty>  (189) 
1.8038e-07

>  <r_epik_Ionization_Penalty_Charging>  (189) 
0

>  <r_epik_Ionization_Penalty_Neutral>  (189) 
1.8038e-07

>  <r_epik_State_Penalty>  (189) 
-0

>  <r_epik_Charging_Adjusted_Penalty>  (189) 
0

>  <i_epik_Tot_Q>  (189) 
0

>  <i_epik_Tot_abs_Q>  (189) 
0

>  <s_epik_Chemistry_Notes>  (189) 
This compound has an ester and may undergo hydrolysis at high or low pH.

>  <s_lp_Force_Field>  (189) 
OPLS3e

>  <r_lp_Energy>  (189) 
424.153

>  <b_lp_Chiralities_Consistent>  (189) 
1

>  <s_lp_Variant>  (189) 
54:0-1

>  <s_i_glide_gridfile>  (189) 
pfpi4k_grid

>  <i_i_glide_lignum>  (189) 
40

>  <i_i_glide_rotatable_bonds>  (189) 
3

>  <r_i_docking_score>  (189) 
-2.53295

>  <r_i_glide_ligand_efficiency>  (189) 
-0.0873431

>  <r_i_glide_ligand_efficiency_sa>  (189) 
-0.268346

>  <r_i_glide_ligand_efficiency_ln>  (189) 
-0.579981

>  <r_i_glide_gscore>  (189) 
-2.53295

>  <r_i_glide_lipo>  (189) 
-0.0594994

>  <r_i_glide_hbond>  (189) 
-0.123244

>  <r_i_glide_metal>  (189) 
-0

>  <r_i_glide_rewards>  (189) 
-0.651453

>  <r_i_glide_evdw>  (189) 
-15.7363

>  <r_i_glide_ecoul>  (189) 
-5.8878

>  <r_i_glide_erotb>  (189) 
0

>  <r_i_glide_esite>  (189) 
-0.0287687

>  <r_i_glide_emodel>  (189) 
-25.2428

>  <r_i_glide_energy>  (189) 
-21.6241

>  <r_i_glide_einternal>  (189) 
0.37298

>  <r_i_glide_intrahb_reward>  (189) 
-0

>  <i_i_glide_confnum>  (189) 
2

>  <i_i_glide_posenum>  (189) 
32

>  <r_i_glide_eff_state_penalty>  (189) 
0

>  <ligand_id>  (189) 
54

>  <original_smiles>  (189) 
CC12COC3CC(O)C4C5CCC6(O)C7OC78C1C(C32C)C6(C(=O)O5)C8(C)C4O

>  <smiles>  (189) 
[H]OC1([H])C([H])([H])C2([H])OC([H])([H])C3(C([H])([H])[H])C4([H])C([H])(C56C(=O)OC7([H])C([H])([H])C([H])([H])C5(O[H])C5([H])OC54C6(C([H])([H])[H])C([H])(O[H])C71[H])C23C([H])([H])[H]

$$$$
54:0:1
     RDKit          3D

 57 64  0  0  1  0  0  0  0  0999 V2000
   -2.6782    2.5761    4.8242 C   0  0  0  0  0  0  0  0  0  0  0  0
   -1.3289    3.0136    4.2781 C   0  0  2  0  0  0  0  0  0  0  0  0
   -1.4459    4.3986    3.5665 C   0  0  0  0  0  0  0  0  0  0  0  0
   -0.4063    5.2945    4.1096 O   0  0  0  0  0  0  0  0  0  0  0  0
    0.6629    4.4281    4.4536 C   0  0  1  0  0  0  0  0  0  0  0  0
    2.1262    4.6009    5.0552 C   0  0  0  0  0  0  0  0  0  0  0  0
    3.3593    3.6171    4.6073 C   0  0  1  0  0  0  0  0  0  0  0  0
    4.4639    4.0855    5.3590 O   0  0  0  0  0  0  0  0  0  0  0  0
    3.5025    1.9744    4.5415 C   0  0  1  0  0  0  0  0  0  0  0  0
    3.7897    1.0567    5.8746 C   0  0  2  0  0  0  0  0  0  0  0  0
    3.4113   -0.4413    6.4504 C   0  0  0  0  0  0  0  0  0  0  0  0
    1.8836   -1.0306    6.6883 C   0  0  0  0  0  0  0  0  0  0  0  0
    0.5303   -0.2749    6.1971 C   0  0  2  0  0  0  0  0  0  0  0  0
   -0.3914   -0.2155    7.2780 O   0  0  0  0  0  0  0  0  0  0  0  0
   -0.2515   -0.7622    4.9593 C   0  0  1  0  0  0  0  0  0  0  0  0
   -1.3187   -0.1311    4.4234 O   0  0  0  0  0  0  0  0  0  0  0  0
   -0.1015    0.3265    3.7566 C   0  0  2  0  0  0  0  0  0  0  0  0
   -0.3928    1.8484    3.6912 C   0  0  2  0  0  0  0  0  0  0  0  0
    0.2561    2.0464    5.0090 C   0  0  0  0  0  0  0  0  0  0  0  0
   -0.2076    3.4115    5.2288 C   0  0  2  0  0  0  0  0  0  0  0  0
   -0.6666    3.9231    6.5999 C   0  0  0  0  0  0  0  0  0  0  0  0
    1.0730    0.9876    5.6544 C   0  0  1  0  0  0  0  0  0  0  0  0
    1.8013    1.7273    6.8492 C   0  0  0  0  0  0  0  0  0  0  0  0
    1.1775    2.1229    7.8279 O   0  0  0  0  0  0  0  0  0  0  0  0
    3.0890    1.7747    6.8302 O   0  0  0  0  0  0  0  0  0  0  0  0
    1.4573    0.3468    4.1713 C   0  0  1  0  0  0  0  0  0  0  0  0
    2.0593   -1.1049    3.7968 C   0  0  0  0  0  0  0  0  0  0  0  0
    2.5971    1.2462    3.4609 C   0  0  1  0  0  0  0  0  0  0  0  0
    2.2726    2.0481    2.3456 O   0  0  0  0  0  0  0  0  0  0  0  0
   -3.2026    3.3868    5.3270 H   0  0  0  0  0  0  0  0  0  0  0  0
   -2.5643    1.7709    5.5521 H   0  0  0  0  0  0  0  0  0  0  0  0
   -3.3096    2.2200    4.0098 H   0  0  0  0  0  0  0  0  0  0  0  0
   -1.3547    4.2971    2.4817 H   0  0  0  0  0  0  0  0  0  0  0  0
   -2.4164    4.8606    3.7359 H   0  0  0  0  0  0  0  0  0  0  0  0
    0.9229    4.1160    3.4396 H   0  0  0  0  0  0  0  0  0  0  0  0
    2.4365    5.6111    4.7815 H   0  0  0  0  0  0  0  0  0  0  0  0
    2.0720    4.6244    6.1410 H   0  0  0  0  0  0  0  0  0  0  0  0
    3.5860    3.9337    3.5895 H   0  0  0  0  0  0  0  0  0  0  0  0
    4.5211    5.0240    5.2625 H   0  0  0  0  0  0  0  0  0  0  0  0
    4.4832    1.8889    4.0743 H   0  0  0  0  0  0  0  0  0  0  0  0
    3.4833    0.3519    5.1511 H   0  0  0  0  0  0  0  0  0  0  0  0
    3.9950   -1.2195    5.9426 H   0  0  0  0  0  0  0  0  0  0  0  0
    3.8694   -0.4747    7.4394 H   0  0  0  0  0  0  0  0  0  0  0  0
    1.8539   -2.0773    6.3915 H   0  0  0  0  0  0  0  0  0  0  0  0
    1.8024   -1.1099    7.7757 H   0  0  0  0  0  0  0  0  0  0  0  0
    0.0113    0.2922    7.9670 H   0  0  0  0  0  0  0  0  0  0  0  0
   -0.3374   -1.8396    4.8191 H   0  0  0  0  0  0  0  0  0  0  0  0
    0.0590    2.2976    2.8199 H   0  0  0  0  0  0  0  0  0  0  0  0
    1.1436    2.4481    4.6536 H   0  0  0  0  0  0  0  0  0  0  0  0
    0.1467    4.3231    7.2025 H   0  0  0  0  0  0  0  0  0  0  0  0
   -1.1546    3.1238    7.1648 H   0  0  0  0  0  0  0  0  0  0  0  0
   -1.3833    4.7291    6.4852 H   0  0  0  0  0  0  0  0  0  0  0  0
    3.1320   -1.2215    3.9357 H   0  0  0  0  0  0  0  0  0  0  0  0
    1.9044   -1.2500    2.7246 H   0  0  0  0  0  0  0  0  0  0  0  0
    1.6510   -2.0077    4.2422 H   0  0  0  0  0  0  0  0  0  0  0  0
    3.3022    0.6007    2.9370 H   0  0  0  0  0  0  0  0  0  0  0  0
    1.6608    2.7227    2.6005 H   0  0  0  0  0  0  0  0  0  0  0  0
  2  1  1  1
  1 30  1  0
  1 31  1  0
  1 32  1  0
  2 18  1  0
  2 20  1  0
  2  3  1  0
  3  4  1  0
  3 33  1  0
  3 34  1  0
  4  5  1  0
  5 20  1  0
  5  6  1  0
  5 35  1  6
  6  7  1  0
  6 36  1  0
  6 37  1  0
  7  8  1  0
  7  9  1  0
  7 38  1  6
  8 39  1  0
  9 28  1  0
  9 10  1  0
  9 40  1  6
 10 25  1  0
 10 11  1  0
 10 41  1  1
 11 12  1  0
 11 42  1  0
 11 43  1  0
 12 13  1  0
 12 44  1  0
 12 45  1  0
 13 22  1  0
 13 14  1  1
 13 15  1  0
 14 46  1  0
 15 17  1  0
 15 16  1  0
 15 47  1  6
 17 16  1  1
 17 26  1  0
 17 18  1  0
 18 19  1  0
 18 48  1  6
 19 20  1  0
 22 19  1  6
 19 49  1  0
 20 21  1  1
 21 50  1  0
 21 51  1  0
 21 52  1  0
 22 23  1  0
 22 26  1  0
 23 24  2  0
 23 25  1  0
 26 27  1  1
 26 28  1  0
 27 53  1  0
 27 54  1  0
 27 55  1  0
 28 29  1  0
 28 56  1  6
 29 57  1  0
M  END
>  <i_m_ct_stereo_status>  (190) 
1

>  <s_m_source_file>  (190) 
/var/tmp/pbs.5076255.sched01/tmpazi1eam_/42934yjxx2.sdf

>  <i_m_source_file_index>  (190) 
40

>  <i_lp_mmshare_version>  (190) 
48012

>  <i_f3d_flags>  (190) 
0

>  <s_epik_input>  (190) 
TzFbQ0BASF0oW0NAQF0xMjMpW0NAXTQoW09IXSlbQ0BAXTU2W0NIXTdbQ0BASF0yW0NAQF04KFtDSDNdKVtDQF03KFtDSDNdKVtDQEBIXShPW0NIMl04KVtDSDJdW0NAQEhdKFtPSF0pW0NAQEhdKFtDQEBIXShbQ0gyXVtDSDJdNClPQzU9TylbQ0BIXShbT0hdKVtDQF0zNltDSDNd

>  <s_epik_cmdline>  (190) 
J2VwaWtfcHl0aG9uJywgJy1waHQnLCAnMi4wJywgJy1waCcsICc3LjAnLCAnLXRuJywgJzgnLCAnLW1hJywgJzIwMCcsICctaW1hZScsICc8aW5maWxlLm1hZT4nLCAnLW9tYWUnLCAnPG91dGZpbGUubWFlPic=

>  <r_lp_tautomer_probability>  (190) 
1

>  <r_epik_Ionization_Penalty>  (190) 
1.8038e-07

>  <r_epik_Ionization_Penalty_Charging>  (190) 
0

>  <r_epik_Ionization_Penalty_Neutral>  (190) 
1.8038e-07

>  <r_epik_State_Penalty>  (190) 
-0

>  <r_epik_Charging_Adjusted_Penalty>  (190) 
0

>  <i_epik_Tot_Q>  (190) 
0

>  <i_epik_Tot_abs_Q>  (190) 
0

>  <s_epik_Chemistry_Notes>  (190) 
This compound has an ester and may undergo hydrolysis at high or low pH.

>  <s_lp_Force_Field>  (190) 
OPLS3e

>  <r_lp_Energy>  (190) 
424.153

>  <b_lp_Chiralities_Consistent>  (190) 
1

>  <s_lp_Variant>  (190) 
54:0-1

>  <s_i_glide_gridfile>  (190) 
pfpi4k_grid

>  <i_i_glide_lignum>  (190) 
40

>  <i_i_glide_rotatable_bonds>  (190) 
3

>  <r_i_docking_score>  (190) 
-2.53157

>  <r_i_glide_ligand_efficiency>  (190) 
-0.0872956

>  <r_i_glide_ligand_efficiency_sa>  (190) 
-0.2682

>  <r_i_glide_ligand_efficiency_ln>  (190) 
-0.579666

>  <r_i_glide_gscore>  (190) 
-2.53157

>  <r_i_glide_lipo>  (190) 
0

>  <r_i_glide_hbond>  (190) 
-0.0303942

>  <r_i_glide_metal>  (190) 
-0

>  <r_i_glide_rewards>  (190) 
-1.15145

>  <r_i_glide_evdw>  (190) 
-14.3253

>  <r_i_glide_ecoul>  (190) 
-4.22307

>  <r_i_glide_erotb>  (190) 
0

>  <r_i_glide_esite>  (190) 
0

>  <r_i_glide_emodel>  (190) 
-27.1399

>  <r_i_glide_energy>  (190) 
-18.5484

>  <r_i_glide_einternal>  (190) 
0.37123

>  <r_i_glide_intrahb_reward>  (190) 
-0.5

>  <i_i_glide_confnum>  (190) 
2

>  <i_i_glide_posenum>  (190) 
25

>  <r_i_glide_eff_state_penalty>  (190) 
0

>  <ligand_id>  (190) 
54

>  <original_smiles>  (190) 
CC12COC3CC(O)C4C5CCC6(O)C7OC78C1C(C32C)C6(C(=O)O5)C8(C)C4O

>  <smiles>  (190) 
[H]OC1([H])C([H])([H])C2([H])OC([H])([H])C3(C([H])([H])[H])C4([H])C([H])(C56C(=O)OC7([H])C([H])([H])C([H])([H])C5(O[H])C5([H])OC54C6(C([H])([H])[H])C([H])(O[H])C71[H])C23C([H])([H])[H]

$$$$
54:0:2
     RDKit          3D

 57 64  0  0  1  0  0  0  0  0999 V2000
   -2.6494    2.5752    4.8291 C   0  0  0  0  0  0  0  0  0  0  0  0
   -1.3005    3.0135    4.2823 C   0  0  2  0  0  0  0  0  0  0  0  0
   -1.4175    4.3993    3.5688 C   0  0  0  0  0  0  0  0  0  0  0  0
   -0.3772    5.2954    4.1133 O   0  0  0  0  0  0  0  0  0  0  0  0
    0.6916    4.4291    4.4563 C   0  0  1  0  0  0  0  0  0  0  0  0
    2.1561    4.6003    5.0591 C   0  0  0  0  0  0  0  0  0  0  0  0
    3.3889    3.6151    4.6135 C   0  0  1  0  0  0  0  0  0  0  0  0
    4.4933    4.0808    5.3674 O   0  0  0  0  0  0  0  0  0  0  0  0
    3.5317    1.9723    4.5431 C   0  0  1  0  0  0  0  0  0  0  0  0
    3.8197    1.0545    5.8742 C   0  0  2  0  0  0  0  0  0  0  0  0
    3.4404   -0.4409    6.4541 C   0  0  0  0  0  0  0  0  0  0  0  0
    1.9130   -1.0307    6.6910 C   0  0  0  0  0  0  0  0  0  0  0  0
    0.5601   -0.2749    6.1999 C   0  0  2  0  0  0  0  0  0  0  0  0
   -0.3617   -0.2178    7.2814 O   0  0  0  0  0  0  0  0  0  0  0  0
   -0.2229   -0.7621    4.9636 C   0  0  1  0  0  0  0  0  0  0  0  0
   -1.2899   -0.1298    4.4286 O   0  0  0  0  0  0  0  0  0  0  0  0
   -0.0729    0.3265    3.7603 C   0  0  2  0  0  0  0  0  0  0  0  0
   -0.3640    1.8485    3.6957 C   0  0  2  0  0  0  0  0  0  0  0  0
    0.2858    2.0481    5.0124 C   0  0  0  0  0  0  0  0  0  0  0  0
   -0.1804    3.4135    5.2331 C   0  0  2  0  0  0  0  0  0  0  0  0
   -0.6443    3.9283    6.6027 C   0  0  0  0  0  0  0  0  0  0  0  0
    1.1026    0.9877    5.6583 C   0  0  1  0  0  0  0  0  0  0  0  0
    1.8334    1.7282    6.8498 C   0  0  0  0  0  0  0  0  0  0  0  0
    1.2128    2.1245    7.8311 O   0  0  0  0  0  0  0  0  0  0  0  0
    3.1230    1.7860    6.8233 O   0  0  0  0  0  0  0  0  0  0  0  0
    1.4846    0.3462    4.1744 C   0  0  1  0  0  0  0  0  0  0  0  0
    2.0870   -1.1049    3.7999 C   0  0  0  0  0  0  0  0  0  0  0  0
    2.6240    1.2451    3.4631 C   0  0  1  0  0  0  0  0  0  0  0  0
    2.2994    2.0470    2.3495 O   0  0  0  0  0  0  0  0  0  0  0  0
   -3.1741    3.3859    5.3316 H   0  0  0  0  0  0  0  0  0  0  0  0
   -2.5350    1.7707    5.5575 H   0  0  0  0  0  0  0  0  0  0  0  0
   -3.2825    2.2175    4.0169 H   0  0  0  0  0  0  0  0  0  0  0  0
   -1.3279    4.2991    2.4857 H   0  0  0  0  0  0  0  0  0  0  0  0
   -2.3871    4.8631    3.7402 H   0  0  0  0  0  0  0  0  0  0  0  0
    0.9516    4.1163    3.4423 H   0  0  0  0  0  0  0  0  0  0  0  0
    2.4725    5.6085    4.7847 H   0  0  0  0  0  0  0  0  0  0  0  0
    2.0978    4.6284    6.1447 H   0  0  0  0  0  0  0  0  0  0  0  0
    3.6202    3.9352    3.5983 H   0  0  0  0  0  0  0  0  0  0  0  0
    4.3594    3.8534    6.2765 H   0  0  0  0  0  0  0  0  0  0  0  0
    4.5114    1.8867    4.0783 H   0  0  0  0  0  0  0  0  0  0  0  0
    3.5074    0.3509    5.1528 H   0  0  0  0  0  0  0  0  0  0  0  0
    4.0233   -1.2193    5.9460 H   0  0  0  0  0  0  0  0  0  0  0  0
    3.8990   -0.4748    7.4430 H   0  0  0  0  0  0  0  0  0  0  0  0
    1.8829   -2.0771    6.3943 H   0  0  0  0  0  0  0  0  0  0  0  0
    1.8321   -1.1112    7.7781 H   0  0  0  0  0  0  0  0  0  0  0  0
    0.0428    0.2788    7.9750 H   0  0  0  0  0  0  0  0  0  0  0  0
   -0.3101   -1.8382    4.8225 H   0  0  0  0  0  0  0  0  0  0  0  0
    0.0851    2.2972    2.8222 H   0  0  0  0  0  0  0  0  0  0  0  0
    1.1737    2.4484    4.6552 H   0  0  0  0  0  0  0  0  0  0  0  0
    0.1709    4.3245    7.2056 H   0  0  0  0  0  0  0  0  0  0  0  0
   -1.1271    3.1266    7.1671 H   0  0  0  0  0  0  0  0  0  0  0  0
   -1.3753    4.7262    6.4894 H   0  0  0  0  0  0  0  0  0  0  0  0
    3.1597   -1.2212    3.9381 H   0  0  0  0  0  0  0  0  0  0  0  0
    1.9326   -1.2500    2.7279 H   0  0  0  0  0  0  0  0  0  0  0  0
    1.6788   -2.0075    4.2449 H   0  0  0  0  0  0  0  0  0  0  0  0
    3.3277    0.5996    2.9376 H   0  0  0  0  0  0  0  0  0  0  0  0
    1.6854    2.7209    2.6051 H   0  0  0  0  0  0  0  0  0  0  0  0
  2  1  1  1
  1 30  1  0
  1 31  1  0
  1 32  1  0
  2 18  1  0
  2 20  1  0
  2  3  1  0
  3  4  1  0
  3 33  1  0
  3 34  1  0
  4  5  1  0
  5 20  1  0
  5  6  1  0
  5 35  1  6
  6  7  1  0
  6 36  1  0
  6 37  1  0
  7  8  1  0
  7  9  1  0
  7 38  1  6
  8 39  1  0
  9 28  1  0
  9 10  1  0
  9 40  1  6
 10 25  1  0
 10 11  1  0
 10 41  1  1
 11 12  1  0
 11 42  1  0
 11 43  1  0
 12 13  1  0
 12 44  1  0
 12 45  1  0
 13 22  1  0
 13 14  1  1
 13 15  1  0
 14 46  1  0
 15 17  1  0
 15 16  1  0
 15 47  1  6
 17 16  1  1
 17 26  1  0
 17 18  1  0
 18 19  1  0
 18 48  1  6
 19 20  1  0
 22 19  1  6
 19 49  1  0
 20 21  1  1
 21 50  1  0
 21 51  1  0
 21 52  1  0
 22 23  1  0
 22 26  1  0
 23 24  2  0
 23 25  1  0
 26 27  1  1
 26 28  1  0
 27 53  1  0
 27 54  1  0
 27 55  1  0
 28 29  1  0
 28 56  1  6
 29 57  1  0
M  END
>  <i_m_ct_stereo_status>  (191) 
1

>  <s_m_source_file>  (191) 
/var/tmp/pbs.5076255.sched01/tmpazi1eam_/42934yjxx2.sdf

>  <i_m_source_file_index>  (191) 
40

>  <i_lp_mmshare_version>  (191) 
48012

>  <i_f3d_flags>  (191) 
0

>  <s_epik_input>  (191) 
TzFbQ0BASF0oW0NAQF0xMjMpW0NAXTQoW09IXSlbQ0BAXTU2W0NIXTdbQ0BASF0yW0NAQF04KFtDSDNdKVtDQF03KFtDSDNdKVtDQEBIXShPW0NIMl04KVtDSDJdW0NAQEhdKFtPSF0pW0NAQEhdKFtDQEBIXShbQ0gyXVtDSDJdNClPQzU9TylbQ0BIXShbT0hdKVtDQF0zNltDSDNd

>  <s_epik_cmdline>  (191) 
J2VwaWtfcHl0aG9uJywgJy1waHQnLCAnMi4wJywgJy1waCcsICc3LjAnLCAnLXRuJywgJzgnLCAnLW1hJywgJzIwMCcsICctaW1hZScsICc8aW5maWxlLm1hZT4nLCAnLW9tYWUnLCAnPG91dGZpbGUubWFlPic=

>  <r_lp_tautomer_probability>  (191) 
1

>  <r_epik_Ionization_Penalty>  (191) 
1.8038e-07

>  <r_epik_Ionization_Penalty_Charging>  (191) 
0

>  <r_epik_Ionization_Penalty_Neutral>  (191) 
1.8038e-07

>  <r_epik_State_Penalty>  (191) 
-0

>  <r_epik_Charging_Adjusted_Penalty>  (191) 
0

>  <i_epik_Tot_Q>  (191) 
0

>  <i_epik_Tot_abs_Q>  (191) 
0

>  <s_epik_Chemistry_Notes>  (191) 
This compound has an ester and may undergo hydrolysis at high or low pH.

>  <s_lp_Force_Field>  (191) 
OPLS3e

>  <r_lp_Energy>  (191) 
424.153

>  <b_lp_Chiralities_Consistent>  (191) 
1

>  <s_lp_Variant>  (191) 
54:0-1

>  <s_i_glide_gridfile>  (191) 
pfpi4k_grid

>  <i_i_glide_lignum>  (191) 
40

>  <i_i_glide_rotatable_bonds>  (191) 
3

>  <r_i_docking_score>  (191) 
-2.50427

>  <r_i_glide_ligand_efficiency>  (191) 
-0.0863542

>  <r_i_glide_ligand_efficiency_sa>  (191) 
-0.265308

>  <r_i_glide_ligand_efficiency_ln>  (191) 
-0.573415

>  <r_i_glide_gscore>  (191) 
-2.50427

>  <r_i_glide_lipo>  (191) 
0

>  <r_i_glide_hbond>  (191) 
-0.0248593

>  <r_i_glide_metal>  (191) 
-0

>  <r_i_glide_rewards>  (191) 
-1.15145

>  <r_i_glide_evdw>  (191) 
-14.3478

>  <r_i_glide_ecoul>  (191) 
-4.07046

>  <r_i_glide_erotb>  (191) 
0

>  <r_i_glide_esite>  (191) 
0

>  <r_i_glide_emodel>  (191) 
-27.1467

>  <r_i_glide_energy>  (191) 
-18.4183

>  <r_i_glide_einternal>  (191) 
0.028873

>  <r_i_glide_intrahb_reward>  (191) 
-0.5

>  <i_i_glide_confnum>  (191) 
2

>  <i_i_glide_posenum>  (191) 
34

>  <r_i_glide_eff_state_penalty>  (191) 
0

>  <ligand_id>  (191) 
54

>  <original_smiles>  (191) 
CC12COC3CC(O)C4C5CCC6(O)C7OC78C1C(C32C)C6(C(=O)O5)C8(C)C4O

>  <smiles>  (191) 
[H]OC1([H])C([H])([H])C2([H])OC([H])([H])C3(C([H])([H])[H])C4([H])C([H])(C56C(=O)OC7([H])C([H])([H])C([H])([H])C5(O[H])C5([H])OC54C6(C([H])([H])[H])C([H])(O[H])C71[H])C23C([H])([H])[H]

$$$$
55:0:0
     RDKit          3D

 98104  0  0  1  0  0  0  0  0999 V2000
    0.3961   -7.3326    5.4478 C   0  0  0  0  0  0  0  0  0  0  0  0
    1.1780   -6.3737    4.9105 C   0  0  0  0  0  0  0  0  0  0  0  0
    1.2792   -4.8719    5.2979 C   0  0  1  0  0  0  0  0  0  0  0  0
    0.3371   -4.6398    6.5074 C   0  0  0  0  0  0  0  0  0  0  0  0
    2.7134   -4.5529    5.8273 C   0  0  0  0  0  0  0  0  0  0  0  0
    3.9120   -4.2773    4.8670 C   0  0  1  0  0  0  0  0  0  0  0  0
    4.1142   -5.3786    3.8273 C   0  0  0  0  0  0  0  0  0  0  0  0
    3.2321   -4.9536    2.6319 C   0  0  0  0  0  0  0  0  0  0  0  0
    3.0156   -3.4246    2.7929 C   0  0  1  0  0  0  0  0  0  0  0  0
    3.5057   -2.7461    1.4789 C   0  0  0  0  0  0  0  0  0  0  0  0
    2.6093   -2.9369    0.3781 O   0  0  0  0  0  0  0  0  0  0  0  0
    3.2290   -2.8937   -0.8771 C   0  0  2  0  0  0  0  0  0  0  0  0
    3.9055   -1.6518   -1.0480 O   0  0  0  0  0  0  0  0  0  0  0  0
    4.6107   -1.4884   -2.2715 C   0  0  1  0  0  0  0  0  0  0  0  0
    5.7952   -2.5183   -2.3438 C   0  0  0  0  0  0  0  0  0  0  0  0
    3.5752   -1.4994   -3.4346 C   0  0  1  0  0  0  0  0  0  0  0  0
    4.0979   -1.1701   -4.7042 O   0  0  0  0  0  0  0  0  0  0  0  0
    2.7560   -2.8044   -3.4622 C   0  0  1  0  0  0  0  0  0  0  0  0
    3.5684   -3.8255   -3.9783 O   0  0  0  0  0  0  0  0  0  0  0  0
    2.1466   -3.0634   -2.0333 C   0  0  1  0  0  0  0  0  0  0  0  0
    1.4048   -4.2640   -1.9213 O   0  0  0  0  0  0  0  0  0  0  0  0
    1.6016   -2.9534    3.2829 C   0  0  1  0  0  0  0  0  0  0  0  0
    0.7423   -3.9655    4.1268 C   0  0  0  0  0  0  0  0  0  0  0  0
    1.9162   -1.5649    3.8930 C   0  0  2  0  0  0  0  0  0  0  0  0
    3.2157   -1.7542    4.6502 C   0  0  2  0  0  0  0  0  0  0  0  0
    3.9487   -0.4099    4.6382 C   0  0  0  0  0  0  0  0  0  0  0  0
    3.0643    0.6730    5.2985 C   0  0  0  0  0  0  0  0  0  0  0  0
    1.6477    0.8208    4.6603 C   0  0  2  0  0  0  0  0  0  0  0  0
    0.7496    1.9423    5.2855 C   0  0  2  0  0  0  0  0  0  0  0  0
    1.5379    3.2137    5.6554 C   0  0  0  0  0  0  0  0  0  0  0  0
    0.6473    4.3184    6.2169 C   0  0  0  0  0  0  0  0  0  0  0  0
   -0.1238    3.8036    7.4365 C   0  0  1  0  0  0  0  0  0  0  0  0
   -0.9173    4.8666    7.9269 O   0  0  0  0  0  0  0  0  0  0  0  0
   -1.0091    2.5681    7.1309 C   0  0  0  0  0  0  0  0  0  0  0  0
   -1.6153    2.0761    8.4671 C   0  0  0  0  0  0  0  0  0  0  0  0
   -2.1765    2.9369    6.1906 C   0  0  0  0  0  0  0  0  0  0  0  0
   -0.1583    1.4721    6.4418 C   0  0  0  0  0  0  0  0  0  0  0  0
   -0.2285    0.1604    6.7610 C   0  0  0  0  0  0  0  0  0  0  0  0
    0.4730   -0.9558    6.0163 C   0  0  0  0  0  0  0  0  0  0  0  0
    0.9178   -0.5609    4.5818 C   0  0  2  0  0  0  0  0  0  0  0  0
   -0.3488   -0.4356    3.7208 C   0  0  0  0  0  0  0  0  0  0  0  0
    3.8698   -2.9972    3.9997 C   0  0  1  0  0  0  0  0  0  0  0  0
   -0.3024   -7.1593    6.2481 H   0  0  0  0  0  0  0  0  0  0  0  0
    0.4593   -8.3427    5.0623 H   0  0  0  0  0  0  0  0  0  0  0  0
    1.8096   -6.7390    4.1119 H   0  0  0  0  0  0  0  0  0  0  0  0
    0.3960   -3.6330    6.9284 H   0  0  0  0  0  0  0  0  0  0  0  0
    0.5891   -5.3103    7.3272 H   0  0  0  0  0  0  0  0  0  0  0  0
   -0.7032   -4.8211    6.2307 H   0  0  0  0  0  0  0  0  0  0  0  0
    2.6571   -3.7583    6.5696 H   0  0  0  0  0  0  0  0  0  0  0  0
    3.0063   -5.4116    6.4292 H   0  0  0  0  0  0  0  0  0  0  0  0
    4.7981   -4.2191    5.4990 H   0  0  0  0  0  0  0  0  0  0  0  0
    5.1591   -5.3604    3.5131 H   0  0  0  0  0  0  0  0  0  0  0  0
    3.9463   -6.3806    4.2249 H   0  0  0  0  0  0  0  0  0  0  0  0
    3.7370   -5.2278    1.6996 H   0  0  0  0  0  0  0  0  0  0  0  0
    2.2705   -5.4558    2.5582 H   0  0  0  0  0  0  0  0  0  0  0  0
    3.6967   -1.6775    1.6006 H   0  0  0  0  0  0  0  0  0  0  0  0
    4.4840   -3.1665    1.2404 H   0  0  0  0  0  0  0  0  0  0  0  0
    3.9584   -3.7012   -0.8758 H   0  0  0  0  0  0  0  0  0  0  0  0
    5.0154   -0.4698   -2.2443 H   0  0  0  0  0  0  0  0  0  0  0  0
    6.2619   -2.5240   -3.3262 H   0  0  0  0  0  0  0  0  0  0  0  0
    5.4948   -3.5707   -2.3021 H   0  0  0  0  0  0  0  0  0  0  0  0
    6.5660   -2.3231   -1.5664 H   0  0  0  0  0  0  0  0  0  0  0  0
    2.8735   -0.6730   -3.2463 H   0  0  0  0  0  0  0  0  0  0  0  0
    3.3659   -1.1089   -5.3262 H   0  0  0  0  0  0  0  0  0  0  0  0
    1.8952   -2.6899   -4.1337 H   0  0  0  0  0  0  0  0  0  0  0  0
    3.2916   -4.6398   -3.5865 H   0  0  0  0  0  0  0  0  0  0  0  0
    1.4649   -2.2618   -1.9562 H   0  0  0  0  0  0  0  0  0  0  0  0
    1.9710   -5.0217   -2.1146 H   0  0  0  0  0  0  0  0  0  0  0  0
    1.0076   -2.7380    2.4037 H   0  0  0  0  0  0  0  0  0  0  0  0
    0.2853   -4.6571    3.4197 H   0  0  0  0  0  0  0  0  0  0  0  0
   -0.1098   -3.3986    4.4827 H   0  0  0  0  0  0  0  0  0  0  0  0
    2.1841   -1.0190    2.9833 H   0  0  0  0  0  0  0  0  0  0  0  0
    3.0375   -1.9607    5.6912 H   0  0  0  0  0  0  0  0  0  0  0  0
    4.8786   -0.4971    5.1965 H   0  0  0  0  0  0  0  0  0  0  0  0
    4.2043   -0.1228    3.6155 H   0  0  0  0  0  0  0  0  0  0  0  0
    2.9630    0.4612    6.3644 H   0  0  0  0  0  0  0  0  0  0  0  0
    3.6042    1.6103    5.2106 H   0  0  0  0  0  0  0  0  0  0  0  0
    1.8281    1.1450    3.6382 H   0  0  0  0  0  0  0  0  0  0  0  0
    0.0562    2.2318    4.5028 H   0  0  0  0  0  0  0  0  0  0  0  0
    2.2852    2.9813    6.4165 H   0  0  0  0  0  0  0  0  0  0  0  0
    2.0741    3.5806    4.7780 H   0  0  0  0  0  0  0  0  0  0  0  0
    1.2682    5.1618    6.5161 H   0  0  0  0  0  0  0  0  0  0  0  0
   -0.0307    4.6957    5.4528 H   0  0  0  0  0  0  0  0  0  0  0  0
    0.6058    3.5353    8.2118 H   0  0  0  0  0  0  0  0  0  0  0  0
   -1.2117    4.6385    8.8015 H   0  0  0  0  0  0  0  0  0  0  0  0
   -2.1507    2.8663    8.9858 H   0  0  0  0  0  0  0  0  0  0  0  0
   -0.8362    1.7167    9.1371 H   0  0  0  0  0  0  0  0  0  0  0  0
   -2.3370    1.2788    8.3088 H   0  0  0  0  0  0  0  0  0  0  0  0
   -2.8555    3.6673    6.6325 H   0  0  0  0  0  0  0  0  0  0  0  0
   -2.7551    2.0461    5.9689 H   0  0  0  0  0  0  0  0  0  0  0  0
   -1.8337    3.3297    5.2354 H   0  0  0  0  0  0  0  0  0  0  0  0
   -0.8451   -0.1763    7.5758 H   0  0  0  0  0  0  0  0  0  0  0  0
    1.2942   -1.2756    6.6480 H   0  0  0  0  0  0  0  0  0  0  0  0
   -0.2351   -1.7712    5.9736 H   0  0  0  0  0  0  0  0  0  0  0  0
   -1.0829    0.2625    4.1148 H   0  0  0  0  0  0  0  0  0  0  0  0
   -0.8365   -1.4057    3.7462 H   0  0  0  0  0  0  0  0  0  0  0  0
   -0.1246   -0.1273    2.6981 H   0  0  0  0  0  0  0  0  0  0  0  0
    4.8808   -2.7625    3.6724 H   0  0  0  0  0  0  0  0  0  0  0  0
  1  2  2  0
  1 43  1  0
  1 44  1  0
  2  3  1  0
  2 45  1  0
  3 23  1  0
  3  4  1  1
  3  5  1  0
  4 46  1  0
  4 47  1  0
  4 48  1  0
  5  6  1  0
  5 49  1  0
  5 50  1  0
  6 42  1  0
  6  7  1  0
  6 51  1  1
  7  8  1  0
  7 52  1  0
  7 53  1  0
  8  9  1  0
  8 54  1  0
  8 55  1  0
  9 42  1  0
  9 10  1  6
  9 22  1  0
 10 11  1  0
 10 56  1  0
 10 57  1  0
 11 12  1  0
 12 20  1  0
 12 13  1  0
 12 58  1  1
 13 14  1  0
 14 15  1  0
 14 16  1  0
 14 59  1  1
 15 60  1  0
 15 61  1  0
 15 62  1  0
 16 17  1  0
 16 18  1  0
 16 63  1  1
 17 64  1  0
 18 19  1  0
 18 20  1  0
 18 65  1  6
 19 66  1  0
 20 21  1  0
 20 67  1  1
 21 68  1  0
 22 23  1  0
 22 24  1  0
 22 69  1  6
 23 70  1  0
 23 71  1  0
 24 40  1  0
 24 25  1  0
 24 72  1  6
 25 26  1  0
 25 42  1  0
 25 73  1  1
 26 27  1  0
 26 74  1  0
 26 75  1  0
 27 28  1  0
 27 76  1  0
 27 77  1  0
 28 40  1  0
 28 29  1  0
 28 78  1  6
 29 37  1  0
 29 30  1  0
 29 79  1  6
 30 31  1  0
 30 80  1  0
 30 81  1  0
 31 32  1  0
 31 82  1  0
 31 83  1  0
 32 33  1  0
 32 34  1  0
 32 84  1  1
 33 85  1  0
 34 35  1  0
 34 36  1  0
 34 37  1  0
 35 86  1  0
 35 87  1  0
 35 88  1  0
 36 89  1  0
 36 90  1  0
 36 91  1  0
 37 38  2  0
 38 39  1  0
 38 92  1  0
 39 40  1  0
 39 93  1  0
 39 94  1  0
 40 41  1  6
 41 95  1  0
 41 96  1  0
 41 97  1  0
 42 98  1  6
M  END
>  <i_m_ct_stereo_status>  (192) 
1

>  <s_m_source_file>  (192) 
/var/tmp/pbs.5076255.sched01/tmpazi1eam_/42934yjxx2.sdf

>  <i_m_source_file_index>  (192) 
41

>  <i_lp_mmshare_version>  (192) 
48012

>  <i_f3d_flags>  (192) 
0

>  <s_epik_input>  (192) 
W0NIMl0xW0NIMl1bQ0BASF0oW09IXSlDKFtDSDNdKShbQ0gzXSlDKD1bQ0hdW0NIMl1bQ0BdMjNbQ0gzXSlbQ0BASF0xW0NASF0zW0NIMl1bQ0gyXVtDQEhdKFtDQEhdNFtDQEhdKFtDSDJdW0NIMl01KVtDSDJdW0NAQF0oW0NIM10pKFtDSDJdNilbQ0hdPVtDSDJdKVtDQEhdMltDQEhdNltDQEBdNDVbQ0gyXU9bQ0BASF03T1tDQEBIXShbQ0gzXSlbQ0BASF0oW09IXSlbQ0BASF0oW09IXSlbQ0BIXTdbT0hd

>  <s_epik_cmdline>  (192) 
J2VwaWtfcHl0aG9uJywgJy1waHQnLCAnMi4wJywgJy1waCcsICc3LjAnLCAnLXRuJywgJzgnLCAnLW1hJywgJzIwMCcsICctaW1hZScsICc8aW5maWxlLm1hZT4nLCAnLW9tYWUnLCAnPG91dGZpbGUubWFlPic=

>  <r_lp_tautomer_probability>  (192) 
1

>  <r_epik_Ionization_Penalty>  (192) 
2.40155e-06

>  <r_epik_Ionization_Penalty_Charging>  (192) 
0

>  <r_epik_Ionization_Penalty_Neutral>  (192) 
2.40155e-06

>  <r_epik_State_Penalty>  (192) 
-0

>  <r_epik_Charging_Adjusted_Penalty>  (192) 
0

>  <i_epik_Tot_Q>  (192) 
0

>  <i_epik_Tot_abs_Q>  (192) 
0

>  <s_epik_Chemistry_Notes>  (192) 
This compound contains an acetal/aminal-like group ( X-CH(R)-Y where X, Y are N, S, or O) that may be acid/base labile, releasing an aldehyde.

>  <s_lp_Force_Field>  (192) 
OPLS3e

>  <r_lp_Energy>  (192) 
92.7592

>  <b_lp_Chiralities_Consistent>  (192) 
1

>  <s_lp_Variant>  (192) 
55:0-1

>  <s_i_glide_gridfile>  (192) 
pfpi4k_grid

>  <i_i_glide_lignum>  (192) 
41

>  <i_i_glide_rotatable_bonds>  (192) 
8

>  <r_i_docking_score>  (192) 
-3.17956

>  <r_i_glide_ligand_efficiency>  (192) 
-0.0757037

>  <r_i_glide_ligand_efficiency_sa>  (192) 
-0.263148

>  <r_i_glide_ligand_efficiency_ln>  (192) 
-0.671122

>  <r_i_glide_gscore>  (192) 
-3.17956

>  <r_i_glide_lipo>  (192) 
-0.563339

>  <r_i_glide_hbond>  (192) 
0

>  <r_i_glide_metal>  (192) 
-0

>  <r_i_glide_rewards>  (192) 
0

>  <r_i_glide_evdw>  (192) 
-14.1132

>  <r_i_glide_ecoul>  (192) 
-13.265

>  <r_i_glide_erotb>  (192) 
0.0986371

>  <r_i_glide_esite>  (192) 
-0.0194431

>  <r_i_glide_emodel>  (192) 
-30.9374

>  <r_i_glide_energy>  (192) 
-27.3782

>  <r_i_glide_einternal>  (192) 
2.55524

>  <r_i_glide_intrahb_reward>  (192) 
-0

>  <i_i_glide_confnum>  (192) 
2

>  <i_i_glide_posenum>  (192) 
29

>  <r_i_glide_eff_state_penalty>  (192) 
0

>  <ligand_id>  (192) 
55

>  <original_smiles>  (192) 
C=CC1(C)CC2CCC3(COC4OC(C)C(O)C(O)C4O)C(C1)C1C(CCC4C5CCC(O)C(C)(C)C5=CCC41C)C23

>  <smiles>  (192) 
[H]OC1([H])C([H])(OC([H])([H])C23C([H])([H])C([H])([H])C4([H])C([H])([H])C(C([H])=C([H])[H])(C([H])([H])[H])C([H])([H])C2([H])C2([H])C([H])(C([H])([H])C([H])([H])C5([H])C6([H])C(=C([H])C([H])([H])C52C([H])([H])[H])C(C([H])([H])[H])(C([H])([H])[H])C([H])(O[H])C([H])([H])C6([H])[H])C43[H])OC([H])(C([H])([H])[H])C([H])(O[H])C1([H])O[H]

$$$$
55:0:1
     RDKit          3D

 98104  0  0  1  0  0  0  0  0999 V2000
    0.8770   -6.6753    6.0809 C   0  0  0  0  0  0  0  0  0  0  0  0
    1.7843   -5.9077    6.7142 C   0  0  0  0  0  0  0  0  0  0  0  0
    1.7915   -4.3755    6.8373 C   0  0  1  0  0  0  0  0  0  0  0  0
    0.8052   -4.0896    7.9951 C   0  0  0  0  0  0  0  0  0  0  0  0
    3.1886   -3.8994    7.3648 C   0  0  0  0  0  0  0  0  0  0  0  0
    4.4070   -3.7224    6.4090 C   0  0  1  0  0  0  0  0  0  0  0  0
    4.6866   -4.9676    5.5687 C   0  0  0  0  0  0  0  0  0  0  0  0
    3.7983   -4.8025    4.3290 C   0  0  0  0  0  0  0  0  0  0  0  0
    3.5119   -3.2786    4.2078 C   0  0  1  0  0  0  0  0  0  0  0  0
    4.0110   -2.7970    2.8089 C   0  0  0  0  0  0  0  0  0  0  0  0
    3.1465   -3.1736    1.7263 O   0  0  0  0  0  0  0  0  0  0  0  0
    3.7288   -3.0400    0.4523 C   0  0  2  0  0  0  0  0  0  0  0  0
    4.1799   -1.7105    0.3021 O   0  0  0  0  0  0  0  0  0  0  0  0
    4.7806   -1.3732   -0.9469 C   0  0  1  0  0  0  0  0  0  0  0  0
    6.1171   -2.1418   -1.1262 C   0  0  0  0  0  0  0  0  0  0  0  0
    3.7253   -1.5419   -2.0709 C   0  0  1  0  0  0  0  0  0  0  0  0
    4.2030   -1.1859   -3.3667 O   0  0  0  0  0  0  0  0  0  0  0  0
    3.1504   -2.9647   -2.0567 C   0  0  1  0  0  0  0  0  0  0  0  0
    4.1842   -3.8590   -2.5002 O   0  0  0  0  0  0  0  0  0  0  0  0
    2.6512   -3.3220   -0.6244 C   0  0  1  0  0  0  0  0  0  0  0  0
    2.1525   -4.6504   -0.6032 O   0  0  0  0  0  0  0  0  0  0  0  0
    2.0654   -2.7907    4.5609 C   0  0  1  0  0  0  0  0  0  0  0  0
    1.2251   -3.6656    5.5403 C   0  0  0  0  0  0  0  0  0  0  0  0
    2.2944   -1.3157    4.9630 C   0  0  2  0  0  0  0  0  0  0  0  0
    3.5806   -1.3110    5.7729 C   0  0  2  0  0  0  0  0  0  0  0  0
    4.2486    0.0517    5.5602 C   0  0  0  0  0  0  0  0  0  0  0  0
    3.2870    1.1763    6.0151 C   0  0  0  0  0  0  0  0  0  0  0  0
    1.8776    1.1345    5.3335 C   0  0  2  0  0  0  0  0  0  0  0  0
    0.9123    2.2977    5.7533 C   0  0  2  0  0  0  0  0  0  0  0  0
    1.6291    3.6545    5.9307 C   0  0  0  0  0  0  0  0  0  0  0  0
    0.6715    4.7906    6.2922 C   0  0  0  0  0  0  0  0  0  0  0  0
   -0.1137    4.4339    7.5589 C   0  0  1  0  0  0  0  0  0  0  0  0
   -0.9545    5.5278    7.8747 O   0  0  0  0  0  0  0  0  0  0  0  0
   -0.9249    3.1116    7.4424 C   0  0  0  0  0  0  0  0  0  0  0  0
   -1.5364    2.8070    8.8342 C   0  0  0  0  0  0  0  0  0  0  0  0
   -2.0826    3.2498    6.4254 C   0  0  0  0  0  0  0  0  0  0  0  0
    0.0036    1.9634    6.9567 C   0  0  0  0  0  0  0  0  0  0  0  0
   -0.0111    0.7263    7.4799 C   0  0  0  0  0  0  0  0  0  0  0  0
    0.7594   -0.4652    6.9360 C   0  0  0  0  0  0  0  0  0  0  0  0
    1.2127   -0.2857    5.4559 C   0  0  2  0  0  0  0  0  0  0  0  0
   -0.0299   -0.3738    4.5320 C   0  0  0  0  0  0  0  0  0  0  0  0
    4.3168   -2.6072    5.3434 C   0  0  1  0  0  0  0  0  0  0  0  0
    0.0156   -6.2648    5.5743 H   0  0  0  0  0  0  0  0  0  0  0  0
    0.9918   -7.7496    6.0617 H   0  0  0  0  0  0  0  0  0  0  0  0
    2.5929   -6.4252    7.2078 H   0  0  0  0  0  0  0  0  0  0  0  0
    0.8005   -3.0377    8.2762 H   0  0  0  0  0  0  0  0  0  0  0  0
    1.0698   -4.6543    8.8902 H   0  0  0  0  0  0  0  0  0  0  0  0
   -0.2143   -4.3681    7.7273 H   0  0  0  0  0  0  0  0  0  0  0  0
    3.0659   -3.0012    7.9653 H   0  0  0  0  0  0  0  0  0  0  0  0
    3.5127   -4.6159    8.1198 H   0  0  0  0  0  0  0  0  0  0  0  0
    5.2712   -3.5166    7.0404 H   0  0  0  0  0  0  0  0  0  0  0  0
    5.7341   -4.9567    5.2658 H   0  0  0  0  0  0  0  0  0  0  0  0
    4.5303   -5.9015    6.1079 H   0  0  0  0  0  0  0  0  0  0  0  0
    4.3197   -5.2067    3.4594 H   0  0  0  0  0  0  0  0  0  0  0  0
    2.8879   -5.3878    4.4005 H   0  0  0  0  0  0  0  0  0  0  0  0
    4.1399   -1.7150    2.7984 H   0  0  0  0  0  0  0  0  0  0  0  0
    5.0071   -3.1982    2.6348 H   0  0  0  0  0  0  0  0  0  0  0  0
    4.5729   -3.7296    0.3861 H   0  0  0  0  0  0  0  0  0  0  0  0
    5.0008   -0.3097   -0.8842 H   0  0  0  0  0  0  0  0  0  0  0  0
    6.5746   -1.9072   -2.0860 H   0  0  0  0  0  0  0  0  0  0  0  0
    5.9786   -3.2276   -1.1080 H   0  0  0  0  0  0  0  0  0  0  0  0
    6.8408   -1.8708   -0.3460 H   0  0  0  0  0  0  0  0  0  0  0  0
    2.9033   -0.8481   -1.8881 H   0  0  0  0  0  0  0  0  0  0  0  0
    4.2190   -0.2387   -3.4446 H   0  0  0  0  0  0  0  0  0  0  0  0
    2.2914   -3.0010   -2.7492 H   0  0  0  0  0  0  0  0  0  0  0  0
    3.8238   -4.7287   -2.5740 H   0  0  0  0  0  0  0  0  0  0  0  0
    1.8264   -2.6754   -0.3484 H   0  0  0  0  0  0  0  0  0  0  0  0
    2.5782   -5.1500   -1.2912 H   0  0  0  0  0  0  0  0  0  0  0  0
    1.4861   -2.7803    3.6380 H   0  0  0  0  0  0  0  0  0  0  0  0
    0.8105   -4.4236    4.8805 H   0  0  0  0  0  0  0  0  0  0  0  0
    0.3393   -3.0977    5.8059 H   0  0  0  0  0  0  0  0  0  0  0  0
    2.5556   -0.8929    3.9909 H   0  0  0  0  0  0  0  0  0  0  0  0
    3.3868   -1.3511    6.8322 H   0  0  0  0  0  0  0  0  0  0  0  0
    5.1740    0.1050    6.1329 H   0  0  0  0  0  0  0  0  0  0  0  0
    4.5185    0.1869    4.5113 H   0  0  0  0  0  0  0  0  0  0  0  0
    3.1730    1.1386    7.0995 H   0  0  0  0  0  0  0  0  0  0  0  0
    3.7831    2.1176    5.7934 H   0  0  0  0  0  0  0  0  0  0  0  0
    2.0795    1.3050    4.2774 H   0  0  0  0  0  0  0  0  0  0  0  0
    0.2312    2.4269    4.9180 H   0  0  0  0  0  0  0  0  0  0  0  0
    2.3715    3.5908    6.7293 H   0  0  0  0  0  0  0  0  0  0  0  0
    2.1714    3.9105    5.0170 H   0  0  0  0  0  0  0  0  0  0  0  0
    1.2451    5.7034    6.4604 H   0  0  0  0  0  0  0  0  0  0  0  0
    0.0012    5.0049    5.4604 H   0  0  0  0  0  0  0  0  0  0  0  0
    0.6058    4.3365    8.3781 H   0  0  0  0  0  0  0  0  0  0  0  0
   -1.2777    5.4084    8.7589 H   0  0  0  0  0  0  0  0  0  0  0  0
   -2.1274    3.6429    9.2082 H   0  0  0  0  0  0  0  0  0  0  0  0
   -0.7538    2.6108    9.5673 H   0  0  0  0  0  0  0  0  0  0  0  0
   -2.2072    1.9478    8.8081 H   0  0  0  0  0  0  0  0  0  0  0  0
   -2.8076    4.0050    6.7351 H   0  0  0  0  0  0  0  0  0  0  0  0
   -2.6210    2.3070    6.3259 H   0  0  0  0  0  0  0  0  0  0  0  0
   -1.7312    3.5194    5.4296 H   0  0  0  0  0  0  0  0  0  0  0  0
   -0.6378    0.4934    8.3264 H   0  0  0  0  0  0  0  0  0  0  0  0
    1.5862   -0.6158    7.6234 H   0  0  0  0  0  0  0  0  0  0  0  0
    0.1051   -1.3215    7.0253 H   0  0  0  0  0  0  0  0  0  0  0  0
   -0.8141    0.3213    4.8269 H   0  0  0  0  0  0  0  0  0  0  0  0
   -0.4772   -1.3672    4.5535 H   0  0  0  0  0  0  0  0  0  0  0  0
    0.2278   -0.1505    3.4963 H   0  0  0  0  0  0  0  0  0  0  0  0
    5.3253   -2.3701    5.0007 H   0  0  0  0  0  0  0  0  0  0  0  0
  1  2  2  0
  1 43  1  0
  1 44  1  0
  2  3  1  0
  2 45  1  0
  3 23  1  0
  3  4  1  1
  3  5  1  0
  4 46  1  0
  4 47  1  0
  4 48  1  0
  5  6  1  0
  5 49  1  0
  5 50  1  0
  6 42  1  0
  6  7  1  0
  6 51  1  1
  7  8  1  0
  7 52  1  0
  7 53  1  0
  8  9  1  0
  8 54  1  0
  8 55  1  0
  9 42  1  0
  9 10  1  6
  9 22  1  0
 10 11  1  0
 10 56  1  0
 10 57  1  0
 11 12  1  0
 12 20  1  0
 12 13  1  0
 12 58  1  1
 13 14  1  0
 14 15  1  0
 14 16  1  0
 14 59  1  1
 15 60  1  0
 15 61  1  0
 15 62  1  0
 16 17  1  0
 16 18  1  0
 16 63  1  1
 17 64  1  0
 18 19  1  0
 18 20  1  0
 18 65  1  6
 19 66  1  0
 20 21  1  0
 20 67  1  1
 21 68  1  0
 22 23  1  0
 22 24  1  0
 22 69  1  6
 23 70  1  0
 23 71  1  0
 24 40  1  0
 24 25  1  0
 24 72  1  6
 25 26  1  0
 25 42  1  0
 25 73  1  1
 26 27  1  0
 26 74  1  0
 26 75  1  0
 27 28  1  0
 27 76  1  0
 27 77  1  0
 28 40  1  0
 28 29  1  0
 28 78  1  6
 29 37  1  0
 29 30  1  0
 29 79  1  6
 30 31  1  0
 30 80  1  0
 30 81  1  0
 31 32  1  0
 31 82  1  0
 31 83  1  0
 32 33  1  0
 32 34  1  0
 32 84  1  1
 33 85  1  0
 34 35  1  0
 34 36  1  0
 34 37  1  0
 35 86  1  0
 35 87  1  0
 35 88  1  0
 36 89  1  0
 36 90  1  0
 36 91  1  0
 37 38  2  0
 38 39  1  0
 38 92  1  0
 39 40  1  0
 39 93  1  0
 39 94  1  0
 40 41  1  6
 41 95  1  0
 41 96  1  0
 41 97  1  0
 42 98  1  6
M  END
>  <i_m_ct_stereo_status>  (193) 
1

>  <s_m_source_file>  (193) 
/var/tmp/pbs.5076255.sched01/tmpazi1eam_/42934yjxx2.sdf

>  <i_m_source_file_index>  (193) 
41

>  <i_lp_mmshare_version>  (193) 
48012

>  <i_f3d_flags>  (193) 
0

>  <s_epik_input>  (193) 
W0NIMl0xW0NIMl1bQ0BASF0oW09IXSlDKFtDSDNdKShbQ0gzXSlDKD1bQ0hdW0NIMl1bQ0BdMjNbQ0gzXSlbQ0BASF0xW0NASF0zW0NIMl1bQ0gyXVtDQEhdKFtDQEhdNFtDQEhdKFtDSDJdW0NIMl01KVtDSDJdW0NAQF0oW0NIM10pKFtDSDJdNilbQ0hdPVtDSDJdKVtDQEhdMltDQEhdNltDQEBdNDVbQ0gyXU9bQ0BASF03T1tDQEBIXShbQ0gzXSlbQ0BASF0oW09IXSlbQ0BASF0oW09IXSlbQ0BIXTdbT0hd

>  <s_epik_cmdline>  (193) 
J2VwaWtfcHl0aG9uJywgJy1waHQnLCAnMi4wJywgJy1waCcsICc3LjAnLCAnLXRuJywgJzgnLCAnLW1hJywgJzIwMCcsICctaW1hZScsICc8aW5maWxlLm1hZT4nLCAnLW9tYWUnLCAnPG91dGZpbGUubWFlPic=

>  <r_lp_tautomer_probability>  (193) 
1

>  <r_epik_Ionization_Penalty>  (193) 
2.40155e-06

>  <r_epik_Ionization_Penalty_Charging>  (193) 
0

>  <r_epik_Ionization_Penalty_Neutral>  (193) 
2.40155e-06

>  <r_epik_State_Penalty>  (193) 
-0

>  <r_epik_Charging_Adjusted_Penalty>  (193) 
0

>  <i_epik_Tot_Q>  (193) 
0

>  <i_epik_Tot_abs_Q>  (193) 
0

>  <s_epik_Chemistry_Notes>  (193) 
This compound contains an acetal/aminal-like group ( X-CH(R)-Y where X, Y are N, S, or O) that may be acid/base labile, releasing an aldehyde.

>  <s_lp_Force_Field>  (193) 
OPLS3e

>  <r_lp_Energy>  (193) 
92.7592

>  <b_lp_Chiralities_Consistent>  (193) 
1

>  <s_lp_Variant>  (193) 
55:0-1

>  <s_i_glide_gridfile>  (193) 
pfpi4k_grid

>  <i_i_glide_lignum>  (193) 
41

>  <i_i_glide_rotatable_bonds>  (193) 
8

>  <r_i_docking_score>  (193) 
-2.88254

>  <r_i_glide_ligand_efficiency>  (193) 
-0.0686318

>  <r_i_glide_ligand_efficiency_sa>  (193) 
-0.238566

>  <r_i_glide_ligand_efficiency_ln>  (193) 
-0.608429

>  <r_i_glide_gscore>  (193) 
-2.88254

>  <r_i_glide_lipo>  (193) 
-0.0976492

>  <r_i_glide_hbond>  (193) 
0

>  <r_i_glide_metal>  (193) 
-0

>  <r_i_glide_rewards>  (193) 
0

>  <r_i_glide_evdw>  (193) 
-19.3596

>  <r_i_glide_ecoul>  (193) 
-13.0017

>  <r_i_glide_erotb>  (193) 
0.14091

>  <r_i_glide_esite>  (193) 
-0.00756844

>  <r_i_glide_emodel>  (193) 
-35.5716

>  <r_i_glide_energy>  (193) 
-32.3613

>  <r_i_glide_einternal>  (193) 
4.93946

>  <r_i_glide_intrahb_reward>  (193) 
-0

>  <i_i_glide_confnum>  (193) 
2

>  <i_i_glide_posenum>  (193) 
12

>  <r_i_glide_eff_state_penalty>  (193) 
0

>  <ligand_id>  (193) 
55

>  <original_smiles>  (193) 
C=CC1(C)CC2CCC3(COC4OC(C)C(O)C(O)C4O)C(C1)C1C(CCC4C5CCC(O)C(C)(C)C5=CCC41C)C23

>  <smiles>  (193) 
[H]OC1([H])C([H])(OC([H])([H])C23C([H])([H])C([H])([H])C4([H])C([H])([H])C(C([H])=C([H])[H])(C([H])([H])[H])C([H])([H])C2([H])C2([H])C([H])(C([H])([H])C([H])([H])C5([H])C6([H])C(=C([H])C([H])([H])C52C([H])([H])[H])C(C([H])([H])[H])(C([H])([H])[H])C([H])(O[H])C([H])([H])C6([H])[H])C43[H])OC([H])(C([H])([H])[H])C([H])(O[H])C1([H])O[H]

$$$$
55:0:2
     RDKit          3D

 98104  0  0  1  0  0  0  0  0999 V2000
   -1.1588   -3.3948   12.1759 C   0  0  0  0  0  0  0  0  0  0  0  0
   -0.3921   -3.8632   11.1740 C   0  0  0  0  0  0  0  0  0  0  0  0
    0.2671   -3.0716   10.0169 C   0  0  1  0  0  0  0  0  0  0  0  0
    0.0921   -1.5665   10.3602 C   0  0  0  0  0  0  0  0  0  0  0  0
    1.8131   -3.3169   10.0080 C   0  0  0  0  0  0  0  0  0  0  0  0
    2.4548   -4.5816    9.3504 C   0  0  1  0  0  0  0  0  0  0  0  0
    1.8560   -5.8882    9.8671 C   0  0  0  0  0  0  0  0  0  0  0  0
    0.6440   -6.1468    8.9590 C   0  0  0  0  0  0  0  0  0  0  0  0
    0.9418   -5.3729    7.6486 C   0  0  1  0  0  0  0  0  0  0  0  0
    0.8637   -6.3939    6.4727 C   0  0  0  0  0  0  0  0  0  0  0  0
    1.5986   -7.5954    6.7494 O   0  0  0  0  0  0  0  0  0  0  0  0
    1.7179   -8.4672    5.6617 C   0  0  2  0  0  0  0  0  0  0  0  0
    0.4428   -8.7967    5.1779 O   0  0  0  0  0  0  0  0  0  0  0  0
    0.4131   -9.6449    4.0370 C   0  0  1  0  0  0  0  0  0  0  0  0
    1.0123   -8.9451    2.7983 C   0  0  0  0  0  0  0  0  0  0  0  0
    1.0602  -10.9943    4.4006 C   0  0  1  0  0  0  0  0  0  0  0  0
    1.0537  -11.8609    3.2755 O   0  0  0  0  0  0  0  0  0  0  0  0
    2.4747  -10.8162    4.9822 C   0  0  1  0  0  0  0  0  0  0  0  0
    3.3544  -10.4225    3.9354 O   0  0  0  0  0  0  0  0  0  0  0  0
    2.4487   -9.7649    6.1203 C   0  0  1  0  0  0  0  0  0  0  0  0
    3.7905   -9.4940    6.4560 O   0  0  0  0  0  0  0  0  0  0  0  0
    0.0816   -4.0847    7.4086 C   0  0  1  0  0  0  0  0  0  0  0  0
   -0.4967   -3.3526    8.6643 C   0  0  0  0  0  0  0  0  0  0  0  0
    0.9825   -3.2386    6.4622 C   0  0  2  0  0  0  0  0  0  0  0  0
    2.3970   -3.4241    6.9910 C   0  0  2  0  0  0  0  0  0  0  0  0
    3.3531   -3.3239    5.7987 C   0  0  0  0  0  0  0  0  0  0  0  0
    3.1853   -1.9456    5.1128 C   0  0  0  0  0  0  0  0  0  0  0  0
    1.7176   -1.6180    4.6778 C   0  0  2  0  0  0  0  0  0  0  0  0
    1.5477   -0.2426    3.9408 C   0  0  2  0  0  0  0  0  0  0  0  0
    2.7149    0.0856    2.9879 C   0  0  0  0  0  0  0  0  0  0  0  0
    2.5104    1.3993    2.2390 C   0  0  0  0  0  0  0  0  0  0  0  0
    2.3004    2.5548    3.2201 C   0  0  1  0  0  0  0  0  0  0  0  0
    2.2078    3.7734    2.4881 O   0  0  0  0  0  0  0  0  0  0  0  0
    1.0963    2.3335    4.1811 C   0  0  0  0  0  0  0  0  0  0  0  0
    1.1008    3.4842    5.2185 C   0  0  0  0  0  0  0  0  0  0  0  0
   -0.2462    2.3754    3.4114 C   0  0  0  0  0  0  0  0  0  0  0  0
    1.2118    0.9414    4.8632 C   0  0  0  0  0  0  0  0  0  0  0  0
    0.9651    0.7338    6.1787 C   0  0  0  0  0  0  0  0  0  0  0  0
    0.9151   -0.6246    6.8529 C   0  0  0  0  0  0  0  0  0  0  0  0
    0.6985   -1.8067    5.8642 C   0  0  2  0  0  0  0  0  0  0  0  0
   -0.7543   -1.7561    5.3208 C   0  0  0  0  0  0  0  0  0  0  0  0
    2.3396   -4.7395    7.8141 C   0  0  1  0  0  0  0  0  0  0  0  0
   -1.4333   -2.3536   12.2911 H   0  0  0  0  0  0  0  0  0  0  0  0
   -1.5316   -4.0807   12.9248 H   0  0  0  0  0  0  0  0  0  0  0  0
   -0.2172   -4.9257   11.2103 H   0  0  0  0  0  0  0  0  0  0  0  0
    0.6113   -0.8999    9.6744 H   0  0  0  0  0  0  0  0  0  0  0  0
    0.4991   -1.3486   11.3485 H   0  0  0  0  0  0  0  0  0  0  0  0
   -0.9558   -1.2663   10.3782 H   0  0  0  0  0  0  0  0  0  0  0  0
    2.3142   -2.4266    9.6318 H   0  0  0  0  0  0  0  0  0  0  0  0
    2.1290   -3.3248   11.0511 H   0  0  0  0  0  0  0  0  0  0  0  0
    3.5152   -4.5514    9.6037 H   0  0  0  0  0  0  0  0  0  0  0  0
    2.5824   -6.6864    9.7117 H   0  0  0  0  0  0  0  0  0  0  0  0
    1.6458   -5.8803   10.9350 H   0  0  0  0  0  0  0  0  0  0  0  0
    0.5320   -7.2222    8.8185 H   0  0  0  0  0  0  0  0  0  0  0  0
   -0.3111   -5.8454    9.3752 H   0  0  0  0  0  0  0  0  0  0  0  0
   -0.1830   -6.6595    6.3339 H   0  0  0  0  0  0  0  0  0  0  0  0
    1.2090   -5.9632    5.5350 H   0  0  0  0  0  0  0  0  0  0  0  0
    2.2790   -7.9368    4.8902 H   0  0  0  0  0  0  0  0  0  0  0  0
   -0.6331   -9.8415    3.8285 H   0  0  0  0  0  0  0  0  0  0  0  0
    0.9755   -9.5938    1.9233 H   0  0  0  0  0  0  0  0  0  0  0  0
    2.0627   -8.6814    2.9482 H   0  0  0  0  0  0  0  0  0  0  0  0
    0.4373   -8.0549    2.5376 H   0  0  0  0  0  0  0  0  0  0  0  0
    0.4489  -11.4707    5.1713 H   0  0  0  0  0  0  0  0  0  0  0  0
    1.3817  -12.7235    3.5130 H   0  0  0  0  0  0  0  0  0  0  0  0
    2.8117  -11.7831    5.3774 H   0  0  0  0  0  0  0  0  0  0  0  0
    3.2250  -11.0058    3.1998 H   0  0  0  0  0  0  0  0  0  0  0  0
    1.9175  -10.1767    6.9754 H   0  0  0  0  0  0  0  0  0  0  0  0
    4.2335   -9.2756    5.6492 H   0  0  0  0  0  0  0  0  0  0  0  0
   -0.7957   -4.3693    6.8263 H   0  0  0  0  0  0  0  0  0  0  0  0
   -1.4286   -3.8609    8.9237 H   0  0  0  0  0  0  0  0  0  0  0  0
   -0.8214   -2.4088    8.2572 H   0  0  0  0  0  0  0  0  0  0  0  0
    0.9271   -3.8416    5.5558 H   0  0  0  0  0  0  0  0  0  0  0  0
    2.6891   -2.6119    7.6386 H   0  0  0  0  0  0  0  0  0  0  0  0
    4.3817   -3.4456    6.1369 H   0  0  0  0  0  0  0  0  0  0  0  0
    3.1607   -4.1267    5.0847 H   0  0  0  0  0  0  0  0  0  0  0  0
    3.5567   -1.1637    5.7760 H   0  0  0  0  0  0  0  0  0  0  0  0
    3.8449   -1.9458    4.2480 H   0  0  0  0  0  0  0  0  0  0  0  0
    1.4817   -2.3697    3.9245 H   0  0  0  0  0  0  0  0  0  0  0  0
    0.6714   -0.3558    3.3049 H   0  0  0  0  0  0  0  0  0  0  0  0
    3.6492    0.1752    3.5434 H   0  0  0  0  0  0  0  0  0  0  0  0
    2.8533   -0.7208    2.2679 H   0  0  0  0  0  0  0  0  0  0  0  0
    3.4127    1.5928    1.6656 H   0  0  0  0  0  0  0  0  0  0  0  0
    1.6881    1.3215    1.5295 H   0  0  0  0  0  0  0  0  0  0  0  0
    3.2066    2.6411    3.8206 H   0  0  0  0  0  0  0  0  0  0  0  0
    1.4557    3.7640    1.9166 H   0  0  0  0  0  0  0  0  0  0  0  0
    1.1021    4.4591    4.7316 H   0  0  0  0  0  0  0  0  0  0  0  0
    1.9911    3.4377    5.8485 H   0  0  0  0  0  0  0  0  0  0  0  0
    0.2226    3.4594    5.8648 H   0  0  0  0  0  0  0  0  0  0  0  0
   -0.4167    3.3449    2.9420 H   0  0  0  0  0  0  0  0  0  0  0  0
   -1.0822    2.1852    4.0855 H   0  0  0  0  0  0  0  0  0  0  0  0
   -0.2966    1.6225    2.6247 H   0  0  0  0  0  0  0  0  0  0  0  0
    0.7287    1.5560    6.8313 H   0  0  0  0  0  0  0  0  0  0  0  0
    1.8384   -0.7044    7.4212 H   0  0  0  0  0  0  0  0  0  0  0  0
    0.1000   -0.5769    7.5656 H   0  0  0  0  0  0  0  0  0  0  0  0
   -1.0024   -0.7830    4.8972 H   0  0  0  0  0  0  0  0  0  0  0  0
   -1.4845   -1.9431    6.1044 H   0  0  0  0  0  0  0  0  0  0  0  0
   -0.9111   -2.4957    4.5370 H   0  0  0  0  0  0  0  0  0  0  0  0
    3.1073   -5.4346    7.4704 H   0  0  0  0  0  0  0  0  0  0  0  0
  1  2  2  0
  1 43  1  0
  1 44  1  0
  2  3  1  0
  2 45  1  0
  3 23  1  0
  3  4  1  1
  3  5  1  0
  4 46  1  0
  4 47  1  0
  4 48  1  0
  5  6  1  0
  5 49  1  0
  5 50  1  0
  6 42  1  0
  6  7  1  0
  6 51  1  6
  7  8  1  0
  7 52  1  0
  7 53  1  0
  8  9  1  0
  8 54  1  0
  8 55  1  0
  9 42  1  0
  9 10  1  6
  9 22  1  0
 10 11  1  0
 10 56  1  0
 10 57  1  0
 11 12  1  0
 12 20  1  0
 12 13  1  0
 12 58  1  6
 13 14  1  0
 14 15  1  0
 14 16  1  0
 14 59  1  6
 15 60  1  0
 15 61  1  0
 15 62  1  0
 16 17  1  0
 16 18  1  0
 16 63  1  1
 17 64  1  0
 18 19  1  0
 18 20  1  0
 18 65  1  1
 19 66  1  0
 20 21  1  0
 20 67  1  1
 21 68  1  0
 22 23  1  0
 22 24  1  0
 22 69  1  6
 23 70  1  0
 23 71  1  0
 24 40  1  0
 24 25  1  0
 24 72  1  6
 25 26  1  0
 25 42  1  0
 25 73  1  1
 26 27  1  0
 26 74  1  0
 26 75  1  0
 27 28  1  0
 27 76  1  0
 27 77  1  0
 28 40  1  0
 28 29  1  0
 28 78  1  6
 29 37  1  0
 29 30  1  0
 29 79  1  6
 30 31  1  0
 30 80  1  0
 30 81  1  0
 31 32  1  0
 31 82  1  0
 31 83  1  0
 32 33  1  0
 32 34  1  0
 32 84  1  1
 33 85  1  0
 34 35  1  0
 34 36  1  0
 34 37  1  0
 35 86  1  0
 35 87  1  0
 35 88  1  0
 36 89  1  0
 36 90  1  0
 36 91  1  0
 37 38  2  0
 38 39  1  0
 38 92  1  0
 39 40  1  0
 39 93  1  0
 39 94  1  0
 40 41  1  6
 41 95  1  0
 41 96  1  0
 41 97  1  0
 42 98  1  6
M  END
>  <i_m_ct_stereo_status>  (194) 
1

>  <s_m_source_file>  (194) 
/var/tmp/pbs.5076255.sched01/tmpazi1eam_/42934yjxx2.sdf

>  <i_m_source_file_index>  (194) 
41

>  <i_lp_mmshare_version>  (194) 
48012

>  <i_f3d_flags>  (194) 
0

>  <s_epik_input>  (194) 
W0NIMl0xW0NIMl1bQ0BASF0oW09IXSlDKFtDSDNdKShbQ0gzXSlDKD1bQ0hdW0NIMl1bQ0BdMjNbQ0gzXSlbQ0BASF0xW0NASF0zW0NIMl1bQ0gyXVtDQEhdKFtDQEhdNFtDQEhdKFtDSDJdW0NIMl01KVtDSDJdW0NAQF0oW0NIM10pKFtDSDJdNilbQ0hdPVtDSDJdKVtDQEhdMltDQEhdNltDQEBdNDVbQ0gyXU9bQ0BASF03T1tDQEBIXShbQ0gzXSlbQ0BASF0oW09IXSlbQ0BASF0oW09IXSlbQ0BIXTdbT0hd

>  <s_epik_cmdline>  (194) 
J2VwaWtfcHl0aG9uJywgJy1waHQnLCAnMi4wJywgJy1waCcsICc3LjAnLCAnLXRuJywgJzgnLCAnLW1hJywgJzIwMCcsICctaW1hZScsICc8aW5maWxlLm1hZT4nLCAnLW9tYWUnLCAnPG91dGZpbGUubWFlPic=

>  <r_lp_tautomer_probability>  (194) 
1

>  <r_epik_Ionization_Penalty>  (194) 
2.40155e-06

>  <r_epik_Ionization_Penalty_Charging>  (194) 
0

>  <r_epik_Ionization_Penalty_Neutral>  (194) 
2.40155e-06

>  <r_epik_State_Penalty>  (194) 
-0

>  <r_epik_Charging_Adjusted_Penalty>  (194) 
0

>  <i_epik_Tot_Q>  (194) 
0

>  <i_epik_Tot_abs_Q>  (194) 
0

>  <s_epik_Chemistry_Notes>  (194) 
This compound contains an acetal/aminal-like group ( X-CH(R)-Y where X, Y are N, S, or O) that may be acid/base labile, releasing an aldehyde.

>  <s_lp_Force_Field>  (194) 
OPLS3e

>  <r_lp_Energy>  (194) 
92.7592

>  <b_lp_Chiralities_Consistent>  (194) 
1

>  <s_lp_Variant>  (194) 
55:0-1

>  <s_i_glide_gridfile>  (194) 
pfpi4k_grid

>  <i_i_glide_lignum>  (194) 
41

>  <i_i_glide_rotatable_bonds>  (194) 
8

>  <r_i_docking_score>  (194) 
-2.31415

>  <r_i_glide_ligand_efficiency>  (194) 
-0.0550988

>  <r_i_glide_ligand_efficiency_sa>  (194) 
-0.191525

>  <r_i_glide_ligand_efficiency_ln>  (194) 
-0.488458

>  <r_i_glide_gscore>  (194) 
-2.31415

>  <r_i_glide_lipo>  (194) 
-0.0541224

>  <r_i_glide_hbond>  (194) 
-0.152

>  <r_i_glide_metal>  (194) 
-0

>  <r_i_glide_rewards>  (194) 
0

>  <r_i_glide_evdw>  (194) 
-23.5207

>  <r_i_glide_ecoul>  (194) 
-7.03957

>  <r_i_glide_erotb>  (194) 
0.14091

>  <r_i_glide_esite>  (194) 
-0.0169694

>  <r_i_glide_emodel>  (194) 
-33.4101

>  <r_i_glide_energy>  (194) 
-30.5602

>  <r_i_glide_einternal>  (194) 
2.08236

>  <r_i_glide_intrahb_reward>  (194) 
-0

>  <i_i_glide_confnum>  (194) 
3

>  <i_i_glide_posenum>  (194) 
3

>  <r_i_glide_eff_state_penalty>  (194) 
0

>  <ligand_id>  (194) 
55

>  <original_smiles>  (194) 
C=CC1(C)CC2CCC3(COC4OC(C)C(O)C(O)C4O)C(C1)C1C(CCC4C5CCC(O)C(C)(C)C5=CCC41C)C23

>  <smiles>  (194) 
[H]OC1([H])C([H])(OC([H])([H])C23C([H])([H])C([H])([H])C4([H])C([H])([H])C(C([H])=C([H])[H])(C([H])([H])[H])C([H])([H])C2([H])C2([H])C([H])(C([H])([H])C([H])([H])C5([H])C6([H])C(=C([H])C([H])([H])C52C([H])([H])[H])C(C([H])([H])[H])(C([H])([H])[H])C([H])(O[H])C([H])([H])C6([H])[H])C43[H])OC([H])(C([H])([H])[H])C([H])(O[H])C1([H])O[H]

$$$$
57:0:0
     RDKit          3D

 49 55  0  0  1  0  0  0  0  0999 V2000
    0.6572  -10.8173    3.3148 C   0  0  0  0  0  0  0  0  0  0  0  0
    1.6072   -9.8836    3.1347 C   0  0  0  0  0  0  0  0  0  0  0  0
    1.5155   -8.4478    3.5242 C   0  0  1  0  0  0  0  0  0  0  0  0
    2.2101   -8.2604    4.9054 C   0  0  0  0  0  0  0  0  0  0  0  0
    3.7255   -8.6453    4.9290 C   0  0  0  0  0  0  0  0  0  0  0  0
    4.4056   -8.1300    3.6436 C   0  0  1  0  0  0  0  0  0  0  0  0
    6.0478   -8.0287    3.6486 C   0  0  2  0  0  0  0  0  0  0  0  0
    7.3459   -8.0409    2.6119 C   0  0  0  0  0  0  0  0  0  0  0  0
    6.9923   -8.4047    1.2801 O   0  0  0  0  0  0  0  0  0  0  0  0
    5.9334   -9.2805    1.4696 C   0  0  1  0  0  0  0  0  0  0  0  0
    6.0791   -9.3987    2.9499 C   0  0  0  0  0  0  0  0  0  0  0  0
    6.3274  -10.4554    3.5358 O   0  0  0  0  0  0  0  0  0  0  0  0
    4.5842   -8.5806    1.1434 C   0  0  2  0  0  0  0  0  0  0  0  0
    4.8636   -7.3301    0.5184 O   0  0  0  0  0  0  0  0  0  0  0  0
    4.7133   -6.1062    1.1117 C   0  0  0  0  0  0  0  0  0  0  0  0
    3.9777   -5.2597    0.2571 C   0  0  0  0  0  0  0  0  0  0  0  0
    3.7925   -3.9569    0.7346 C   0  0  0  0  0  0  0  0  0  0  0  0
    4.3195   -3.5076    1.9283 C   0  0  0  0  0  0  0  0  0  0  0  0
    5.0879   -4.3210    2.7841 C   0  0  0  0  0  0  0  0  0  0  0  0
    5.2652   -5.6674    2.3563 C   0  0  0  0  0  0  0  0  0  0  0  0
    6.1113   -6.4703    3.3451 C   0  0  0  0  0  0  0  0  0  0  0  0
    6.8326   -5.8540    4.1428 O   0  0  0  0  0  0  0  0  0  0  0  0
    3.9655   -2.2089    2.1188 O   0  0  0  0  0  0  0  0  0  0  0  0
    3.0959   -1.8935    1.0614 C   0  0  0  0  0  0  0  0  0  0  0  0
    3.0895   -2.9579    0.1466 O   0  0  0  0  0  0  0  0  0  0  0  0
    3.6018   -8.6244    2.3588 C   0  0  2  0  0  0  0  0  0  0  0  0
    2.2924   -7.7883    2.3589 C   0  0  0  0  0  0  0  0  0  0  0  0
    2.9097  -10.0495    2.4023 C   0  0  1  0  0  0  0  0  0  0  0  0
    3.6259  -11.1694    2.8802 O   0  0  0  0  0  0  0  0  0  0  0  0
    0.7915  -11.8321    2.9616 H   0  0  0  0  0  0  0  0  0  0  0  0
   -0.2672  -10.5772    3.8191 H   0  0  0  0  0  0  0  0  0  0  0  0
    0.4802   -8.1218    3.5569 H   0  0  0  0  0  0  0  0  0  0  0  0
    2.1010   -7.2172    5.2082 H   0  0  0  0  0  0  0  0  0  0  0  0
    1.6879   -8.8528    5.6585 H   0  0  0  0  0  0  0  0  0  0  0  0
    4.1935   -8.1946    5.8091 H   0  0  0  0  0  0  0  0  0  0  0  0
    3.8582   -9.7222    5.0387 H   0  0  0  0  0  0  0  0  0  0  0  0
    4.0099   -7.1321    3.8165 H   0  0  0  0  0  0  0  0  0  0  0  0
    8.0038   -7.1698    2.4461 H   0  0  0  0  0  0  0  0  0  0  0  0
    8.1944   -8.6540    2.9797 H   0  0  0  0  0  0  0  0  0  0  0  0
    6.0690  -10.2345    0.9599 H   0  0  0  0  0  0  0  0  0  0  0  0
    4.1309   -9.1503    0.3323 H   0  0  0  0  0  0  0  0  0  0  0  0
    3.5734   -5.5813   -0.6904 H   0  0  0  0  0  0  0  0  0  0  0  0
    5.4811   -3.9187    3.7078 H   0  0  0  0  0  0  0  0  0  0  0  0
    2.0893   -1.7785    1.4575 H   0  0  0  0  0  0  0  0  0  0  0  0
    3.3760   -0.9588    0.5754 H   0  0  0  0  0  0  0  0  0  0  0  0
    1.7640   -7.9317    1.4153 H   0  0  0  0  0  0  0  0  0  0  0  0
    2.4257   -6.7125    2.4901 H   0  0  0  0  0  0  0  0  0  0  0  0
    2.6044  -10.2985    1.3866 H   0  0  0  0  0  0  0  0  0  0  0  0
    3.8395  -11.7174    2.1298 H   0  0  0  0  0  0  0  0  0  0  0  0
  1  2  2  0
  1 30  1  0
  1 31  1  0
  2 28  1  0
  2  3  1  0
  3 27  1  0
  3  4  1  0
  3 32  1  1
  4  5  1  0
  4 33  1  0
  4 34  1  0
  5  6  1  0
  5 35  1  0
  5 36  1  0
  6 26  1  0
  6  7  1  0
  6 37  1  1
  7 11  1  0
  7 21  1  0
  7  8  1  1
  8  9  1  0
  8 38  1  0
  8 39  1  0
  9 10  1  0
 10 11  1  0
 10 13  1  0
 10 40  1  6
 11 12  2  0
 13 14  1  0
 13 26  1  0
 13 41  1  6
 14 15  1  0
 15 20  2  0
 15 16  1  0
 16 17  2  0
 16 42  1  0
 17 25  1  0
 17 18  1  0
 18 19  2  0
 18 23  1  0
 19 20  1  0
 19 43  1  0
 20 21  1  0
 21 22  2  0
 23 24  1  0
 24 25  1  0
 24 44  1  0
 24 45  1  0
 26 27  1  6
 26 28  1  0
 27 46  1  0
 27 47  1  0
 28 29  1  0
 28 48  1  6
 29 49  1  0
M  END
>  <i_m_ct_stereo_status>  (195) 
1

>  <s_m_source_file>  (195) 
/var/tmp/pbs.5076255.sched01/tmppxgjifq_/8475v0iq0b.sdf

>  <i_m_source_file_index>  (195) 
1

>  <i_lp_mmshare_version>  (195) 
48012

>  <i_f3d_flags>  (195) 
0

>  <s_epik_input>  (195) 
W09IXVtDQEhdMUMoPVtDSDJdKVtDQEBIXShbQ0gyXVtDSDJdMilbQ0gyXVtDQF0xKFtDQEBIXTJDMzQ1KVtDQEhdKFtDQEhdKEM0PU8pT1tDSDJdMylPYzZjKEM1PU8pW2NIXWM3YyhbY0hdNilPW0NIMl1PNw==

>  <s_epik_cmdline>  (195) 
J2VwaWtfcHl0aG9uJywgJy1waHQnLCAnMi4wJywgJy1waCcsICc3LjAnLCAnLXRuJywgJzgnLCAnLW1hJywgJzIwMCcsICctaW1hZScsICc8aW5maWxlLm1hZT4nLCAnLW9tYWUnLCAnPG91dGZpbGUubWFlPic=

>  <r_lp_tautomer_probability>  (195) 
1

>  <r_epik_Ionization_Penalty>  (195) 
1.98527e-07

>  <r_epik_Ionization_Penalty_Charging>  (195) 
0

>  <r_epik_Ionization_Penalty_Neutral>  (195) 
1.98527e-07

>  <r_epik_State_Penalty>  (195) 
-0

>  <r_epik_Charging_Adjusted_Penalty>  (195) 
0

>  <i_epik_Tot_Q>  (195) 
0

>  <i_epik_Tot_abs_Q>  (195) 
0

>  <s_epik_Chemistry_Notes>  (195) 
This compound contains an acetal/aminal-like group ( X-CH(R)-Y where X, Y are N, S, or O) that may be acid/base labile, releasing an aldehyde.

>  <s_lp_Force_Field>  (195) 
OPLS3e

>  <r_lp_Energy>  (195) 
220.9

>  <b_lp_Chiralities_Consistent>  (195) 
1

>  <s_lp_Variant>  (195) 
57:0-1

>  <s_i_glide_gridfile>  (195) 
pfpi4k_grid

>  <i_i_glide_lignum>  (195) 
1

>  <i_i_glide_rotatable_bonds>  (195) 
1

>  <r_i_docking_score>  (195) 
-3.07304

>  <r_i_glide_ligand_efficiency>  (195) 
-0.105967

>  <r_i_glide_ligand_efficiency_sa>  (195) 
-0.325564

>  <r_i_glide_ligand_efficiency_ln>  (195) 
-0.703649

>  <r_i_glide_gscore>  (195) 
-3.07304

>  <r_i_glide_lipo>  (195) 
-0.326325

>  <r_i_glide_hbond>  (195) 
0

>  <r_i_glide_metal>  (195) 
-0

>  <r_i_glide_rewards>  (195) 
-0.707235

>  <r_i_glide_evdw>  (195) 
-26.2189

>  <r_i_glide_ecoul>  (195) 
-4.56241

>  <r_i_glide_erotb>  (195) 
0

>  <r_i_glide_esite>  (195) 
-0.0441793

>  <r_i_glide_emodel>  (195) 
-36.7075

>  <r_i_glide_energy>  (195) 
-30.7813

>  <r_i_glide_einternal>  (195) 
0.883532

>  <r_i_glide_intrahb_reward>  (195) 
-0

>  <i_i_glide_confnum>  (195) 
1

>  <i_i_glide_posenum>  (195) 
4

>  <r_i_glide_eff_state_penalty>  (195) 
0

>  <ligand_id>  (195) 
57

>  <original_smiles>  (195) 
C=C1C2CCC3C45COC(C4=O)C(Oc4cc6c(cc4C5=O)OCO6)C3(C2)C1O

>  <smiles>  (195) 
[H]OC1([H])C(=C([H])[H])C2([H])C([H])([H])C([H])([H])C3([H])C45C(=O)c6c([H])c7c(c([H])c6OC([H])(C([H])(OC4([H])[H])C5=O)C13C2([H])[H])OC([H])([H])O7

$$$$
57:0:1
     RDKit          3D

 49 55  0  0  1  0  0  0  0  0999 V2000
   -1.7506   -8.8113    2.8422 C   0  0  0  0  0  0  0  0  0  0  0  0
   -0.4482   -8.4818    2.8442 C   0  0  0  0  0  0  0  0  0  0  0  0
    0.1091   -7.0976    2.8532 C   0  0  1  0  0  0  0  0  0  0  0  0
    0.4511   -6.7023    4.3236 C   0  0  0  0  0  0  0  0  0  0  0  0
    1.5169   -7.6193    5.0048 C   0  0  0  0  0  0  0  0  0  0  0  0
    2.6439   -7.9341    3.9974 C   0  0  1  0  0  0  0  0  0  0  0  0
    4.0649   -8.4988    4.6073 C   0  0  2  0  0  0  0  0  0  0  0  0
    5.3875   -9.4113    4.1685 C   0  0  0  0  0  0  0  0  0  0  0  0
    5.2318  -10.0629    2.9042 O   0  0  0  0  0  0  0  0  0  0  0  0
    3.8619  -10.3091    2.8687 C   0  0  1  0  0  0  0  0  0  0  0  0
    3.5740   -9.9174    4.2809 C   0  0  0  0  0  0  0  0  0  0  0  0
    3.1036  -10.6813    5.1285 O   0  0  0  0  0  0  0  0  0  0  0  0
    3.1610   -9.3031    1.9121 C   0  0  2  0  0  0  0  0  0  0  0  0
    4.1718   -8.5967    1.1955 O   0  0  0  0  0  0  0  0  0  0  0  0
    4.5124   -7.2853    1.4118 C   0  0  0  0  0  0  0  0  0  0  0  0
    4.5207   -6.5939    0.1851 C   0  0  0  0  0  0  0  0  0  0  0  0
    4.9085   -5.2507    0.2619 C   0  0  0  0  0  0  0  0  0  0  0  0
    5.2901   -4.6472    1.4418 C   0  0  0  0  0  0  0  0  0  0  0  0
    5.3219   -5.3197    2.6735 C   0  0  0  0  0  0  0  0  0  0  0  0
    4.8992   -6.6809    2.6475 C   0  0  0  0  0  0  0  0  0  0  0  0
    4.9680   -7.3271    4.0295 C   0  0  0  0  0  0  0  0  0  0  0  0
    5.6827   -6.8045    4.8928 O   0  0  0  0  0  0  0  0  0  0  0  0
    5.5992   -3.3457    1.1996 O   0  0  0  0  0  0  0  0  0  0  0  0
    5.2783   -3.1230   -0.1464 C   0  0  0  0  0  0  0  0  0  0  0  0
    4.9692   -4.3482   -0.7485 O   0  0  0  0  0  0  0  0  0  0  0  0
    2.0284   -8.5066    2.6407 C   0  0  2  0  0  0  0  0  0  0  0  0
    1.3603   -7.2828    1.9620 C   0  0  0  0  0  0  0  0  0  0  0  0
    0.7253   -9.4188    2.7240 C   0  0  1  0  0  0  0  0  0  0  0  0
    0.6415  -10.4398    3.6909 O   0  0  0  0  0  0  0  0  0  0  0  0
   -2.0611   -9.8453    2.7912 H   0  0  0  0  0  0  0  0  0  0  0  0
   -2.5259   -8.0580    2.8926 H   0  0  0  0  0  0  0  0  0  0  0  0
   -0.5903   -6.3951    2.4100 H   0  0  0  0  0  0  0  0  0  0  0  0
    0.8090   -5.6722    4.3312 H   0  0  0  0  0  0  0  0  0  0  0  0
   -0.4579   -6.7116    4.9267 H   0  0  0  0  0  0  0  0  0  0  0  0
    1.9258   -7.1025    5.8762 H   0  0  0  0  0  0  0  0  0  0  0  0
    1.0690   -8.5369    5.3890 H   0  0  0  0  0  0  0  0  0  0  0  0
    2.7734   -6.8747    3.7898 H   0  0  0  0  0  0  0  0  0  0  0  0
    6.4096   -9.0021    4.0926 H   0  0  0  0  0  0  0  0  0  0  0  0
    5.7003  -10.1288    4.9579 H   0  0  0  0  0  0  0  0  0  0  0  0
    3.6216  -11.3521    2.6651 H   0  0  0  0  0  0  0  0  0  0  0  0
    2.6921   -9.8942    1.1250 H   0  0  0  0  0  0  0  0  0  0  0  0
    4.2329   -7.0583   -0.7463 H   0  0  0  0  0  0  0  0  0  0  0  0
    5.6344   -4.7994    3.5714 H   0  0  0  0  0  0  0  0  0  0  0  0
    4.3953   -2.4833   -0.1956 H   0  0  0  0  0  0  0  0  0  0  0  0
    6.0957   -2.6253   -0.6704 H   0  0  0  0  0  0  0  0  0  0  0  0
    1.0678   -7.5347    0.9413 H   0  0  0  0  0  0  0  0  0  0  0  0
    1.9732   -6.3815    1.9020 H   0  0  0  0  0  0  0  0  0  0  0  0
    0.5892   -9.9129    1.7643 H   0  0  0  0  0  0  0  0  0  0  0  0
   -0.2705  -10.6243    3.8812 H   0  0  0  0  0  0  0  0  0  0  0  0
  1  2  2  0
  1 30  1  0
  1 31  1  0
  2 28  1  0
  2  3  1  0
  3 27  1  0
  3  4  1  0
  3 32  1  6
  4  5  1  0
  4 33  1  0
  4 34  1  0
  5  6  1  0
  5 35  1  0
  5 36  1  0
  6 26  1  0
  6  7  1  0
  6 37  1  6
  7 11  1  0
  7 21  1  0
  7  8  1  1
  8  9  1  0
  8 38  1  0
  8 39  1  0
  9 10  1  0
 10 11  1  0
 10 13  1  0
 10 40  1  6
 11 12  2  0
 13 14  1  0
 13 26  1  0
 13 41  1  6
 14 15  1  0
 15 20  2  0
 15 16  1  0
 16 17  2  0
 16 42  1  0
 17 25  1  0
 17 18  1  0
 18 19  2  0
 18 23  1  0
 19 20  1  0
 19 43  1  0
 20 21  1  0
 21 22  2  0
 23 24  1  0
 24 25  1  0
 24 44  1  0
 24 45  1  0
 26 27  1  6
 26 28  1  0
 27 46  1  0
 27 47  1  0
 28 29  1  0
 28 48  1  6
 29 49  1  0
M  END
>  <i_m_ct_stereo_status>  (196) 
1

>  <s_m_source_file>  (196) 
/var/tmp/pbs.5076255.sched01/tmppxgjifq_/8475v0iq0b.sdf

>  <i_m_source_file_index>  (196) 
1

>  <i_lp_mmshare_version>  (196) 
48012

>  <i_f3d_flags>  (196) 
0

>  <s_epik_input>  (196) 
W09IXVtDQEhdMUMoPVtDSDJdKVtDQEBIXShbQ0gyXVtDSDJdMilbQ0gyXVtDQF0xKFtDQEBIXTJDMzQ1KVtDQEhdKFtDQEhdKEM0PU8pT1tDSDJdMylPYzZjKEM1PU8pW2NIXWM3YyhbY0hdNilPW0NIMl1PNw==

>  <s_epik_cmdline>  (196) 
J2VwaWtfcHl0aG9uJywgJy1waHQnLCAnMi4wJywgJy1waCcsICc3LjAnLCAnLXRuJywgJzgnLCAnLW1hJywgJzIwMCcsICctaW1hZScsICc8aW5maWxlLm1hZT4nLCAnLW9tYWUnLCAnPG91dGZpbGUubWFlPic=

>  <r_lp_tautomer_probability>  (196) 
1

>  <r_epik_Ionization_Penalty>  (196) 
1.98527e-07

>  <r_epik_Ionization_Penalty_Charging>  (196) 
0

>  <r_epik_Ionization_Penalty_Neutral>  (196) 
1.98527e-07

>  <r_epik_State_Penalty>  (196) 
-0

>  <r_epik_Charging_Adjusted_Penalty>  (196) 
0

>  <i_epik_Tot_Q>  (196) 
0

>  <i_epik_Tot_abs_Q>  (196) 
0

>  <s_epik_Chemistry_Notes>  (196) 
This compound contains an acetal/aminal-like group ( X-CH(R)-Y where X, Y are N, S, or O) that may be acid/base labile, releasing an aldehyde.

>  <s_lp_Force_Field>  (196) 
OPLS3e

>  <r_lp_Energy>  (196) 
220.9

>  <b_lp_Chiralities_Consistent>  (196) 
1

>  <s_lp_Variant>  (196) 
57:0-1

>  <s_i_glide_gridfile>  (196) 
pfpi4k_grid

>  <i_i_glide_lignum>  (196) 
1

>  <i_i_glide_rotatable_bonds>  (196) 
1

>  <r_i_docking_score>  (196) 
-2.49893

>  <r_i_glide_ligand_efficiency>  (196) 
-0.0861702

>  <r_i_glide_ligand_efficiency_sa>  (196) 
-0.264742

>  <r_i_glide_ligand_efficiency_ln>  (196) 
-0.572193

>  <r_i_glide_gscore>  (196) 
-2.49893

>  <r_i_glide_lipo>  (196) 
-0.300164

>  <r_i_glide_hbond>  (196) 
0

>  <r_i_glide_metal>  (196) 
-0

>  <r_i_glide_rewards>  (196) 
-0.754663

>  <r_i_glide_evdw>  (196) 
-28.9563

>  <r_i_glide_ecoul>  (196) 
0.0718177

>  <r_i_glide_erotb>  (196) 
0

>  <r_i_glide_esite>  (196) 
-0.00706594

>  <r_i_glide_emodel>  (196) 
-33.6051

>  <r_i_glide_energy>  (196) 
-28.8845

>  <r_i_glide_einternal>  (196) 
0.792808

>  <r_i_glide_intrahb_reward>  (196) 
-0

>  <i_i_glide_confnum>  (196) 
2

>  <i_i_glide_posenum>  (196) 
14

>  <r_i_glide_eff_state_penalty>  (196) 
0

>  <ligand_id>  (196) 
57

>  <original_smiles>  (196) 
C=C1C2CCC3C45COC(C4=O)C(Oc4cc6c(cc4C5=O)OCO6)C3(C2)C1O

>  <smiles>  (196) 
[H]OC1([H])C(=C([H])[H])C2([H])C([H])([H])C([H])([H])C3([H])C45C(=O)c6c([H])c7c(c([H])c6OC([H])(C([H])(OC4([H])[H])C5=O)C13C2([H])[H])OC([H])([H])O7

$$$$
57:0:2
     RDKit          3D

 49 55  0  0  1  0  0  0  0  0999 V2000
   -0.1342   -9.7128    2.8800 C   0  0  0  0  0  0  0  0  0  0  0  0
    0.9923   -8.9878    2.7719 C   0  0  0  0  0  0  0  0  0  0  0  0
    1.1300   -7.5272    3.0458 C   0  0  1  0  0  0  0  0  0  0  0  0
    1.6662   -7.3371    4.4984 C   0  0  0  0  0  0  0  0  0  0  0  0
    3.0657   -7.9795    4.7639 C   0  0  0  0  0  0  0  0  0  0  0  0
    3.9889   -7.7213    3.5541 C   0  0  1  0  0  0  0  0  0  0  0  0
    5.6089   -7.9099    3.7831 C   0  0  2  0  0  0  0  0  0  0  0  0
    7.0021   -8.2525    2.9356 C   0  0  0  0  0  0  0  0  0  0  0  0
    6.7588   -8.6700    1.5866 O   0  0  0  0  0  0  0  0  0  0  0  0
    5.5362   -9.3245    1.6992 C   0  0  1  0  0  0  0  0  0  0  0  0
    5.4662   -9.3199    3.1924 C   0  0  0  0  0  0  0  0  0  0  0  0
    5.4005  -10.3396    3.8866 O   0  0  0  0  0  0  0  0  0  0  0  0
    4.3943   -8.4289    1.1422 C   0  0  2  0  0  0  0  0  0  0  0  0
    4.9836   -7.3126    0.4794 O   0  0  0  0  0  0  0  0  0  0  0  0
    4.9940   -6.0270    0.9585 C   0  0  0  0  0  0  0  0  0  0  0  0
    4.5560   -5.1456   -0.0510 C   0  0  0  0  0  0  0  0  0  0  0  0
    4.5547   -3.7899    0.3035 C   0  0  0  0  0  0  0  0  0  0  0  0
    4.9918   -3.3349    1.5287 C   0  0  0  0  0  0  0  0  0  0  0  0
    5.4649   -4.1875    2.5403 C   0  0  0  0  0  0  0  0  0  0  0  0
    5.4519   -5.5805    2.2373 C   0  0  0  0  0  0  0  0  0  0  0  0
    6.0010   -6.4231    3.3871 C   0  0  0  0  0  0  0  0  0  0  0  0
    6.7145   -5.8731    4.2347 O   0  0  0  0  0  0  0  0  0  0  0  0
    4.8726   -1.9805    1.5742 O   0  0  0  0  0  0  0  0  0  0  0  0
    4.2199   -1.6171    0.3871 C   0  0  0  0  0  0  0  0  0  0  0  0
    4.1431   -2.7395   -0.4497 O   0  0  0  0  0  0  0  0  0  0  0  0
    3.2731   -8.1857    2.2051 C   0  0  2  0  0  0  0  0  0  0  0  0
    2.1613   -7.1307    1.9604 C   0  0  0  0  0  0  0  0  0  0  0  0
    2.3224   -9.4585    2.2448 C   0  0  1  0  0  0  0  0  0  0  0  0
    2.7374  -10.6269    2.9088 O   0  0  0  0  0  0  0  0  0  0  0  0
   -0.1434  -10.7592    2.6176 H   0  0  0  0  0  0  0  0  0  0  0  0
   -1.0574   -9.2782    3.2374 H   0  0  0  0  0  0  0  0  0  0  0  0
    0.1788   -7.0149    2.9108 H   0  0  0  0  0  0  0  0  0  0  0  0
    1.7180   -6.2680    4.7086 H   0  0  0  0  0  0  0  0  0  0  0  0
    0.9478   -7.7507    5.2083 H   0  0  0  0  0  0  0  0  0  0  0  0
    3.4939   -7.5340    5.6651 H   0  0  0  0  0  0  0  0  0  0  0  0
    2.9814   -9.0452    4.9769 H   0  0  0  0  0  0  0  0  0  0  0  0
    3.7715   -6.6564    3.5991 H   0  0  0  0  0  0  0  0  0  0  0  0
    7.8288   -7.5313    2.8131 H   0  0  0  0  0  0  0  0  0  0  0  0
    7.6655   -8.9686    3.4664 H   0  0  0  0  0  0  0  0  0  0  0  0
    5.5520  -10.3318    1.2838 H   0  0  0  0  0  0  0  0  0  0  0  0
    3.9512   -8.9833    0.3158 H   0  0  0  0  0  0  0  0  0  0  0  0
    4.2288   -5.4802   -1.0252 H   0  0  0  0  0  0  0  0  0  0  0  0
    5.7983   -3.7754    3.4842 H   0  0  0  0  0  0  0  0  0  0  0  0
    3.2052   -1.2963    0.6290 H   0  0  0  0  0  0  0  0  0  0  0  0
    4.7307   -0.7903   -0.1106 H   0  0  0  0  0  0  0  0  0  0  0  0
    1.7354   -7.2620    0.9642 H   0  0  0  0  0  0  0  0  0  0  0  0
    2.4744   -6.0882    2.0340 H   0  0  0  0  0  0  0  0  0  0  0  0
    2.1147   -9.7694    1.2225 H   0  0  0  0  0  0  0  0  0  0  0  0
    2.8225  -10.4557    3.8344 H   0  0  0  0  0  0  0  0  0  0  0  0
  1  2  2  0
  1 30  1  0
  1 31  1  0
  2 28  1  0
  2  3  1  0
  3 27  1  0
  3  4  1  0
  3 32  1  1
  4  5  1  0
  4 33  1  0
  4 34  1  0
  5  6  1  0
  5 35  1  0
  5 36  1  0
  6 26  1  0
  6  7  1  0
  6 37  1  6
  7 11  1  0
  7 21  1  0
  7  8  1  1
  8  9  1  0
  8 38  1  0
  8 39  1  0
  9 10  1  0
 10 11  1  0
 10 13  1  0
 10 40  1  6
 11 12  2  0
 13 14  1  0
 13 26  1  0
 13 41  1  6
 14 15  1  0
 15 20  2  0
 15 16  1  0
 16 17  2  0
 16 42  1  0
 17 25  1  0
 17 18  1  0
 18 19  2  0
 18 23  1  0
 19 20  1  0
 19 43  1  0
 20 21  1  0
 21 22  2  0
 23 24  1  0
 24 25  1  0
 24 44  1  0
 24 45  1  0
 26 27  1  6
 26 28  1  0
 27 46  1  0
 27 47  1  0
 28 29  1  0
 28 48  1  6
 29 49  1  0
M  END
>  <i_m_ct_stereo_status>  (197) 
1

>  <s_m_source_file>  (197) 
/var/tmp/pbs.5076255.sched01/tmppxgjifq_/8475v0iq0b.sdf

>  <i_m_source_file_index>  (197) 
1

>  <i_lp_mmshare_version>  (197) 
48012

>  <i_f3d_flags>  (197) 
0

>  <s_epik_input>  (197) 
W09IXVtDQEhdMUMoPVtDSDJdKVtDQEBIXShbQ0gyXVtDSDJdMilbQ0gyXVtDQF0xKFtDQEBIXTJDMzQ1KVtDQEhdKFtDQEhdKEM0PU8pT1tDSDJdMylPYzZjKEM1PU8pW2NIXWM3YyhbY0hdNilPW0NIMl1PNw==

>  <s_epik_cmdline>  (197) 
J2VwaWtfcHl0aG9uJywgJy1waHQnLCAnMi4wJywgJy1waCcsICc3LjAnLCAnLXRuJywgJzgnLCAnLW1hJywgJzIwMCcsICctaW1hZScsICc8aW5maWxlLm1hZT4nLCAnLW9tYWUnLCAnPG91dGZpbGUubWFlPic=

>  <r_lp_tautomer_probability>  (197) 
1

>  <r_epik_Ionization_Penalty>  (197) 
1.98527e-07

>  <r_epik_Ionization_Penalty_Charging>  (197) 
0

>  <r_epik_Ionization_Penalty_Neutral>  (197) 
1.98527e-07

>  <r_epik_State_Penalty>  (197) 
-0

>  <r_epik_Charging_Adjusted_Penalty>  (197) 
0

>  <i_epik_Tot_Q>  (197) 
0

>  <i_epik_Tot_abs_Q>  (197) 
0

>  <s_epik_Chemistry_Notes>  (197) 
This compound contains an acetal/aminal-like group ( X-CH(R)-Y where X, Y are N, S, or O) that may be acid/base labile, releasing an aldehyde.

>  <s_lp_Force_Field>  (197) 
OPLS3e

>  <r_lp_Energy>  (197) 
220.9

>  <b_lp_Chiralities_Consistent>  (197) 
1

>  <s_lp_Variant>  (197) 
57:0-1

>  <s_i_glide_gridfile>  (197) 
pfpi4k_grid

>  <i_i_glide_lignum>  (197) 
1

>  <i_i_glide_rotatable_bonds>  (197) 
1

>  <r_i_docking_score>  (197) 
-2.49528

>  <r_i_glide_ligand_efficiency>  (197) 
-0.0860442

>  <r_i_glide_ligand_efficiency_sa>  (197) 
-0.264355

>  <r_i_glide_ligand_efficiency_ln>  (197) 
-0.571356

>  <r_i_glide_gscore>  (197) 
-2.49528

>  <r_i_glide_lipo>  (197) 
-0.289191

>  <r_i_glide_hbond>  (197) 
0

>  <r_i_glide_metal>  (197) 
-0

>  <r_i_glide_rewards>  (197) 
-0.706432

>  <r_i_glide_evdw>  (197) 
-27.3325

>  <r_i_glide_ecoul>  (197) 
-0.744182

>  <r_i_glide_erotb>  (197) 
0

>  <r_i_glide_esite>  (197) 
-0.021408

>  <r_i_glide_emodel>  (197) 
-33.1868

>  <r_i_glide_energy>  (197) 
-28.0767

>  <r_i_glide_einternal>  (197) 
0.0661738

>  <r_i_glide_intrahb_reward>  (197) 
-0

>  <i_i_glide_confnum>  (197) 
1

>  <i_i_glide_posenum>  (197) 
12

>  <r_i_glide_eff_state_penalty>  (197) 
0

>  <ligand_id>  (197) 
57

>  <original_smiles>  (197) 
C=C1C2CCC3C45COC(C4=O)C(Oc4cc6c(cc4C5=O)OCO6)C3(C2)C1O

>  <smiles>  (197) 
[H]OC1([H])C(=C([H])[H])C2([H])C([H])([H])C([H])([H])C3([H])C45C(=O)c6c([H])c7c(c([H])c6OC([H])(C([H])(OC4([H])[H])C5=O)C13C2([H])[H])OC([H])([H])O7

$$$$
58:0:0
     RDKit          3D

 44 48  0  0  1  0  0  0  0  0999 V2000
    1.7149   -3.1894   -2.1223 C   0  0  0  0  0  0  0  0  0  0  0  0
    2.9671   -2.2626   -2.0095 C   0  0  2  0  0  0  0  0  0  0  0  0
    3.5776   -2.1600   -3.4232 C   0  0  0  0  0  0  0  0  0  0  0  0
    4.9477   -1.9130   -3.2253 O   0  0  0  0  0  0  0  0  0  0  0  0
    5.3469   -2.1117   -1.9624 C   0  0  0  0  0  0  0  0  0  0  0  0
    6.4560   -1.8216   -1.5502 O   0  0  0  0  0  0  0  0  0  0  0  0
    4.1847   -2.6981   -1.1166 C   0  0  2  0  0  0  0  0  0  0  0  0
    4.1753   -4.2837   -0.9431 C   0  0  0  0  0  0  0  0  0  0  0  0
    4.8736   -4.7181    0.3878 C   0  0  2  0  0  0  0  0  0  0  0  0
    4.3603   -4.8146    1.9033 C   0  0  2  0  0  0  0  0  0  0  0  0
    4.8383   -6.1393    2.5272 C   0  0  0  0  0  0  0  0  0  0  0  0
    2.8775   -4.6639    2.2081 C   0  0  0  0  0  0  0  0  0  0  0  0
    2.0961   -5.5896    2.4345 O   0  0  0  0  0  0  0  0  0  0  0  0
    2.3745   -3.2339    2.2503 C   0  0  0  0  0  0  0  0  0  0  0  0
    2.7629   -2.5387    0.9363 C   0  0  0  0  0  0  0  0  0  0  0  0
    4.2862   -2.4114    0.4169 C   0  0  2  0  0  0  0  0  0  0  0  0
    4.8323   -1.3398    1.3194 C   0  0  0  0  0  0  0  0  0  0  0  0
    4.9889   -0.1487    1.0537 O   0  0  0  0  0  0  0  0  0  0  0  0
    5.1276   -2.0814    2.6689 C   0  0  0  0  0  0  0  0  0  0  0  0
    5.3097   -3.6037    2.3015 C   0  0  2  0  0  0  0  0  0  0  0  0
    5.4299   -3.4366    0.8368 C   0  0  1  0  0  0  0  0  0  0  0  0
    6.9297   -3.2888    0.4538 C   0  0  0  0  0  0  0  0  0  0  0  0
    1.9819   -4.2407   -2.2120 H   0  0  0  0  0  0  0  0  0  0  0  0
    1.1339   -2.9338   -3.0056 H   0  0  0  0  0  0  0  0  0  0  0  0
    1.0515   -3.0622   -1.2719 H   0  0  0  0  0  0  0  0  0  0  0  0
    2.6665   -1.2575   -1.7161 H   0  0  0  0  0  0  0  0  0  0  0  0
    3.5100   -3.1078   -3.9723 H   0  0  0  0  0  0  0  0  0  0  0  0
    3.1640   -1.3381   -4.0179 H   0  0  0  0  0  0  0  0  0  0  0  0
    3.1886   -4.7088   -0.8813 H   0  0  0  0  0  0  0  0  0  0  0  0
    4.6758   -4.7276   -1.8036 H   0  0  0  0  0  0  0  0  0  0  0  0
    5.6667   -5.4676    0.1908 H   0  0  0  0  0  0  0  0  0  0  0  0
    5.9153   -6.2790    2.3669 H   0  0  0  0  0  0  0  0  0  0  0  0
    4.3473   -7.0022    2.0753 H   0  0  0  0  0  0  0  0  0  0  0  0
    4.6728   -6.1558    3.6012 H   0  0  0  0  0  0  0  0  0  0  0  0
    1.2971   -3.2781    2.3278 H   0  0  0  0  0  0  0  0  0  0  0  0
    2.6881   -2.7360    3.1637 H   0  0  0  0  0  0  0  0  0  0  0  0
    2.1868   -3.1372    0.2674 H   0  0  0  0  0  0  0  0  0  0  0  0
    2.2624   -1.5651    0.9183 H   0  0  0  0  0  0  0  0  0  0  0  0
    6.0704   -1.6693    3.0291 H   0  0  0  0  0  0  0  0  0  0  0  0
    4.3800   -1.8741    3.4357 H   0  0  0  0  0  0  0  0  0  0  0  0
    6.2168   -3.9926    2.7645 H   0  0  0  0  0  0  0  0  0  0  0  0
    7.3034   -2.2671    0.5661 H   0  0  0  0  0  0  0  0  0  0  0  0
    7.1229   -3.6343   -0.5804 H   0  0  0  0  0  0  0  0  0  0  0  0
    7.5476   -3.8982    1.0717 H   0  0  0  0  0  0  0  0  0  0  0  0
  1  2  1  0
  1 23  1  0
  1 24  1  0
  1 25  1  0
  2  7  1  0
  2  3  1  0
  2 26  1  1
  3  4  1  0
  3 27  1  0
  3 28  1  0
  4  5  1  0
  5  6  2  0
  5  7  1  0
  7 16  1  0
  7  8  1  1
  8  9  1  0
  8 29  1  0
  8 30  1  0
  9 21  1  0
  9 10  1  0
  9 31  1  6
 10 20  1  0
 10 11  1  1
 10 12  1  0
 11 32  1  0
 11 33  1  0
 11 34  1  0
 12 13  2  0
 12 14  1  0
 14 15  1  0
 14 35  1  0
 14 36  1  0
 16 15  1  1
 15 37  1  0
 15 38  1  0
 16 21  1  0
 16 17  1  0
 17 18  2  0
 17 19  1  0
 19 20  1  0
 19 39  1  0
 19 40  1  0
 20 21  1  0
 20 41  1  1
 21 22  1  1
 22 42  1  0
 22 43  1  0
 22 44  1  0
M  END
>  <i_m_ct_stereo_status>  (198) 
1

>  <s_m_source_file>  (198) 
/var/tmp/pbs.5076255.sched01/tmppxgjifq_/8475v0iq0b.sdf

>  <i_m_source_file_index>  (198) 
2

>  <i_lp_mmshare_version>  (198) 
48012

>  <i_f3d_flags>  (198) 
0

>  <s_epik_input>  (198) 
Tz1DMU9bQ0gyXVtDQEBIXShbQ0gzXSlbQ0BdMTJbQ0BdMzRbQ0BdNShbQ0gzXSlbQ0BIXShbQ0gyXTIpW0NAXShbQ0gzXSkoQyg9TylbQ0gyXVtDSDJdMylbQ0BASF01W0NIMl1DND1P

>  <s_epik_cmdline>  (198) 
J2VwaWtfcHl0aG9uJywgJy1waHQnLCAnMi4wJywgJy1waCcsICc3LjAnLCAnLXRuJywgJzgnLCAnLW1hJywgJzIwMCcsICctaW1hZScsICc8aW5maWxlLm1hZT4nLCAnLW9tYWUnLCAnPG91dGZpbGUubWFlPic=

>  <r_lp_tautomer_probability>  (198) 
1

>  <r_epik_Ionization_Penalty>  (198) 
5.10183e-13

>  <r_epik_Ionization_Penalty_Charging>  (198) 
0

>  <r_epik_Ionization_Penalty_Neutral>  (198) 
5.10183e-13

>  <r_epik_State_Penalty>  (198) 
-0

>  <r_epik_Charging_Adjusted_Penalty>  (198) 
0

>  <i_epik_Tot_Q>  (198) 
0

>  <i_epik_Tot_abs_Q>  (198) 
0

>  <s_epik_Chemistry_Notes>  (198) 
This compound has an ester and may undergo hydrolysis at high or low pH.

>  <s_lp_Force_Field>  (198) 
OPLS3e

>  <r_lp_Energy>  (198) 
104.486

>  <b_lp_Chiralities_Consistent>  (198) 
1

>  <s_lp_Variant>  (198) 
58:0-1

>  <s_i_glide_gridfile>  (198) 
pfpi4k_grid

>  <i_i_glide_lignum>  (198) 
2

>  <i_i_glide_rotatable_bonds>  (198) 
0

>  <r_i_docking_score>  (198) 
-3.81079

>  <r_i_glide_ligand_efficiency>  (198) 
-0.173218

>  <r_i_glide_ligand_efficiency_sa>  (198) 
-0.485362

>  <r_i_glide_ligand_efficiency_ln>  (198) 
-0.931495

>  <r_i_glide_gscore>  (198) 
-3.81079

>  <r_i_glide_lipo>  (198) 
-0.558094

>  <r_i_glide_hbond>  (198) 
-0.220508

>  <r_i_glide_metal>  (198) 
-0

>  <r_i_glide_rewards>  (198) 
-1.42432

>  <r_i_glide_evdw>  (198) 
-16.8456

>  <r_i_glide_ecoul>  (198) 
-4.96318

>  <r_i_glide_erotb>  (198) 
0

>  <r_i_glide_esite>  (198) 
-0.0211129

>  <r_i_glide_emodel>  (198) 
-26.034

>  <r_i_glide_energy>  (198) 
-21.8087

>  <r_i_glide_einternal>  (198) 
0

>  <r_i_glide_intrahb_reward>  (198) 
-0

>  <i_i_glide_confnum>  (198) 
2

>  <i_i_glide_posenum>  (198) 
1

>  <r_i_glide_eff_state_penalty>  (198) 
0

>  <ligand_id>  (198) 
58

>  <original_smiles>  (198) 
CC1COC(=O)C12CC1C3(C)C(=O)CCC24C(=O)CC3C14C

>  <smiles>  (198) 
[H]C([H])([H])C1([H])C([H])([H])OC(=O)C12C([H])([H])C1([H])C3(C([H])([H])[H])C(=O)C([H])([H])C([H])([H])C24C(=O)C([H])([H])C3([H])C14C([H])([H])[H]

$$$$
58:0:1
     RDKit          3D

 44 48  0  0  1  0  0  0  0  0999 V2000
    2.3621   -5.5530    0.6263 C   0  0  0  0  0  0  0  0  0  0  0  0
    3.5595   -5.0044    1.4658 C   0  0  2  0  0  0  0  0  0  0  0  0
    3.0523   -4.8091    2.9094 C   0  0  0  0  0  0  0  0  0  0  0  0
    3.8474   -3.7844    3.4602 O   0  0  0  0  0  0  0  0  0  0  0  0
    4.5497   -3.1200    2.5431 C   0  0  0  0  0  0  0  0  0  0  0  0
    5.3946   -2.2827    2.8344 O   0  0  0  0  0  0  0  0  0  0  0  0
    4.1808   -3.6032    1.1154 C   0  0  2  0  0  0  0  0  0  0  0  0
    3.0970   -2.7258    0.3334 C   0  0  0  0  0  0  0  0  0  0  0  0
    3.7935   -1.6815   -0.6048 C   0  0  2  0  0  0  0  0  0  0  0  0
    4.3943   -1.7725   -2.0870 C   0  0  2  0  0  0  0  0  0  0  0  0
    3.9531   -0.5522   -2.9088 C   0  0  0  0  0  0  0  0  0  0  0  0
    4.1427   -3.0124   -2.9290 C   0  0  0  0  0  0  0  0  0  0  0  0
    3.3257   -3.0899   -3.8504 O   0  0  0  0  0  0  0  0  0  0  0  0
    5.0476   -4.1896   -2.6116 C   0  0  0  0  0  0  0  0  0  0  0  0
    4.9495   -4.4879   -1.1061 C   0  0  0  0  0  0  0  0  0  0  0  0
    5.2998   -3.4072    0.0429 C   0  0  2  0  0  0  0  0  0  0  0  0
    6.8066   -3.3832   -0.0179 C   0  0  0  0  0  0  0  0  0  0  0  0
    7.5982   -3.9593    0.7301 O   0  0  0  0  0  0  0  0  0  0  0  0
    7.1303   -2.4951   -1.2689 C   0  0  0  0  0  0  0  0  0  0  0  0
    5.8574   -1.5905   -1.4992 C   0  0  2  0  0  0  0  0  0  0  0  0
    5.1971   -1.8388   -0.2064 C   0  0  1  0  0  0  0  0  0  0  0  0
    5.6406   -0.7592    0.8230 C   0  0  0  0  0  0  0  0  0  0  0  0
    1.6414   -4.7736    0.3949 H   0  0  0  0  0  0  0  0  0  0  0  0
    1.8284   -6.3282    1.1769 H   0  0  0  0  0  0  0  0  0  0  0  0
    2.6965   -6.0099   -0.3062 H   0  0  0  0  0  0  0  0  0  0  0  0
    4.3569   -5.7477    1.4854 H   0  0  0  0  0  0  0  0  0  0  0  0
    2.0203   -4.4421    2.9441 H   0  0  0  0  0  0  0  0  0  0  0  0
    3.1673   -5.6936    3.5406 H   0  0  0  0  0  0  0  0  0  0  0  0
    2.4356   -3.2707   -0.3218 H   0  0  0  0  0  0  0  0  0  0  0  0
    2.4673   -2.2199    1.0654 H   0  0  0  0  0  0  0  0  0  0  0  0
    3.4139   -0.6576   -0.3940 H   0  0  0  0  0  0  0  0  0  0  0  0
    4.1801    0.3726   -2.3680 H   0  0  0  0  0  0  0  0  0  0  0  0
    2.8789   -0.5553   -3.1002 H   0  0  0  0  0  0  0  0  0  0  0  0
    4.4830   -0.4890   -3.8538 H   0  0  0  0  0  0  0  0  0  0  0  0
    4.6483   -5.0282   -3.1698 H   0  0  0  0  0  0  0  0  0  0  0  0
    6.0407   -4.0372   -3.0082 H   0  0  0  0  0  0  0  0  0  0  0  0
    3.9128   -4.7450   -1.0667 H   0  0  0  0  0  0  0  0  0  0  0  0
    5.4543   -5.4392   -0.9142 H   0  0  0  0  0  0  0  0  0  0  0  0
    7.9851   -1.8843   -0.9778 H   0  0  0  0  0  0  0  0  0  0  0  0
    7.4455   -3.0776   -2.1356 H   0  0  0  0  0  0  0  0  0  0  0  0
    6.1483   -0.5543   -1.6117 H   0  0  0  0  0  0  0  0  0  0  0  0
    6.5938   -0.9875    1.3064 H   0  0  0  0  0  0  0  0  0  0  0  0
    4.8685   -0.5900    1.5970 H   0  0  0  0  0  0  0  0  0  0  0  0
    5.7598    0.1907    0.3694 H   0  0  0  0  0  0  0  0  0  0  0  0
  1  2  1  0
  1 23  1  0
  1 24  1  0
  1 25  1  0
  2  7  1  0
  2  3  1  0
  2 26  1  1
  3  4  1  0
  3 27  1  0
  3 28  1  0
  4  5  1  0
  5  6  2  0
  5  7  1  0
  7 16  1  0
  7  8  1  6
  8  9  1  0
  8 29  1  0
  8 30  1  0
  9 21  1  0
  9 10  1  0
  9 31  1  6
 10 20  1  0
 10 11  1  6
 10 12  1  0
 11 32  1  0
 11 33  1  0
 11 34  1  0
 12 13  2  0
 12 14  1  0
 14 15  1  0
 14 35  1  0
 14 36  1  0
 16 15  1  6
 15 37  1  0
 15 38  1  0
 16 21  1  0
 16 17  1  0
 17 18  2  0
 17 19  1  0
 19 20  1  0
 19 39  1  0
 19 40  1  0
 20 21  1  0
 20 41  1  1
 21 22  1  1
 22 42  1  0
 22 43  1  0
 22 44  1  0
M  END
>  <i_m_ct_stereo_status>  (199) 
1

>  <s_m_source_file>  (199) 
/var/tmp/pbs.5076255.sched01/tmppxgjifq_/8475v0iq0b.sdf

>  <i_m_source_file_index>  (199) 
2

>  <i_lp_mmshare_version>  (199) 
48012

>  <i_f3d_flags>  (199) 
0

>  <s_epik_input>  (199) 
Tz1DMU9bQ0gyXVtDQEBIXShbQ0gzXSlbQ0BdMTJbQ0BdMzRbQ0BdNShbQ0gzXSlbQ0BIXShbQ0gyXTIpW0NAXShbQ0gzXSkoQyg9TylbQ0gyXVtDSDJdMylbQ0BASF01W0NIMl1DND1P

>  <s_epik_cmdline>  (199) 
J2VwaWtfcHl0aG9uJywgJy1waHQnLCAnMi4wJywgJy1waCcsICc3LjAnLCAnLXRuJywgJzgnLCAnLW1hJywgJzIwMCcsICctaW1hZScsICc8aW5maWxlLm1hZT4nLCAnLW9tYWUnLCAnPG91dGZpbGUubWFlPic=

>  <r_lp_tautomer_probability>  (199) 
1

>  <r_epik_Ionization_Penalty>  (199) 
5.10183e-13

>  <r_epik_Ionization_Penalty_Charging>  (199) 
0

>  <r_epik_Ionization_Penalty_Neutral>  (199) 
5.10183e-13

>  <r_epik_State_Penalty>  (199) 
-0

>  <r_epik_Charging_Adjusted_Penalty>  (199) 
0

>  <i_epik_Tot_Q>  (199) 
0

>  <i_epik_Tot_abs_Q>  (199) 
0

>  <s_epik_Chemistry_Notes>  (199) 
This compound has an ester and may undergo hydrolysis at high or low pH.

>  <s_lp_Force_Field>  (199) 
OPLS3e

>  <r_lp_Energy>  (199) 
104.486

>  <b_lp_Chiralities_Consistent>  (199) 
1

>  <s_lp_Variant>  (199) 
58:0-1

>  <s_i_glide_gridfile>  (199) 
pfpi4k_grid

>  <i_i_glide_lignum>  (199) 
2

>  <i_i_glide_rotatable_bonds>  (199) 
0

>  <r_i_docking_score>  (199) 
-3.29374

>  <r_i_glide_ligand_efficiency>  (199) 
-0.149716

>  <r_i_glide_ligand_efficiency_sa>  (199) 
-0.419509

>  <r_i_glide_ligand_efficiency_ln>  (199) 
-0.805111

>  <r_i_glide_gscore>  (199) 
-3.29374

>  <r_i_glide_lipo>  (199) 
-0.337417

>  <r_i_glide_hbond>  (199) 
0

>  <r_i_glide_metal>  (199) 
-0

>  <r_i_glide_rewards>  (199) 
-1.60575

>  <r_i_glide_evdw>  (199) 
-23.0962

>  <r_i_glide_ecoul>  (199) 
-1.30507

>  <r_i_glide_erotb>  (199) 
0

>  <r_i_glide_esite>  (199) 
0

>  <r_i_glide_emodel>  (199) 
-28.0532

>  <r_i_glide_energy>  (199) 
-24.4013

>  <r_i_glide_einternal>  (199) 
0

>  <r_i_glide_intrahb_reward>  (199) 
-0

>  <i_i_glide_confnum>  (199) 
4

>  <i_i_glide_posenum>  (199) 
8

>  <r_i_glide_eff_state_penalty>  (199) 
0

>  <ligand_id>  (199) 
58

>  <original_smiles>  (199) 
CC1COC(=O)C12CC1C3(C)C(=O)CCC24C(=O)CC3C14C

>  <smiles>  (199) 
[H]C([H])([H])C1([H])C([H])([H])OC(=O)C12C([H])([H])C1([H])C3(C([H])([H])[H])C(=O)C([H])([H])C([H])([H])C24C(=O)C([H])([H])C3([H])C14C([H])([H])[H]

$$$$
58:0:2
     RDKit          3D

 44 48  0  0  1  0  0  0  0  0999 V2000
    3.9442   -3.3271   -3.8889 C   0  0  0  0  0  0  0  0  0  0  0  0
    3.3253   -2.7218   -2.5971 C   0  0  2  0  0  0  0  0  0  0  0  0
    2.9954   -1.2430   -2.8997 C   0  0  0  0  0  0  0  0  0  0  0  0
    4.0938   -0.5854   -2.4994 O   0  0  0  0  0  0  0  0  0  0  0  0
    4.8416   -1.2144   -1.6636 C   0  0  0  0  0  0  0  0  0  0  0  0
    5.7918   -0.6826   -1.1623 O   0  0  0  0  0  0  0  0  0  0  0  0
    4.3367   -2.6763   -1.4215 C   0  0  2  0  0  0  0  0  0  0  0  0
    5.3900   -3.9112   -1.5097 C   0  0  0  0  0  0  0  0  0  0  0  0
    5.9541   -4.3146   -0.1121 C   0  0  2  0  0  0  0  0  0  0  0  0
    5.4016   -5.2300    1.0612 C   0  0  2  0  0  0  0  0  0  0  0  0
    6.5304   -6.1466    1.5896 C   0  0  0  0  0  0  0  0  0  0  0  0
    4.2000   -6.1029    0.8160 C   0  0  0  0  0  0  0  0  0  0  0  0
    4.2266   -7.3126    0.5917 O   0  0  0  0  0  0  0  0  0  0  0  0
    2.8644   -5.3853    0.8804 C   0  0  0  0  0  0  0  0  0  0  0  0
    2.8890   -4.1608   -0.0518 C   0  0  0  0  0  0  0  0  0  0  0  0
    3.9899   -3.0020    0.0830 C   0  0  2  0  0  0  0  0  0  0  0  0
    3.5120   -2.2462    1.2849 C   0  0  0  0  0  0  0  0  0  0  0  0
    2.8889   -1.1924    1.3212 O   0  0  0  0  0  0  0  0  0  0  0  0
    3.9899   -3.0983    2.5127 C   0  0  0  0  0  0  0  0  0  0  0  0
    5.1990   -3.9619    1.9893 C   0  0  2  0  0  0  0  0  0  0  0  0
    5.4163   -3.2317    0.7136 C   0  0  1  0  0  0  0  0  0  0  0  0
    6.4791   -2.1332    1.0036 C   0  0  0  0  0  0  0  0  0  0  0  0
    4.9893   -3.0477   -3.9978 H   0  0  0  0  0  0  0  0  0  0  0  0
    3.4160   -2.9855   -4.7665 H   0  0  0  0  0  0  0  0  0  0  0  0
    3.8937   -4.4054   -3.8774 H   0  0  0  0  0  0  0  0  0  0  0  0
    2.3715   -3.2021   -2.3895 H   0  0  0  0  0  0  0  0  0  0  0  0
    2.9064   -1.0072   -3.9697 H   0  0  0  0  0  0  0  0  0  0  0  0
    2.1865   -0.8423   -2.3135 H   0  0  0  0  0  0  0  0  0  0  0  0
    4.9504   -4.7900   -1.9578 H   0  0  0  0  0  0  0  0  0  0  0  0
    6.2092   -3.6186   -2.1652 H   0  0  0  0  0  0  0  0  0  0  0  0
    7.0350   -4.3166   -0.1235 H   0  0  0  0  0  0  0  0  0  0  0  0
    7.4265   -5.5624    1.8162 H   0  0  0  0  0  0  0  0  0  0  0  0
    6.8301   -6.8920    0.8527 H   0  0  0  0  0  0  0  0  0  0  0  0
    6.2368   -6.6541    2.5050 H   0  0  0  0  0  0  0  0  0  0  0  0
    2.0957   -6.0821    0.5488 H   0  0  0  0  0  0  0  0  0  0  0  0
    2.5941   -5.1731    1.9092 H   0  0  0  0  0  0  0  0  0  0  0  0
    2.9316   -4.6598   -1.0148 H   0  0  0  0  0  0  0  0  0  0  0  0
    1.8846   -3.7415   -0.0573 H   0  0  0  0  0  0  0  0  0  0  0  0
    4.3407   -2.3814    3.2671 H   0  0  0  0  0  0  0  0  0  0  0  0
    3.1848   -3.6690    2.9700 H   0  0  0  0  0  0  0  0  0  0  0  0
    6.0438   -3.8787    2.6572 H   0  0  0  0  0  0  0  0  0  0  0  0
    6.0531   -1.1774    1.3298 H   0  0  0  0  0  0  0  0  0  0  0  0
    7.1535   -1.9603    0.1534 H   0  0  0  0  0  0  0  0  0  0  0  0
    7.1891   -2.4357    1.7105 H   0  0  0  0  0  0  0  0  0  0  0  0
  1  2  1  0
  1 23  1  0
  1 24  1  0
  1 25  1  0
  2  7  1  0
  2  3  1  0
  2 26  1  1
  3  4  1  0
  3 27  1  0
  3 28  1  0
  4  5  1  0
  5  6  2  0
  5  7  1  0
  7 16  1  0
  7  8  1  6
  8  9  1  0
  8 29  1  0
  8 30  1  0
  9 21  1  0
  9 10  1  0
  9 31  1  6
 10 20  1  0
 10 11  1  1
 10 12  1  0
 11 32  1  0
 11 33  1  0
 11 34  1  0
 12 13  2  0
 12 14  1  0
 14 15  1  0
 14 35  1  0
 14 36  1  0
 16 15  1  6
 15 37  1  0
 15 38  1  0
 16 21  1  0
 16 17  1  0
 17 18  2  0
 17 19  1  0
 19 20  1  0
 19 39  1  0
 19 40  1  0
 20 21  1  0
 20 41  1  1
 21 22  1  1
 22 42  1  0
 22 43  1  0
 22 44  1  0
M  END
>  <i_m_ct_stereo_status>  (200) 
1

>  <s_m_source_file>  (200) 
/var/tmp/pbs.5076255.sched01/tmppxgjifq_/8475v0iq0b.sdf

>  <i_m_source_file_index>  (200) 
2

>  <i_lp_mmshare_version>  (200) 
48012

>  <i_f3d_flags>  (200) 
0

>  <s_epik_input>  (200) 
Tz1DMU9bQ0gyXVtDQEBIXShbQ0gzXSlbQ0BdMTJbQ0BdMzRbQ0BdNShbQ0gzXSlbQ0BIXShbQ0gyXTIpW0NAXShbQ0gzXSkoQyg9TylbQ0gyXVtDSDJdMylbQ0BASF01W0NIMl1DND1P

>  <s_epik_cmdline>  (200) 
J2VwaWtfcHl0aG9uJywgJy1waHQnLCAnMi4wJywgJy1waCcsICc3LjAnLCAnLXRuJywgJzgnLCAnLW1hJywgJzIwMCcsICctaW1hZScsICc8aW5maWxlLm1hZT4nLCAnLW9tYWUnLCAnPG91dGZpbGUubWFlPic=

>  <r_lp_tautomer_probability>  (200) 
1

>  <r_epik_Ionization_Penalty>  (200) 
5.10183e-13

>  <r_epik_Ionization_Penalty_Charging>  (200) 
0

>  <r_epik_Ionization_Penalty_Neutral>  (200) 
5.10183e-13

>  <r_epik_State_Penalty>  (200) 
-0

>  <r_epik_Charging_Adjusted_Penalty>  (200) 
0

>  <i_epik_Tot_Q>  (200) 
0

>  <i_epik_Tot_abs_Q>  (200) 
0

>  <s_epik_Chemistry_Notes>  (200) 
This compound has an ester and may undergo hydrolysis at high or low pH.

>  <s_lp_Force_Field>  (200) 
OPLS3e

>  <r_lp_Energy>  (200) 
104.486

>  <b_lp_Chiralities_Consistent>  (200) 
1

>  <s_lp_Variant>  (200) 
58:0-1

>  <s_i_glide_gridfile>  (200) 
pfpi4k_grid

>  <i_i_glide_lignum>  (200) 
2

>  <i_i_glide_rotatable_bonds>  (200) 
0

>  <r_i_docking_score>  (200) 
-3.21639

>  <r_i_glide_ligand_efficiency>  (200) 
-0.1462

>  <r_i_glide_ligand_efficiency_sa>  (200) 
-0.409657

>  <r_i_glide_ligand_efficiency_ln>  (200) 
-0.786203

>  <r_i_glide_gscore>  (200) 
-3.21639

>  <r_i_glide_lipo>  (200) 
-0.467367

>  <r_i_glide_hbond>  (200) 
-0.0371673

>  <r_i_glide_metal>  (200) 
-0

>  <r_i_glide_rewards>  (200) 
-1.47718

>  <r_i_glide_evdw>  (200) 
-18.9971

>  <r_i_glide_ecoul>  (200) 
-1.48886

>  <r_i_glide_erotb>  (200) 
0

>  <r_i_glide_esite>  (200) 
-0.0614864

>  <r_i_glide_emodel>  (200) 
-21.4501

>  <r_i_glide_energy>  (200) 
-20.486

>  <r_i_glide_einternal>  (200) 
0

>  <r_i_glide_intrahb_reward>  (200) 
-0

>  <i_i_glide_confnum>  (200) 
1

>  <i_i_glide_posenum>  (200) 
38

>  <r_i_glide_eff_state_penalty>  (200) 
0

>  <ligand_id>  (200) 
58

>  <original_smiles>  (200) 
CC1COC(=O)C12CC1C3(C)C(=O)CCC24C(=O)CC3C14C

>  <smiles>  (200) 
[H]C([H])([H])C1([H])C([H])([H])OC(=O)C12C([H])([H])C1([H])C3(C([H])([H])[H])C(=O)C([H])([H])C([H])([H])C24C(=O)C([H])([H])C3([H])C14C([H])([H])[H]

$$$$
59:0:0
     RDKit          3D

 86 92  0  0  1  0  0  0  0  0999 V2000
    1.5584    0.8715   11.6054 C   0  0  0  0  0  0  0  0  0  0  0  0
    0.3626    0.9679   10.7994 O   0  0  0  0  0  0  0  0  0  0  0  0
    0.1852    2.1968   10.0709 C   0  0  0  0  0  0  0  0  0  0  0  0
    1.1389    2.4458    8.8265 C   0  0  1  0  0  0  0  0  0  0  0  0
    1.3305    4.0311    8.7369 C   0  0  0  0  0  0  0  0  0  0  0  0
    2.4918    4.2943    7.8104 C   0  0  2  0  0  0  0  0  0  0  0  0
    2.1022    4.8835    6.3883 C   0  0  2  0  0  0  0  0  0  0  0  0
    3.5812    4.6277    5.8811 C   0  0  0  0  0  0  0  0  0  0  0  0
    2.0945    6.3414    5.7194 C   0  0  0  0  0  0  0  0  0  0  0  0
    2.1990    6.3988    4.0456 C   0  0  0  0  0  0  0  0  0  0  0  0
    1.5963    5.2440    2.9911 C   0  0  0  0  0  0  0  0  0  0  0  0
    1.4866    3.7615    3.6627 C   0  0  1  0  0  0  0  0  0  0  0  0
    3.0148    3.5866    3.2922 C   0  0  0  0  0  0  0  0  0  0  0  0
    0.3885    4.5098    4.5475 C   0  0  1  0  0  0  0  0  0  0  0  0
   -1.0321    4.7116    3.8178 C   0  0  0  0  0  0  0  0  0  0  0  0
    0.7058    4.1462    5.9701 C   0  0  2  0  0  0  0  0  0  0  0  0
   -0.7009    3.7540    6.7665 C   0  0  0  0  0  0  0  0  0  0  0  0
   -1.1861    2.2183    6.8328 C   0  0  0  0  0  0  0  0  0  0  0  0
   -0.0502    1.3757    6.2254 C   0  0  2  0  0  0  0  0  0  0  0  0
    0.0142   -0.0757    5.6656 C   0  0  0  0  0  0  0  0  0  0  0  0
   -0.8267   -0.9405    5.9853 O   0  0  0  0  0  0  0  0  0  0  0  0
    1.0520   -0.2422    4.7983 N   0  0  0  0  0  0  0  0  0  0  0  0
    1.3415   -1.5575    4.1790 C   0  0  0  0  0  0  0  0  0  0  0  0
    1.8762    0.9647    4.3601 C   0  0  2  0  0  0  0  0  0  0  0  0
    2.9231    1.2124    5.5238 C   0  0  0  0  0  0  0  0  0  0  0  0
    2.5535    1.6101    6.9855 C   0  0  1  0  0  0  0  0  0  0  0  0
    3.1711    2.8044    7.8654 C   0  0  1  0  0  0  0  0  0  0  0  0
    4.7229    2.7746    8.0049 C   0  0  0  0  0  0  0  0  0  0  0  0
    2.6288    2.3272    9.1779 C   0  0  0  0  0  0  0  0  0  0  0  0
    1.0954    1.3951    7.4905 C   0  0  1  0  0  0  0  0  0  0  0  0
    1.0505   -0.0511    8.2076 C   0  0  0  0  0  0  0  0  0  0  0  0
   -0.2387   -0.4043    8.7349 O   0  0  0  0  0  0  0  0  0  0  0  0
    0.9451    2.1539    3.6670 C   0  0  2  0  0  0  0  0  0  0  0  0
    0.6407    1.7387    2.1777 C   0  0  0  0  0  0  0  0  0  0  0  0
    0.3534    0.3548    1.9684 O   0  0  0  0  0  0  0  0  0  0  0  0
   -0.2844    1.9056    4.6624 C   0  0  1  0  0  0  0  0  0  0  0  0
   -1.4097    1.3152    3.9712 O   0  0  0  0  0  0  0  0  0  0  0  0
    1.5553   -0.1549   12.0131 H   0  0  0  0  0  0  0  0  0  0  0  0
    1.5192    1.6243   12.4177 H   0  0  0  0  0  0  0  0  0  0  0  0
    2.4676    0.9263   11.0886 H   0  0  0  0  0  0  0  0  0  0  0  0
   -0.8576    2.2209    9.7462 H   0  0  0  0  0  0  0  0  0  0  0  0
    0.2262    3.0340   10.7805 H   0  0  0  0  0  0  0  0  0  0  0  0
    0.5431    4.7617    8.6527 H   0  0  0  0  0  0  0  0  0  0  0  0
    1.6166    4.3879    9.7309 H   0  0  0  0  0  0  0  0  0  0  0  0
    3.1326    5.0053    8.3430 H   0  0  0  0  0  0  0  0  0  0  0  0
    4.0047    5.2340    5.1019 H   0  0  0  0  0  0  0  0  0  0  0  0
    3.8174    3.6179    5.6275 H   0  0  0  0  0  0  0  0  0  0  0  0
    4.3283    4.9319    6.6178 H   0  0  0  0  0  0  0  0  0  0  0  0
    1.2002    6.8634    6.0602 H   0  0  0  0  0  0  0  0  0  0  0  0
    2.8921    6.9520    6.1384 H   0  0  0  0  0  0  0  0  0  0  0  0
    1.7273    7.3340    3.7593 H   0  0  0  0  0  0  0  0  0  0  0  0
    3.2271    6.5994    3.7597 H   0  0  0  0  0  0  0  0  0  0  0  0
    0.7124    5.6368    2.4968 H   0  0  0  0  0  0  0  0  0  0  0  0
    2.2045    5.2918    2.0853 H   0  0  0  0  0  0  0  0  0  0  0  0
    3.5417    2.7492    3.6848 H   0  0  0  0  0  0  0  0  0  0  0  0
    3.7083    4.4244    3.3272 H   0  0  0  0  0  0  0  0  0  0  0  0
    3.0524    3.3386    2.2290 H   0  0  0  0  0  0  0  0  0  0  0  0
    0.2367    5.5625    4.7111 H   0  0  0  0  0  0  0  0  0  0  0  0
   -1.1291    4.0544    2.9571 H   0  0  0  0  0  0  0  0  0  0  0  0
   -1.1518    5.7062    3.3831 H   0  0  0  0  0  0  0  0  0  0  0  0
   -1.9348    4.5631    4.3979 H   0  0  0  0  0  0  0  0  0  0  0  0
    1.2539    3.2472    5.8959 H   0  0  0  0  0  0  0  0  0  0  0  0
   -0.9634    4.2015    7.7078 H   0  0  0  0  0  0  0  0  0  0  0  0
   -1.5128    4.2687    6.2879 H   0  0  0  0  0  0  0  0  0  0  0  0
   -1.4111    1.8794    7.8331 H   0  0  0  0  0  0  0  0  0  0  0  0
   -2.1468    2.0710    6.3238 H   0  0  0  0  0  0  0  0  0  0  0  0
    0.6726   -2.3434    4.5394 H   0  0  0  0  0  0  0  0  0  0  0  0
    2.3737   -1.8544    4.3669 H   0  0  0  0  0  0  0  0  0  0  0  0
    1.2111   -1.5453    3.1007 H   0  0  0  0  0  0  0  0  0  0  0  0
    2.5068    0.6107    3.5494 H   0  0  0  0  0  0  0  0  0  0  0  0
    3.3349    0.2047    5.6181 H   0  0  0  0  0  0  0  0  0  0  0  0
    3.8648    1.6489    5.2530 H   0  0  0  0  0  0  0  0  0  0  0  0
    3.0956    0.7674    7.4072 H   0  0  0  0  0  0  0  0  0  0  0  0
    5.0598    1.8551    8.4902 H   0  0  0  0  0  0  0  0  0  0  0  0
    5.0863    3.5878    8.6353 H   0  0  0  0  0  0  0  0  0  0  0  0
    5.2590    2.8134    7.0597 H   0  0  0  0  0  0  0  0  0  0  0  0
    2.9788    2.9194   10.0331 H   0  0  0  0  0  0  0  0  0  0  0  0
    3.0471    1.3519    9.4062 H   0  0  0  0  0  0  0  0  0  0  0  0
    1.3545   -0.8863    7.5631 H   0  0  0  0  0  0  0  0  0  0  0  0
    1.7665   -0.1648    9.0056 H   0  0  0  0  0  0  0  0  0  0  0  0
   -0.2404    0.0664    9.6189 H   0  0  0  0  0  0  0  0  0  0  0  0
   -0.2185    2.2850    1.7754 H   0  0  0  0  0  0  0  0  0  0  0  0
    1.4948    1.9621    1.5312 H   0  0  0  0  0  0  0  0  0  0  0  0
    0.3648    0.1707    1.0535 H   0  0  0  0  0  0  0  0  0  0  0  0
   -1.0005    2.6764    4.6713 H   0  0  0  0  0  0  0  0  0  0  0  0
   -1.5215    1.7589    3.1631 H   0  0  0  0  0  0  0  0  0  0  0  0
  1  2  1  0
  1 38  1  0
  1 39  1  0
  1 40  1  0
  2  3  1  0
  4  3  1  1
  3 41  1  0
  3 42  1  0
  4 29  1  0
  4 30  1  0
  4  5  1  0
  5  6  1  0
  5 43  1  0
  5 44  1  0
  6 27  1  0
  6  7  1  0
  6 45  1  1
  7 16  1  0
  7  8  1  6
  7  9  1  0
  8 46  1  0
  8 47  1  0
  8 48  1  0
  9 10  1  0
  9 49  1  0
  9 50  1  0
 10 11  1  0
 10 51  1  0
 10 52  1  0
 11 12  1  0
 11 53  1  0
 11 54  1  0
 12 33  1  0
 12 13  1  1
 12 14  1  0
 13 55  1  0
 13 56  1  0
 13 57  1  0
 14 15  1  0
 14 16  1  0
 14 58  1  1
 15 59  1  0
 15 60  1  0
 15 61  1  0
 16 17  1  0
 16 62  1  6
 17 18  1  0
 17 63  1  0
 17 64  1  0
 19 18  1  1
 18 65  1  0
 18 66  1  0
 19 30  1  0
 19 36  1  0
 19 20  1  0
 20 21  2  0
 20 22  1  0
 22 23  1  0
 22 24  1  0
 23 67  1  0
 23 68  1  0
 23 69  1  0
 24 25  1  0
 24 33  1  0
 24 70  1  6
 25 26  1  0
 25 71  1  0
 25 72  1  0
 26 27  1  0
 26 30  1  0
 26 73  1  1
 27 28  1  1
 27 29  1  0
 28 74  1  0
 28 75  1  0
 28 76  1  0
 29 77  1  0
 29 78  1  0
 30 31  1  1
 31 32  1  0
 31 79  1  0
 31 80  1  0
 32 81  1  0
 33 34  1  6
 33 36  1  0
 34 35  1  0
 34 82  1  0
 34 83  1  0
 35 84  1  0
 36 37  1  0
 36 85  1  1
 37 86  1  0
M  END
>  <i_m_ct_stereo_status>  (201) 
1

>  <s_m_source_file>  (201) 
/var/tmp/pbs.5076255.sched01/tmppxgjifq_/8475v0iq0b.sdf

>  <i_m_source_file_index>  (201) 
3

>  <i_lp_mmshare_version>  (201) 
48012

>  <i_f3d_flags>  (201) 
0

>  <s_epik_input>  (201) 
W0NIM11PW0NIMl1bQ0BAXTEoW0NAXTIoW0NAXTM0NSlbQ0gyXVtPSF0pW0NIMl1bQ0BASF02QzcoW0NIM10pW0NAQEhdKFtDSDJdW0NIMl0zKVtDQEhdKFtDSDNdKVtDQF0oW0NIM10pKFtDSDJdW0NIMl1bQ0gyXTcpW0NAXShbQ0gyXVtPSF0pKFtDQEhdNVtPSF0pW0NASF0oTihDND1PKVtDSDNdKVtDSDJdW0NASF0yW0NAXTYoW0NIM10pW0NIMl0x

>  <s_epik_cmdline>  (201) 
J2VwaWtfcHl0aG9uJywgJy1waHQnLCAnMi4wJywgJy1waCcsICc3LjAnLCAnLXRuJywgJzgnLCAnLW1hJywgJzIwMCcsICctaW1hZScsICc8aW5maWxlLm1hZT4nLCAnLW9tYWUnLCAnPG91dGZpbGUubWFlPic=

>  <r_lp_tautomer_probability>  (201) 
1

>  <r_epik_Ionization_Penalty>  (201) 
5.08163e-07

>  <r_epik_Ionization_Penalty_Charging>  (201) 
0

>  <r_epik_Ionization_Penalty_Neutral>  (201) 
5.08163e-07

>  <r_epik_State_Penalty>  (201) 
-0

>  <r_epik_Charging_Adjusted_Penalty>  (201) 
0

>  <i_epik_Tot_Q>  (201) 
0

>  <i_epik_Tot_abs_Q>  (201) 
0

>  <s_lp_Force_Field>  (201) 
OPLS3e

>  <r_lp_Energy>  (201) 
601.867

>  <b_lp_Chiralities_Consistent>  (201) 
1

>  <s_lp_Variant>  (201) 
59:0-1

>  <s_i_glide_gridfile>  (201) 
pfpi4k_grid

>  <i_i_glide_lignum>  (201) 
3

>  <i_i_glide_rotatable_bonds>  (201) 
7

>  <r_i_docking_score>  (201) 
-1.99491

>  <r_i_glide_ligand_efficiency>  (201) 
-0.0539164

>  <r_i_glide_ligand_efficiency_sa>  (201) 
-0.179661

>  <r_i_glide_ligand_efficiency_ln>  (201) 
-0.432648

>  <r_i_glide_gscore>  (201) 
-1.99491

>  <r_i_glide_lipo>  (201) 
0

>  <r_i_glide_hbond>  (201) 
0

>  <r_i_glide_metal>  (201) 
-0

>  <r_i_glide_rewards>  (201) 
-0.5

>  <r_i_glide_evdw>  (201) 
-18.1024

>  <r_i_glide_ecoul>  (201) 
-5.35949

>  <r_i_glide_erotb>  (201) 
0.231464

>  <r_i_glide_esite>  (201) 
-0.0173285

>  <r_i_glide_emodel>  (201) 
-27.4073

>  <r_i_glide_energy>  (201) 
-23.4618

>  <r_i_glide_einternal>  (201) 
6.15949

>  <r_i_glide_intrahb_reward>  (201) 
-0.5

>  <i_i_glide_confnum>  (201) 
2

>  <i_i_glide_posenum>  (201) 
40

>  <r_i_glide_eff_state_penalty>  (201) 
0

>  <ligand_id>  (201) 
59

>  <original_smiles>  (201) 
COCC12CC3C4(C)CCCC5(C)C(C)C4CCC46C(=O)N(C)C(CC(C3(C)C1)C24CO)C5(CO)C6O

>  <smiles>  (201) 
[H]OC([H])([H])C12C([H])(O[H])C34C(=O)N(C([H])([H])[H])C1([H])C([H])([H])C1([H])C5(C([H])([H])[H])C([H])([H])C(C([H])([H])OC([H])([H])[H])(C([H])([H])C5([H])C5(C([H])([H])[H])C([H])([H])C([H])([H])C([H])([H])C2(C([H])([H])[H])C([H])(C([H])([H])[H])C5([H])C([H])([H])C3([H])[H])C14C([H])([H])O[H]

$$$$
59:0:1
     RDKit          3D

 86 92  0  0  1  0  0  0  0  0999 V2000
   -3.5427    3.3825    2.8418 C   0  0  0  0  0  0  0  0  0  0  0  0
   -2.5941    4.3997    3.2180 O   0  0  0  0  0  0  0  0  0  0  0  0
   -1.2398    3.9581    3.2096 C   0  0  0  0  0  0  0  0  0  0  0  0
   -0.7894    3.3286    4.5732 C   0  0  1  0  0  0  0  0  0  0  0  0
   -0.4896    4.5386    5.5517 C   0  0  0  0  0  0  0  0  0  0  0  0
   -0.3815    3.9697    6.9353 C   0  0  2  0  0  0  0  0  0  0  0  0
    1.0884    3.9287    7.5334 C   0  0  2  0  0  0  0  0  0  0  0  0
    0.5829    3.0313    8.7340 C   0  0  0  0  0  0  0  0  0  0  0  0
    1.9498    4.8361    8.5459 C   0  0  0  0  0  0  0  0  0  0  0  0
    3.2250    4.0808    9.3477 C   0  0  0  0  0  0  0  0  0  0  0  0
    4.1491    2.8155    8.7449 C   0  0  0  0  0  0  0  0  0  0  0  0
    3.3430    1.9263    7.6463 C   0  0  1  0  0  0  0  0  0  0  0  0
    2.6970    1.1575    8.8780 C   0  0  0  0  0  0  0  0  0  0  0  0
    3.4507    3.2960    6.8201 C   0  0  1  0  0  0  0  0  0  0  0  0
    4.8866    3.5714    6.1462 C   0  0  0  0  0  0  0  0  0  0  0  0
    2.0703    3.5557    6.2878 C   0  0  2  0  0  0  0  0  0  0  0  0
    2.1659    4.0352    4.6905 C   0  0  0  0  0  0  0  0  0  0  0  0
    2.0246    2.9469    3.5147 C   0  0  0  0  0  0  0  0  0  0  0  0
    1.6787    1.6187    4.2009 C   0  0  2  0  0  0  0  0  0  0  0  0
    1.7636    0.1262    3.7460 C   0  0  0  0  0  0  0  0  0  0  0  0
    1.8008   -0.1943    2.5472 O   0  0  0  0  0  0  0  0  0  0  0  0
    1.8299   -0.7433    4.8125 N   0  0  0  0  0  0  0  0  0  0  0  0
    1.8934   -2.1914    4.6298 C   0  0  0  0  0  0  0  0  0  0  0  0
    1.9520   -0.1845    6.2213 C   0  0  2  0  0  0  0  0  0  0  0  0
    0.4863    0.2308    6.6409 C   0  0  0  0  0  0  0  0  0  0  0  0
   -0.3652    1.3535    5.9439 C   0  0  1  0  0  0  0  0  0  0  0  0
   -1.1421    2.5470    6.6757 C   0  0  1  0  0  0  0  0  0  0  0  0
   -2.1526    2.1040    7.7751 C   0  0  0  0  0  0  0  0  0  0  0  0
   -1.9923    2.9245    5.4637 C   0  0  0  0  0  0  0  0  0  0  0  0
    0.0337    1.8575    4.5479 C   0  0  1  0  0  0  0  0  0  0  0  0
   -0.8218    0.9818    3.4973 C   0  0  0  0  0  0  0  0  0  0  0  0
   -0.5843    1.2355    2.1135 O   0  0  0  0  0  0  0  0  0  0  0  0
    3.2885    0.7782    6.4043 C   0  0  2  0  0  0  0  0  0  0  0  0
    4.5296   -0.1735    6.5179 C   0  0  0  0  0  0  0  0  0  0  0  0
    4.5895   -0.9455    7.6982 O   0  0  0  0  0  0  0  0  0  0  0  0
    3.1679    1.4000    4.9349 C   0  0  1  0  0  0  0  0  0  0  0  0
    4.2269    0.9047    4.0806 O   0  0  0  0  0  0  0  0  0  0  0  0
   -4.5540    3.8172    2.7940 H   0  0  0  0  0  0  0  0  0  0  0  0
   -3.5640    2.5645    3.5433 H   0  0  0  0  0  0  0  0  0  0  0  0
   -3.3466    3.0052    1.8272 H   0  0  0  0  0  0  0  0  0  0  0  0
   -1.0983    3.3447    2.3196 H   0  0  0  0  0  0  0  0  0  0  0  0
   -0.6176    4.8431    3.0577 H   0  0  0  0  0  0  0  0  0  0  0  0
    0.1902    5.3553    5.3797 H   0  0  0  0  0  0  0  0  0  0  0  0
   -1.3491    5.2020    5.5320 H   0  0  0  0  0  0  0  0  0  0  0  0
   -0.9950    4.6137    7.5739 H   0  0  0  0  0  0  0  0  0  0  0  0
    1.0788    3.0561    9.6872 H   0  0  0  0  0  0  0  0  0  0  0  0
    0.4237    2.0033    8.5057 H   0  0  0  0  0  0  0  0  0  0  0  0
   -0.3550    3.3991    9.1523 H   0  0  0  0  0  0  0  0  0  0  0  0
    2.3172    5.7062    7.9971 H   0  0  0  0  0  0  0  0  0  0  0  0
    1.2983    5.2838    9.2970 H   0  0  0  0  0  0  0  0  0  0  0  0
    3.9282    4.8760    9.5806 H   0  0  0  0  0  0  0  0  0  0  0  0
    2.8940    3.7934   10.3435 H   0  0  0  0  0  0  0  0  0  0  0  0
    5.1341    3.1720    8.4591 H   0  0  0  0  0  0  0  0  0  0  0  0
    4.5239    2.2543    9.6004 H   0  0  0  0  0  0  0  0  0  0  0  0
    1.9080    0.4719    8.6801 H   0  0  0  0  0  0  0  0  0  0  0  0
    2.4530    1.6696    9.8016 H   0  0  0  0  0  0  0  0  0  0  0  0
    3.4391    0.4643    9.2712 H   0  0  0  0  0  0  0  0  0  0  0  0
    3.6416    4.3025    7.1595 H   0  0  0  0  0  0  0  0  0  0  0  0
    5.4720    2.6548    6.0866 H   0  0  0  0  0  0  0  0  0  0  0  0
    5.5140    4.2622    6.7187 H   0  0  0  0  0  0  0  0  0  0  0  0
    4.9104    4.0163    5.1617 H   0  0  0  0  0  0  0  0  0  0  0  0
    1.6090    2.6072    6.2807 H   0  0  0  0  0  0  0  0  0  0  0  0
    1.6751    4.9240    4.3396 H   0  0  0  0  0  0  0  0  0  0  0  0
    3.1261    4.4971    4.5409 H   0  0  0  0  0  0  0  0  0  0  0  0
    1.2665    3.2453    2.7991 H   0  0  0  0  0  0  0  0  0  0  0  0
    2.9309    2.8973    2.9096 H   0  0  0  0  0  0  0  0  0  0  0  0
    1.8066   -2.4830    3.5866 H   0  0  0  0  0  0  0  0  0  0  0  0
    1.0884   -2.6784    5.1746 H   0  0  0  0  0  0  0  0  0  0  0  0
    2.8438   -2.5678    4.9979 H   0  0  0  0  0  0  0  0  0  0  0  0
    2.1552   -1.0560    6.8444 H   0  0  0  0  0  0  0  0  0  0  0  0
   -0.0412   -0.6913    6.3810 H   0  0  0  0  0  0  0  0  0  0  0  0
    0.2604    0.1820    7.6896 H   0  0  0  0  0  0  0  0  0  0  0  0
   -1.2121    0.6974    5.7440 H   0  0  0  0  0  0  0  0  0  0  0  0
   -2.9310    1.4689    7.3549 H   0  0  0  0  0  0  0  0  0  0  0  0
   -2.6667    2.9654    8.2057 H   0  0  0  0  0  0  0  0  0  0  0  0
   -1.7068    1.5458    8.5991 H   0  0  0  0  0  0  0  0  0  0  0  0
   -2.7096    3.7105    5.7267 H   0  0  0  0  0  0  0  0  0  0  0  0
   -2.6096    2.1235    5.1046 H   0  0  0  0  0  0  0  0  0  0  0  0
   -0.7287   -0.0920    3.7114 H   0  0  0  0  0  0  0  0  0  0  0  0
   -1.8912    1.1165    3.5818 H   0  0  0  0  0  0  0  0  0  0  0  0
    0.3214    1.1252    1.9024 H   0  0  0  0  0  0  0  0  0  0  0  0
    4.5139   -0.9105    5.7198 H   0  0  0  0  0  0  0  0  0  0  0  0
    5.4650    0.3781    6.4232 H   0  0  0  0  0  0  0  0  0  0  0  0
    4.6651   -0.3580    8.4402 H   0  0  0  0  0  0  0  0  0  0  0  0
    3.7423    2.2615    4.7725 H   0  0  0  0  0  0  0  0  0  0  0  0
    4.3527    1.5214    3.3818 H   0  0  0  0  0  0  0  0  0  0  0  0
  1  2  1  0
  1 38  1  0
  1 39  1  0
  1 40  1  0
  2  3  1  0
  4  3  1  6
  3 41  1  0
  3 42  1  0
  4 29  1  0
  4 30  1  0
  4  5  1  0
  5  6  1  0
  5 43  1  0
  5 44  1  0
  6 27  1  0
  6  7  1  0
  6 45  1  1
  7 16  1  0
  7  8  1  1
  7  9  1  0
  8 46  1  0
  8 47  1  0
  8 48  1  0
  9 10  1  0
  9 49  1  0
  9 50  1  0
 10 11  1  0
 10 51  1  0
 10 52  1  0
 11 12  1  0
 11 53  1  0
 11 54  1  0
 12 33  1  0
 12 13  1  1
 12 14  1  0
 13 55  1  0
 13 56  1  0
 13 57  1  0
 14 15  1  0
 14 16  1  0
 14 58  1  1
 15 59  1  0
 15 60  1  0
 15 61  1  0
 16 17  1  0
 16 62  1  6
 17 18  1  0
 17 63  1  0
 17 64  1  0
 19 18  1  6
 18 65  1  0
 18 66  1  0
 19 30  1  0
 19 36  1  0
 19 20  1  0
 20 21  2  0
 20 22  1  0
 22 23  1  0
 22 24  1  0
 23 67  1  0
 23 68  1  0
 23 69  1  0
 24 25  1  0
 24 33  1  0
 24 70  1  1
 25 26  1  0
 25 71  1  0
 25 72  1  0
 26 27  1  0
 26 30  1  0
 26 73  1  6
 27 28  1  1
 27 29  1  0
 28 74  1  0
 28 75  1  0
 28 76  1  0
 29 77  1  0
 29 78  1  0
 30 31  1  6
 31 32  1  0
 31 79  1  0
 31 80  1  0
 32 81  1  0
 33 34  1  6
 33 36  1  0
 34 35  1  0
 34 82  1  0
 34 83  1  0
 35 84  1  0
 36 37  1  0
 36 85  1  1
 37 86  1  0
M  END
>  <i_m_ct_stereo_status>  (202) 
1

>  <s_m_source_file>  (202) 
/var/tmp/pbs.5076255.sched01/tmppxgjifq_/8475v0iq0b.sdf

>  <i_m_source_file_index>  (202) 
3

>  <i_lp_mmshare_version>  (202) 
48012

>  <i_f3d_flags>  (202) 
0

>  <s_epik_input>  (202) 
W0NIM11PW0NIMl1bQ0BAXTEoW0NAXTIoW0NAXTM0NSlbQ0gyXVtPSF0pW0NIMl1bQ0BASF02QzcoW0NIM10pW0NAQEhdKFtDSDJdW0NIMl0zKVtDQEhdKFtDSDNdKVtDQF0oW0NIM10pKFtDSDJdW0NIMl1bQ0gyXTcpW0NAXShbQ0gyXVtPSF0pKFtDQEhdNVtPSF0pW0NASF0oTihDND1PKVtDSDNdKVtDSDJdW0NASF0yW0NAXTYoW0NIM10pW0NIMl0x

>  <s_epik_cmdline>  (202) 
J2VwaWtfcHl0aG9uJywgJy1waHQnLCAnMi4wJywgJy1waCcsICc3LjAnLCAnLXRuJywgJzgnLCAnLW1hJywgJzIwMCcsICctaW1hZScsICc8aW5maWxlLm1hZT4nLCAnLW9tYWUnLCAnPG91dGZpbGUubWFlPic=

>  <r_lp_tautomer_probability>  (202) 
1

>  <r_epik_Ionization_Penalty>  (202) 
5.08163e-07

>  <r_epik_Ionization_Penalty_Charging>  (202) 
0

>  <r_epik_Ionization_Penalty_Neutral>  (202) 
5.08163e-07

>  <r_epik_State_Penalty>  (202) 
-0

>  <r_epik_Charging_Adjusted_Penalty>  (202) 
0

>  <i_epik_Tot_Q>  (202) 
0

>  <i_epik_Tot_abs_Q>  (202) 
0

>  <s_lp_Force_Field>  (202) 
OPLS3e

>  <r_lp_Energy>  (202) 
601.867

>  <b_lp_Chiralities_Consistent>  (202) 
1

>  <s_lp_Variant>  (202) 
59:0-1

>  <s_i_glide_gridfile>  (202) 
pfpi4k_grid

>  <i_i_glide_lignum>  (202) 
3

>  <i_i_glide_rotatable_bonds>  (202) 
7

>  <r_i_docking_score>  (202) 
-1.94211

>  <r_i_glide_ligand_efficiency>  (202) 
-0.0524894

>  <r_i_glide_ligand_efficiency_sa>  (202) 
-0.174906

>  <r_i_glide_ligand_efficiency_ln>  (202) 
-0.421198

>  <r_i_glide_gscore>  (202) 
-1.94211

>  <r_i_glide_lipo>  (202) 
-0.0382705

>  <r_i_glide_hbond>  (202) 
-0.158844

>  <r_i_glide_metal>  (202) 
-0

>  <r_i_glide_rewards>  (202) 
-0.5

>  <r_i_glide_evdw>  (202) 
-21.0835

>  <r_i_glide_ecoul>  (202) 
-2.78748

>  <r_i_glide_erotb>  (202) 
0.231464

>  <r_i_glide_esite>  (202) 
-0.00415786

>  <r_i_glide_emodel>  (202) 
-29.5525

>  <r_i_glide_energy>  (202) 
-23.871

>  <r_i_glide_einternal>  (202) 
4.81938

>  <r_i_glide_intrahb_reward>  (202) 
-0.5

>  <i_i_glide_confnum>  (202) 
1

>  <i_i_glide_posenum>  (202) 
29

>  <r_i_glide_eff_state_penalty>  (202) 
0

>  <ligand_id>  (202) 
59

>  <original_smiles>  (202) 
COCC12CC3C4(C)CCCC5(C)C(C)C4CCC46C(=O)N(C)C(CC(C3(C)C1)C24CO)C5(CO)C6O

>  <smiles>  (202) 
[H]OC([H])([H])C12C([H])(O[H])C34C(=O)N(C([H])([H])[H])C1([H])C([H])([H])C1([H])C5(C([H])([H])[H])C([H])([H])C(C([H])([H])OC([H])([H])[H])(C([H])([H])C5([H])C5(C([H])([H])[H])C([H])([H])C([H])([H])C([H])([H])C2(C([H])([H])[H])C([H])(C([H])([H])[H])C5([H])C([H])([H])C3([H])[H])C14C([H])([H])O[H]

$$$$
59:0:2
     RDKit          3D

 86 92  0  0  1  0  0  0  0  0999 V2000
   -3.0877    3.0480   10.4203 C   0  0  0  0  0  0  0  0  0  0  0  0
   -2.0410    3.0179    9.4650 O   0  0  0  0  0  0  0  0  0  0  0  0
   -0.8325    2.4467    9.9240 C   0  0  0  0  0  0  0  0  0  0  0  0
    0.3048    2.5973    8.8449 C   0  0  1  0  0  0  0  0  0  0  0  0
    0.6419    4.1390    8.7756 C   0  0  0  0  0  0  0  0  0  0  0  0
    1.9358    4.2644    8.0221 C   0  0  2  0  0  0  0  0  0  0  0  0
    1.8007    4.8560    6.5515 C   0  0  2  0  0  0  0  0  0  0  0  0
    3.3014    4.4820    6.2484 C   0  0  0  0  0  0  0  0  0  0  0  0
    1.9946    6.3003    5.8651 C   0  0  0  0  0  0  0  0  0  0  0  0
    2.3341    6.3086    4.2213 C   0  0  0  0  0  0  0  0  0  0  0  0
    1.7910    5.1902    3.1022 C   0  0  0  0  0  0  0  0  0  0  0  0
    1.4739    3.7391    3.7665 C   0  0  1  0  0  0  0  0  0  0  0  0
    3.0137    3.4423    3.5984 C   0  0  0  0  0  0  0  0  0  0  0  0
    0.3360    4.6027    4.4873 C   0  0  1  0  0  0  0  0  0  0  0  0
   -0.9564    4.9035    3.5769 C   0  0  0  0  0  0  0  0  0  0  0  0
    0.4314    4.2272    5.9420 C   0  0  2  0  0  0  0  0  0  0  0  0
   -1.0986    3.9414    6.5492 C   0  0  0  0  0  0  0  0  0  0  0  0
   -1.7162    2.4526    6.5258 C   0  0  0  0  0  0  0  0  0  0  0  0
   -0.5670    1.5392    6.1076 C   0  0  2  0  0  0  0  0  0  0  0  0
   -0.5592    0.0804    5.6014 C   0  0  0  0  0  0  0  0  0  0  0  0
   -1.4965   -0.6742    5.8349 O   0  0  0  0  0  0  0  0  0  0  0  0
    0.5716   -0.2015    4.8573 N   0  0  0  0  0  0  0  0  0  0  0  0
    0.8540   -1.5550    4.3483 C   0  0  0  0  0  0  0  0  0  0  0  0
    1.5354    0.9410    4.5248 C   0  0  2  0  0  0  0  0  0  0  0  0
    2.4245    1.1343    5.8427 C   0  0  0  0  0  0  0  0  0  0  0  0
    1.8982    1.5819    7.2678 C   0  0  1  0  0  0  0  0  0  0  0  0
    2.4758    2.7366    8.2024 C   0  0  1  0  0  0  0  0  0  0  0  0
    3.9828    2.5832    8.5398 C   0  0  0  0  0  0  0  0  0  0  0  0
    1.6958    2.3345    9.4604 C   0  0  0  0  0  0  0  0  0  0  0  0
    0.3822    1.5302    7.5370 C   0  0  1  0  0  0  0  0  0  0  0  0
    0.0831    0.1497    8.3002 C   0  0  0  0  0  0  0  0  0  0  0  0
    0.7101   -1.0572    7.8796 O   0  0  0  0  0  0  0  0  0  0  0  0
    0.8166    2.1777    3.7120 C   0  0  2  0  0  0  0  0  0  0  0  0
    0.6754    1.8034    2.1839 C   0  0  0  0  0  0  0  0  0  0  0  0
    0.3257    0.4655    1.9018 O   0  0  0  0  0  0  0  0  0  0  0  0
   -0.5379    2.0551    4.5259 C   0  0  1  0  0  0  0  0  0  0  0  0
   -1.6047    1.5328    3.7231 O   0  0  0  0  0  0  0  0  0  0  0  0
   -4.0136    3.3345    9.9314 H   0  0  0  0  0  0  0  0  0  0  0  0
   -2.9133    3.7654   11.2332 H   0  0  0  0  0  0  0  0  0  0  0  0
   -3.2706    2.0753   10.8547 H   0  0  0  0  0  0  0  0  0  0  0  0
   -0.5265    2.9750   10.8395 H   0  0  0  0  0  0  0  0  0  0  0  0
   -1.0017    1.4351   10.2844 H   0  0  0  0  0  0  0  0  0  0  0  0
   -0.0567    4.9284    8.5722 H   0  0  0  0  0  0  0  0  0  0  0  0
    0.8347    4.4967    9.7866 H   0  0  0  0  0  0  0  0  0  0  0  0
    2.5503    4.9396    8.6161 H   0  0  0  0  0  0  0  0  0  0  0  0
    3.8733    5.0372    5.5254 H   0  0  0  0  0  0  0  0  0  0  0  0
    3.4887    3.4519    6.0431 H   0  0  0  0  0  0  0  0  0  0  0  0
    3.9585    4.7546    7.0796 H   0  0  0  0  0  0  0  0  0  0  0  0
    1.1132    6.9030    6.0711 H   0  0  0  0  0  0  0  0  0  0  0  0
    2.7903    6.8568    6.3769 H   0  0  0  0  0  0  0  0  0  0  0  0
    1.9757    7.2763    3.8571 H   0  0  0  0  0  0  0  0  0  0  0  0
    3.4127    6.4269    4.0683 H   0  0  0  0  0  0  0  0  0  0  0  0
    1.0147    5.6283    2.4867 H   0  0  0  0  0  0  0  0  0  0  0  0
    2.5080    5.1665    2.2749 H   0  0  0  0  0  0  0  0  0  0  0  0
    3.4300    2.5800    4.0840 H   0  0  0  0  0  0  0  0  0  0  0  0
    3.7550    4.2229    3.7133 H   0  0  0  0  0  0  0  0  0  0  0  0
    3.1524    3.1513    2.5598 H   0  0  0  0  0  0  0  0  0  0  0  0
    0.2375    5.6653    4.6122 H   0  0  0  0  0  0  0  0  0  0  0  0
   -0.9855    4.2163    2.7310 H   0  0  0  0  0  0  0  0  0  0  0  0
   -0.9458    5.8929    3.1106 H   0  0  0  0  0  0  0  0  0  0  0  0
   -1.9367    4.8269    4.0206 H   0  0  0  0  0  0  0  0  0  0  0  0
    0.9319    3.3063    5.9494 H   0  0  0  0  0  0  0  0  0  0  0  0
   -1.4507    4.4372    7.4261 H   0  0  0  0  0  0  0  0  0  0  0  0
   -1.7481    4.5368    5.9391 H   0  0  0  0  0  0  0  0  0  0  0  0
   -2.1316    2.0625    7.4544 H   0  0  0  0  0  0  0  0  0  0  0  0
   -2.5773    2.4256    5.8357 H   0  0  0  0  0  0  0  0  0  0  0  0
    0.0840   -2.2674    4.6526 H   0  0  0  0  0  0  0  0  0  0  0  0
    1.8167   -1.9134    4.7197 H   0  0  0  0  0  0  0  0  0  0  0  0
    0.8839   -1.5841    3.2597 H   0  0  0  0  0  0  0  0  0  0  0  0
    2.2427    0.5213    3.8081 H   0  0  0  0  0  0  0  0  0  0  0  0
    2.7151    0.1005    6.0194 H   0  0  0  0  0  0  0  0  0  0  0  0
    3.4346    1.4892    5.6879 H   0  0  0  0  0  0  0  0  0  0  0  0
    2.3258    0.7452    7.8104 H   0  0  0  0  0  0  0  0  0  0  0  0
    4.1826    1.6509    9.0703 H   0  0  0  0  0  0  0  0  0  0  0  0
    4.3204    3.3925    9.1912 H   0  0  0  0  0  0  0  0  0  0  0  0
    4.6283    2.5787    7.6670 H   0  0  0  0  0  0  0  0  0  0  0  0
    1.9591    2.9268   10.3372 H   0  0  0  0  0  0  0  0  0  0  0  0
    1.9255    1.3281    9.7968 H   0  0  0  0  0  0  0  0  0  0  0  0
    0.3646    0.1481    9.3459 H   0  0  0  0  0  0  0  0  0  0  0  0
   -0.9850    0.0096    8.3191 H   0  0  0  0  0  0  0  0  0  0  0  0
    1.6552   -0.9384    7.8773 H   0  0  0  0  0  0  0  0  0  0  0  0
   -0.0405    2.4588    1.6838 H   0  0  0  0  0  0  0  0  0  0  0  0
    1.6224    1.9663    1.6683 H   0  0  0  0  0  0  0  0  0  0  0  0
    0.3542    0.3205    0.9568 H   0  0  0  0  0  0  0  0  0  0  0  0
   -1.1668    2.8747    4.4071 H   0  0  0  0  0  0  0  0  0  0  0  0
   -1.5528    1.9355    2.8734 H   0  0  0  0  0  0  0  0  0  0  0  0
  1  2  1  0
  1 38  1  0
  1 39  1  0
  1 40  1  0
  2  3  1  0
  4  3  1  1
  3 41  1  0
  3 42  1  0
  4 29  1  0
  4 30  1  0
  4  5  1  0
  5  6  1  0
  5 43  1  0
  5 44  1  0
  6 27  1  0
  6  7  1  0
  6 45  1  1
  7 16  1  0
  7  8  1  6
  7  9  1  0
  8 46  1  0
  8 47  1  0
  8 48  1  0
  9 10  1  0
  9 49  1  0
  9 50  1  0
 10 11  1  0
 10 51  1  0
 10 52  1  0
 11 12  1  0
 11 53  1  0
 11 54  1  0
 12 33  1  0
 12 13  1  1
 12 14  1  0
 13 55  1  0
 13 56  1  0
 13 57  1  0
 14 15  1  0
 14 16  1  0
 14 58  1  1
 15 59  1  0
 15 60  1  0
 15 61  1  0
 16 17  1  0
 16 62  1  6
 17 18  1  0
 17 63  1  0
 17 64  1  0
 19 18  1  1
 18 65  1  0
 18 66  1  0
 19 30  1  0
 19 36  1  0
 19 20  1  0
 20 21  2  0
 20 22  1  0
 22 23  1  0
 22 24  1  0
 23 67  1  0
 23 68  1  0
 23 69  1  0
 24 25  1  0
 24 33  1  0
 24 70  1  6
 25 26  1  0
 25 71  1  0
 25 72  1  0
 26 27  1  0
 26 30  1  0
 26 73  1  1
 27 28  1  1
 27 29  1  0
 28 74  1  0
 28 75  1  0
 28 76  1  0
 29 77  1  0
 29 78  1  0
 30 31  1  1
 31 32  1  0
 31 79  1  0
 31 80  1  0
 32 81  1  0
 33 34  1  6
 33 36  1  0
 34 35  1  0
 34 82  1  0
 34 83  1  0
 35 84  1  0
 36 37  1  0
 36 85  1  1
 37 86  1  0
M  END
>  <i_m_ct_stereo_status>  (203) 
1

>  <s_m_source_file>  (203) 
/var/tmp/pbs.5076255.sched01/tmppxgjifq_/8475v0iq0b.sdf

>  <i_m_source_file_index>  (203) 
3

>  <i_lp_mmshare_version>  (203) 
48012

>  <i_f3d_flags>  (203) 
0

>  <s_epik_input>  (203) 
W0NIM11PW0NIMl1bQ0BAXTEoW0NAXTIoW0NAXTM0NSlbQ0gyXVtPSF0pW0NIMl1bQ0BASF02QzcoW0NIM10pW0NAQEhdKFtDSDJdW0NIMl0zKVtDQEhdKFtDSDNdKVtDQF0oW0NIM10pKFtDSDJdW0NIMl1bQ0gyXTcpW0NAXShbQ0gyXVtPSF0pKFtDQEhdNVtPSF0pW0NASF0oTihDND1PKVtDSDNdKVtDSDJdW0NASF0yW0NAXTYoW0NIM10pW0NIMl0x

>  <s_epik_cmdline>  (203) 
J2VwaWtfcHl0aG9uJywgJy1waHQnLCAnMi4wJywgJy1waCcsICc3LjAnLCAnLXRuJywgJzgnLCAnLW1hJywgJzIwMCcsICctaW1hZScsICc8aW5maWxlLm1hZT4nLCAnLW9tYWUnLCAnPG91dGZpbGUubWFlPic=

>  <r_lp_tautomer_probability>  (203) 
1

>  <r_epik_Ionization_Penalty>  (203) 
5.08163e-07

>  <r_epik_Ionization_Penalty_Charging>  (203) 
0

>  <r_epik_Ionization_Penalty_Neutral>  (203) 
5.08163e-07

>  <r_epik_State_Penalty>  (203) 
-0

>  <r_epik_Charging_Adjusted_Penalty>  (203) 
0

>  <i_epik_Tot_Q>  (203) 
0

>  <i_epik_Tot_abs_Q>  (203) 
0

>  <s_lp_Force_Field>  (203) 
OPLS3e

>  <r_lp_Energy>  (203) 
601.867

>  <b_lp_Chiralities_Consistent>  (203) 
1

>  <s_lp_Variant>  (203) 
59:0-1

>  <s_i_glide_gridfile>  (203) 
pfpi4k_grid

>  <i_i_glide_lignum>  (203) 
3

>  <i_i_glide_rotatable_bonds>  (203) 
7

>  <r_i_docking_score>  (203) 
-1.67487

>  <r_i_glide_ligand_efficiency>  (203) 
-0.0452667

>  <r_i_glide_ligand_efficiency_sa>  (203) 
-0.150839

>  <r_i_glide_ligand_efficiency_ln>  (203) 
-0.363239

>  <r_i_glide_gscore>  (203) 
-1.67487

>  <r_i_glide_lipo>  (203) 
-0.0268933

>  <r_i_glide_hbond>  (203) 
-0.0466887

>  <r_i_glide_metal>  (203) 
-0

>  <r_i_glide_rewards>  (203) 
0

>  <r_i_glide_evdw>  (203) 
-22.9119

>  <r_i_glide_ecoul>  (203) 
-4.35541

>  <r_i_glide_erotb>  (203) 
0.231464

>  <r_i_glide_esite>  (203) 
-0.0338423

>  <r_i_glide_emodel>  (203) 
-28.3306

>  <r_i_glide_energy>  (203) 
-27.2673

>  <r_i_glide_einternal>  (203) 
4.17202

>  <r_i_glide_intrahb_reward>  (203) 
-0

>  <i_i_glide_confnum>  (203) 
2

>  <i_i_glide_posenum>  (203) 
19

>  <r_i_glide_eff_state_penalty>  (203) 
0

>  <ligand_id>  (203) 
59

>  <original_smiles>  (203) 
COCC12CC3C4(C)CCCC5(C)C(C)C4CCC46C(=O)N(C)C(CC(C3(C)C1)C24CO)C5(CO)C6O

>  <smiles>  (203) 
[H]OC([H])([H])C12C([H])(O[H])C34C(=O)N(C([H])([H])[H])C1([H])C([H])([H])C1([H])C5(C([H])([H])[H])C([H])([H])C(C([H])([H])OC([H])([H])[H])(C([H])([H])C5([H])C5(C([H])([H])[H])C([H])([H])C([H])([H])C([H])([H])C2(C([H])([H])[H])C([H])(C([H])([H])[H])C5([H])C([H])([H])C3([H])[H])C14C([H])([H])O[H]

$$$$
59:1:0
     RDKit          3D

 86 92  0  0  1  0  0  0  0  0999 V2000
    1.2556   -4.2660    6.9417 C   0  0  0  0  0  0  0  0  0  0  0  0
    1.3246   -2.8601    7.0700 O   0  0  0  0  0  0  0  0  0  0  0  0
    2.6108   -2.3182    7.3101 C   0  0  0  0  0  0  0  0  0  0  0  0
    2.5532   -0.7499    7.2575 C   0  0  1  0  0  0  0  0  0  0  0  0
    1.8811   -0.2742    8.5553 C   0  0  0  0  0  0  0  0  0  0  0  0
    2.2335    1.2200    8.7289 C   0  0  2  0  0  0  0  0  0  0  0  0
    0.9148    2.1191    8.9309 C   0  0  1  0  0  0  0  0  0  0  0  0
    0.1629    1.6460   10.2047 C   0  0  0  0  0  0  0  0  0  0  0  0
    1.2464    3.7096    9.2403 C   0  0  0  0  0  0  0  0  0  0  0  0
    0.4618    5.0585    8.6846 C   0  0  0  0  0  0  0  0  0  0  0  0
    0.0640    5.2310    7.0975 C   0  0  0  0  0  0  0  0  0  0  0  0
    0.4208    3.8899    6.3845 C   0  0  1  0  0  0  0  0  0  0  0  0
    1.9364    4.2426    6.5742 C   0  0  0  0  0  0  0  0  0  0  0  0
   -0.6642    3.0781    7.2803 C   0  0  1  0  0  0  0  0  0  0  0  0
   -2.1997    3.1973    6.9246 C   0  0  0  0  0  0  0  0  0  0  0  0
   -0.0008    1.8017    7.6983 C   0  0  2  0  0  0  0  0  0  0  0  0
   -0.7934    0.4462    7.3365 C   0  0  0  0  0  0  0  0  0  0  0  0
   -0.3647   -0.3435    6.0046 C   0  0  0  0  0  0  0  0  0  0  0  0
    0.7084    0.4149    5.1662 C   0  0  2  0  0  0  0  0  0  0  0  0
    0.9823    0.3581    3.6464 C   0  0  0  0  0  0  0  0  0  0  0  0
    0.6553   -0.6165    2.9754 O   0  0  0  0  0  0  0  0  0  0  0  0
    1.6054    1.4953    3.1805 N   0  0  0  0  0  0  0  0  0  0  0  0
    2.0002    1.6146    1.7818 C   0  0  0  0  0  0  0  0  0  0  0  0
    1.8324    2.6805    4.1141 C   0  0  2  0  0  0  0  0  0  0  0  0
    3.1379    2.3340    4.9130 C   0  0  0  0  0  0  0  0  0  0  0  0
    3.1075    1.2455    6.0433 C   0  0  1  0  0  0  0  0  0  0  0  0
    3.4071    1.3454    7.6149 C   0  0  1  0  0  0  0  0  0  0  0  0
    4.5623    2.2974    8.0249 C   0  0  0  0  0  0  0  0  0  0  0  0
    3.8959   -0.1200    7.7092 C   0  0  0  0  0  0  0  0  0  0  0  0
    2.2458   -0.0008    5.8111 C   0  0  1  0  0  0  0  0  0  0  0  0
    3.1306   -0.8859    4.7973 C   0  0  0  0  0  0  0  0  0  0  0  0
    2.5443   -2.0998    4.3659 O   0  0  0  0  0  0  0  0  0  0  0  0
    0.4640    3.2079    4.8641 C   0  0  2  0  0  0  0  0  0  0  0  0
   -0.1709    4.2447    3.8956 C   0  0  0  0  0  0  0  0  0  0  0  0
   -1.5389    4.5386    4.0959 O   0  0  0  0  0  0  0  0  0  0  0  0
   -0.2140    1.7902    4.8808 C   0  0  1  0  0  0  0  0  0  0  0  0
   -1.2468    1.7043    3.8794 O   0  0  0  0  0  0  0  0  0  0  0  0
    0.2309   -4.5480    6.6873 H   0  0  0  0  0  0  0  0  0  0  0  0
    1.5136   -4.7633    7.8711 H   0  0  0  0  0  0  0  0  0  0  0  0
    1.8951   -4.6351    6.1458 H   0  0  0  0  0  0  0  0  0  0  0  0
    2.9364   -2.6468    8.2967 H   0  0  0  0  0  0  0  0  0  0  0  0
    3.3496   -2.7528    6.6408 H   0  0  0  0  0  0  0  0  0  0  0  0
    0.8805   -0.6119    8.6767 H   0  0  0  0  0  0  0  0  0  0  0  0
    2.3040   -0.7958    9.4142 H   0  0  0  0  0  0  0  0  0  0  0  0
    2.7491    1.3099    9.6873 H   0  0  0  0  0  0  0  0  0  0  0  0
   -0.7282    2.2490   10.3854 H   0  0  0  0  0  0  0  0  0  0  0  0
    0.7905    1.7316   11.0931 H   0  0  0  0  0  0  0  0  0  0  0  0
   -0.1667    0.6108   10.1618 H   0  0  0  0  0  0  0  0  0  0  0  0
    1.2080    3.8319   10.3266 H   0  0  0  0  0  0  0  0  0  0  0  0
    2.3146    3.8487    9.0847 H   0  0  0  0  0  0  0  0  0  0  0  0
   -0.4472    5.1941    9.2720 H   0  0  0  0  0  0  0  0  0  0  0  0
    1.0628    5.9223    8.9658 H   0  0  0  0  0  0  0  0  0  0  0  0
   -0.9837    5.5065    6.9920 H   0  0  0  0  0  0  0  0  0  0  0  0
    0.5586    6.1028    6.6551 H   0  0  0  0  0  0  0  0  0  0  0  0
    2.4622    3.4051    6.9392 H   0  0  0  0  0  0  0  0  0  0  0  0
    2.3149    5.0305    7.2322 H   0  0  0  0  0  0  0  0  0  0  0  0
    2.3330    4.6485    5.6476 H   0  0  0  0  0  0  0  0  0  0  0  0
   -0.9610    3.3926    8.2722 H   0  0  0  0  0  0  0  0  0  0  0  0
   -2.4589    3.1447    5.8713 H   0  0  0  0  0  0  0  0  0  0  0  0
   -2.6052    4.1481    7.2623 H   0  0  0  0  0  0  0  0  0  0  0  0
   -2.8184    2.4680    7.4451 H   0  0  0  0  0  0  0  0  0  0  0  0
    0.8328    1.7626    7.0448 H   0  0  0  0  0  0  0  0  0  0  0  0
   -0.9410   -0.1971    8.1858 H   0  0  0  0  0  0  0  0  0  0  0  0
   -1.8383    0.6941    7.1757 H   0  0  0  0  0  0  0  0  0  0  0  0
   -0.0141   -1.3294    6.2675 H   0  0  0  0  0  0  0  0  0  0  0  0
   -1.2494   -0.5360    5.3893 H   0  0  0  0  0  0  0  0  0  0  0  0
    1.7645    0.7216    1.1991 H   0  0  0  0  0  0  0  0  0  0  0  0
    3.0769    1.7549    1.7166 H   0  0  0  0  0  0  0  0  0  0  0  0
    1.4922    2.4561    1.3047 H   0  0  0  0  0  0  0  0  0  0  0  0
    2.1444    3.4994    3.4628 H   0  0  0  0  0  0  0  0  0  0  0  0
    3.8057    1.9652    4.1276 H   0  0  0  0  0  0  0  0  0  0  0  0
    3.7266    3.1951    5.2221 H   0  0  0  0  0  0  0  0  0  0  0  0
    4.1208    0.9757    5.7451 H   0  0  0  0  0  0  0  0  0  0  0  0
    5.4363    2.1754    7.3830 H   0  0  0  0  0  0  0  0  0  0  0  0
    4.8913    2.0970    9.0453 H   0  0  0  0  0  0  0  0  0  0  0  0
    4.2913    3.3506    7.9956 H   0  0  0  0  0  0  0  0  0  0  0  0
    4.2351   -0.3848    8.7134 H   0  0  0  0  0  0  0  0  0  0  0  0
    4.7542   -0.3919    7.0970 H   0  0  0  0  0  0  0  0  0  0  0  0
    3.4528   -0.3421    3.9071 H   0  0  0  0  0  0  0  0  0  0  0  0
    4.0991   -1.1397    5.2265 H   0  0  0  0  0  0  0  0  0  0  0  0
    1.8347   -1.8915    3.7648 H   0  0  0  0  0  0  0  0  0  0  0  0
    0.3900    5.1823    3.9267 H   0  0  0  0  0  0  0  0  0  0  0  0
   -0.0841    3.8659    2.8866 H   0  0  0  0  0  0  0  0  0  0  0  0
   -2.0007    3.7198    3.9630 H   0  0  0  0  0  0  0  0  0  0  0  0
   -1.0854    1.7667    5.4573 H   0  0  0  0  0  0  0  0  0  0  0  0
   -0.8506    1.7448    3.0165 H   0  0  0  0  0  0  0  0  0  0  0  0
  1  2  1  0
  1 38  1  0
  1 39  1  0
  1 40  1  0
  2  3  1  0
  4  3  1  6
  3 41  1  0
  3 42  1  0
  4 29  1  0
  4 30  1  0
  4  5  1  0
  5  6  1  0
  5 43  1  0
  5 44  1  0
  6 27  1  0
  6  7  1  0
  6 45  1  1
  7 16  1  0
  7  8  1  1
  7  9  1  0
  8 46  1  0
  8 47  1  0
  8 48  1  0
  9 10  1  0
  9 49  1  0
  9 50  1  0
 10 11  1  0
 10 51  1  0
 10 52  1  0
 11 12  1  0
 11 53  1  0
 11 54  1  0
 12 33  1  0
 12 13  1  1
 12 14  1  0
 13 55  1  0
 13 56  1  0
 13 57  1  0
 14 15  1  0
 14 16  1  0
 14 58  1  1
 15 59  1  0
 15 60  1  0
 15 61  1  0
 16 17  1  0
 16 62  1  6
 17 18  1  0
 17 63  1  0
 17 64  1  0
 19 18  1  6
 18 65  1  0
 18 66  1  0
 19 30  1  0
 19 36  1  0
 19 20  1  0
 20 21  2  0
 20 22  1  0
 22 23  1  0
 22 24  1  0
 23 67  1  0
 23 68  1  0
 23 69  1  0
 24 25  1  0
 24 33  1  0
 24 70  1  6
 25 26  1  0
 25 71  1  0
 25 72  1  0
 26 27  1  0
 26 30  1  0
 26 73  1  6
 27 28  1  6
 27 29  1  0
 28 74  1  0
 28 75  1  0
 28 76  1  0
 29 77  1  0
 29 78  1  0
 30 31  1  6
 31 32  1  0
 31 79  1  0
 31 80  1  0
 32 81  1  0
 33 34  1  6
 33 36  1  0
 34 35  1  0
 34 82  1  0
 34 83  1  0
 35 84  1  0
 36 37  1  0
 36 85  1  1
 37 86  1  0
M  END
>  <i_m_ct_stereo_status>  (204) 
1

>  <s_m_source_file>  (204) 
/var/tmp/pbs.5076255.sched01/tmppxgjifq_/8475v0iq0b.sdf

>  <i_m_source_file_index>  (204) 
4

>  <i_lp_mmshare_version>  (204) 
48012

>  <i_f3d_flags>  (204) 
0

>  <s_epik_input>  (204) 
W0NIM11PW0NIMl1bQ0BAXTEoW0NAXTIoW0NAXTM0NSlbQ0gyXVtPSF0pW0NIMl1bQ0BASF02QzcoW0NIM10pW0NAQEhdKFtDSDJdW0NIMl0zKVtDQEhdKFtDSDNdKVtDQF0oW0NIM10pKFtDSDJdW0NIMl1bQ0gyXTcpW0NAXShbQ0gyXVtPSF0pKFtDQEhdNVtPSF0pW0NASF0oTihDND1PKVtDSDNdKVtDSDJdW0NASF0yW0NAXTYoW0NIM10pW0NIMl0x

>  <s_epik_cmdline>  (204) 
J2VwaWtfcHl0aG9uJywgJy1waHQnLCAnMi4wJywgJy1waCcsICc3LjAnLCAnLXRuJywgJzgnLCAnLW1hJywgJzIwMCcsICctaW1hZScsICc8aW5maWxlLm1hZT4nLCAnLW9tYWUnLCAnPG91dGZpbGUubWFlPic=

>  <r_lp_tautomer_probability>  (204) 
1

>  <r_epik_Ionization_Penalty>  (204) 
5.08163e-07

>  <r_epik_Ionization_Penalty_Charging>  (204) 
0

>  <r_epik_Ionization_Penalty_Neutral>  (204) 
5.08163e-07

>  <r_epik_State_Penalty>  (204) 
-0

>  <r_epik_Charging_Adjusted_Penalty>  (204) 
0

>  <i_epik_Tot_Q>  (204) 
0

>  <i_epik_Tot_abs_Q>  (204) 
0

>  <s_lp_Force_Field>  (204) 
OPLS3e

>  <r_lp_Energy>  (204) 
466.841

>  <b_lp_Chiralities_Consistent>  (204) 
1

>  <s_lp_Variant>  (204) 
59:0-2

>  <s_i_glide_gridfile>  (204) 
pfpi4k_grid

>  <i_i_glide_lignum>  (204) 
4

>  <i_i_glide_rotatable_bonds>  (204) 
7

>  <r_i_docking_score>  (204) 
-2.08316

>  <r_i_glide_ligand_efficiency>  (204) 
-0.0563016

>  <r_i_glide_ligand_efficiency_sa>  (204) 
-0.187609

>  <r_i_glide_ligand_efficiency_ln>  (204) 
-0.451788

>  <r_i_glide_gscore>  (204) 
-2.08316

>  <r_i_glide_lipo>  (204) 
-0.090521

>  <r_i_glide_hbond>  (204) 
0

>  <r_i_glide_metal>  (204) 
-0

>  <r_i_glide_rewards>  (204) 
-1

>  <r_i_glide_evdw>  (204) 
-17.2499

>  <r_i_glide_ecoul>  (204) 
-2.23579

>  <r_i_glide_erotb>  (204) 
0.231464

>  <r_i_glide_esite>  (204) 
-0.0262379

>  <r_i_glide_emodel>  (204) 
-31.9027

>  <r_i_glide_energy>  (204) 
-19.4857

>  <r_i_glide_einternal>  (204) 
0.904795

>  <r_i_glide_intrahb_reward>  (204) 
-1

>  <i_i_glide_confnum>  (204) 
2

>  <i_i_glide_posenum>  (204) 
34

>  <r_i_glide_eff_state_penalty>  (204) 
0

>  <ligand_id>  (204) 
59

>  <original_smiles>  (204) 
COCC12CC3C4(C)CCCC5(C)C(C)C4CCC46C(=O)N(C)C(CC(C3(C)C1)C24CO)C5(CO)C6O

>  <smiles>  (204) 
[H]OC([H])([H])C12C([H])(O[H])C34C(=O)N(C([H])([H])[H])C1([H])C([H])([H])C1([H])C5(C([H])([H])[H])C([H])([H])C(C([H])([H])OC([H])([H])[H])(C([H])([H])C5([H])C5(C([H])([H])[H])C([H])([H])C([H])([H])C([H])([H])C2(C([H])([H])[H])C([H])(C([H])([H])[H])C5([H])C([H])([H])C3([H])[H])C14C([H])([H])O[H]

$$$$
59:1:1
     RDKit          3D

 86 92  0  0  1  0  0  0  0  0999 V2000
    3.2286    6.9959    8.3300 C   0  0  0  0  0  0  0  0  0  0  0  0
    2.6548    5.8107    7.8432 O   0  0  0  0  0  0  0  0  0  0  0  0
    1.8355    5.0394    8.6876 C   0  0  0  0  0  0  0  0  0  0  0  0
    1.4558    3.6828    7.9922 C   0  0  1  0  0  0  0  0  0  0  0  0
    2.5718    2.6598    8.2543 C   0  0  0  0  0  0  0  0  0  0  0  0
    1.9682    1.2584    8.0180 C   0  0  2  0  0  0  0  0  0  0  0  0
    2.8474    0.3999    6.9795 C   0  0  1  0  0  0  0  0  0  0  0  0
    4.2760    0.2223    7.5525 C   0  0  0  0  0  0  0  0  0  0  0  0
    2.3114   -1.1496    6.7834 C   0  0  0  0  0  0  0  0  0  0  0  0
    2.2181   -2.0408    5.3941 C   0  0  0  0  0  0  0  0  0  0  0  0
    1.5861   -1.4274    4.0114 C   0  0  0  0  0  0  0  0  0  0  0  0
    1.2862    0.0831    4.2696 C   0  0  1  0  0  0  0  0  0  0  0  0
    0.1218   -0.3696    5.2110 C   0  0  0  0  0  0  0  0  0  0  0  0
    2.8622    0.3815    4.5099 C   0  0  1  0  0  0  0  0  0  0  0  0
    3.8214    0.4856    3.2633 C   0  0  0  0  0  0  0  0  0  0  0  0
    2.9530    1.2888    5.6969 C   0  0  2  0  0  0  0  0  0  0  0  0
    3.7587    2.6609    5.4707 C   0  0  0  0  0  0  0  0  0  0  0  0
    2.9036    3.9653    5.1242 C   0  0  0  0  0  0  0  0  0  0  0  0
    1.3624    3.7055    4.9761 C   0  0  2  0  0  0  0  0  0  0  0  0
    0.3026    4.4617    4.1480 C   0  0  0  0  0  0  0  0  0  0  0  0
    0.4519    5.6208    3.8011 O   0  0  0  0  0  0  0  0  0  0  0  0
   -0.7713    3.6634    3.8083 N   0  0  0  0  0  0  0  0  0  0  0  0
   -1.9001    4.2120    3.0618 C   0  0  0  0  0  0  0  0  0  0  0  0
   -0.7405    2.1825    4.0881 C   0  0  2  0  0  0  0  0  0  0  0  0
   -1.1943    2.0778    5.5894 C   0  0  0  0  0  0  0  0  0  0  0  0
   -0.2253    2.5013    6.7467 C   0  0  1  0  0  0  0  0  0  0  0  0
    0.4023    1.6554    7.9566 C   0  0  1  0  0  0  0  0  0  0  0  0
   -0.5275    0.5912    8.5949 C   0  0  0  0  0  0  0  0  0  0  0  0
    0.4861    2.8813    8.8939 C   0  0  0  0  0  0  0  0  0  0  0  0
    0.6805    3.7291    6.5371 C   0  0  1  0  0  0  0  0  0  0  0  0
   -0.3423    4.9394    6.7773 C   0  0  0  0  0  0  0  0  0  0  0  0
    0.2090    6.2316    6.5487 O   0  0  0  0  0  0  0  0  0  0  0  0
    0.5947    1.4135    3.5327 C   0  0  2  0  0  0  0  0  0  0  0  0
    0.2447    1.0231    2.0568 C   0  0  0  0  0  0  0  0  0  0  0  0
    1.3277    0.5246    1.2906 O   0  0  0  0  0  0  0  0  0  0  0  0
    1.5195    2.6656    3.6961 C   0  0  1  0  0  0  0  0  0  0  0  0
    1.8189    3.2806    2.4303 O   0  0  0  0  0  0  0  0  0  0  0  0
    3.8420    7.4335    7.5361 H   0  0  0  0  0  0  0  0  0  0  0  0
    3.8813    6.8035    9.1792 H   0  0  0  0  0  0  0  0  0  0  0  0
    2.4607    7.7185    8.5945 H   0  0  0  0  0  0  0  0  0  0  0  0
    2.3703    4.8255    9.6186 H   0  0  0  0  0  0  0  0  0  0  0  0
    0.9860    5.6452    9.0008 H   0  0  0  0  0  0  0  0  0  0  0  0
    3.5121    2.9213    7.8330 H   0  0  0  0  0  0  0  0  0  0  0  0
    2.8638    2.6928    9.3047 H   0  0  0  0  0  0  0  0  0  0  0  0
    2.0780    0.7080    8.9553 H   0  0  0  0  0  0  0  0  0  0  0  0
    4.8962   -0.3691    6.8775 H   0  0  0  0  0  0  0  0  0  0  0  0
    4.2634   -0.2930    8.5143 H   0  0  0  0  0  0  0  0  0  0  0  0
    4.7995    1.1619    7.7107 H   0  0  0  0  0  0  0  0  0  0  0  0
    2.9179   -1.7747    7.4443 H   0  0  0  0  0  0  0  0  0  0  0  0
    1.3571   -1.2257    7.2983 H   0  0  0  0  0  0  0  0  0  0  0  0
    3.2160   -2.4222    5.1656 H   0  0  0  0  0  0  0  0  0  0  0  0
    1.6726   -2.9551    5.6299 H   0  0  0  0  0  0  0  0  0  0  0  0
    2.2588   -1.5914    3.1729 H   0  0  0  0  0  0  0  0  0  0  0  0
    0.7072   -1.9938    3.6890 H   0  0  0  0  0  0  0  0  0  0  0  0
    0.1605    0.1857    6.1068 H   0  0  0  0  0  0  0  0  0  0  0  0
   -0.0183   -1.3844    5.5865 H   0  0  0  0  0  0  0  0  0  0  0  0
   -0.8215   -0.2869    4.6783 H   0  0  0  0  0  0  0  0  0  0  0  0
    3.5608   -0.3583    4.8644 H   0  0  0  0  0  0  0  0  0  0  0  0
    3.4708    1.0710    2.4219 H   0  0  0  0  0  0  0  0  0  0  0  0
    4.0402   -0.4962    2.8464 H   0  0  0  0  0  0  0  0  0  0  0  0
    4.7995    0.8803    3.5168 H   0  0  0  0  0  0  0  0  0  0  0  0
    1.9498    1.6147    5.7982 H   0  0  0  0  0  0  0  0  0  0  0  0
    4.5479    2.8591    6.1851 H   0  0  0  0  0  0  0  0  0  0  0  0
    4.4065    2.5507    4.6125 H   0  0  0  0  0  0  0  0  0  0  0  0
    3.1244    4.6833    5.8602 H   0  0  0  0  0  0  0  0  0  0  0  0
    3.2953    4.4557    4.2242 H   0  0  0  0  0  0  0  0  0  0  0  0
   -1.7789    5.2709    2.8324 H   0  0  0  0  0  0  0  0  0  0  0  0
   -2.8214    4.0871    3.6226 H   0  0  0  0  0  0  0  0  0  0  0  0
   -1.9817    3.6947    2.1158 H   0  0  0  0  0  0  0  0  0  0  0  0
   -1.5817    1.7681    3.5307 H   0  0  0  0  0  0  0  0  0  0  0  0
   -2.0464    2.7608    5.6324 H   0  0  0  0  0  0  0  0  0  0  0  0
   -1.7279    1.1629    5.8381 H   0  0  0  0  0  0  0  0  0  0  0  0
   -1.0991    2.8493    7.2973 H   0  0  0  0  0  0  0  0  0  0  0  0
   -1.5366    0.9773    8.7456 H   0  0  0  0  0  0  0  0  0  0  0  0
   -0.1632    0.2760    9.5760 H   0  0  0  0  0  0  0  0  0  0  0  0
   -0.5801   -0.3106    7.9938 H   0  0  0  0  0  0  0  0  0  0  0  0
    0.8636    2.6144    9.8871 H   0  0  0  0  0  0  0  0  0  0  0  0
   -0.4539    3.3894    9.1267 H   0  0  0  0  0  0  0  0  0  0  0  0
   -1.2564    4.8692    6.1973 H   0  0  0  0  0  0  0  0  0  0  0  0
   -0.7808    4.9245    7.7704 H   0  0  0  0  0  0  0  0  0  0  0  0
    1.0772    6.2654    6.8735 H   0  0  0  0  0  0  0  0  0  0  0  0
   -0.4927    0.2158    2.0913 H   0  0  0  0  0  0  0  0  0  0  0  0
   -0.2176    1.8331    1.4977 H   0  0  0  0  0  0  0  0  0  0  0  0
    1.0063    0.0442    0.5301 H   0  0  0  0  0  0  0  0  0  0  0  0
    2.5189    2.4134    3.5376 H   0  0  0  0  0  0  0  0  0  0  0  0
    1.0624    3.6267    1.9617 H   0  0  0  0  0  0  0  0  0  0  0  0
  1  2  1  0
  1 38  1  0
  1 39  1  0
  1 40  1  0
  2  3  1  0
  4  3  1  1
  3 41  1  0
  3 42  1  0
  4 29  1  0
  4 30  1  0
  4  5  1  0
  5  6  1  0
  5 43  1  0
  5 44  1  0
  6 27  1  0
  6  7  1  0
  6 45  1  1
  7 16  1  0
  7  8  1  1
  7  9  1  0
  8 46  1  0
  8 47  1  0
  8 48  1  0
  9 10  1  0
  9 49  1  0
  9 50  1  0
 10 11  1  0
 10 51  1  0
 10 52  1  0
 11 12  1  0
 11 53  1  0
 11 54  1  0
 12 33  1  0
 12 13  1  1
 12 14  1  0
 13 55  1  0
 13 56  1  0
 13 57  1  0
 14 15  1  0
 14 16  1  0
 14 58  1  1
 15 59  1  0
 15 60  1  0
 15 61  1  0
 16 17  1  0
 16 62  1  6
 17 18  1  0
 17 63  1  0
 17 64  1  0
 19 18  1  1
 18 65  1  0
 18 66  1  0
 19 30  1  0
 19 36  1  0
 19 20  1  0
 20 21  2  0
 20 22  1  0
 22 23  1  0
 22 24  1  0
 23 67  1  0
 23 68  1  0
 23 69  1  0
 24 25  1  0
 24 33  1  0
 24 70  1  6
 25 26  1  0
 25 71  1  0
 25 72  1  0
 26 27  1  0
 26 30  1  0
 26 73  1  1
 27 28  1  1
 27 29  1  0
 28 74  1  0
 28 75  1  0
 28 76  1  0
 29 77  1  0
 29 78  1  0
 30 31  1  1
 31 32  1  0
 31 79  1  0
 31 80  1  0
 32 81  1  0
 33 34  1  6
 33 36  1  0
 34 35  1  0
 34 82  1  0
 34 83  1  0
 35 84  1  0
 36 37  1  0
 36 85  1  1
 37 86  1  0
M  END
>  <i_m_ct_stereo_status>  (205) 
1

>  <s_m_source_file>  (205) 
/var/tmp/pbs.5076255.sched01/tmppxgjifq_/8475v0iq0b.sdf

>  <i_m_source_file_index>  (205) 
4

>  <i_lp_mmshare_version>  (205) 
48012

>  <i_f3d_flags>  (205) 
0

>  <s_epik_input>  (205) 
W0NIM11PW0NIMl1bQ0BAXTEoW0NAXTIoW0NAXTM0NSlbQ0gyXVtPSF0pW0NIMl1bQ0BASF02QzcoW0NIM10pW0NAQEhdKFtDSDJdW0NIMl0zKVtDQEhdKFtDSDNdKVtDQF0oW0NIM10pKFtDSDJdW0NIMl1bQ0gyXTcpW0NAXShbQ0gyXVtPSF0pKFtDQEhdNVtPSF0pW0NASF0oTihDND1PKVtDSDNdKVtDSDJdW0NASF0yW0NAXTYoW0NIM10pW0NIMl0x

>  <s_epik_cmdline>  (205) 
J2VwaWtfcHl0aG9uJywgJy1waHQnLCAnMi4wJywgJy1waCcsICc3LjAnLCAnLXRuJywgJzgnLCAnLW1hJywgJzIwMCcsICctaW1hZScsICc8aW5maWxlLm1hZT4nLCAnLW9tYWUnLCAnPG91dGZpbGUubWFlPic=

>  <r_lp_tautomer_probability>  (205) 
1

>  <r_epik_Ionization_Penalty>  (205) 
5.08163e-07

>  <r_epik_Ionization_Penalty_Charging>  (205) 
0

>  <r_epik_Ionization_Penalty_Neutral>  (205) 
5.08163e-07

>  <r_epik_State_Penalty>  (205) 
-0

>  <r_epik_Charging_Adjusted_Penalty>  (205) 
0

>  <i_epik_Tot_Q>  (205) 
0

>  <i_epik_Tot_abs_Q>  (205) 
0

>  <s_lp_Force_Field>  (205) 
OPLS3e

>  <r_lp_Energy>  (205) 
466.841

>  <b_lp_Chiralities_Consistent>  (205) 
1

>  <s_lp_Variant>  (205) 
59:0-2

>  <s_i_glide_gridfile>  (205) 
pfpi4k_grid

>  <i_i_glide_lignum>  (205) 
4

>  <i_i_glide_rotatable_bonds>  (205) 
7

>  <r_i_docking_score>  (205) 
-1.87448

>  <r_i_glide_ligand_efficiency>  (205) 
-0.0506616

>  <r_i_glide_ligand_efficiency_sa>  (205) 
-0.168816

>  <r_i_glide_ligand_efficiency_ln>  (205) 
-0.40653

>  <r_i_glide_gscore>  (205) 
-1.87448

>  <r_i_glide_lipo>  (205) 
0

>  <r_i_glide_hbond>  (205) 
0

>  <r_i_glide_metal>  (205) 
-0

>  <r_i_glide_rewards>  (205) 
0

>  <r_i_glide_evdw>  (205) 
-18.5261

>  <r_i_glide_ecoul>  (205) 
-6.89614

>  <r_i_glide_erotb>  (205) 
0.231464

>  <r_i_glide_esite>  (205) 
-0.145215

>  <r_i_glide_emodel>  (205) 
-26.6589

>  <r_i_glide_energy>  (205) 
-25.4222

>  <r_i_glide_einternal>  (205) 
1.96389

>  <r_i_glide_intrahb_reward>  (205) 
-0

>  <i_i_glide_confnum>  (205) 
2

>  <i_i_glide_posenum>  (205) 
4

>  <r_i_glide_eff_state_penalty>  (205) 
0

>  <ligand_id>  (205) 
59

>  <original_smiles>  (205) 
COCC12CC3C4(C)CCCC5(C)C(C)C4CCC46C(=O)N(C)C(CC(C3(C)C1)C24CO)C5(CO)C6O

>  <smiles>  (205) 
[H]OC([H])([H])C12C([H])(O[H])C34C(=O)N(C([H])([H])[H])C1([H])C([H])([H])C1([H])C5(C([H])([H])[H])C([H])([H])C(C([H])([H])OC([H])([H])[H])(C([H])([H])C5([H])C5(C([H])([H])[H])C([H])([H])C([H])([H])C([H])([H])C2(C([H])([H])[H])C([H])(C([H])([H])[H])C5([H])C([H])([H])C3([H])[H])C14C([H])([H])O[H]

$$$$
59:1:2
     RDKit          3D

 86 92  0  0  1  0  0  0  0  0999 V2000
    0.8723    7.4662    9.4663 C   0  0  0  0  0  0  0  0  0  0  0  0
    0.5608    6.1323    9.0953 O   0  0  0  0  0  0  0  0  0  0  0  0
    1.6746    5.3741    8.6362 C   0  0  0  0  0  0  0  0  0  0  0  0
    1.2868    3.9698    8.0606 C   0  0  1  0  0  0  0  0  0  0  0  0
    2.4474    3.0250    8.3970 C   0  0  0  0  0  0  0  0  0  0  0  0
    1.9237    1.5834    8.2488 C   0  0  2  0  0  0  0  0  0  0  0  0
    2.8633    0.7099    7.2846 C   0  0  1  0  0  0  0  0  0  0  0  0
    4.2918    0.6405    7.8864 C   0  0  0  0  0  0  0  0  0  0  0  0
    2.4066   -0.8731    7.1855 C   0  0  0  0  0  0  0  0  0  0  0  0
    2.3829   -1.8634    5.8615 C   0  0  0  0  0  0  0  0  0  0  0  0
    1.7451   -1.3671    4.4299 C   0  0  0  0  0  0  0  0  0  0  0  0
    1.3739    0.1356    4.5851 C   0  0  1  0  0  0  0  0  0  0  0  0
    0.2098   -0.2989    5.5343 C   0  0  0  0  0  0  0  0  0  0  0  0
    2.9265    0.5374    4.8205 C   0  0  1  0  0  0  0  0  0  0  0  0
    3.8840    0.5916    3.5699 C   0  0  0  0  0  0  0  0  0  0  0  0
    2.9582    1.5215    5.9486 C   0  0  2  0  0  0  0  0  0  0  0  0
    3.6976    2.9352    5.6659 C   0  0  0  0  0  0  0  0  0  0  0  0
    2.7697    4.1958    5.2750 C   0  0  0  0  0  0  0  0  0  0  0  0
    1.2819    3.8022    5.0350 C   0  0  2  0  0  0  0  0  0  0  0  0
    0.2109    4.4516    4.1156 C   0  0  0  0  0  0  0  0  0  0  0  0
    0.3172    5.5865    3.7014 O   0  0  0  0  0  0  0  0  0  0  0  0
   -0.8229    3.5886    3.8129 N   0  0  0  0  0  0  0  0  0  0  0  0
   -1.9636    4.0300    3.0230 C   0  0  0  0  0  0  0  0  0  0  0  0
   -0.7346    2.1284    4.2209 C   0  0  2  0  0  0  0  0  0  0  0  0
   -1.2224    2.0977    5.7099 C   0  0  0  0  0  0  0  0  0  0  0  0
   -0.2967    2.6335    6.8667 C   0  0  1  0  0  0  0  0  0  0  0  0
    0.3366    1.8979    8.1451 C   0  0  1  0  0  0  0  0  0  0  0  0
   -0.5533    0.8408    8.8330 C   0  0  0  0  0  0  0  0  0  0  0  0
    0.3428    3.1837    9.0023 C   0  0  0  0  0  0  0  0  0  0  0  0
    0.5417    3.8749    6.5745 C   0  0  1  0  0  0  0  0  0  0  0  0
   -0.5314    5.0540    6.6772 C   0  0  0  0  0  0  0  0  0  0  0  0
   -0.0429    6.3421    6.3848 O   0  0  0  0  0  0  0  0  0  0  0  0
    0.6445    1.3831    3.7305 C   0  0  2  0  0  0  0  0  0  0  0  0
    0.3366    0.8608    2.2876 C   0  0  0  0  0  0  0  0  0  0  0  0
    1.3735    0.1219    1.6818 O   0  0  0  0  0  0  0  0  0  0  0  0
    1.5205    2.6898    3.8129 C   0  0  1  0  0  0  0  0  0  0  0  0
    1.8078    3.1980    2.4786 O   0  0  0  0  0  0  0  0  0  0  0  0
   -0.0546    8.0014    9.6637 H   0  0  0  0  0  0  0  0  0  0  0  0
    1.3873    8.0024    8.6731 H   0  0  0  0  0  0  0  0  0  0  0  0
    1.4804    7.4920   10.3654 H   0  0  0  0  0  0  0  0  0  0  0  0
    2.2368    5.9158    7.8841 H   0  0  0  0  0  0  0  0  0  0  0  0
    2.3360    5.2890    9.4983 H   0  0  0  0  0  0  0  0  0  0  0  0
    3.3826    3.3088    7.9724 H   0  0  0  0  0  0  0  0  0  0  0  0
    2.7287    3.1345    9.4462 H   0  0  0  0  0  0  0  0  0  0  0  0
    2.0451    1.1086    9.2205 H   0  0  0  0  0  0  0  0  0  0  0  0
    4.9496    0.0352    7.2633 H   0  0  0  0  0  0  0  0  0  0  0  0
    4.2858    0.1894    8.8800 H   0  0  0  0  0  0  0  0  0  0  0  0
    4.7686    1.6113    7.9898 H   0  0  0  0  0  0  0  0  0  0  0  0
    3.0273   -1.4225    7.8951 H   0  0  0  0  0  0  0  0  0  0  0  0
    1.4476   -0.9600    7.6879 H   0  0  0  0  0  0  0  0  0  0  0  0
    3.3986   -2.2082    5.6713 H   0  0  0  0  0  0  0  0  0  0  0  0
    1.8740   -2.7809    6.1479 H   0  0  0  0  0  0  0  0  0  0  0  0
    2.4433   -1.5645    3.6217 H   0  0  0  0  0  0  0  0  0  0  0  0
    0.9019   -1.9983    4.1347 H   0  0  0  0  0  0  0  0  0  0  0  0
    0.2060    0.3096    6.3897 H   0  0  0  0  0  0  0  0  0  0  0  0
    0.1107   -1.2942    5.9751 H   0  0  0  0  0  0  0  0  0  0  0  0
   -0.7228   -0.2997    4.9815 H   0  0  0  0  0  0  0  0  0  0  0  0
    3.6537   -0.1485    5.2327 H   0  0  0  0  0  0  0  0  0  0  0  0
    3.4829    1.0710    2.6811 H   0  0  0  0  0  0  0  0  0  0  0  0
    4.1674   -0.4067    3.2356 H   0  0  0  0  0  0  0  0  0  0  0  0
    4.8372    1.0674    3.7882 H   0  0  0  0  0  0  0  0  0  0  0  0
    1.9368    1.8085    6.0057 H   0  0  0  0  0  0  0  0  0  0  0  0
    4.4872    3.1918    6.3663 H   0  0  0  0  0  0  0  0  0  0  0  0
    4.3435    2.8117    4.8045 H   0  0  0  0  0  0  0  0  0  0  0  0
    2.8534    4.9550    6.0457 H   0  0  0  0  0  0  0  0  0  0  0  0
    3.1687    4.6747    4.3870 H   0  0  0  0  0  0  0  0  0  0  0  0
   -1.9049    5.0834    2.7522 H   0  0  0  0  0  0  0  0  0  0  0  0
   -2.8912    3.8848    3.5771 H   0  0  0  0  0  0  0  0  0  0  0  0
   -2.0135    3.4731    2.0886 H   0  0  0  0  0  0  0  0  0  0  0  0
   -1.5529    1.6456    3.6811 H   0  0  0  0  0  0  0  0  0  0  0  0
   -2.1117    2.7396    5.6996 H   0  0  0  0  0  0  0  0  0  0  0  0
   -1.7181    1.1786    6.0170 H   0  0  0  0  0  0  0  0  0  0  0  0
   -1.2036    2.9779    7.3777 H   0  0  0  0  0  0  0  0  0  0  0  0
   -1.5760    1.2020    8.9372 H   0  0  0  0  0  0  0  0  0  0  0  0
   -0.1935    0.6123    9.8352 H   0  0  0  0  0  0  0  0  0  0  0  0
   -0.5760   -0.1039    8.3000 H   0  0  0  0  0  0  0  0  0  0  0  0
    0.7248    3.0135   10.0142 H   0  0  0  0  0  0  0  0  0  0  0  0
   -0.6196    3.6682    9.1818 H   0  0  0  0  0  0  0  0  0  0  0  0
   -1.3799    4.8884    6.0246 H   0  0  0  0  0  0  0  0  0  0  0  0
   -1.0640    5.0772    7.6329 H   0  0  0  0  0  0  0  0  0  0  0  0
    0.5360    6.6171    7.0951 H   0  0  0  0  0  0  0  0  0  0  0  0
   -0.4963    0.1660    2.3424 H   0  0  0  0  0  0  0  0  0  0  0  0
    0.0056    1.6568    1.6099 H   0  0  0  0  0  0  0  0  0  0  0  0
    1.1235   -0.1212    0.7856 H   0  0  0  0  0  0  0  0  0  0  0  0
    2.5439    2.5074    3.7211 H   0  0  0  0  0  0  0  0  0  0  0  0
    1.0413    3.5655    2.0191 H   0  0  0  0  0  0  0  0  0  0  0  0
  1  2  1  0
  1 38  1  0
  1 39  1  0
  1 40  1  0
  2  3  1  0
  4  3  1  1
  3 41  1  0
  3 42  1  0
  4 29  1  0
  4 30  1  0
  4  5  1  0
  5  6  1  0
  5 43  1  0
  5 44  1  0
  6 27  1  0
  6  7  1  0
  6 45  1  1
  7 16  1  0
  7  8  1  1
  7  9  1  0
  8 46  1  0
  8 47  1  0
  8 48  1  0
  9 10  1  0
  9 49  1  0
  9 50  1  0
 10 11  1  0
 10 51  1  0
 10 52  1  0
 11 12  1  0
 11 53  1  0
 11 54  1  0
 12 33  1  0
 12 13  1  1
 12 14  1  0
 13 55  1  0
 13 56  1  0
 13 57  1  0
 14 15  1  0
 14 16  1  0
 14 58  1  1
 15 59  1  0
 15 60  1  0
 15 61  1  0
 16 17  1  0
 16 62  1  6
 17 18  1  0
 17 63  1  0
 17 64  1  0
 19 18  1  1
 18 65  1  0
 18 66  1  0
 19 30  1  0
 19 36  1  0
 19 20  1  0
 20 21  2  0
 20 22  1  0
 22 23  1  0
 22 24  1  0
 23 67  1  0
 23 68  1  0
 23 69  1  0
 24 25  1  0
 24 33  1  0
 24 70  1  6
 25 26  1  0
 25 71  1  0
 25 72  1  0
 26 27  1  0
 26 30  1  0
 26 73  1  1
 27 28  1  1
 27 29  1  0
 28 74  1  0
 28 75  1  0
 28 76  1  0
 29 77  1  0
 29 78  1  0
 30 31  1  6
 31 32  1  0
 31 79  1  0
 31 80  1  0
 32 81  1  0
 33 34  1  6
 33 36  1  0
 34 35  1  0
 34 82  1  0
 34 83  1  0
 35 84  1  0
 36 37  1  0
 36 85  1  1
 37 86  1  0
M  END
>  <i_m_ct_stereo_status>  (206) 
1

>  <s_m_source_file>  (206) 
/var/tmp/pbs.5076255.sched01/tmppxgjifq_/8475v0iq0b.sdf

>  <i_m_source_file_index>  (206) 
4

>  <i_lp_mmshare_version>  (206) 
48012

>  <i_f3d_flags>  (206) 
0

>  <s_epik_input>  (206) 
W0NIM11PW0NIMl1bQ0BAXTEoW0NAXTIoW0NAXTM0NSlbQ0gyXVtPSF0pW0NIMl1bQ0BASF02QzcoW0NIM10pW0NAQEhdKFtDSDJdW0NIMl0zKVtDQEhdKFtDSDNdKVtDQF0oW0NIM10pKFtDSDJdW0NIMl1bQ0gyXTcpW0NAXShbQ0gyXVtPSF0pKFtDQEhdNVtPSF0pW0NASF0oTihDND1PKVtDSDNdKVtDSDJdW0NASF0yW0NAXTYoW0NIM10pW0NIMl0x

>  <s_epik_cmdline>  (206) 
J2VwaWtfcHl0aG9uJywgJy1waHQnLCAnMi4wJywgJy1waCcsICc3LjAnLCAnLXRuJywgJzgnLCAnLW1hJywgJzIwMCcsICctaW1hZScsICc8aW5maWxlLm1hZT4nLCAnLW9tYWUnLCAnPG91dGZpbGUubWFlPic=

>  <r_lp_tautomer_probability>  (206) 
1

>  <r_epik_Ionization_Penalty>  (206) 
5.08163e-07

>  <r_epik_Ionization_Penalty_Charging>  (206) 
0

>  <r_epik_Ionization_Penalty_Neutral>  (206) 
5.08163e-07

>  <r_epik_State_Penalty>  (206) 
-0

>  <r_epik_Charging_Adjusted_Penalty>  (206) 
0

>  <i_epik_Tot_Q>  (206) 
0

>  <i_epik_Tot_abs_Q>  (206) 
0

>  <s_lp_Force_Field>  (206) 
OPLS3e

>  <r_lp_Energy>  (206) 
466.841

>  <b_lp_Chiralities_Consistent>  (206) 
1

>  <s_lp_Variant>  (206) 
59:0-2

>  <s_i_glide_gridfile>  (206) 
pfpi4k_grid

>  <i_i_glide_lignum>  (206) 
4

>  <i_i_glide_rotatable_bonds>  (206) 
7

>  <r_i_docking_score>  (206) 
-1.76724

>  <r_i_glide_ligand_efficiency>  (206) 
-0.0477632

>  <r_i_glide_ligand_efficiency_sa>  (206) 
-0.159158

>  <r_i_glide_ligand_efficiency_ln>  (206) 
-0.383273

>  <r_i_glide_gscore>  (206) 
-1.76724

>  <r_i_glide_lipo>  (206) 
0

>  <r_i_glide_hbond>  (206) 
0

>  <r_i_glide_metal>  (206) 
-0

>  <r_i_glide_rewards>  (206) 
0

>  <r_i_glide_evdw>  (206) 
-20.0427

>  <r_i_glide_ecoul>  (206) 
-5.66476

>  <r_i_glide_erotb>  (206) 
0.231464

>  <r_i_glide_esite>  (206) 
-0.146855

>  <r_i_glide_emodel>  (206) 
-26.6724

>  <r_i_glide_energy>  (206) 
-25.7074

>  <r_i_glide_einternal>  (206) 
2.88505

>  <r_i_glide_intrahb_reward>  (206) 
-0

>  <i_i_glide_confnum>  (206) 
2

>  <i_i_glide_posenum>  (206) 
36

>  <r_i_glide_eff_state_penalty>  (206) 
0

>  <ligand_id>  (206) 
59

>  <original_smiles>  (206) 
COCC12CC3C4(C)CCCC5(C)C(C)C4CCC46C(=O)N(C)C(CC(C3(C)C1)C24CO)C5(CO)C6O

>  <smiles>  (206) 
[H]OC([H])([H])C12C([H])(O[H])C34C(=O)N(C([H])([H])[H])C1([H])C([H])([H])C1([H])C5(C([H])([H])[H])C([H])([H])C(C([H])([H])OC([H])([H])[H])(C([H])([H])C5([H])C5(C([H])([H])[H])C([H])([H])C([H])([H])C([H])([H])C2(C([H])([H])[H])C([H])(C([H])([H])[H])C5([H])C([H])([H])C3([H])[H])C14C([H])([H])O[H]

$$$$
60:0:0
     RDKit          3D

 73 77  0  0  1  0  0  0  0  0999 V2000
   -0.2138   -5.6944    6.9607 C   0  0  0  0  0  0  0  0  0  0  0  0
    0.3389   -6.8149    6.0515 C   0  0  2  0  0  0  0  0  0  0  0  0
    1.8472   -6.6991    5.8557 C   0  0  0  0  0  0  0  0  0  0  0  0
    2.4691   -6.8563    4.6842 C   0  0  0  0  0  0  0  0  0  0  0  0
    3.9048   -6.7375    4.4767 C   0  0  0  0  0  0  0  0  0  0  0  0
    4.7244   -6.5054    5.3824 O   0  0  0  0  0  0  0  0  0  0  0  0
    4.3831   -6.9075    3.0058 C   0  0  2  0  0  0  0  0  0  0  0  0
    5.8576   -7.4169    2.9245 C   0  0  0  0  0  0  0  0  0  0  0  0
    6.6501   -6.2215    2.3993 C   0  0  0  0  0  0  0  0  0  0  0  0
    5.6867   -5.0082    2.4157 C   0  0  1  0  0  0  0  0  0  0  0  0
    6.1132   -3.8429    1.4916 C   0  0  2  0  0  0  0  0  0  0  0  0
    5.4481   -2.4880    1.9109 C   0  0  0  0  0  0  0  0  0  0  0  0
    5.8276   -1.2946    1.0082 C   0  0  0  0  0  0  0  0  0  0  0  0
    5.5925   -1.6701   -0.4548 C   0  0  0  0  0  0  0  0  0  0  0  0
    4.7549   -0.9506   -1.2304 C   0  0  0  0  0  0  0  0  0  0  0  0
    4.4322   -1.3384   -2.6166 C   0  0  0  0  0  0  0  0  0  0  0  0
    3.9250   -0.5667   -3.4426 O   0  0  0  0  0  0  0  0  0  0  0  0
    4.7765   -2.7527   -3.0497 C   0  0  0  0  0  0  0  0  0  0  0  0
    6.1141   -3.2060   -2.4432 C   0  0  0  0  0  0  0  0  0  0  0  0
    6.3224   -2.9459   -0.9161 C   0  0  1  0  0  0  0  0  0  0  0  0
    7.8533   -2.7479   -0.7247 C   0  0  0  0  0  0  0  0  0  0  0  0
    5.8887   -4.1474   -0.0176 C   0  0  2  0  0  0  0  0  0  0  0  0
    4.4454   -4.6756   -0.2474 C   0  0  0  0  0  0  0  0  0  0  0  0
    4.1202   -5.9005    0.6486 C   0  0  0  0  0  0  0  0  0  0  0  0
    4.3094   -5.5897    2.1454 C   0  0  1  0  0  0  0  0  0  0  0  0
    3.1506   -4.6442    2.5766 C   0  0  0  0  0  0  0  0  0  0  0  0
   -0.4484   -6.9528    4.7304 C   0  0  2  0  0  0  0  0  0  0  0  0
   -1.5589   -7.9692    4.5565 C   0  0  0  0  0  0  0  0  0  0  0  0
   -0.2811   -8.1347    3.8000 C   0  0  0  0  0  0  0  0  0  0  0  0
   -0.2749   -7.8705    2.3118 C   0  0  0  0  0  0  0  0  0  0  0  0
    0.6765   -9.2568    4.1444 C   0  0  0  0  0  0  0  0  0  0  0  0
    0.2906   -5.7140    7.9302 H   0  0  0  0  0  0  0  0  0  0  0  0
   -1.2802   -5.8255    7.1574 H   0  0  0  0  0  0  0  0  0  0  0  0
   -0.0677   -4.7028    6.5261 H   0  0  0  0  0  0  0  0  0  0  0  0
    0.2052   -7.7382    6.6280 H   0  0  0  0  0  0  0  0  0  0  0  0
    2.4275   -6.5021    6.7544 H   0  0  0  0  0  0  0  0  0  0  0  0
    1.8705   -7.0413    3.8048 H   0  0  0  0  0  0  0  0  0  0  0  0
    3.7399   -7.6865    2.5591 H   0  0  0  0  0  0  0  0  0  0  0  0
    6.2674   -7.7455    3.8775 H   0  0  0  0  0  0  0  0  0  0  0  0
    5.9469   -8.2709    2.2543 H   0  0  0  0  0  0  0  0  0  0  0  0
    7.5458   -6.0416    3.0096 H   0  0  0  0  0  0  0  0  0  0  0  0
    7.0224   -6.4469    1.3909 H   0  0  0  0  0  0  0  0  0  0  0  0
    5.7428   -4.6431    3.4448 H   0  0  0  0  0  0  0  0  0  0  0  0
    7.1925   -3.7334    1.6293 H   0  0  0  0  0  0  0  0  0  0  0  0
    4.3596   -2.5704    1.9026 H   0  0  0  0  0  0  0  0  0  0  0  0
    5.7505   -2.2517    2.9421 H   0  0  0  0  0  0  0  0  0  0  0  0
    5.1995   -0.4472    1.2735 H   0  0  0  0  0  0  0  0  0  0  0  0
    6.8583   -0.9793    1.1459 H   0  0  0  0  0  0  0  0  0  0  0  0
    4.2545   -0.0755   -0.8495 H   0  0  0  0  0  0  0  0  0  0  0  0
    3.9594   -3.4212   -2.7678 H   0  0  0  0  0  0  0  0  0  0  0  0
    4.8449   -2.7920   -4.1416 H   0  0  0  0  0  0  0  0  0  0  0  0
    6.2285   -4.2446   -2.6890 H   0  0  0  0  0  0  0  0  0  0  0  0
    6.8796   -2.6700   -3.0050 H   0  0  0  0  0  0  0  0  0  0  0  0
    8.4311   -3.6165   -1.0712 H   0  0  0  0  0  0  0  0  0  0  0  0
    8.1540   -2.5703    0.3213 H   0  0  0  0  0  0  0  0  0  0  0  0
    8.2426   -1.9255   -1.3357 H   0  0  0  0  0  0  0  0  0  0  0  0
    6.5144   -4.9944   -0.2913 H   0  0  0  0  0  0  0  0  0  0  0  0
    3.7131   -3.8739   -0.1131 H   0  0  0  0  0  0  0  0  0  0  0  0
    4.3276   -4.9812   -1.2934 H   0  0  0  0  0  0  0  0  0  0  0  0
    3.1010   -6.2506    0.4386 H   0  0  0  0  0  0  0  0  0  0  0  0
    4.7617   -6.7235    0.3345 H   0  0  0  0  0  0  0  0  0  0  0  0
    2.9765   -3.8113    1.8973 H   0  0  0  0  0  0  0  0  0  0  0  0
    3.3496   -4.1650    3.5432 H   0  0  0  0  0  0  0  0  0  0  0  0
    2.1686   -5.1488    2.6919 H   0  0  0  0  0  0  0  0  0  0  0  0
   -0.6385   -5.9822    4.2689 H   0  0  0  0  0  0  0  0  0  0  0  0
   -1.7661   -8.6562    5.3655 H   0  0  0  0  0  0  0  0  0  0  0  0
   -2.4430   -7.6703    4.0023 H   0  0  0  0  0  0  0  0  0  0  0  0
   -0.5453   -8.7691    1.7594 H   0  0  0  0  0  0  0  0  0  0  0  0
    0.7042   -7.5301    1.9742 H   0  0  0  0  0  0  0  0  0  0  0  0
   -1.0043   -7.0949    2.0743 H   0  0  0  0  0  0  0  0  0  0  0  0
    0.3803  -10.2046    3.6747 H   0  0  0  0  0  0  0  0  0  0  0  0
    0.6574   -9.4890    5.2090 H   0  0  0  0  0  0  0  0  0  0  0  0
    1.6626   -8.8958    3.8570 H   0  0  0  0  0  0  0  0  0  0  0  0
  1  2  1  0
  1 32  1  0
  1 33  1  0
  1 34  1  0
  2  3  1  0
  2 27  1  0
  2 35  1  1
  3  4  2  3
  3 36  1  0
  4  5  1  0
  4 37  1  0
  5  6  2  0
  5  7  1  0
  7 25  1  0
  7  8  1  0
  7 38  1  6
  8  9  1  0
  8 39  1  0
  8 40  1  0
  9 10  1  0
  9 41  1  0
  9 42  1  0
 10 25  1  0
 10 11  1  0
 10 43  1  1
 11 22  1  0
 11 12  1  0
 11 44  1  6
 12 13  1  0
 12 45  1  0
 12 46  1  0
 13 14  1  0
 13 47  1  0
 13 48  1  0
 14 20  1  0
 14 15  2  0
 15 16  1  0
 15 49  1  0
 16 17  2  0
 16 18  1  0
 18 19  1  0
 18 50  1  0
 18 51  1  0
 19 20  1  0
 19 52  1  0
 19 53  1  0
 20 21  1  6
 20 22  1  0
 21 54  1  0
 21 55  1  0
 21 56  1  0
 22 23  1  0
 22 57  1  6
 23 24  1  0
 23 58  1  0
 23 59  1  0
 24 25  1  0
 24 60  1  0
 24 61  1  0
 25 26  1  1
 26 62  1  0
 26 63  1  0
 26 64  1  0
 27 29  1  0
 27 28  1  0
 27 65  1  6
 28 29  1  0
 28 66  1  0
 28 67  1  0
 29 30  1  0
 29 31  1  0
 30 68  1  0
 30 69  1  0
 30 70  1  0
 31 71  1  0
 31 72  1  0
 31 73  1  0
M  END
>  <i_m_ct_stereo_status>  (207) 
1

>  <s_m_source_file>  (207) 
/var/tmp/pbs.5076255.sched01/tmppxgjifq_/8475v0iq0b.sdf

>  <i_m_source_file_index>  (207) 
5

>  <i_lp_mmshare_version>  (207) 
48012

>  <i_f3d_flags>  (207) 
0

>  <s_epik_input>  (207) 
W0NIM11DMShbQ0gzXSlbQ0BASF0oW0NIMl0xKVtDQEhdKFtDSDNdKS9bQ0hdPVtDSF0vQyg9TylbQ0BIXShbQ0gyXVtDSDJdMilbQ0BdKFtDSDNdKShbQ0gyXVtDSDJdW0NASF0zNClbQ0BASF0yW0NAQEhdM1tDSDJdW0NIMl1DKFtDQEBdNDVbQ0gzXSk9W0NIXUMoPU8pW0NIMl1bQ0gyXTU=

>  <s_epik_cmdline>  (207) 
J2VwaWtfcHl0aG9uJywgJy1waHQnLCAnMi4wJywgJy1waCcsICc3LjAnLCAnLXRuJywgJzgnLCAnLW1hJywgJzIwMCcsICctaW1hZScsICc8aW5maWxlLm1hZT4nLCAnLW9tYWUnLCAnPG91dGZpbGUubWFlPic=

>  <r_lp_tautomer_probability>  (207) 
1

>  <r_epik_Ionization_Penalty>  (207) 
0

>  <r_epik_Ionization_Penalty_Charging>  (207) 
0

>  <r_epik_Ionization_Penalty_Neutral>  (207) 
0

>  <r_epik_State_Penalty>  (207) 
-0

>  <r_epik_Charging_Adjusted_Penalty>  (207) 
0

>  <i_epik_Tot_Q>  (207) 
0

>  <i_epik_Tot_abs_Q>  (207) 
0

>  <s_lp_Force_Field>  (207) 
OPLS3e

>  <r_lp_Energy>  (207) 
44.986

>  <b_lp_Chiralities_Consistent>  (207) 
1

>  <s_lp_Variant>  (207) 
60:0-1

>  <s_i_glide_gridfile>  (207) 
pfpi4k_grid

>  <i_i_glide_lignum>  (207) 
5

>  <i_i_glide_rotatable_bonds>  (207) 
4

>  <r_i_docking_score>  (207) 
-2.42662

>  <r_i_glide_ligand_efficiency>  (207) 
-0.0782782

>  <r_i_glide_ligand_efficiency_sa>  (207) 
-0.245902

>  <r_i_glide_ligand_efficiency_ln>  (207) 
-0.547278

>  <r_i_glide_gscore>  (207) 
-2.42662

>  <r_i_glide_lipo>  (207) 
-0.914335

>  <r_i_glide_hbond>  (207) 
0

>  <r_i_glide_metal>  (207) 
-0

>  <r_i_glide_rewards>  (207) 
-0.527437

>  <r_i_glide_evdw>  (207) 
-26.7049

>  <r_i_glide_ecoul>  (207) 
-0.350759

>  <r_i_glide_erotb>  (207) 
0.443658

>  <r_i_glide_esite>  (207) 
-0.0406482

>  <r_i_glide_emodel>  (207) 
-27.3615

>  <r_i_glide_energy>  (207) 
-27.0557

>  <r_i_glide_einternal>  (207) 
3.17622

>  <r_i_glide_intrahb_reward>  (207) 
-0

>  <i_i_glide_confnum>  (207) 
3

>  <i_i_glide_posenum>  (207) 
1

>  <r_i_glide_eff_state_penalty>  (207) 
0

>  <ligand_id>  (207) 
60

>  <original_smiles>  (207) 
CC(C=CC(=O)C1CCC2C3CCC4=CC(=O)CCC4(C)C3CCC12C)C1CC1(C)C

>  <smiles>  (207) 
[H]C(C(=O)C1([H])C([H])([H])C([H])([H])C2([H])C3([H])C([H])([H])C([H])([H])C4=C([H])C(=O)C([H])([H])C([H])([H])C4(C([H])([H])[H])C3([H])C([H])([H])C([H])([H])C12C([H])([H])[H])=C([H])C([H])(C([H])([H])[H])C1([H])C([H])([H])C1(C([H])([H])[H])C([H])([H])[H]

$$$$
60:0:1
     RDKit          3D

 73 77  0  0  1  0  0  0  0  0999 V2000
    6.9801   -5.7518    1.2487 C   0  0  0  0  0  0  0  0  0  0  0  0
    5.6680   -6.5358    1.3725 C   0  0  2  0  0  0  0  0  0  0  0  0
    4.5617   -5.6980    1.9768 C   0  0  0  0  0  0  0  0  0  0  0  0
    4.6278   -4.3952    2.3179 C   0  0  0  0  0  0  0  0  0  0  0  0
    3.4827   -3.6844    2.9190 C   0  0  0  0  0  0  0  0  0  0  0  0
    2.4012   -4.2113    3.2066 O   0  0  0  0  0  0  0  0  0  0  0  0
    3.7393   -2.2150    3.2459 C   0  0  2  0  0  0  0  0  0  0  0  0
    4.3885   -2.1347    4.6468 C   0  0  0  0  0  0  0  0  0  0  0  0
    3.3469   -1.4809    5.5582 C   0  0  0  0  0  0  0  0  0  0  0  0
    2.0384   -1.4597    4.7470 C   0  0  1  0  0  0  0  0  0  0  0  0
    0.9823   -0.4378    5.2381 C   0  0  2  0  0  0  0  0  0  0  0  0
   -0.4573   -0.8152    4.7571 C   0  0  0  0  0  0  0  0  0  0  0  0
   -1.5380    0.1959    5.2046 C   0  0  0  0  0  0  0  0  0  0  0  0
   -1.1054    1.6086    4.8504 C   0  0  0  0  0  0  0  0  0  0  0  0
   -1.8665    2.3956    4.0532 C   0  0  0  0  0  0  0  0  0  0  0  0
   -1.4299    3.7332    3.6352 C   0  0  0  0  0  0  0  0  0  0  0  0
   -2.2151    4.5761    3.1913 O   0  0  0  0  0  0  0  0  0  0  0  0
    0.0399    4.0923    3.7877 C   0  0  0  0  0  0  0  0  0  0  0  0
    0.6008    3.5248    5.1021 C   0  0  0  0  0  0  0  0  0  0  0  0
    0.2623    2.0291    5.4213 C   0  0  1  0  0  0  0  0  0  0  0  0
    0.2001    1.9426    6.9747 C   0  0  0  0  0  0  0  0  0  0  0  0
    1.3688    1.0373    4.9004 C   0  0  2  0  0  0  0  0  0  0  0  0
    1.7456    1.1809    3.3989 C   0  0  0  0  0  0  0  0  0  0  0  0
    2.8643    0.1810    2.9937 C   0  0  0  0  0  0  0  0  0  0  0  0
    2.4651   -1.2928    3.2682 C   0  0  1  0  0  0  0  0  0  0  0  0
    1.3876   -1.7004    2.2209 C   0  0  0  0  0  0  0  0  0  0  0  0
    5.8437   -7.8111    2.1985 C   0  0  2  0  0  0  0  0  0  0  0  0
    6.3683   -9.0692    1.5461 C   0  0  0  0  0  0  0  0  0  0  0  0
    4.9275   -9.0146    2.0034 C   0  0  0  0  0  0  0  0  0  0  0  0
    4.5407   -9.8492    3.2087 C   0  0  0  0  0  0  0  0  0  0  0  0
    3.7973   -8.9535    0.9896 C   0  0  0  0  0  0  0  0  0  0  0  0
    6.8285   -4.9054    0.5766 H   0  0  0  0  0  0  0  0  0  0  0  0
    7.7479   -6.3818    0.8070 H   0  0  0  0  0  0  0  0  0  0  0  0
    7.3453   -5.3742    2.2092 H   0  0  0  0  0  0  0  0  0  0  0  0
    5.3365   -6.7816    0.3654 H   0  0  0  0  0  0  0  0  0  0  0  0
    3.6390   -6.2226    2.1317 H   0  0  0  0  0  0  0  0  0  0  0  0
    5.5497   -3.8280    2.1514 H   0  0  0  0  0  0  0  0  0  0  0  0
    4.4380   -1.8406    2.5049 H   0  0  0  0  0  0  0  0  0  0  0  0
    4.6775   -3.1080    5.0568 H   0  0  0  0  0  0  0  0  0  0  0  0
    5.3078   -1.5435    4.6222 H   0  0  0  0  0  0  0  0  0  0  0  0
    3.2469   -2.0278    6.4944 H   0  0  0  0  0  0  0  0  0  0  0  0
    3.6882   -0.4844    5.8369 H   0  0  0  0  0  0  0  0  0  0  0  0
    1.6166   -2.4559    4.8918 H   0  0  0  0  0  0  0  0  0  0  0  0
    1.0296   -0.5433    6.3334 H   0  0  0  0  0  0  0  0  0  0  0  0
   -0.5158   -0.8460    3.6785 H   0  0  0  0  0  0  0  0  0  0  0  0
   -0.7123   -1.8083    5.1521 H   0  0  0  0  0  0  0  0  0  0  0  0
   -2.4658   -0.0519    4.6867 H   0  0  0  0  0  0  0  0  0  0  0  0
   -1.7595    0.1375    6.2892 H   0  0  0  0  0  0  0  0  0  0  0  0
   -2.8191    2.0628    3.6743 H   0  0  0  0  0  0  0  0  0  0  0  0
    0.5851    3.7314    2.9156 H   0  0  0  0  0  0  0  0  0  0  0  0
    0.1451    5.1798    3.7874 H   0  0  0  0  0  0  0  0  0  0  0  0
    1.6785    3.6912    5.1431 H   0  0  0  0  0  0  0  0  0  0  0  0
    0.1920    4.1691    5.8840 H   0  0  0  0  0  0  0  0  0  0  0  0
    1.1414    2.2609    7.4221 H   0  0  0  0  0  0  0  0  0  0  0  0
   -0.0027    0.9424    7.3612 H   0  0  0  0  0  0  0  0  0  0  0  0
   -0.5666    2.6122    7.3700 H   0  0  0  0  0  0  0  0  0  0  0  0
    2.2898    1.2911    5.4242 H   0  0  0  0  0  0  0  0  0  0  0  0
    0.8638    1.0626    2.7721 H   0  0  0  0  0  0  0  0  0  0  0  0
    2.1046    2.1828    3.1667 H   0  0  0  0  0  0  0  0  0  0  0  0
    3.1099    0.3052    1.9390 H   0  0  0  0  0  0  0  0  0  0  0  0
    3.7712    0.4517    3.5277 H   0  0  0  0  0  0  0  0  0  0  0  0
    0.7005   -0.8856    1.9813 H   0  0  0  0  0  0  0  0  0  0  0  0
    0.8026   -2.5384    2.5976 H   0  0  0  0  0  0  0  0  0  0  0  0
    1.8336   -2.0330    1.2823 H   0  0  0  0  0  0  0  0  0  0  0  0
    6.1701   -7.6279    3.2232 H   0  0  0  0  0  0  0  0  0  0  0  0
    6.5649   -9.0553    0.4795 H   0  0  0  0  0  0  0  0  0  0  0  0
    7.0680   -9.6612    2.1259 H   0  0  0  0  0  0  0  0  0  0  0  0
    4.2935  -10.8641    2.8964 H   0  0  0  0  0  0  0  0  0  0  0  0
    3.6791   -9.4182    3.7154 H   0  0  0  0  0  0  0  0  0  0  0  0
    5.3648   -9.9036    3.9185 H   0  0  0  0  0  0  0  0  0  0  0  0
    3.4545   -9.9535    0.7203 H   0  0  0  0  0  0  0  0  0  0  0  0
    4.1365   -8.4437    0.0857 H   0  0  0  0  0  0  0  0  0  0  0  0
    2.9420   -8.4215    1.4146 H   0  0  0  0  0  0  0  0  0  0  0  0
  1  2  1  0
  1 32  1  0
  1 33  1  0
  1 34  1  0
  2  3  1  0
  2 27  1  0
  2 35  1  6
  3  4  2  3
  3 36  1  0
  4  5  1  0
  4 37  1  0
  5  6  2  0
  5  7  1  0
  7 25  1  0
  7  8  1  0
  7 38  1  6
  8  9  1  0
  8 39  1  0
  8 40  1  0
  9 10  1  0
  9 41  1  0
  9 42  1  0
 10 25  1  0
 10 11  1  0
 10 43  1  6
 11 22  1  0
 11 12  1  0
 11 44  1  1
 12 13  1  0
 12 45  1  0
 12 46  1  0
 13 14  1  0
 13 47  1  0
 13 48  1  0
 14 20  1  0
 14 15  2  0
 15 16  1  0
 15 49  1  0
 16 17  2  0
 16 18  1  0
 18 19  1  0
 18 50  1  0
 18 51  1  0
 19 20  1  0
 19 52  1  0
 19 53  1  0
 20 21  1  1
 20 22  1  0
 21 54  1  0
 21 55  1  0
 21 56  1  0
 22 23  1  0
 22 57  1  1
 23 24  1  0
 23 58  1  0
 23 59  1  0
 24 25  1  0
 24 60  1  0
 24 61  1  0
 25 26  1  6
 26 62  1  0
 26 63  1  0
 26 64  1  0
 27 29  1  0
 27 28  1  0
 27 65  1  1
 28 29  1  0
 28 66  1  0
 28 67  1  0
 29 30  1  0
 29 31  1  0
 30 68  1  0
 30 69  1  0
 30 70  1  0
 31 71  1  0
 31 72  1  0
 31 73  1  0
M  END
>  <i_m_ct_stereo_status>  (208) 
1

>  <s_m_source_file>  (208) 
/var/tmp/pbs.5076255.sched01/tmppxgjifq_/8475v0iq0b.sdf

>  <i_m_source_file_index>  (208) 
5

>  <i_lp_mmshare_version>  (208) 
48012

>  <i_f3d_flags>  (208) 
0

>  <s_epik_input>  (208) 
W0NIM11DMShbQ0gzXSlbQ0BASF0oW0NIMl0xKVtDQEhdKFtDSDNdKS9bQ0hdPVtDSF0vQyg9TylbQ0BIXShbQ0gyXVtDSDJdMilbQ0BdKFtDSDNdKShbQ0gyXVtDSDJdW0NASF0zNClbQ0BASF0yW0NAQEhdM1tDSDJdW0NIMl1DKFtDQEBdNDVbQ0gzXSk9W0NIXUMoPU8pW0NIMl1bQ0gyXTU=

>  <s_epik_cmdline>  (208) 
J2VwaWtfcHl0aG9uJywgJy1waHQnLCAnMi4wJywgJy1waCcsICc3LjAnLCAnLXRuJywgJzgnLCAnLW1hJywgJzIwMCcsICctaW1hZScsICc8aW5maWxlLm1hZT4nLCAnLW9tYWUnLCAnPG91dGZpbGUubWFlPic=

>  <r_lp_tautomer_probability>  (208) 
1

>  <r_epik_Ionization_Penalty>  (208) 
0

>  <r_epik_Ionization_Penalty_Charging>  (208) 
0

>  <r_epik_Ionization_Penalty_Neutral>  (208) 
0

>  <r_epik_State_Penalty>  (208) 
-0

>  <r_epik_Charging_Adjusted_Penalty>  (208) 
0

>  <i_epik_Tot_Q>  (208) 
0

>  <i_epik_Tot_abs_Q>  (208) 
0

>  <s_lp_Force_Field>  (208) 
OPLS3e

>  <r_lp_Energy>  (208) 
44.986

>  <b_lp_Chiralities_Consistent>  (208) 
1

>  <s_lp_Variant>  (208) 
60:0-1

>  <s_i_glide_gridfile>  (208) 
pfpi4k_grid

>  <i_i_glide_lignum>  (208) 
5

>  <i_i_glide_rotatable_bonds>  (208) 
4

>  <r_i_docking_score>  (208) 
-2.23976

>  <r_i_glide_ligand_efficiency>  (208) 
-0.0722502

>  <r_i_glide_ligand_efficiency_sa>  (208) 
-0.226966

>  <r_i_glide_ligand_efficiency_ln>  (208) 
-0.505134

>  <r_i_glide_gscore>  (208) 
-2.23976

>  <r_i_glide_lipo>  (208) 
-0.359971

>  <r_i_glide_hbond>  (208) 
-0.16

>  <r_i_glide_metal>  (208) 
-0

>  <r_i_glide_rewards>  (208) 
-0.527872

>  <r_i_glide_evdw>  (208) 
-21.7421

>  <r_i_glide_ecoul>  (208) 
-3.1149

>  <r_i_glide_erotb>  (208) 
0.443658

>  <r_i_glide_esite>  (208) 
-0.0812309

>  <r_i_glide_emodel>  (208) 
-26.3678

>  <r_i_glide_energy>  (208) 
-24.857

>  <r_i_glide_einternal>  (208) 
2.86352

>  <r_i_glide_intrahb_reward>  (208) 
-0

>  <i_i_glide_confnum>  (208) 
4

>  <i_i_glide_posenum>  (208) 
6

>  <r_i_glide_eff_state_penalty>  (208) 
0

>  <ligand_id>  (208) 
60

>  <original_smiles>  (208) 
CC(C=CC(=O)C1CCC2C3CCC4=CC(=O)CCC4(C)C3CCC12C)C1CC1(C)C

>  <smiles>  (208) 
[H]C(C(=O)C1([H])C([H])([H])C([H])([H])C2([H])C3([H])C([H])([H])C([H])([H])C4=C([H])C(=O)C([H])([H])C([H])([H])C4(C([H])([H])[H])C3([H])C([H])([H])C([H])([H])C12C([H])([H])[H])=C([H])C([H])(C([H])([H])[H])C1([H])C([H])([H])C1(C([H])([H])[H])C([H])([H])[H]

$$$$
60:0:2
     RDKit          3D

 73 77  0  0  1  0  0  0  0  0999 V2000
    1.4726   -0.4879    2.6594 C   0  0  0  0  0  0  0  0  0  0  0  0
    0.4791   -0.2237    3.8349 C   0  0  2  0  0  0  0  0  0  0  0  0
    0.1371   -1.5217    4.5125 C   0  0  0  0  0  0  0  0  0  0  0  0
    0.2829   -1.7852    5.8296 C   0  0  0  0  0  0  0  0  0  0  0  0
    0.0469   -3.1228    6.4148 C   0  0  0  0  0  0  0  0  0  0  0  0
   -0.0391   -3.2663    7.6335 O   0  0  0  0  0  0  0  0  0  0  0  0
   -0.0269   -4.3579    5.4663 C   0  0  2  0  0  0  0  0  0  0  0  0
   -0.7960   -5.5664    6.1035 C   0  0  0  0  0  0  0  0  0  0  0  0
    0.2387   -6.6798    6.2683 C   0  0  0  0  0  0  0  0  0  0  0  0
    1.6129   -6.0138    6.0069 C   0  0  1  0  0  0  0  0  0  0  0  0
    2.7455   -6.9981    5.6398 C   0  0  2  0  0  0  0  0  0  0  0  0
    4.1634   -6.3847    5.8641 C   0  0  0  0  0  0  0  0  0  0  0  0
    5.2968   -7.3764    5.5748 C   0  0  0  0  0  0  0  0  0  0  0  0
    5.1377   -8.0281    4.2033 C   0  0  0  0  0  0  0  0  0  0  0  0
    6.2076   -8.1253    3.3651 C   0  0  0  0  0  0  0  0  0  0  0  0
    6.1219   -8.9297    2.1478 C   0  0  0  0  0  0  0  0  0  0  0  0
    7.0070   -8.9027    1.2540 O   0  0  0  0  0  0  0  0  0  0  0  0
    4.9556   -9.8737    1.9872 C   0  0  0  0  0  0  0  0  0  0  0  0
    3.6693   -9.1624    2.4344 C   0  0  0  0  0  0  0  0  0  0  0  0
    3.7574   -8.6261    3.9032 C   0  0  1  0  0  0  0  0  0  0  0  0
    3.5872   -9.8583    4.8304 C   0  0  0  0  0  0  0  0  0  0  0  0
    2.6074   -7.5882    4.1978 C   0  0  2  0  0  0  0  0  0  0  0  0
    2.4190   -6.4298    3.1787 C   0  0  0  0  0  0  0  0  0  0  0  0
    1.2298   -5.5140    3.5585 C   0  0  0  0  0  0  0  0  0  0  0  0
    1.3596   -4.9021    4.9808 C   0  0  1  0  0  0  0  0  0  0  0  0
    2.4971   -3.8227    4.9249 C   0  0  0  0  0  0  0  0  0  0  0  0
   -0.7970    0.4890    3.4173 C   0  0  2  0  0  0  0  0  0  0  0  0
   -1.0466    1.0726    2.0540 C   0  0  0  0  0  0  0  0  0  0  0  0
   -0.8445    1.9813    3.2305 C   0  0  0  0  0  0  0  0  0  0  0  0
   -2.0342    2.7785    3.6923 C   0  0  0  0  0  0  0  0  0  0  0  0
    0.4527    2.7831    3.4648 C   0  0  0  0  0  0  0  0  0  0  0  0
    2.3833   -0.9895    3.0019 H   0  0  0  0  0  0  0  0  0  0  0  0
    1.7548    0.4368    2.1583 H   0  0  0  0  0  0  0  0  0  0  0  0
    1.0180   -1.1709    1.9337 H   0  0  0  0  0  0  0  0  0  0  0  0
    0.9614    0.3876    4.6083 H   0  0  0  0  0  0  0  0  0  0  0  0
   -0.2404   -2.2662    3.8252 H   0  0  0  0  0  0  0  0  0  0  0  0
    0.6251   -1.0210    6.5096 H   0  0  0  0  0  0  0  0  0  0  0  0
   -0.5466   -4.0753    4.5581 H   0  0  0  0  0  0  0  0  0  0  0  0
   -1.2908   -5.3606    7.0576 H   0  0  0  0  0  0  0  0  0  0  0  0
   -1.5907   -5.9126    5.4394 H   0  0  0  0  0  0  0  0  0  0  0  0
    0.1860   -7.1252    7.2632 H   0  0  0  0  0  0  0  0  0  0  0  0
    0.0229   -7.4822    5.5587 H   0  0  0  0  0  0  0  0  0  0  0  0
    1.8766   -5.5623    6.9653 H   0  0  0  0  0  0  0  0  0  0  0  0
    2.5972   -7.8070    6.3611 H   0  0  0  0  0  0  0  0  0  0  0  0
    4.3728   -5.5524    5.2162 H   0  0  0  0  0  0  0  0  0  0  0  0
    4.2423   -6.0467    6.9046 H   0  0  0  0  0  0  0  0  0  0  0  0
    6.2381   -6.8278    5.6262 H   0  0  0  0  0  0  0  0  0  0  0  0
    5.3631   -8.1629    6.3364 H   0  0  0  0  0  0  0  0  0  0  0  0
    7.1607   -7.7053    3.6273 H   0  0  0  0  0  0  0  0  0  0  0  0
    4.8795  -10.2169    0.9559 H   0  0  0  0  0  0  0  0  0  0  0  0
    5.1221  -10.7636    2.5950 H   0  0  0  0  0  0  0  0  0  0  0  0
    3.5017   -8.3709    1.7060 H   0  0  0  0  0  0  0  0  0  0  0  0
    2.8219   -9.8390    2.3183 H   0  0  0  0  0  0  0  0  0  0  0  0
    2.6299  -10.3585    4.6798 H   0  0  0  0  0  0  0  0  0  0  0  0
    3.6473   -9.6200    5.8929 H   0  0  0  0  0  0  0  0  0  0  0  0
    4.3691  -10.6015    4.6583 H   0  0  0  0  0  0  0  0  0  0  0  0
    1.6694   -8.1431    4.1367 H   0  0  0  0  0  0  0  0  0  0  0  0
    3.3422   -5.8562    3.0733 H   0  0  0  0  0  0  0  0  0  0  0  0
    2.2134   -6.7976    2.1714 H   0  0  0  0  0  0  0  0  0  0  0  0
    1.1252   -4.7157    2.8235 H   0  0  0  0  0  0  0  0  0  0  0  0
    0.3150   -6.1031    3.4679 H   0  0  0  0  0  0  0  0  0  0  0  0
    3.3716   -4.1226    4.3613 H   0  0  0  0  0  0  0  0  0  0  0  0
    2.8415   -3.5665    5.9296 H   0  0  0  0  0  0  0  0  0  0  0  0
    2.1933   -2.8910    4.4471 H   0  0  0  0  0  0  0  0  0  0  0  0
   -1.6821    0.0744    3.9382 H   0  0  0  0  0  0  0  0  0  0  0  0
   -0.2555    1.0330    1.2982 H   0  0  0  0  0  0  0  0  0  0  0  0
   -2.0699    0.9611    1.6650 H   0  0  0  0  0  0  0  0  0  0  0  0
   -2.1050    3.6831    3.0965 H   0  0  0  0  0  0  0  0  0  0  0  0
   -1.9549    3.0314    4.7471 H   0  0  0  0  0  0  0  0  0  0  0  0
   -2.9541    2.1978    3.5449 H   0  0  0  0  0  0  0  0  0  0  0  0
    0.3727    3.7628    2.9927 H   0  0  0  0  0  0  0  0  0  0  0  0
    1.3130    2.2405    3.0833 H   0  0  0  0  0  0  0  0  0  0  0  0
    0.5624    2.9893    4.5326 H   0  0  0  0  0  0  0  0  0  0  0  0
  1  2  1  0
  1 32  1  0
  1 33  1  0
  1 34  1  0
  2  3  1  0
  2 27  1  0
  2 35  1  1
  3  4  2  3
  3 36  1  0
  4  5  1  0
  4 37  1  0
  5  6  2  0
  5  7  1  0
  7 25  1  0
  7  8  1  0
  7 38  1  6
  8  9  1  0
  8 39  1  0
  8 40  1  0
  9 10  1  0
  9 41  1  0
  9 42  1  0
 10 25  1  0
 10 11  1  0
 10 43  1  1
 11 22  1  0
 11 12  1  0
 11 44  1  1
 12 13  1  0
 12 45  1  0
 12 46  1  0
 13 14  1  0
 13 47  1  0
 13 48  1  0
 14 20  1  0
 14 15  2  0
 15 16  1  0
 15 49  1  0
 16 17  2  0
 16 18  1  0
 18 19  1  0
 18 50  1  0
 18 51  1  0
 19 20  1  0
 19 52  1  0
 19 53  1  0
 20 21  1  1
 20 22  1  0
 21 54  1  0
 21 55  1  0
 21 56  1  0
 22 23  1  0
 22 57  1  1
 23 24  1  0
 23 58  1  0
 23 59  1  0
 24 25  1  0
 24 60  1  0
 24 61  1  0
 25 26  1  6
 26 62  1  0
 26 63  1  0
 26 64  1  0
 27 29  1  0
 27 28  1  0
 27 65  1  1
 28 29  1  0
 28 66  1  0
 28 67  1  0
 29 30  1  0
 29 31  1  0
 30 68  1  0
 30 69  1  0
 30 70  1  0
 31 71  1  0
 31 72  1  0
 31 73  1  0
M  END
>  <i_m_ct_stereo_status>  (209) 
1

>  <s_m_source_file>  (209) 
/var/tmp/pbs.5076255.sched01/tmppxgjifq_/8475v0iq0b.sdf

>  <i_m_source_file_index>  (209) 
5

>  <i_lp_mmshare_version>  (209) 
48012

>  <i_f3d_flags>  (209) 
0

>  <s_epik_input>  (209) 
W0NIM11DMShbQ0gzXSlbQ0BASF0oW0NIMl0xKVtDQEhdKFtDSDNdKS9bQ0hdPVtDSF0vQyg9TylbQ0BIXShbQ0gyXVtDSDJdMilbQ0BdKFtDSDNdKShbQ0gyXVtDSDJdW0NASF0zNClbQ0BASF0yW0NAQEhdM1tDSDJdW0NIMl1DKFtDQEBdNDVbQ0gzXSk9W0NIXUMoPU8pW0NIMl1bQ0gyXTU=

>  <s_epik_cmdline>  (209) 
J2VwaWtfcHl0aG9uJywgJy1waHQnLCAnMi4wJywgJy1waCcsICc3LjAnLCAnLXRuJywgJzgnLCAnLW1hJywgJzIwMCcsICctaW1hZScsICc8aW5maWxlLm1hZT4nLCAnLW9tYWUnLCAnPG91dGZpbGUubWFlPic=

>  <r_lp_tautomer_probability>  (209) 
1

>  <r_epik_Ionization_Penalty>  (209) 
0

>  <r_epik_Ionization_Penalty_Charging>  (209) 
0

>  <r_epik_Ionization_Penalty_Neutral>  (209) 
0

>  <r_epik_State_Penalty>  (209) 
-0

>  <r_epik_Charging_Adjusted_Penalty>  (209) 
0

>  <i_epik_Tot_Q>  (209) 
0

>  <i_epik_Tot_abs_Q>  (209) 
0

>  <s_lp_Force_Field>  (209) 
OPLS3e

>  <r_lp_Energy>  (209) 
44.986

>  <b_lp_Chiralities_Consistent>  (209) 
1

>  <s_lp_Variant>  (209) 
60:0-1

>  <s_i_glide_gridfile>  (209) 
pfpi4k_grid

>  <i_i_glide_lignum>  (209) 
5

>  <i_i_glide_rotatable_bonds>  (209) 
4

>  <r_i_docking_score>  (209) 
-1.75744

>  <r_i_glide_ligand_efficiency>  (209) 
-0.0566915

>  <r_i_glide_ligand_efficiency_sa>  (209) 
-0.178089

>  <r_i_glide_ligand_efficiency_ln>  (209) 
-0.396356

>  <r_i_glide_gscore>  (209) 
-1.75744

>  <r_i_glide_lipo>  (209) 
-0.0555611

>  <r_i_glide_hbond>  (209) 
0

>  <r_i_glide_metal>  (209) 
-0

>  <r_i_glide_rewards>  (209) 
-0.566965

>  <r_i_glide_evdw>  (209) 
-20.9002

>  <r_i_glide_ecoul>  (209) 
-3.44579

>  <r_i_glide_erotb>  (209) 
0.443658

>  <r_i_glide_esite>  (209) 
-0.0166879

>  <r_i_glide_emodel>  (209) 
-22.3943

>  <r_i_glide_energy>  (209) 
-24.346

>  <r_i_glide_einternal>  (209) 
7.23141

>  <r_i_glide_intrahb_reward>  (209) 
-0

>  <i_i_glide_confnum>  (209) 
6

>  <i_i_glide_posenum>  (209) 
12

>  <r_i_glide_eff_state_penalty>  (209) 
0

>  <ligand_id>  (209) 
60

>  <original_smiles>  (209) 
CC(C=CC(=O)C1CCC2C3CCC4=CC(=O)CCC4(C)C3CCC12C)C1CC1(C)C

>  <smiles>  (209) 
[H]C(C(=O)C1([H])C([H])([H])C([H])([H])C2([H])C3([H])C([H])([H])C([H])([H])C4=C([H])C(=O)C([H])([H])C([H])([H])C4(C([H])([H])[H])C3([H])C([H])([H])C([H])([H])C12C([H])([H])[H])=C([H])C([H])(C([H])([H])[H])C1([H])C([H])([H])C1(C([H])([H])[H])C([H])([H])[H]

$$$$
60:1:0
     RDKit          3D

 73 77  0  0  1  0  0  0  0  0999 V2000
    0.0106    0.3697    8.7677 C   0  0  0  0  0  0  0  0  0  0  0  0
    0.0068   -0.0123    7.2765 C   0  0  2  0  0  0  0  0  0  0  0  0
    1.4298   -0.3139    6.8310 C   0  0  0  0  0  0  0  0  0  0  0  0
    1.9305   -1.4103    6.2214 C   0  0  0  0  0  0  0  0  0  0  0  0
    1.1936   -2.6242    5.7514 C   0  0  0  0  0  0  0  0  0  0  0  0
    0.0336   -2.9135    6.0823 O   0  0  0  0  0  0  0  0  0  0  0  0
    1.9484   -3.5791    4.7870 C   0  0  2  0  0  0  0  0  0  0  0  0
    3.2761   -4.0449    5.4384 C   0  0  0  0  0  0  0  0  0  0  0  0
    4.4077   -3.4261    4.6017 C   0  0  0  0  0  0  0  0  0  0  0  0
    3.7458   -2.4160    3.6367 C   0  0  1  0  0  0  0  0  0  0  0  0
    4.5792   -2.0674    2.3795 C   0  0  2  0  0  0  0  0  0  0  0  0
    4.1392   -0.7044    1.7609 C   0  0  0  0  0  0  0  0  0  0  0  0
    4.9339   -0.3240    0.5066 C   0  0  0  0  0  0  0  0  0  0  0  0
    4.9527   -1.4744   -0.4817 C   0  0  0  0  0  0  0  0  0  0  0  0
    4.4749   -1.3299   -1.7432 C   0  0  0  0  0  0  0  0  0  0  0  0
    4.3965   -2.4596   -2.6825 C   0  0  0  0  0  0  0  0  0  0  0  0
    4.2361   -2.3123   -3.8990 O   0  0  0  0  0  0  0  0  0  0  0  0
    4.5272   -3.8610   -2.1078 C   0  0  0  0  0  0  0  0  0  0  0  0
    5.5751   -3.9165   -0.9858 C   0  0  0  0  0  0  0  0  0  0  0  0
    5.4954   -2.7954    0.0961 C   0  0  1  0  0  0  0  0  0  0  0  0
    6.9618   -2.5650    0.5701 C   0  0  0  0  0  0  0  0  0  0  0  0
    4.6240   -3.2265    1.3354 C   0  0  2  0  0  0  0  0  0  0  0  0
    3.1837   -3.7270    1.0188 C   0  0  0  0  0  0  0  0  0  0  0  0
    2.4277   -4.1484    2.3139 C   0  0  0  0  0  0  0  0  0  0  0  0
    2.3367   -3.0000    3.3593 C   0  0  1  0  0  0  0  0  0  0  0  0
    1.3072   -1.9653    2.8390 C   0  0  0  0  0  0  0  0  0  0  0  0
   -0.6074    1.1146    6.4242 C   0  0  2  0  0  0  0  0  0  0  0  0
   -2.1139    1.3054    6.3798 C   0  0  0  0  0  0  0  0  0  0  0  0
   -1.3877    0.8294    5.1439 C   0  0  0  0  0  0  0  0  0  0  0  0
   -1.2226    1.7682    3.9625 C   0  0  0  0  0  0  0  0  0  0  0  0
   -1.5916   -0.5878    4.6775 C   0  0  0  0  0  0  0  0  0  0  0  0
    0.3773   -0.4770    9.3553 H   0  0  0  0  0  0  0  0  0  0  0  0
   -0.9989    0.5904    9.1034 H   0  0  0  0  0  0  0  0  0  0  0  0
    0.6423    1.2390    8.9993 H   0  0  0  0  0  0  0  0  0  0  0  0
   -0.5955   -0.9082    7.1809 H   0  0  0  0  0  0  0  0  0  0  0  0
    2.1390    0.4816    7.0398 H   0  0  0  0  0  0  0  0  0  0  0  0
    2.9902   -1.3703    6.0482 H   0  0  0  0  0  0  0  0  0  0  0  0
    1.3147   -4.4473    4.6356 H   0  0  0  0  0  0  0  0  0  0  0  0
    3.3681   -3.7275    6.4842 H   0  0  0  0  0  0  0  0  0  0  0  0
    3.3391   -5.1360    5.4677 H   0  0  0  0  0  0  0  0  0  0  0  0
    5.1477   -2.9422    5.2348 H   0  0  0  0  0  0  0  0  0  0  0  0
    4.9306   -4.2406    4.0888 H   0  0  0  0  0  0  0  0  0  0  0  0
    3.6574   -1.4814    4.1808 H   0  0  0  0  0  0  0  0  0  0  0  0
    5.5925   -1.9569    2.7910 H   0  0  0  0  0  0  0  0  0  0  0  0
    3.1003   -0.7077    1.4563 H   0  0  0  0  0  0  0  0  0  0  0  0
    4.2661    0.0880    2.5119 H   0  0  0  0  0  0  0  0  0  0  0  0
    4.4082    0.5421    0.0787 H   0  0  0  0  0  0  0  0  0  0  0  0
    5.9646    0.0098    0.7331 H   0  0  0  0  0  0  0  0  0  0  0  0
    4.0996   -0.3808   -2.0902 H   0  0  0  0  0  0  0  0  0  0  0  0
    3.5512   -4.1810   -1.7477 H   0  0  0  0  0  0  0  0  0  0  0  0
    4.8188   -4.5561   -2.8985 H   0  0  0  0  0  0  0  0  0  0  0  0
    5.5544   -4.8986   -0.5104 H   0  0  0  0  0  0  0  0  0  0  0  0
    6.5406   -3.8613   -1.4921 H   0  0  0  0  0  0  0  0  0  0  0  0
    7.3934   -3.4810    0.9697 H   0  0  0  0  0  0  0  0  0  0  0  0
    7.0686   -1.8061    1.3470 H   0  0  0  0  0  0  0  0  0  0  0  0
    7.5966   -2.2661   -0.2651 H   0  0  0  0  0  0  0  0  0  0  0  0
    5.1134   -4.0848    1.7917 H   0  0  0  0  0  0  0  0  0  0  0  0
    2.6229   -2.9648    0.4751 H   0  0  0  0  0  0  0  0  0  0  0  0
    3.2044   -4.5962    0.3597 H   0  0  0  0  0  0  0  0  0  0  0  0
    1.4242   -4.5106    2.0728 H   0  0  0  0  0  0  0  0  0  0  0  0
    2.9396   -5.0062    2.7432 H   0  0  0  0  0  0  0  0  0  0  0  0
    1.3928   -1.7406    1.7736 H   0  0  0  0  0  0  0  0  0  0  0  0
    1.4298   -1.0062    3.3343 H   0  0  0  0  0  0  0  0  0  0  0  0
    0.2921   -2.3149    3.0181 H   0  0  0  0  0  0  0  0  0  0  0  0
   -0.0240    2.0404    6.4357 H   0  0  0  0  0  0  0  0  0  0  0  0
   -2.7338    0.5772    6.8880 H   0  0  0  0  0  0  0  0  0  0  0  0
   -2.4988    2.3247    6.3672 H   0  0  0  0  0  0  0  0  0  0  0  0
   -2.0843    1.6807    3.2967 H   0  0  0  0  0  0  0  0  0  0  0  0
   -0.3257    1.5152    3.3919 H   0  0  0  0  0  0  0  0  0  0  0  0
   -1.1426    2.8026    4.2919 H   0  0  0  0  0  0  0  0  0  0  0  0
   -2.3565   -0.6432    3.8985 H   0  0  0  0  0  0  0  0  0  0  0  0
   -1.8277   -1.2458    5.5176 H   0  0  0  0  0  0  0  0  0  0  0  0
   -0.6454   -0.9050    4.2557 H   0  0  0  0  0  0  0  0  0  0  0  0
  1  2  1  0
  1 32  1  0
  1 33  1  0
  1 34  1  0
  2  3  1  0
  2 27  1  0
  2 35  1  1
  3  4  2  3
  3 36  1  0
  4  5  1  0
  4 37  1  0
  5  6  2  0
  5  7  1  0
  7 25  1  0
  7  8  1  0
  7 38  1  6
  8  9  1  0
  8 39  1  0
  8 40  1  0
  9 10  1  0
  9 41  1  0
  9 42  1  0
 10 25  1  0
 10 11  1  0
 10 43  1  1
 11 22  1  0
 11 12  1  0
 11 44  1  1
 12 13  1  0
 12 45  1  0
 12 46  1  0
 13 14  1  0
 13 47  1  0
 13 48  1  0
 14 20  1  0
 14 15  2  0
 15 16  1  0
 15 49  1  0
 16 17  2  0
 16 18  1  0
 18 19  1  0
 18 50  1  0
 18 51  1  0
 19 20  1  0
 19 52  1  0
 19 53  1  0
 20 21  1  1
 20 22  1  0
 21 54  1  0
 21 55  1  0
 21 56  1  0
 22 23  1  0
 22 57  1  1
 23 24  1  0
 23 58  1  0
 23 59  1  0
 24 25  1  0
 24 60  1  0
 24 61  1  0
 25 26  1  6
 26 62  1  0
 26 63  1  0
 26 64  1  0
 27 29  1  0
 27 28  1  0
 27 65  1  6
 28 29  1  0
 28 66  1  0
 28 67  1  0
 29 30  1  0
 29 31  1  0
 30 68  1  0
 30 69  1  0
 30 70  1  0
 31 71  1  0
 31 72  1  0
 31 73  1  0
M  END
>  <i_m_ct_stereo_status>  (210) 
1

>  <s_m_source_file>  (210) 
/var/tmp/pbs.5076255.sched01/tmppxgjifq_/8475v0iq0b.sdf

>  <i_m_source_file_index>  (210) 
6

>  <i_lp_mmshare_version>  (210) 
48012

>  <i_f3d_flags>  (210) 
0

>  <s_epik_input>  (210) 
W0NIM11DMShbQ0gzXSlbQ0BASF0oW0NIMl0xKVtDQEhdKFtDSDNdKS9bQ0hdPVtDSF0vQyg9TylbQ0BIXShbQ0gyXVtDSDJdMilbQ0BdKFtDSDNdKShbQ0gyXVtDSDJdW0NASF0zNClbQ0BASF0yW0NAQEhdM1tDSDJdW0NIMl1DKFtDQEBdNDVbQ0gzXSk9W0NIXUMoPU8pW0NIMl1bQ0gyXTU=

>  <s_epik_cmdline>  (210) 
J2VwaWtfcHl0aG9uJywgJy1waHQnLCAnMi4wJywgJy1waCcsICc3LjAnLCAnLXRuJywgJzgnLCAnLW1hJywgJzIwMCcsICctaW1hZScsICc8aW5maWxlLm1hZT4nLCAnLW9tYWUnLCAnPG91dGZpbGUubWFlPic=

>  <r_lp_tautomer_probability>  (210) 
1

>  <r_epik_Ionization_Penalty>  (210) 
0

>  <r_epik_Ionization_Penalty_Charging>  (210) 
0

>  <r_epik_Ionization_Penalty_Neutral>  (210) 
0

>  <r_epik_State_Penalty>  (210) 
-0

>  <r_epik_Charging_Adjusted_Penalty>  (210) 
0

>  <i_epik_Tot_Q>  (210) 
0

>  <i_epik_Tot_abs_Q>  (210) 
0

>  <s_lp_Force_Field>  (210) 
OPLS3e

>  <r_lp_Energy>  (210) 
48.4387

>  <b_lp_Chiralities_Consistent>  (210) 
1

>  <s_lp_Variant>  (210) 
60:0-2

>  <s_i_glide_gridfile>  (210) 
pfpi4k_grid

>  <i_i_glide_lignum>  (210) 
6

>  <i_i_glide_rotatable_bonds>  (210) 
4

>  <r_i_docking_score>  (210) 
-2.64056

>  <r_i_glide_ligand_efficiency>  (210) 
-0.0851793

>  <r_i_glide_ligand_efficiency_sa>  (210) 
-0.267581

>  <r_i_glide_ligand_efficiency_ln>  (210) 
-0.595527

>  <r_i_glide_gscore>  (210) 
-2.64056

>  <r_i_glide_lipo>  (210) 
-0.469614

>  <r_i_glide_hbond>  (210) 
-0.153497

>  <r_i_glide_metal>  (210) 
-0

>  <r_i_glide_rewards>  (210) 
-0.688756

>  <r_i_glide_evdw>  (210) 
-25.6486

>  <r_i_glide_ecoul>  (210) 
-3.26539

>  <r_i_glide_erotb>  (210) 
0.443658

>  <r_i_glide_esite>  (210) 
-0.000109696

>  <r_i_glide_emodel>  (210) 
-31.4458

>  <r_i_glide_energy>  (210) 
-28.914

>  <r_i_glide_einternal>  (210) 
2.67001

>  <r_i_glide_intrahb_reward>  (210) 
-0

>  <i_i_glide_confnum>  (210) 
4

>  <i_i_glide_posenum>  (210) 
1

>  <r_i_glide_eff_state_penalty>  (210) 
0

>  <ligand_id>  (210) 
60

>  <original_smiles>  (210) 
CC(C=CC(=O)C1CCC2C3CCC4=CC(=O)CCC4(C)C3CCC12C)C1CC1(C)C

>  <smiles>  (210) 
[H]C(C(=O)C1([H])C([H])([H])C([H])([H])C2([H])C3([H])C([H])([H])C([H])([H])C4=C([H])C(=O)C([H])([H])C([H])([H])C4(C([H])([H])[H])C3([H])C([H])([H])C([H])([H])C12C([H])([H])[H])=C([H])C([H])(C([H])([H])[H])C1([H])C([H])([H])C1(C([H])([H])[H])C([H])([H])[H]

$$$$
60:1:1
     RDKit          3D

 73 77  0  0  1  0  0  0  0  0999 V2000
    2.9261   -4.1029    0.5988 C   0  0  0  0  0  0  0  0  0  0  0  0
    2.8788   -4.8440    1.9554 C   0  0  2  0  0  0  0  0  0  0  0  0
    3.7006   -4.0946    2.9946 C   0  0  0  0  0  0  0  0  0  0  0  0
    3.3320   -3.4988    4.1457 C   0  0  0  0  0  0  0  0  0  0  0  0
    1.9602   -3.3941    4.7048 C   0  0  0  0  0  0  0  0  0  0  0  0
    0.9963   -4.0420    4.3167 O   0  0  0  0  0  0  0  0  0  0  0  0
    1.7685   -2.3332    5.8237 C   0  0  2  0  0  0  0  0  0  0  0  0
    0.5477   -2.6626    6.7384 C   0  0  0  0  0  0  0  0  0  0  0  0
   -0.5001   -1.5839    6.4479 C   0  0  0  0  0  0  0  0  0  0  0  0
   -0.0079   -0.8254    5.1983 C   0  0  1  0  0  0  0  0  0  0  0  0
   -0.6168    0.5860    5.0182 C   0  0  2  0  0  0  0  0  0  0  0  0
   -0.5231    1.0850    3.5391 C   0  0  0  0  0  0  0  0  0  0  0  0
   -1.1017    2.4951    3.3181 C   0  0  0  0  0  0  0  0  0  0  0  0
   -0.5057    3.4689    4.3319 C   0  0  0  0  0  0  0  0  0  0  0  0
    0.1562    4.5798    3.9352 C   0  0  0  0  0  0  0  0  0  0  0  0
    0.8098    5.4715    4.8999 C   0  0  0  0  0  0  0  0  0  0  0  0
    1.1939    6.6195    4.6052 O   0  0  0  0  0  0  0  0  0  0  0  0
    1.0290    4.9714    6.3141 C   0  0  0  0  0  0  0  0  0  0  0  0
   -0.1687    4.1303    6.7932 C   0  0  0  0  0  0  0  0  0  0  0  0
   -0.6917    3.0467    5.7965 C   0  0  1  0  0  0  0  0  0  0  0  0
   -2.2082    2.9360    6.0829 C   0  0  0  0  0  0  0  0  0  0  0  0
   -0.0459    1.6385    6.0263 C   0  0  2  0  0  0  0  0  0  0  0  0
    1.5066    1.5986    6.0186 C   0  0  0  0  0  0  0  0  0  0  0  0
    2.0491    0.1745    6.2911 C   0  0  0  0  0  0  0  0  0  0  0  0
    1.5259   -0.8777    5.2817 C   0  0  1  0  0  0  0  0  0  0  0  0
    2.2076   -0.6076    3.9103 C   0  0  0  0  0  0  0  0  0  0  0  0
    3.3152   -6.3023    1.8736 C   0  0  2  0  0  0  0  0  0  0  0  0
    3.6502   -6.9780    0.5669 C   0  0  0  0  0  0  0  0  0  0  0  0
    2.3941   -7.3605    1.3062 C   0  0  0  0  0  0  0  0  0  0  0  0
    2.3492   -8.7531    1.9036 C   0  0  0  0  0  0  0  0  0  0  0  0
    1.0059   -6.9249    0.8408 C   0  0  0  0  0  0  0  0  0  0  0  0
    2.5718   -3.0740    0.6967 H   0  0  0  0  0  0  0  0  0  0  0  0
    2.3442   -4.5963   -0.1575 H   0  0  0  0  0  0  0  0  0  0  0  0
    3.9678   -4.0267    0.2639 H   0  0  0  0  0  0  0  0  0  0  0  0
    1.8405   -4.8587    2.2749 H   0  0  0  0  0  0  0  0  0  0  0  0
    4.7561   -4.0466    2.7498 H   0  0  0  0  0  0  0  0  0  0  0  0
    4.1028   -3.0116    4.7160 H   0  0  0  0  0  0  0  0  0  0  0  0
    2.6763   -2.3547    6.4373 H   0  0  0  0  0  0  0  0  0  0  0  0
    0.1151   -3.6515    6.5724 H   0  0  0  0  0  0  0  0  0  0  0  0
    0.8402   -2.6428    7.7900 H   0  0  0  0  0  0  0  0  0  0  0  0
   -1.4902   -2.0195    6.2919 H   0  0  0  0  0  0  0  0  0  0  0  0
   -0.5788   -0.9218    7.3130 H   0  0  0  0  0  0  0  0  0  0  0  0
   -0.3440   -1.4362    4.3560 H   0  0  0  0  0  0  0  0  0  0  0  0
   -1.6756    0.4519    5.2498 H   0  0  0  0  0  0  0  0  0  0  0  0
    0.4988    1.1277    3.1974 H   0  0  0  0  0  0  0  0  0  0  0  0
   -1.0557    0.3800    2.8890 H   0  0  0  0  0  0  0  0  0  0  0  0
   -0.8553    2.8138    2.3058 H   0  0  0  0  0  0  0  0  0  0  0  0
   -2.1928    2.5080    3.3801 H   0  0  0  0  0  0  0  0  0  0  0  0
    0.2582    4.8279    2.8865 H   0  0  0  0  0  0  0  0  0  0  0  0
    1.9590    4.4007    6.3413 H   0  0  0  0  0  0  0  0  0  0  0  0
    1.1647    5.8234    6.9848 H   0  0  0  0  0  0  0  0  0  0  0  0
    0.0579    3.6844    7.7623 H   0  0  0  0  0  0  0  0  0  0  0  0
   -0.9579    4.8547    6.9986 H   0  0  0  0  0  0  0  0  0  0  0  0
   -2.4068    2.6654    7.1219 H   0  0  0  0  0  0  0  0  0  0  0  0
   -2.7078    2.1843    5.4702 H   0  0  0  0  0  0  0  0  0  0  0  0
   -2.7193    3.8845    5.9000 H   0  0  0  0  0  0  0  0  0  0  0  0
   -0.3134    1.3272    7.0358 H   0  0  0  0  0  0  0  0  0  0  0  0
    1.8942    1.9912    5.0759 H   0  0  0  0  0  0  0  0  0  0  0  0
    1.9184    2.2622    6.7847 H   0  0  0  0  0  0  0  0  0  0  0  0
    3.1427    0.1851    6.2843 H   0  0  0  0  0  0  0  0  0  0  0  0
    1.7766   -0.1015    7.3102 H   0  0  0  0  0  0  0  0  0  0  0  0
    2.2476    0.4378    3.6357 H   0  0  0  0  0  0  0  0  0  0  0  0
    1.6753   -1.1074    3.0956 H   0  0  0  0  0  0  0  0  0  0  0  0
    3.2465   -0.9612    3.8817 H   0  0  0  0  0  0  0  0  0  0  0  0
    3.8844   -6.6263    2.7457 H   0  0  0  0  0  0  0  0  0  0  0  0
    3.5421   -6.3913   -0.3400 H   0  0  0  0  0  0  0  0  0  0  0  0
    4.4829   -7.6873    0.5816 H   0  0  0  0  0  0  0  0  0  0  0  0
    2.0212   -9.4739    1.1604 H   0  0  0  0  0  0  0  0  0  0  0  0
    1.6750   -8.7861    2.7541 H   0  0  0  0  0  0  0  0  0  0  0  0
    3.3455   -9.0494    2.2388 H   0  0  0  0  0  0  0  0  0  0  0  0
    0.5826   -7.7209    0.2310 H   0  0  0  0  0  0  0  0  0  0  0  0
    1.0350   -6.0120    0.2908 H   0  0  0  0  0  0  0  0  0  0  0  0
    0.3205   -6.8584    1.6921 H   0  0  0  0  0  0  0  0  0  0  0  0
  1  2  1  0
  1 32  1  0
  1 33  1  0
  1 34  1  0
  2  3  1  0
  2 27  1  0
  2 35  1  1
  3  4  2  3
  3 36  1  0
  4  5  1  0
  4 37  1  0
  5  6  2  0
  5  7  1  0
  7 25  1  0
  7  8  1  0
  7 38  1  1
  8  9  1  0
  8 39  1  0
  8 40  1  0
  9 10  1  0
  9 41  1  0
  9 42  1  0
 10 25  1  0
 10 11  1  0
 10 43  1  6
 11 22  1  0
 11 12  1  0
 11 44  1  1
 12 13  1  0
 12 45  1  0
 12 46  1  0
 13 14  1  0
 13 47  1  0
 13 48  1  0
 14 20  1  0
 14 15  2  0
 15 16  1  0
 15 49  1  0
 16 17  2  0
 16 18  1  0
 18 19  1  0
 18 50  1  0
 18 51  1  0
 19 20  1  0
 19 52  1  0
 19 53  1  0
 20 21  1  1
 20 22  1  0
 21 54  1  0
 21 55  1  0
 21 56  1  0
 22 23  1  0
 22 57  1  1
 23 24  1  0
 23 58  1  0
 23 59  1  0
 24 25  1  0
 24 60  1  0
 24 61  1  0
 25 26  1  6
 26 62  1  0
 26 63  1  0
 26 64  1  0
 27 29  1  0
 27 28  1  0
 27 65  1  1
 28 29  1  0
 28 66  1  0
 28 67  1  0
 29 30  1  0
 29 31  1  0
 30 68  1  0
 30 69  1  0
 30 70  1  0
 31 71  1  0
 31 72  1  0
 31 73  1  0
M  END
>  <i_m_ct_stereo_status>  (211) 
1

>  <s_m_source_file>  (211) 
/var/tmp/pbs.5076255.sched01/tmppxgjifq_/8475v0iq0b.sdf

>  <i_m_source_file_index>  (211) 
6

>  <i_lp_mmshare_version>  (211) 
48012

>  <i_f3d_flags>  (211) 
0

>  <s_epik_input>  (211) 
W0NIM11DMShbQ0gzXSlbQ0BASF0oW0NIMl0xKVtDQEhdKFtDSDNdKS9bQ0hdPVtDSF0vQyg9TylbQ0BIXShbQ0gyXVtDSDJdMilbQ0BdKFtDSDNdKShbQ0gyXVtDSDJdW0NASF0zNClbQ0BASF0yW0NAQEhdM1tDSDJdW0NIMl1DKFtDQEBdNDVbQ0gzXSk9W0NIXUMoPU8pW0NIMl1bQ0gyXTU=

>  <s_epik_cmdline>  (211) 
J2VwaWtfcHl0aG9uJywgJy1waHQnLCAnMi4wJywgJy1waCcsICc3LjAnLCAnLXRuJywgJzgnLCAnLW1hJywgJzIwMCcsICctaW1hZScsICc8aW5maWxlLm1hZT4nLCAnLW9tYWUnLCAnPG91dGZpbGUubWFlPic=

>  <r_lp_tautomer_probability>  (211) 
1

>  <r_epik_Ionization_Penalty>  (211) 
0

>  <r_epik_Ionization_Penalty_Charging>  (211) 
0

>  <r_epik_Ionization_Penalty_Neutral>  (211) 
0

>  <r_epik_State_Penalty>  (211) 
-0

>  <r_epik_Charging_Adjusted_Penalty>  (211) 
0

>  <i_epik_Tot_Q>  (211) 
0

>  <i_epik_Tot_abs_Q>  (211) 
0

>  <s_lp_Force_Field>  (211) 
OPLS3e

>  <r_lp_Energy>  (211) 
48.4387

>  <b_lp_Chiralities_Consistent>  (211) 
1

>  <s_lp_Variant>  (211) 
60:0-2

>  <s_i_glide_gridfile>  (211) 
pfpi4k_grid

>  <i_i_glide_lignum>  (211) 
6

>  <i_i_glide_rotatable_bonds>  (211) 
4

>  <r_i_docking_score>  (211) 
-1.17694

>  <r_i_glide_ligand_efficiency>  (211) 
-0.0379659

>  <r_i_glide_ligand_efficiency_sa>  (211) 
-0.119265

>  <r_i_glide_ligand_efficiency_ln>  (211) 
-0.265437

>  <r_i_glide_gscore>  (211) 
-1.17694

>  <r_i_glide_lipo>  (211) 
-0.188771

>  <r_i_glide_hbond>  (211) 
0

>  <r_i_glide_metal>  (211) 
-0

>  <r_i_glide_rewards>  (211) 
-0.530938

>  <r_i_glide_evdw>  (211) 
-19.7173

>  <r_i_glide_ecoul>  (211) 
0.747233

>  <r_i_glide_erotb>  (211) 
0.443658

>  <r_i_glide_esite>  (211) 
-0.0271114

>  <r_i_glide_emodel>  (211) 
-15.8422

>  <r_i_glide_energy>  (211) 
-18.9701

>  <r_i_glide_einternal>  (211) 
7.78158

>  <r_i_glide_intrahb_reward>  (211) 
-0

>  <i_i_glide_confnum>  (211) 
5

>  <i_i_glide_posenum>  (211) 
3

>  <r_i_glide_eff_state_penalty>  (211) 
0

>  <ligand_id>  (211) 
60

>  <original_smiles>  (211) 
CC(C=CC(=O)C1CCC2C3CCC4=CC(=O)CCC4(C)C3CCC12C)C1CC1(C)C

>  <smiles>  (211) 
[H]C(C(=O)C1([H])C([H])([H])C([H])([H])C2([H])C3([H])C([H])([H])C([H])([H])C4=C([H])C(=O)C([H])([H])C([H])([H])C4(C([H])([H])[H])C3([H])C([H])([H])C([H])([H])C12C([H])([H])[H])=C([H])C([H])(C([H])([H])[H])C1([H])C([H])([H])C1(C([H])([H])[H])C([H])([H])[H]

$$$$
61:0:0
     RDKit          3D

 31 34  0  0  1  0  0  0  0  0999 V2000
   -6.8840   -4.6777   -4.8179 C   0  0  0  0  0  0  0  0  0  0  0  0
   -7.9031   -4.5322   -5.7816 C   0  0  0  0  0  0  0  0  0  0  0  0
   -8.2028   -5.5872   -6.6680 C   0  0  0  0  0  0  0  0  0  0  0  0
   -7.4850   -6.7981   -6.5849 C   0  0  0  0  0  0  0  0  0  0  0  0
   -7.7646   -7.8923   -7.4385 C   0  0  0  0  0  0  0  0  0  0  0  0
   -7.0177   -9.0537   -7.2569 C   0  0  0  0  0  0  0  0  0  0  0  0
   -5.9959   -9.1692   -6.3019 C   0  0  0  0  0  0  0  0  0  0  0  0
   -5.7440   -8.1026   -5.5131 N   0  0  0  0  0  0  0  0  0  0  0  0
   -6.4520   -6.9438   -5.6062 C   0  0  0  0  0  0  0  0  0  0  0  0
   -6.1608   -5.8824   -4.7291 C   0  0  0  0  0  0  0  0  0  0  0  0
   -5.2000  -10.4674   -6.2873 C   0  0  0  0  0  0  0  0  0  0  0  0
   -5.9009  -11.6368   -6.9914 C   0  0  0  0  0  0  0  0  0  0  0  0
   -6.5107  -11.1839   -8.3224 C   0  0  0  0  0  0  0  0  0  0  0  0
   -7.4366  -10.0811   -8.1291 N   0  0  0  0  0  0  0  0  0  0  0  0
   -8.1955   -9.4478   -9.1944 C   0  0  0  0  0  0  0  0  0  0  0  0
   -8.7200   -8.1418   -8.5829 C   0  0  0  0  0  0  0  0  0  0  0  0
   -6.6513   -3.8632   -4.1448 H   0  0  0  0  0  0  0  0  0  0  0  0
   -8.4612   -3.6050   -5.8329 H   0  0  0  0  0  0  0  0  0  0  0  0
   -8.9943   -5.4654   -7.3912 H   0  0  0  0  0  0  0  0  0  0  0  0
   -5.3938   -5.9896   -3.9816 H   0  0  0  0  0  0  0  0  0  0  0  0
   -4.2427  -10.2728   -6.7732 H   0  0  0  0  0  0  0  0  0  0  0  0
   -4.9754  -10.7368   -5.2531 H   0  0  0  0  0  0  0  0  0  0  0  0
   -5.2000  -12.4576   -7.1410 H   0  0  0  0  0  0  0  0  0  0  0  0
   -6.6899  -12.0215   -6.3440 H   0  0  0  0  0  0  0  0  0  0  0  0
   -5.7361  -10.8784   -9.0235 H   0  0  0  0  0  0  0  0  0  0  0  0
   -7.0518  -12.0115   -8.7787 H   0  0  0  0  0  0  0  0  0  0  0  0
   -7.5114   -9.2247  -10.0158 H   0  0  0  0  0  0  0  0  0  0  0  0
   -8.9927  -10.0850   -9.5846 H   0  0  0  0  0  0  0  0  0  0  0  0
   -9.7254   -8.2853   -8.1853 H   0  0  0  0  0  0  0  0  0  0  0  0
   -8.7397   -7.3225   -9.3019 H   0  0  0  0  0  0  0  0  0  0  0  0
   -5.0107   -8.1823   -4.8094 H   0  0  0  0  0  0  0  0  0  0  0  0
  1 10  2  0
  1  2  1  0
  1 17  1  0
  2  3  2  0
  2 18  1  0
  3  4  1  0
  3 19  1  0
  4  9  2  0
  4  5  1  0
  5 16  1  0
  5  6  2  0
  6 14  1  0
  6  7  1  0
  7  8  2  0
  7 11  1  0
  8  9  1  0
  8 31  1  0
  9 10  1  0
 10 20  1  0
 11 12  1  0
 11 21  1  0
 11 22  1  0
 12 13  1  0
 12 23  1  0
 12 24  1  0
 13 14  1  0
 13 25  1  0
 13 26  1  0
 14 15  1  0
 15 16  1  0
 15 27  1  0
 15 28  1  0
 16 29  1  0
 16 30  1  0
M  CHG  1   8   1
M  END
>  <i_m_ct_stereo_status>  (212) 
1

>  <s_m_source_file>  (212) 
/var/tmp/pbs.5076255.sched01/tmppxgjifq_/8475v0iq0b.sdf

>  <i_m_source_file_index>  (212) 
7

>  <i_lp_mmshare_version>  (212) 
48012

>  <i_f3d_flags>  (212) 
0

>  <s_epik_input>  (212) 
W2NIXTFbY0hdW2NIXVtjSF1jMm5jKGMzYzRjMTIpW0NIMl1bQ0gyXVtDSDJdTjNbQ0gyXVtDSDJdNA==

>  <s_epik_cmdline>  (212) 
J2VwaWtfcHl0aG9uJywgJy1waHQnLCAnMi4wJywgJy1waCcsICc3LjAnLCAnLXRuJywgJzgnLCAnLW1hJywgJzIwMCcsICctaW1hZScsICc8aW5maWxlLm1hZT4nLCAnLW9tYWUnLCAnPG91dGZpbGUubWFlPic=

>  <r_epik_Ionization_Penalty>  (212) 
0.109678

>  <r_epik_Ionization_Penalty_Charging>  (212) 
0.109678

>  <r_epik_Ionization_Penalty_Neutral>  (212) 
2.11841e-08

>  <r_epik_State_Penalty>  (212) 
0.0994439

>  <r_epik_Charging_Adjusted_Penalty>  (212) 
0.209122

>  <i_epik_Tot_Q>  (212) 
1

>  <i_epik_Tot_abs_Q>  (212) 
1

>  <s_lp_Force_Field>  (212) 
OPLS3e

>  <r_lp_Energy>  (212) 
40.5623

>  <b_lp_Chiralities_Consistent>  (212) 
1

>  <s_lp_Variant>  (212) 
61:0-1

>  <s_i_glide_gridfile>  (212) 
pfpi4k_grid

>  <i_i_glide_lignum>  (212) 
7

>  <i_i_glide_rotatable_bonds>  (212) 
0

>  <r_i_docking_score>  (212) 
-6.49975

>  <r_i_glide_ligand_efficiency>  (212) 
-0.406234

>  <r_i_glide_ligand_efficiency_sa>  (212) 
-1.02365

>  <r_i_glide_ligand_efficiency_ln>  (212) 
-1.72289

>  <r_i_glide_gscore>  (212) 
-6.49975

>  <r_i_glide_lipo>  (212) 
-2.70418

>  <r_i_glide_hbond>  (212) 
0

>  <r_i_glide_metal>  (212) 
-0

>  <r_i_glide_rewards>  (212) 
-2.43226

>  <r_i_glide_evdw>  (212) 
-24.9064

>  <r_i_glide_ecoul>  (212) 
-0.786562

>  <r_i_glide_erotb>  (212) 
0

>  <r_i_glide_esite>  (212) 
0

>  <r_i_glide_emodel>  (212) 
-35.4209

>  <r_i_glide_energy>  (212) 
-25.6929

>  <r_i_glide_einternal>  (212) 
0

>  <r_i_glide_intrahb_reward>  (212) 
-0

>  <i_i_glide_confnum>  (212) 
1

>  <i_i_glide_posenum>  (212) 
14

>  <r_i_glide_eff_state_penalty>  (212) 
0

>  <ligand_id>  (212) 
61

>  <original_smiles>  (212) 
c1ccc2c3c4c(nc2c1)CCCN4CC3

>  <smiles>  (212) 
[H]c1c([H])c([H])c2c(c1[H])c1c3c([n+]2[H])C([H])([H])C([H])([H])C([H])([H])N3C([H])([H])C1([H])[H]

$$$$
61:0:1
     RDKit          3D

 31 34  0  0  1  0  0  0  0  0999 V2000
   -6.7563   -4.7739   -4.9950 C   0  0  0  0  0  0  0  0  0  0  0  0
   -5.9515   -5.9325   -4.9803 C   0  0  0  0  0  0  0  0  0  0  0  0
   -6.2493   -7.0234   -5.8188 C   0  0  0  0  0  0  0  0  0  0  0  0
   -7.3571   -6.9526   -6.6898 C   0  0  0  0  0  0  0  0  0  0  0  0
   -7.6886   -8.0188   -7.5580 C   0  0  0  0  0  0  0  0  0  0  0  0
   -8.7901   -7.8466   -8.3911 C   0  0  0  0  0  0  0  0  0  0  0  0
   -9.5884   -6.6912   -8.3790 C   0  0  0  0  0  0  0  0  0  0  0  0
   -9.2505   -5.6950   -7.5301 N   0  0  0  0  0  0  0  0  0  0  0  0
   -8.1744   -5.7763   -6.7027 C   0  0  0  0  0  0  0  0  0  0  0  0
   -7.8691   -4.6960   -5.8527 C   0  0  0  0  0  0  0  0  0  0  0  0
  -10.8232   -6.6952   -9.2709 C   0  0  0  0  0  0  0  0  0  0  0  0
  -10.7771   -7.7406  -10.3940 C   0  0  0  0  0  0  0  0  0  0  0  0
  -10.2876   -9.0888   -9.8578 C   0  0  0  0  0  0  0  0  0  0  0  0
   -8.9764   -8.9593   -9.2403 N   0  0  0  0  0  0  0  0  0  0  0  0
   -8.2254  -10.0636   -8.6655 C   0  0  0  0  0  0  0  0  0  0  0  0
   -7.1287   -9.3983   -7.8230 C   0  0  0  0  0  0  0  0  0  0  0  0
   -6.5210   -3.9411   -4.3443 H   0  0  0  0  0  0  0  0  0  0  0  0
   -5.0989   -5.9794   -4.3198 H   0  0  0  0  0  0  0  0  0  0  0  0
   -5.6199   -7.8996   -5.7944 H   0  0  0  0  0  0  0  0  0  0  0  0
   -8.4804   -3.8048   -5.8485 H   0  0  0  0  0  0  0  0  0  0  0  0
  -11.6939   -6.8832   -8.6393 H   0  0  0  0  0  0  0  0  0  0  0  0
  -10.9542   -5.7010   -9.6994 H   0  0  0  0  0  0  0  0  0  0  0  0
  -11.7598   -7.8391  -10.8534 H   0  0  0  0  0  0  0  0  0  0  0  0
  -10.1046   -7.3948  -11.1807 H   0  0  0  0  0  0  0  0  0  0  0  0
  -10.9958   -9.4979   -9.1347 H   0  0  0  0  0  0  0  0  0  0  0  0
  -10.2076   -9.7979  -10.6791 H   0  0  0  0  0  0  0  0  0  0  0  0
   -8.8976  -10.6338   -8.0213 H   0  0  0  0  0  0  0  0  0  0  0  0
   -7.8267  -10.7448   -9.4203 H   0  0  0  0  0  0  0  0  0  0  0  0
   -6.2101   -9.3039   -8.4028 H   0  0  0  0  0  0  0  0  0  0  0  0
   -6.9123   -9.9516   -6.9079 H   0  0  0  0  0  0  0  0  0  0  0  0
   -9.8331   -4.8600   -7.4948 H   0  0  0  0  0  0  0  0  0  0  0  0
  1 10  2  0
  1  2  1  0
  1 17  1  0
  2  3  2  0
  2 18  1  0
  3  4  1  0
  3 19  1  0
  4  9  2  0
  4  5  1  0
  5 16  1  0
  5  6  2  0
  6 14  1  0
  6  7  1  0
  7  8  2  0
  7 11  1  0
  8  9  1  0
  8 31  1  0
  9 10  1  0
 10 20  1  0
 11 12  1  0
 11 21  1  0
 11 22  1  0
 12 13  1  0
 12 23  1  0
 12 24  1  0
 13 14  1  0
 13 25  1  0
 13 26  1  0
 14 15  1  0
 15 16  1  0
 15 27  1  0
 15 28  1  0
 16 29  1  0
 16 30  1  0
M  CHG  1   8   1
M  END
>  <i_m_ct_stereo_status>  (213) 
1

>  <s_m_source_file>  (213) 
/var/tmp/pbs.5076255.sched01/tmppxgjifq_/8475v0iq0b.sdf

>  <i_m_source_file_index>  (213) 
7

>  <i_lp_mmshare_version>  (213) 
48012

>  <i_f3d_flags>  (213) 
0

>  <s_epik_input>  (213) 
W2NIXTFbY0hdW2NIXVtjSF1jMm5jKGMzYzRjMTIpW0NIMl1bQ0gyXVtDSDJdTjNbQ0gyXVtDSDJdNA==

>  <s_epik_cmdline>  (213) 
J2VwaWtfcHl0aG9uJywgJy1waHQnLCAnMi4wJywgJy1waCcsICc3LjAnLCAnLXRuJywgJzgnLCAnLW1hJywgJzIwMCcsICctaW1hZScsICc8aW5maWxlLm1hZT4nLCAnLW9tYWUnLCAnPG91dGZpbGUubWFlPic=

>  <r_epik_Ionization_Penalty>  (213) 
0.109678

>  <r_epik_Ionization_Penalty_Charging>  (213) 
0.109678

>  <r_epik_Ionization_Penalty_Neutral>  (213) 
2.11841e-08

>  <r_epik_State_Penalty>  (213) 
0.0994439

>  <r_epik_Charging_Adjusted_Penalty>  (213) 
0.209122

>  <i_epik_Tot_Q>  (213) 
1

>  <i_epik_Tot_abs_Q>  (213) 
1

>  <s_lp_Force_Field>  (213) 
OPLS3e

>  <r_lp_Energy>  (213) 
40.5623

>  <b_lp_Chiralities_Consistent>  (213) 
1

>  <s_lp_Variant>  (213) 
61:0-1

>  <s_i_glide_gridfile>  (213) 
pfpi4k_grid

>  <i_i_glide_lignum>  (213) 
7

>  <i_i_glide_rotatable_bonds>  (213) 
0

>  <r_i_docking_score>  (213) 
-5.72784

>  <r_i_glide_ligand_efficiency>  (213) 
-0.35799

>  <r_i_glide_ligand_efficiency_sa>  (213) 
-0.902078

>  <r_i_glide_ligand_efficiency_ln>  (213) 
-1.51828

>  <r_i_glide_gscore>  (213) 
-5.72784

>  <r_i_glide_lipo>  (213) 
-2.15037

>  <r_i_glide_hbond>  (213) 
0

>  <r_i_glide_metal>  (213) 
-0

>  <r_i_glide_rewards>  (213) 
-2.39099

>  <r_i_glide_evdw>  (213) 
-23.3291

>  <r_i_glide_ecoul>  (213) 
-0.133561

>  <r_i_glide_erotb>  (213) 
0

>  <r_i_glide_esite>  (213) 
0

>  <r_i_glide_emodel>  (213) 
-32.0353

>  <r_i_glide_energy>  (213) 
-23.4626

>  <r_i_glide_einternal>  (213) 
0

>  <r_i_glide_intrahb_reward>  (213) 
-0

>  <i_i_glide_confnum>  (213) 
2

>  <i_i_glide_posenum>  (213) 
23

>  <r_i_glide_eff_state_penalty>  (213) 
0

>  <ligand_id>  (213) 
61

>  <original_smiles>  (213) 
c1ccc2c3c4c(nc2c1)CCCN4CC3

>  <smiles>  (213) 
[H]c1c([H])c([H])c2c(c1[H])c1c3c([n+]2[H])C([H])([H])C([H])([H])C([H])([H])N3C([H])([H])C1([H])[H]

$$$$
61:0:2
     RDKit          3D

 31 34  0  0  1  0  0  0  0  0999 V2000
   -5.5696   -6.4941   -4.9962 C   0  0  0  0  0  0  0  0  0  0  0  0
   -5.1587   -7.7627   -5.4504 C   0  0  0  0  0  0  0  0  0  0  0  0
   -5.8863   -8.4224   -6.4601 C   0  0  0  0  0  0  0  0  0  0  0  0
   -7.0245   -7.8040   -7.0195 C   0  0  0  0  0  0  0  0  0  0  0  0
   -7.7831   -8.4250   -8.0394 C   0  0  0  0  0  0  0  0  0  0  0  0
   -8.8772   -7.7251   -8.5413 C   0  0  0  0  0  0  0  0  0  0  0  0
   -9.2691   -6.4651   -8.0622 C   0  0  0  0  0  0  0  0  0  0  0  0
   -8.5301   -5.9014   -7.0804 N   0  0  0  0  0  0  0  0  0  0  0  0
   -7.4364   -6.5145   -6.5512 C   0  0  0  0  0  0  0  0  0  0  0  0
   -6.7086   -5.8699   -5.5349 C   0  0  0  0  0  0  0  0  0  0  0  0
  -10.5545   -5.8799   -8.6295 C   0  0  0  0  0  0  0  0  0  0  0  0
  -10.9832   -6.4965   -9.9675 C   0  0  0  0  0  0  0  0  0  0  0  0
  -10.8648   -8.0231   -9.9184 C   0  0  0  0  0  0  0  0  0  0  0  0
   -9.5089   -8.4312   -9.5879 N   0  0  0  0  0  0  0  0  0  0  0  0
   -9.0687   -9.8128   -9.4942 C   0  0  0  0  0  0  0  0  0  0  0  0
   -7.7200   -9.7487   -8.7660 C   0  0  0  0  0  0  0  0  0  0  0  0
   -5.0092   -5.9869   -4.2316 H   0  0  0  0  0  0  0  0  0  0  0  0
   -4.2798   -8.2284   -5.0181 H   0  0  0  0  0  0  0  0  0  0  0  0
   -5.5606   -9.3929   -6.7989 H   0  0  0  0  0  0  0  0  0  0  0  0
   -7.0033   -4.8965   -5.1706 H   0  0  0  0  0  0  0  0  0  0  0  0
  -11.3513   -6.0310   -7.8977 H   0  0  0  0  0  0  0  0  0  0  0  0
  -10.4243   -4.8032   -8.7350 H   0  0  0  0  0  0  0  0  0  0  0  0
  -12.0024   -6.1946  -10.2080 H   0  0  0  0  0  0  0  0  0  0  0  0
  -10.3485   -6.1068  -10.7642 H   0  0  0  0  0  0  0  0  0  0  0  0
  -11.5628   -8.4412   -9.1911 H   0  0  0  0  0  0  0  0  0  0  0  0
  -11.1191   -8.4393  -10.8927 H   0  0  0  0  0  0  0  0  0  0  0  0
   -9.7946  -10.3623   -8.8911 H   0  0  0  0  0  0  0  0  0  0  0  0
   -9.0032  -10.3042  -10.4680 H   0  0  0  0  0  0  0  0  0  0  0  0
   -6.9039   -9.7173   -9.4876 H   0  0  0  0  0  0  0  0  0  0  0  0
   -7.5660  -10.5953   -8.0961 H   0  0  0  0  0  0  0  0  0  0  0  0
   -8.8132   -4.9949   -6.7101 H   0  0  0  0  0  0  0  0  0  0  0  0
  1 10  2  0
  1  2  1  0
  1 17  1  0
  2  3  2  0
  2 18  1  0
  3  4  1  0
  3 19  1  0
  4  9  2  0
  4  5  1  0
  5 16  1  0
  5  6  2  0
  6 14  1  0
  6  7  1  0
  7  8  2  0
  7 11  1  0
  8  9  1  0
  8 31  1  0
  9 10  1  0
 10 20  1  0
 11 12  1  0
 11 21  1  0
 11 22  1  0
 12 13  1  0
 12 23  1  0
 12 24  1  0
 13 14  1  0
 13 25  1  0
 13 26  1  0
 14 15  1  0
 15 16  1  0
 15 27  1  0
 15 28  1  0
 16 29  1  0
 16 30  1  0
M  CHG  1   8   1
M  END
>  <i_m_ct_stereo_status>  (214) 
1

>  <s_m_source_file>  (214) 
/var/tmp/pbs.5076255.sched01/tmppxgjifq_/8475v0iq0b.sdf

>  <i_m_source_file_index>  (214) 
7

>  <i_lp_mmshare_version>  (214) 
48012

>  <i_f3d_flags>  (214) 
0

>  <s_epik_input>  (214) 
W2NIXTFbY0hdW2NIXVtjSF1jMm5jKGMzYzRjMTIpW0NIMl1bQ0gyXVtDSDJdTjNbQ0gyXVtDSDJdNA==

>  <s_epik_cmdline>  (214) 
J2VwaWtfcHl0aG9uJywgJy1waHQnLCAnMi4wJywgJy1waCcsICc3LjAnLCAnLXRuJywgJzgnLCAnLW1hJywgJzIwMCcsICctaW1hZScsICc8aW5maWxlLm1hZT4nLCAnLW9tYWUnLCAnPG91dGZpbGUubWFlPic=

>  <r_epik_Ionization_Penalty>  (214) 
0.109678

>  <r_epik_Ionization_Penalty_Charging>  (214) 
0.109678

>  <r_epik_Ionization_Penalty_Neutral>  (214) 
2.11841e-08

>  <r_epik_State_Penalty>  (214) 
0.0994439

>  <r_epik_Charging_Adjusted_Penalty>  (214) 
0.209122

>  <i_epik_Tot_Q>  (214) 
1

>  <i_epik_Tot_abs_Q>  (214) 
1

>  <s_lp_Force_Field>  (214) 
OPLS3e

>  <r_lp_Energy>  (214) 
40.5623

>  <b_lp_Chiralities_Consistent>  (214) 
1

>  <s_lp_Variant>  (214) 
61:0-1

>  <s_i_glide_gridfile>  (214) 
pfpi4k_grid

>  <i_i_glide_lignum>  (214) 
7

>  <i_i_glide_rotatable_bonds>  (214) 
0

>  <r_i_docking_score>  (214) 
-5.08761

>  <r_i_glide_ligand_efficiency>  (214) 
-0.317976

>  <r_i_glide_ligand_efficiency_sa>  (214) 
-0.801248

>  <r_i_glide_ligand_efficiency_ln>  (214) 
-1.34857

>  <r_i_glide_gscore>  (214) 
-5.08761

>  <r_i_glide_lipo>  (214) 
-1.93525

>  <r_i_glide_hbond>  (214) 
0

>  <r_i_glide_metal>  (214) 
-0

>  <r_i_glide_rewards>  (214) 
-2.00823

>  <r_i_glide_evdw>  (214) 
-22.4903

>  <r_i_glide_ecoul>  (214) 
-0.130755

>  <r_i_glide_erotb>  (214) 
0

>  <r_i_glide_esite>  (214) 
0

>  <r_i_glide_emodel>  (214) 
-30.2163

>  <r_i_glide_energy>  (214) 
-22.6211

>  <r_i_glide_einternal>  (214) 
0

>  <r_i_glide_intrahb_reward>  (214) 
-0

>  <i_i_glide_confnum>  (214) 
1

>  <i_i_glide_posenum>  (214) 
1

>  <r_i_glide_eff_state_penalty>  (214) 
0

>  <ligand_id>  (214) 
61

>  <original_smiles>  (214) 
c1ccc2c3c4c(nc2c1)CCCN4CC3

>  <smiles>  (214) 
[H]c1c([H])c([H])c2c(c1[H])c1c3c([n+]2[H])C([H])([H])C([H])([H])C([H])([H])N3C([H])([H])C1([H])[H]

$$$$
61:1:0
     RDKit          3D

 30 33  0  0  1  0  0  0  0  0999 V2000
   -7.6938   -4.4007   -5.4572 C   0  0  0  0  0  0  0  0  0  0  0  0
   -6.5350   -4.6159   -4.6893 C   0  0  0  0  0  0  0  0  0  0  0  0
   -5.8673   -5.8533   -4.7596 C   0  0  0  0  0  0  0  0  0  0  0  0
   -6.3479   -6.8659   -5.6091 C   0  0  0  0  0  0  0  0  0  0  0  0
   -5.6810   -8.1053   -5.7335 C   0  0  0  0  0  0  0  0  0  0  0  0
   -6.2191   -9.0239   -6.6249 C   0  0  0  0  0  0  0  0  0  0  0  0
   -7.4004   -8.7978   -7.3528 C   0  0  0  0  0  0  0  0  0  0  0  0
   -8.0371   -7.6124   -7.2245 N   0  0  0  0  0  0  0  0  0  0  0  0
   -7.5271   -6.6621   -6.3937 C   0  0  0  0  0  0  0  0  0  0  0  0
   -8.1844   -5.4174   -6.2989 C   0  0  0  0  0  0  0  0  0  0  0  0
   -7.9220   -9.9587   -8.1897 C   0  0  0  0  0  0  0  0  0  0  0  0
   -6.8192  -10.9305   -8.6075 C   0  0  0  0  0  0  0  0  0  0  0  0
   -5.9864  -11.3359   -7.3883 C   0  0  0  0  0  0  0  0  0  0  0  0
   -5.4042  -10.1707   -6.7411 N   0  0  0  0  0  0  0  0  0  0  0  0
   -4.5212  -10.1906   -5.5903 C   0  0  0  0  0  0  0  0  0  0  0  0
   -4.4529   -8.7313   -5.1185 C   0  0  0  0  0  0  0  0  0  0  0  0
   -8.2156   -3.4553   -5.3975 H   0  0  0  0  0  0  0  0  0  0  0  0
   -6.1606   -3.8305   -4.0455 H   0  0  0  0  0  0  0  0  0  0  0  0
   -4.9861   -6.0173   -4.1685 H   0  0  0  0  0  0  0  0  0  0  0  0
   -9.0728   -5.2457   -6.8844 H   0  0  0  0  0  0  0  0  0  0  0  0
   -8.6708  -10.4993   -7.6070 H   0  0  0  0  0  0  0  0  0  0  0  0
   -8.4239   -9.5574   -9.0728 H   0  0  0  0  0  0  0  0  0  0  0  0
   -7.2337  -11.8025   -9.1095 H   0  0  0  0  0  0  0  0  0  0  0  0
   -6.1852  -10.4309   -9.3342 H   0  0  0  0  0  0  0  0  0  0  0  0
   -6.5933  -11.8970   -6.6754 H   0  0  0  0  0  0  0  0  0  0  0  0
   -5.1667  -11.9777   -7.7081 H   0  0  0  0  0  0  0  0  0  0  0  0
   -4.9752  -10.8091   -4.8166 H   0  0  0  0  0  0  0  0  0  0  0  0
   -3.5387  -10.6092   -5.8140 H   0  0  0  0  0  0  0  0  0  0  0  0
   -3.5641   -8.2405   -5.5173 H   0  0  0  0  0  0  0  0  0  0  0  0
   -4.4362   -8.6569   -4.0342 H   0  0  0  0  0  0  0  0  0  0  0  0
  1 10  2  0
  1  2  1  0
  1 17  1  0
  2  3  2  0
  2 18  1  0
  3  4  1  0
  3 19  1  0
  4  9  2  0
  4  5  1  0
  5 16  1  0
  5  6  2  0
  6 14  1  0
  6  7  1  0
  7  8  2  0
  7 11  1  0
  8  9  1  0
  9 10  1  0
 10 20  1  0
 11 12  1  0
 11 21  1  0
 11 22  1  0
 12 13  1  0
 12 23  1  0
 12 24  1  0
 13 14  1  0
 13 25  1  0
 13 26  1  0
 14 15  1  0
 15 16  1  0
 15 27  1  0
 15 28  1  0
 16 29  1  0
 16 30  1  0
M  END
>  <i_m_ct_stereo_status>  (215) 
1

>  <s_m_source_file>  (215) 
/var/tmp/pbs.5076255.sched01/tmppxgjifq_/8475v0iq0b.sdf

>  <i_m_source_file_index>  (215) 
8

>  <i_lp_mmshare_version>  (215) 
48012

>  <i_f3d_flags>  (215) 
0

>  <s_epik_input>  (215) 
W2NIXTFbY0hdW2NIXVtjSF1jMm5jKGMzYzRjMTIpW0NIMl1bQ0gyXVtDSDJdTjNbQ0gyXVtDSDJdNA==

>  <s_epik_cmdline>  (215) 
J2VwaWtfcHl0aG9uJywgJy1waHQnLCAnMi4wJywgJy1waCcsICc3LjAnLCAnLXRuJywgJzgnLCAnLW1hJywgJzIwMCcsICctaW1hZScsICc8aW5maWxlLm1hZT4nLCAnLW9tYWUnLCAnPG91dGZpbGUubWFlPic=

>  <r_epik_Ionization_Penalty>  (215) 
1.05352

>  <r_epik_Ionization_Penalty_Charging>  (215) 
0

>  <r_epik_Ionization_Penalty_Neutral>  (215) 
1.05352

>  <r_epik_State_Penalty>  (215) 
1.10646

>  <r_epik_Charging_Adjusted_Penalty>  (215) 
1.10646

>  <i_epik_Tot_Q>  (215) 
0

>  <i_epik_Tot_abs_Q>  (215) 
0

>  <s_lp_Force_Field>  (215) 
OPLS3e

>  <r_lp_Energy>  (215) 
34.8433

>  <b_lp_Chiralities_Consistent>  (215) 
1

>  <s_lp_Variant>  (215) 
61:0-2

>  <s_i_glide_gridfile>  (215) 
pfpi4k_grid

>  <i_i_glide_lignum>  (215) 
8

>  <i_i_glide_rotatable_bonds>  (215) 
0

>  <r_i_docking_score>  (215) 
-6.52635

>  <r_i_glide_ligand_efficiency>  (215) 
-0.407897

>  <r_i_glide_ligand_efficiency_sa>  (215) 
-1.02784

>  <r_i_glide_ligand_efficiency_ln>  (215) 
-1.72994

>  <r_i_glide_gscore>  (215) 
-6.52635

>  <r_i_glide_lipo>  (215) 
-2.86474

>  <r_i_glide_hbond>  (215) 
0

>  <r_i_glide_metal>  (215) 
-0

>  <r_i_glide_rewards>  (215) 
-2.17472

>  <r_i_glide_evdw>  (215) 
-27.3635

>  <r_i_glide_ecoul>  (215) 
-0.791485

>  <r_i_glide_erotb>  (215) 
0

>  <r_i_glide_esite>  (215) 
0

>  <r_i_glide_emodel>  (215) 
-39.0197

>  <r_i_glide_energy>  (215) 
-28.155

>  <r_i_glide_einternal>  (215) 
0

>  <r_i_glide_intrahb_reward>  (215) 
-0

>  <i_i_glide_confnum>  (215) 
1

>  <i_i_glide_posenum>  (215) 
9

>  <r_i_glide_eff_state_penalty>  (215) 
0

>  <ligand_id>  (215) 
61

>  <original_smiles>  (215) 
c1ccc2c3c4c(nc2c1)CCCN4CC3

>  <smiles>  (215) 
[H]c1c([H])c([H])c2c3c4c(nc2c1[H])C([H])([H])C([H])([H])C([H])([H])N4C([H])([H])C3([H])[H]

$$$$
61:1:1
     RDKit          3D

 30 33  0  0  1  0  0  0  0  0999 V2000
  -10.5006   -7.6172  -10.0435 C   0  0  0  0  0  0  0  0  0  0  0  0
  -10.8871   -6.3489   -9.5755 C   0  0  0  0  0  0  0  0  0  0  0  0
  -10.1786   -5.7434   -8.5196 C   0  0  0  0  0  0  0  0  0  0  0  0
   -9.0842   -6.4081   -7.9362 C   0  0  0  0  0  0  0  0  0  0  0  0
   -8.3366   -5.8192   -6.8925 C   0  0  0  0  0  0  0  0  0  0  0  0
   -7.2593   -6.5481   -6.4080 C   0  0  0  0  0  0  0  0  0  0  0  0
   -6.9206   -7.8367   -6.8594 C   0  0  0  0  0  0  0  0  0  0  0  0
   -7.6527   -8.4027   -7.8446 N   0  0  0  0  0  0  0  0  0  0  0  0
   -8.6910   -7.7095   -8.3880 C   0  0  0  0  0  0  0  0  0  0  0  0
   -9.4135   -8.2888   -9.4516 C   0  0  0  0  0  0  0  0  0  0  0  0
   -5.7646   -8.5316   -6.1514 C   0  0  0  0  0  0  0  0  0  0  0  0
   -4.7826   -7.5502   -5.5101 C   0  0  0  0  0  0  0  0  0  0  0  0
   -5.5506   -6.5289   -4.6655 C   0  0  0  0  0  0  0  0  0  0  0  0
   -6.5274   -5.8061   -5.4588 N   0  0  0  0  0  0  0  0  0  0  0  0
   -7.3772   -4.7255   -4.9936 C   0  0  0  0  0  0  0  0  0  0  0  0
   -8.3970   -4.5189   -6.1234 C   0  0  0  0  0  0  0  0  0  0  0  0
  -11.0487   -8.0874  -10.8477 H   0  0  0  0  0  0  0  0  0  0  0  0
  -11.7399   -5.8528  -10.0180 H   0  0  0  0  0  0  0  0  0  0  0  0
  -10.4805   -4.7751   -8.1561 H   0  0  0  0  0  0  0  0  0  0  0  0
   -9.1274   -9.2635   -9.8130 H   0  0  0  0  0  0  0  0  0  0  0  0
   -6.1787   -9.1832   -5.3793 H   0  0  0  0  0  0  0  0  0  0  0  0
   -5.2452   -9.1751   -6.8643 H   0  0  0  0  0  0  0  0  0  0  0  0
   -4.0458   -8.0792   -4.9057 H   0  0  0  0  0  0  0  0  0  0  0  0
   -4.2255   -7.0428   -6.2960 H   0  0  0  0  0  0  0  0  0  0  0  0
   -6.0487   -7.0146   -3.8253 H   0  0  0  0  0  0  0  0  0  0  0  0
   -4.8569   -5.7944   -4.2634 H   0  0  0  0  0  0  0  0  0  0  0  0
   -7.8821   -5.0511   -4.0826 H   0  0  0  0  0  0  0  0  0  0  0  0
   -6.8143   -3.8213   -4.7583 H   0  0  0  0  0  0  0  0  0  0  0  0
   -8.0794   -3.7085   -6.7790 H   0  0  0  0  0  0  0  0  0  0  0  0
   -9.3947   -4.2952   -5.7446 H   0  0  0  0  0  0  0  0  0  0  0  0
  1 10  2  0
  1  2  1  0
  1 17  1  0
  2  3  2  0
  2 18  1  0
  3  4  1  0
  3 19  1  0
  4  9  2  0
  4  5  1  0
  5 16  1  0
  5  6  2  0
  6 14  1  0
  6  7  1  0
  7  8  2  0
  7 11  1  0
  8  9  1  0
  9 10  1  0
 10 20  1  0
 11 12  1  0
 11 21  1  0
 11 22  1  0
 12 13  1  0
 12 23  1  0
 12 24  1  0
 13 14  1  0
 13 25  1  0
 13 26  1  0
 14 15  1  0
 15 16  1  0
 15 27  1  0
 15 28  1  0
 16 29  1  0
 16 30  1  0
M  END
>  <i_m_ct_stereo_status>  (216) 
1

>  <s_m_source_file>  (216) 
/var/tmp/pbs.5076255.sched01/tmppxgjifq_/8475v0iq0b.sdf

>  <i_m_source_file_index>  (216) 
8

>  <i_lp_mmshare_version>  (216) 
48012

>  <i_f3d_flags>  (216) 
0

>  <s_epik_input>  (216) 
W2NIXTFbY0hdW2NIXVtjSF1jMm5jKGMzYzRjMTIpW0NIMl1bQ0gyXVtDSDJdTjNbQ0gyXVtDSDJdNA==

>  <s_epik_cmdline>  (216) 
J2VwaWtfcHl0aG9uJywgJy1waHQnLCAnMi4wJywgJy1waCcsICc3LjAnLCAnLXRuJywgJzgnLCAnLW1hJywgJzIwMCcsICctaW1hZScsICc8aW5maWxlLm1hZT4nLCAnLW9tYWUnLCAnPG91dGZpbGUubWFlPic=

>  <r_epik_Ionization_Penalty>  (216) 
1.05352

>  <r_epik_Ionization_Penalty_Charging>  (216) 
0

>  <r_epik_Ionization_Penalty_Neutral>  (216) 
1.05352

>  <r_epik_State_Penalty>  (216) 
1.10646

>  <r_epik_Charging_Adjusted_Penalty>  (216) 
1.10646

>  <i_epik_Tot_Q>  (216) 
0

>  <i_epik_Tot_abs_Q>  (216) 
0

>  <s_lp_Force_Field>  (216) 
OPLS3e

>  <r_lp_Energy>  (216) 
34.8433

>  <b_lp_Chiralities_Consistent>  (216) 
1

>  <s_lp_Variant>  (216) 
61:0-2

>  <s_i_glide_gridfile>  (216) 
pfpi4k_grid

>  <i_i_glide_lignum>  (216) 
8

>  <i_i_glide_rotatable_bonds>  (216) 
0

>  <r_i_docking_score>  (216) 
-6.32721

>  <r_i_glide_ligand_efficiency>  (216) 
-0.395451

>  <r_i_glide_ligand_efficiency_sa>  (216) 
-0.996474

>  <r_i_glide_ligand_efficiency_ln>  (216) 
-1.67715

>  <r_i_glide_gscore>  (216) 
-6.32721

>  <r_i_glide_lipo>  (216) 
-2.31991

>  <r_i_glide_hbond>  (216) 
0

>  <r_i_glide_metal>  (216) 
-0

>  <r_i_glide_rewards>  (216) 
-2.74075

>  <r_i_glide_evdw>  (216) 
-26.9513

>  <r_i_glide_ecoul>  (216) 
0.540103

>  <r_i_glide_erotb>  (216) 
0

>  <r_i_glide_esite>  (216) 
0

>  <r_i_glide_emodel>  (216) 
-36.9373

>  <r_i_glide_energy>  (216) 
-26.4112

>  <r_i_glide_einternal>  (216) 
0

>  <r_i_glide_intrahb_reward>  (216) 
-0

>  <i_i_glide_confnum>  (216) 
1

>  <i_i_glide_posenum>  (216) 
7

>  <r_i_glide_eff_state_penalty>  (216) 
0

>  <ligand_id>  (216) 
61

>  <original_smiles>  (216) 
c1ccc2c3c4c(nc2c1)CCCN4CC3

>  <smiles>  (216) 
[H]c1c([H])c([H])c2c3c4c(nc2c1[H])C([H])([H])C([H])([H])C([H])([H])N4C([H])([H])C3([H])[H]

$$$$
61:1:2
     RDKit          3D

 30 33  0  0  1  0  0  0  0  0999 V2000
   -6.8216   -4.6574   -4.5263 C   0  0  0  0  0  0  0  0  0  0  0  0
   -5.9956   -5.7921   -4.6049 C   0  0  0  0  0  0  0  0  0  0  0  0
   -6.2523   -6.7858   -5.5660 C   0  0  0  0  0  0  0  0  0  0  0  0
   -7.3320   -6.6342   -6.4558 C   0  0  0  0  0  0  0  0  0  0  0  0
   -7.5953   -7.5937   -7.4582 C   0  0  0  0  0  0  0  0  0  0  0  0
   -8.6552   -7.3300   -8.3150 C   0  0  0  0  0  0  0  0  0  0  0  0
   -9.4951   -6.2094   -8.1920 C   0  0  0  0  0  0  0  0  0  0  0  0
   -9.2475   -5.2979   -7.2235 N   0  0  0  0  0  0  0  0  0  0  0  0
   -8.1884   -5.4867   -6.3863 C   0  0  0  0  0  0  0  0  0  0  0  0
   -7.9094   -4.5100   -5.4083 C   0  0  0  0  0  0  0  0  0  0  0  0
  -10.6829   -6.1427   -9.1396 C   0  0  0  0  0  0  0  0  0  0  0  0
  -10.4522   -6.9134  -10.4408 C   0  0  0  0  0  0  0  0  0  0  0  0
   -9.9691   -8.3305  -10.1189 C   0  0  0  0  0  0  0  0  0  0  0  0
   -8.7441   -8.3012   -9.3359 N   0  0  0  0  0  0  0  0  0  0  0  0
   -7.9810   -9.4564   -8.9035 C   0  0  0  0  0  0  0  0  0  0  0  0
   -6.9758   -8.9037   -7.8834 C   0  0  0  0  0  0  0  0  0  0  0  0
   -6.6282   -3.8932   -3.7845 H   0  0  0  0  0  0  0  0  0  0  0  0
   -5.1668   -5.9040   -3.9233 H   0  0  0  0  0  0  0  0  0  0  0  0
   -5.6089   -7.6488   -5.6245 H   0  0  0  0  0  0  0  0  0  0  0  0
   -8.5367   -3.6330   -5.3415 H   0  0  0  0  0  0  0  0  0  0  0  0
  -11.5603   -6.5455   -8.6271 H   0  0  0  0  0  0  0  0  0  0  0  0
  -10.8990   -5.0960   -9.3530 H   0  0  0  0  0  0  0  0  0  0  0  0
  -11.3639   -6.9393  -11.0354 H   0  0  0  0  0  0  0  0  0  0  0  0
   -9.7030   -6.3937  -11.0380 H   0  0  0  0  0  0  0  0  0  0  0  0
  -10.7377   -8.8894   -9.5823 H   0  0  0  0  0  0  0  0  0  0  0  0
   -9.7584   -8.8605  -11.0469 H   0  0  0  0  0  0  0  0  0  0  0  0
   -8.6643  -10.1564   -8.4199 H   0  0  0  0  0  0  0  0  0  0  0  0
   -7.4993   -9.9729   -9.7344 H   0  0  0  0  0  0  0  0  0  0  0  0
   -6.0191   -8.7008   -8.3646 H   0  0  0  0  0  0  0  0  0  0  0  0
   -6.8143   -9.5847   -7.0475 H   0  0  0  0  0  0  0  0  0  0  0  0
  1 10  2  0
  1  2  1  0
  1 17  1  0
  2  3  2  0
  2 18  1  0
  3  4  1  0
  3 19  1  0
  4  9  2  0
  4  5  1  0
  5 16  1  0
  5  6  2  0
  6 14  1  0
  6  7  1  0
  7  8  2  0
  7 11  1  0
  8  9  1  0
  9 10  1  0
 10 20  1  0
 11 12  1  0
 11 21  1  0
 11 22  1  0
 12 13  1  0
 12 23  1  0
 12 24  1  0
 13 14  1  0
 13 25  1  0
 13 26  1  0
 14 15  1  0
 15 16  1  0
 15 27  1  0
 15 28  1  0
 16 29  1  0
 16 30  1  0
M  END
>  <i_m_ct_stereo_status>  (217) 
1

>  <s_m_source_file>  (217) 
/var/tmp/pbs.5076255.sched01/tmppxgjifq_/8475v0iq0b.sdf

>  <i_m_source_file_index>  (217) 
8

>  <i_lp_mmshare_version>  (217) 
48012

>  <i_f3d_flags>  (217) 
0

>  <s_epik_input>  (217) 
W2NIXTFbY0hdW2NIXVtjSF1jMm5jKGMzYzRjMTIpW0NIMl1bQ0gyXVtDSDJdTjNbQ0gyXVtDSDJdNA==

>  <s_epik_cmdline>  (217) 
J2VwaWtfcHl0aG9uJywgJy1waHQnLCAnMi4wJywgJy1waCcsICc3LjAnLCAnLXRuJywgJzgnLCAnLW1hJywgJzIwMCcsICctaW1hZScsICc8aW5maWxlLm1hZT4nLCAnLW9tYWUnLCAnPG91dGZpbGUubWFlPic=

>  <r_epik_Ionization_Penalty>  (217) 
1.05352

>  <r_epik_Ionization_Penalty_Charging>  (217) 
0

>  <r_epik_Ionization_Penalty_Neutral>  (217) 
1.05352

>  <r_epik_State_Penalty>  (217) 
1.10646

>  <r_epik_Charging_Adjusted_Penalty>  (217) 
1.10646

>  <i_epik_Tot_Q>  (217) 
0

>  <i_epik_Tot_abs_Q>  (217) 
0

>  <s_lp_Force_Field>  (217) 
OPLS3e

>  <r_lp_Energy>  (217) 
34.8433

>  <b_lp_Chiralities_Consistent>  (217) 
1

>  <s_lp_Variant>  (217) 
61:0-2

>  <s_i_glide_gridfile>  (217) 
pfpi4k_grid

>  <i_i_glide_lignum>  (217) 
8

>  <i_i_glide_rotatable_bonds>  (217) 
0

>  <r_i_docking_score>  (217) 
-6.32382

>  <r_i_glide_ligand_efficiency>  (217) 
-0.395239

>  <r_i_glide_ligand_efficiency_sa>  (217) 
-0.995939

>  <r_i_glide_ligand_efficiency_ln>  (217) 
-1.67626

>  <r_i_glide_gscore>  (217) 
-6.32382

>  <r_i_glide_lipo>  (217) 
-2.37558

>  <r_i_glide_hbond>  (217) 
0

>  <r_i_glide_metal>  (217) 
-0

>  <r_i_glide_rewards>  (217) 
-2.65855

>  <r_i_glide_evdw>  (217) 
-25.3352

>  <r_i_glide_ecoul>  (217) 
-0.152873

>  <r_i_glide_erotb>  (217) 
0

>  <r_i_glide_esite>  (217) 
0

>  <r_i_glide_emodel>  (217) 
-36.0278

>  <r_i_glide_energy>  (217) 
-25.4881

>  <r_i_glide_einternal>  (217) 
0

>  <r_i_glide_intrahb_reward>  (217) 
-0

>  <i_i_glide_confnum>  (217) 
1

>  <i_i_glide_posenum>  (217) 
2

>  <r_i_glide_eff_state_penalty>  (217) 
0

>  <ligand_id>  (217) 
61

>  <original_smiles>  (217) 
c1ccc2c3c4c(nc2c1)CCCN4CC3

>  <smiles>  (217) 
[H]c1c([H])c([H])c2c3c4c(nc2c1[H])C([H])([H])C([H])([H])C([H])([H])N4C([H])([H])C3([H])[H]

$$$$
62:0:0
     RDKit          3D

 60 64  0  0  1  0  0  0  0  0999 V2000
    4.0883   -1.0509   -1.2271 C   0  0  0  0  0  0  0  0  0  0  0  0
    4.3013   -2.4832   -0.7219 C   0  0  2  0  0  0  0  0  0  0  0  0
    3.6368   -2.7456    0.6588 C   0  0  2  0  0  0  0  0  0  0  0  0
    4.4199   -2.1065    1.8281 C   0  0  0  0  0  0  0  0  0  0  0  0
    5.4129   -3.1863    2.2966 C   0  0  0  0  0  0  0  0  0  0  0  0
    5.1864   -4.3876    1.3570 C   0  0  1  0  0  0  0  0  0  0  0  0
    5.5146   -5.7568    2.0024 C   0  0  0  0  0  0  0  0  0  0  0  0
    4.4148   -6.3441    2.9036 C   0  0  0  0  0  0  0  0  0  0  0  0
    3.0426   -6.3788    2.1777 C   0  0  2  0  0  0  0  0  0  0  0  0
    2.6337   -4.9130    1.8694 C   0  0  1  0  0  0  0  0  0  0  0  0
    2.2046   -4.1779    3.1766 C   0  0  1  0  0  0  0  0  0  0  0  0
    1.4792   -3.0005    2.8856 O   0  0  0  0  0  0  0  0  0  0  0  0
    1.3344   -5.0452    4.0698 C   0  0  0  0  0  0  0  0  0  0  0  0
    1.1736   -6.3759    3.9434 C   0  0  0  0  0  0  0  0  0  0  0  0
    0.0980   -7.1231    4.7192 C   0  0  0  0  0  0  0  0  0  0  0  0
   -0.9495   -7.6036    3.7139 C   0  0  0  0  0  0  0  0  0  0  0  0
   -2.1520   -7.3948    3.8697 O   0  0  0  0  0  0  0  0  0  0  0  0
   -0.4251   -8.3353    2.4770 C   0  0  0  0  0  0  0  0  0  0  0  0
    0.8101   -7.6284    1.8554 C   0  0  0  0  0  0  0  0  0  0  0  0
    1.9028   -7.2079    2.8832 C   0  0  1  0  0  0  0  0  0  0  0  0
    2.4950   -8.5008    3.5065 C   0  0  0  0  0  0  0  0  0  0  0  0
    3.7100   -4.2586    0.9352 C   0  0  1  0  0  0  0  0  0  0  0  0
    6.0463   -4.2245    0.0669 C   0  0  0  0  0  0  0  0  0  0  0  0
    5.7920   -2.9464   -0.7835 C   0  0  1  0  0  0  0  0  0  0  0  0
    6.2238   -3.1695   -2.2409 C   0  0  0  0  0  0  0  0  0  0  0  0
    6.6480   -1.9205   -0.3121 O   0  0  0  0  0  0  0  0  0  0  0  0
    4.5701   -0.3090   -0.5899 H   0  0  0  0  0  0  0  0  0  0  0  0
    3.0245   -0.8181   -1.2513 H   0  0  0  0  0  0  0  0  0  0  0  0
    4.4651   -0.9030   -2.2374 H   0  0  0  0  0  0  0  0  0  0  0  0
    3.7552   -3.1047   -1.4350 H   0  0  0  0  0  0  0  0  0  0  0  0
    2.6095   -2.3845    0.6212 H   0  0  0  0  0  0  0  0  0  0  0  0
    4.9156   -1.1745    1.5548 H   0  0  0  0  0  0  0  0  0  0  0  0
    3.7543   -1.8479    2.6480 H   0  0  0  0  0  0  0  0  0  0  0  0
    6.4415   -2.8324    2.2608 H   0  0  0  0  0  0  0  0  0  0  0  0
    5.2136   -3.4550    3.3351 H   0  0  0  0  0  0  0  0  0  0  0  0
    5.7076   -6.4878    1.2149 H   0  0  0  0  0  0  0  0  0  0  0  0
    6.4428   -5.6840    2.5682 H   0  0  0  0  0  0  0  0  0  0  0  0
    4.7496   -7.3443    3.1740 H   0  0  0  0  0  0  0  0  0  0  0  0
    4.3549   -5.7934    3.8411 H   0  0  0  0  0  0  0  0  0  0  0  0
    3.2295   -6.8802    1.2273 H   0  0  0  0  0  0  0  0  0  0  0  0
    1.7459   -4.9687    1.2449 H   0  0  0  0  0  0  0  0  0  0  0  0
    3.0644   -3.8943    3.7792 H   0  0  0  0  0  0  0  0  0  0  0  0
    0.8955   -3.1694    2.1576 H   0  0  0  0  0  0  0  0  0  0  0  0
    0.7515   -4.5153    4.8071 H   0  0  0  0  0  0  0  0  0  0  0  0
    0.5189   -7.9729    5.2561 H   0  0  0  0  0  0  0  0  0  0  0  0
   -0.3660   -6.4709    5.4603 H   0  0  0  0  0  0  0  0  0  0  0  0
   -0.1878   -9.3612    2.7607 H   0  0  0  0  0  0  0  0  0  0  0  0
   -1.2266   -8.4043    1.7391 H   0  0  0  0  0  0  0  0  0  0  0  0
    1.2459   -8.2750    1.0932 H   0  0  0  0  0  0  0  0  0  0  0  0
    0.4462   -6.7558    1.3157 H   0  0  0  0  0  0  0  0  0  0  0  0
    3.1137   -9.0350    2.7838 H   0  0  0  0  0  0  0  0  0  0  0  0
    1.7335   -9.2056    3.8402 H   0  0  0  0  0  0  0  0  0  0  0  0
    3.1075   -8.2783    4.3811 H   0  0  0  0  0  0  0  0  0  0  0  0
    3.5871   -4.7960   -0.0069 H   0  0  0  0  0  0  0  0  0  0  0  0
    7.1088   -4.3031    0.3028 H   0  0  0  0  0  0  0  0  0  0  0  0
    5.8228   -5.0788   -0.5724 H   0  0  0  0  0  0  0  0  0  0  0  0
    5.6131   -3.9363   -2.7216 H   0  0  0  0  0  0  0  0  0  0  0  0
    7.2686   -3.4826   -2.2971 H   0  0  0  0  0  0  0  0  0  0  0  0
    6.1270   -2.2586   -2.8260 H   0  0  0  0  0  0  0  0  0  0  0  0
    6.3718   -1.7053    0.5665 H   0  0  0  0  0  0  0  0  0  0  0  0
  1  2  1  0
  1 27  1  0
  1 28  1  0
  1 29  1  0
  2 24  1  0
  2  3  1  0
  2 30  1  6
  3 22  1  0
  3  4  1  0
  3 31  1  6
  4  5  1  0
  4 32  1  0
  4 33  1  0
  6  5  1  1
  5 34  1  0
  5 35  1  0
  6 22  1  0
  6  7  1  0
  6 23  1  0
  7  8  1  0
  7 36  1  0
  7 37  1  0
  8  9  1  0
  8 38  1  0
  8 39  1  0
  9 20  1  0
  9 10  1  0
  9 40  1  6
 10 11  1  0
 10 22  1  0
 10 41  1  6
 11 12  1  0
 11 13  1  0
 11 42  1  1
 12 43  1  0
 13 14  2  0
 13 44  1  0
 14 20  1  0
 14 15  1  0
 15 16  1  0
 15 45  1  0
 15 46  1  0
 16 17  2  0
 16 18  1  0
 18 19  1  0
 18 47  1  0
 18 48  1  0
 19 20  1  0
 19 49  1  0
 19 50  1  0
 20 21  1  1
 21 51  1  0
 21 52  1  0
 21 53  1  0
 22 54  1  6
 23 24  1  0
 23 55  1  0
 23 56  1  0
 24 25  1  0
 24 26  1  1
 25 57  1  0
 25 58  1  0
 25 59  1  0
 26 60  1  0
M  END
>  <i_m_ct_stereo_status>  (218) 
1

>  <s_m_source_file>  (218) 
/var/tmp/pbs.5076255.sched01/tmppxgjifq_/8475v0iq0b.sdf

>  <i_m_source_file_index>  (218) 
9

>  <i_lp_mmshare_version>  (218) 
48012

>  <i_f3d_flags>  (218) 
0

>  <s_epik_input>  (218) 
W0NIMl0xW0NAXShbQ0gzXSkoW09IXSlbQ0BIXShbQ0gzXSlbQ0BIXShbQ0gyXVtDSDJdMilbQ0BASF0oW0NAQF0xMjMpW0NASF00W0NAQEhdKFtDSDJdW0NIMl0zKVtDQEBdNShbQ0gzXSlDKD1bQ0hdW0NAQEhdNFtPSF0pW0NIMl1DKD1PKVtDSDJdW0NIMl01

>  <s_epik_cmdline>  (218) 
J2VwaWtfcHl0aG9uJywgJy1waHQnLCAnMi4wJywgJy1waCcsICc3LjAnLCAnLXRuJywgJzgnLCAnLW1hJywgJzIwMCcsICctaW1hZScsICc8aW5maWxlLm1hZT4nLCAnLW9tYWUnLCAnPG91dGZpbGUubWFlPic=

>  <r_lp_tautomer_probability>  (218) 
1

>  <r_epik_Ionization_Penalty>  (218) 
2.18882e-06

>  <r_epik_Ionization_Penalty_Charging>  (218) 
0

>  <r_epik_Ionization_Penalty_Neutral>  (218) 
2.18882e-06

>  <r_epik_State_Penalty>  (218) 
-0

>  <r_epik_Charging_Adjusted_Penalty>  (218) 
0

>  <i_epik_Tot_Q>  (218) 
0

>  <i_epik_Tot_abs_Q>  (218) 
0

>  <s_lp_Force_Field>  (218) 
OPLS3e

>  <r_lp_Energy>  (218) 
68.8076

>  <b_lp_Chiralities_Consistent>  (218) 
1

>  <s_lp_Variant>  (218) 
62:0-1

>  <s_i_glide_gridfile>  (218) 
pfpi4k_grid

>  <i_i_glide_lignum>  (218) 
9

>  <i_i_glide_rotatable_bonds>  (218) 
2

>  <r_i_docking_score>  (218) 
-3.84971

>  <r_i_glide_ligand_efficiency>  (218) 
-0.148066

>  <r_i_glide_ligand_efficiency_sa>  (218) 
-0.438644

>  <r_i_glide_ligand_efficiency_ln>  (218) 
-0.904091

>  <r_i_glide_gscore>  (218) 
-3.84971

>  <r_i_glide_lipo>  (218) 
-0.404166

>  <r_i_glide_hbond>  (218) 
-0.0876646

>  <r_i_glide_metal>  (218) 
-0

>  <r_i_glide_rewards>  (218) 
-0.964675

>  <r_i_glide_evdw>  (218) 
-28.3196

>  <r_i_glide_ecoul>  (218) 
-6.08854

>  <r_i_glide_erotb>  (218) 
0

>  <r_i_glide_esite>  (218) 
-0.063939

>  <r_i_glide_emodel>  (218) 
-42.3148

>  <r_i_glide_energy>  (218) 
-34.4081

>  <r_i_glide_einternal>  (218) 
0.18442

>  <r_i_glide_intrahb_reward>  (218) 
-0

>  <i_i_glide_confnum>  (218) 
2

>  <i_i_glide_posenum>  (218) 
33

>  <r_i_glide_eff_state_penalty>  (218) 
0

>  <ligand_id>  (218) 
62

>  <original_smiles>  (218) 
CC1C2CCC3(CCC4C(C(O)C=C5CC(=O)CCC54C)C23)CC1(C)O

>  <smiles>  (218) 
[H]OC1([H])C([H])=C2C([H])([H])C(=O)C([H])([H])C([H])([H])C2(C([H])([H])[H])C2([H])C([H])([H])C([H])([H])C34C([H])([H])C([H])([H])C([H])(C([H])(C([H])([H])[H])C(O[H])(C([H])([H])[H])C3([H])[H])C4([H])C12[H]

$$$$
62:0:1
     RDKit          3D

 60 64  0  0  1  0  0  0  0  0999 V2000
    4.1468   -0.2661    0.9697 C   0  0  0  0  0  0  0  0  0  0  0  0
    4.0901   -1.7485    0.5456 C   0  0  2  0  0  0  0  0  0  0  0  0
    3.9280   -2.7175    1.7521 C   0  0  2  0  0  0  0  0  0  0  0  0
    5.2373   -2.8759    2.5564 C   0  0  0  0  0  0  0  0  0  0  0  0
    5.9652   -4.0787    1.9306 C   0  0  0  0  0  0  0  0  0  0  0  0
    5.0653   -4.5377    0.7684 C   0  0  1  0  0  0  0  0  0  0  0  0
    5.1896   -6.0481    0.4622 C   0  0  0  0  0  0  0  0  0  0  0  0
    4.3790   -6.9899    1.3653 C   0  0  0  0  0  0  0  0  0  0  0  0
    2.8918   -6.5531    1.4498 C   0  0  2  0  0  0  0  0  0  0  0  0
    2.8442   -5.1446    2.1020 C   0  0  1  0  0  0  0  0  0  0  0  0
    3.1643   -5.2405    3.6259 C   0  0  1  0  0  0  0  0  0  0  0  0
    2.7443   -4.0677    4.2929 O   0  0  0  0  0  0  0  0  0  0  0  0
    2.4745   -6.4215    4.2896 C   0  0  0  0  0  0  0  0  0  0  0  0
    1.8956   -7.4481    3.6382 C   0  0  0  0  0  0  0  0  0  0  0  0
    1.0128   -8.4510    4.3706 C   0  0  0  0  0  0  0  0  0  0  0  0
   -0.4212   -8.2334    3.8821 C   0  0  0  0  0  0  0  0  0  0  0  0
   -1.3603   -8.0766    4.6534 O   0  0  0  0  0  0  0  0  0  0  0  0
   -0.6324   -8.1868    2.3675 C   0  0  0  0  0  0  0  0  0  0  0  0
    0.4378   -7.3164    1.6556 C   0  0  0  0  0  0  0  0  0  0  0  0
    1.9040   -7.5867    2.1142 C   0  0  1  0  0  0  0  0  0  0  0  0
    2.2822   -9.0373    1.6994 C   0  0  0  0  0  0  0  0  0  0  0  0
    3.6464   -4.1311    1.2082 C   0  0  1  0  0  0  0  0  0  0  0  0
    5.4026   -3.7212   -0.5221 C   0  0  0  0  0  0  0  0  0  0  0  0
    5.2368   -2.1707   -0.4326 C   0  0  1  0  0  0  0  0  0  0  0  0
    5.0135   -1.5817   -1.8410 C   0  0  0  0  0  0  0  0  0  0  0  0
    6.4689   -1.6097   -0.0153 O   0  0  0  0  0  0  0  0  0  0  0  0
    5.0162   -0.0322    1.5791 H   0  0  0  0  0  0  0  0  0  0  0  0
    3.2603    0.0015    1.5446 H   0  0  0  0  0  0  0  0  0  0  0  0
    4.1783    0.3874    0.1003 H   0  0  0  0  0  0  0  0  0  0  0  0
    3.1634   -1.8408   -0.0243 H   0  0  0  0  0  0  0  0  0  0  0  0
    3.1137   -2.3581    2.3787 H   0  0  0  0  0  0  0  0  0  0  0  0
    5.8546   -1.9767    2.5493 H   0  0  0  0  0  0  0  0  0  0  0  0
    5.0306   -3.0838    3.6040 H   0  0  0  0  0  0  0  0  0  0  0  0
    6.9691   -3.8159    1.5935 H   0  0  0  0  0  0  0  0  0  0  0  0
    6.0913   -4.8676    2.6712 H   0  0  0  0  0  0  0  0  0  0  0  0
    4.8625   -6.2311   -0.5623 H   0  0  0  0  0  0  0  0  0  0  0  0
    6.2394   -6.3389    0.4951 H   0  0  0  0  0  0  0  0  0  0  0  0
    4.4816   -7.9836    0.9338 H   0  0  0  0  0  0  0  0  0  0  0  0
    4.8321   -7.0550    2.3544 H   0  0  0  0  0  0  0  0  0  0  0  0
    2.5597   -6.4455    0.4184 H   0  0  0  0  0  0  0  0  0  0  0  0
    1.8136   -4.7997    2.0405 H   0  0  0  0  0  0  0  0  0  0  0  0
    4.2292   -5.3742    3.8035 H   0  0  0  0  0  0  0  0  0  0  0  0
    1.8306   -3.9259    4.0992 H   0  0  0  0  0  0  0  0  0  0  0  0
    2.3876   -6.3646    5.3636 H   0  0  0  0  0  0  0  0  0  0  0  0
    1.3282   -9.4747    4.1727 H   0  0  0  0  0  0  0  0  0  0  0  0
    1.0664   -8.3010    5.4470 H   0  0  0  0  0  0  0  0  0  0  0  0
   -0.6157   -9.2114    1.9934 H   0  0  0  0  0  0  0  0  0  0  0  0
   -1.6332   -7.8047    2.1641 H   0  0  0  0  0  0  0  0  0  0  0  0
    0.3447   -7.4514    0.5761 H   0  0  0  0  0  0  0  0  0  0  0  0
    0.1812   -6.2746    1.8433 H   0  0  0  0  0  0  0  0  0  0  0  0
    2.4101   -9.1260    0.6218 H   0  0  0  0  0  0  0  0  0  0  0  0
    1.5234   -9.7712    1.9710 H   0  0  0  0  0  0  0  0  0  0  0  0
    3.2085   -9.3625    2.1737 H   0  0  0  0  0  0  0  0  0  0  0  0
    3.0367   -4.0492    0.3072 H   0  0  0  0  0  0  0  0  0  0  0  0
    6.4092   -3.9592   -0.8672 H   0  0  0  0  0  0  0  0  0  0  0  0
    4.7389   -4.0755   -1.3111 H   0  0  0  0  0  0  0  0  0  0  0  0
    4.0657   -1.9221   -2.2629 H   0  0  0  0  0  0  0  0  0  0  0  0
    5.8102   -1.8962   -2.5175 H   0  0  0  0  0  0  0  0  0  0  0  0
    4.9986   -0.4900   -1.8327 H   0  0  0  0  0  0  0  0  0  0  0  0
    6.2720   -0.8214    0.4709 H   0  0  0  0  0  0  0  0  0  0  0  0
  1  2  1  0
  1 27  1  0
  1 28  1  0
  1 29  1  0
  2 24  1  0
  2  3  1  0
  2 30  1  6
  3 22  1  0
  3  4  1  0
  3 31  1  1
  4  5  1  0
  4 32  1  0
  4 33  1  0
  6  5  1  1
  5 34  1  0
  5 35  1  0
  6 22  1  0
  6  7  1  0
  6 23  1  0
  7  8  1  0
  7 36  1  0
  7 37  1  0
  8  9  1  0
  8 38  1  0
  8 39  1  0
  9 20  1  0
  9 10  1  0
  9 40  1  6
 10 11  1  0
 10 22  1  0
 10 41  1  1
 11 12  1  0
 11 13  1  0
 11 42  1  6
 12 43  1  0
 13 14  2  0
 13 44  1  0
 14 20  1  0
 14 15  1  0
 15 16  1  0
 15 45  1  0
 15 46  1  0
 16 17  2  0
 16 18  1  0
 18 19  1  0
 18 47  1  0
 18 48  1  0
 19 20  1  0
 19 49  1  0
 19 50  1  0
 20 21  1  1
 21 51  1  0
 21 52  1  0
 21 53  1  0
 22 54  1  6
 23 24  1  0
 23 55  1  0
 23 56  1  0
 24 25  1  0
 24 26  1  1
 25 57  1  0
 25 58  1  0
 25 59  1  0
 26 60  1  0
M  END
>  <i_m_ct_stereo_status>  (219) 
1

>  <s_m_source_file>  (219) 
/var/tmp/pbs.5076255.sched01/tmppxgjifq_/8475v0iq0b.sdf

>  <i_m_source_file_index>  (219) 
9

>  <i_lp_mmshare_version>  (219) 
48012

>  <i_f3d_flags>  (219) 
0

>  <s_epik_input>  (219) 
W0NIMl0xW0NAXShbQ0gzXSkoW09IXSlbQ0BIXShbQ0gzXSlbQ0BIXShbQ0gyXVtDSDJdMilbQ0BASF0oW0NAQF0xMjMpW0NASF00W0NAQEhdKFtDSDJdW0NIMl0zKVtDQEBdNShbQ0gzXSlDKD1bQ0hdW0NAQEhdNFtPSF0pW0NIMl1DKD1PKVtDSDJdW0NIMl01

>  <s_epik_cmdline>  (219) 
J2VwaWtfcHl0aG9uJywgJy1waHQnLCAnMi4wJywgJy1waCcsICc3LjAnLCAnLXRuJywgJzgnLCAnLW1hJywgJzIwMCcsICctaW1hZScsICc8aW5maWxlLm1hZT4nLCAnLW9tYWUnLCAnPG91dGZpbGUubWFlPic=

>  <r_lp_tautomer_probability>  (219) 
1

>  <r_epik_Ionization_Penalty>  (219) 
2.18882e-06

>  <r_epik_Ionization_Penalty_Charging>  (219) 
0

>  <r_epik_Ionization_Penalty_Neutral>  (219) 
2.18882e-06

>  <r_epik_State_Penalty>  (219) 
-0

>  <r_epik_Charging_Adjusted_Penalty>  (219) 
0

>  <i_epik_Tot_Q>  (219) 
0

>  <i_epik_Tot_abs_Q>  (219) 
0

>  <s_lp_Force_Field>  (219) 
OPLS3e

>  <r_lp_Energy>  (219) 
68.8076

>  <b_lp_Chiralities_Consistent>  (219) 
1

>  <s_lp_Variant>  (219) 
62:0-1

>  <s_i_glide_gridfile>  (219) 
pfpi4k_grid

>  <i_i_glide_lignum>  (219) 
9

>  <i_i_glide_rotatable_bonds>  (219) 
2

>  <r_i_docking_score>  (219) 
-3.56836

>  <r_i_glide_ligand_efficiency>  (219) 
-0.137245

>  <r_i_glide_ligand_efficiency_sa>  (219) 
-0.406587

>  <r_i_glide_ligand_efficiency_ln>  (219) 
-0.838017

>  <r_i_glide_gscore>  (219) 
-3.56836

>  <r_i_glide_lipo>  (219) 
-0.589317

>  <r_i_glide_hbond>  (219) 
-0.0296763

>  <r_i_glide_metal>  (219) 
-0

>  <r_i_glide_rewards>  (219) 
-0.964675

>  <r_i_glide_evdw>  (219) 
-30.4571

>  <r_i_glide_ecoul>  (219) 
-2.73915

>  <r_i_glide_erotb>  (219) 
0

>  <r_i_glide_esite>  (219) 
-0.0509616

>  <r_i_glide_emodel>  (219) 
-40.1304

>  <r_i_glide_energy>  (219) 
-33.1963

>  <r_i_glide_einternal>  (219) 
0.534003

>  <r_i_glide_intrahb_reward>  (219) 
-0

>  <i_i_glide_confnum>  (219) 
1

>  <i_i_glide_posenum>  (219) 
19

>  <r_i_glide_eff_state_penalty>  (219) 
0

>  <ligand_id>  (219) 
62

>  <original_smiles>  (219) 
CC1C2CCC3(CCC4C(C(O)C=C5CC(=O)CCC54C)C23)CC1(C)O

>  <smiles>  (219) 
[H]OC1([H])C([H])=C2C([H])([H])C(=O)C([H])([H])C([H])([H])C2(C([H])([H])[H])C2([H])C([H])([H])C([H])([H])C34C([H])([H])C([H])([H])C([H])(C([H])(C([H])([H])[H])C(O[H])(C([H])([H])[H])C3([H])[H])C4([H])C12[H]

$$$$
62:0:2
     RDKit          3D

 60 64  0  0  1  0  0  0  0  0999 V2000
    4.1394   -0.4412    0.5866 C   0  0  0  0  0  0  0  0  0  0  0  0
    4.1160   -1.9550    0.2995 C   0  0  2  0  0  0  0  0  0  0  0  0
    3.8319   -2.8055    1.5685 C   0  0  2  0  0  0  0  0  0  0  0  0
    5.0554   -2.8837    2.5087 C   0  0  0  0  0  0  0  0  0  0  0  0
    5.8304   -4.1406    2.0697 C   0  0  0  0  0  0  0  0  0  0  0  0
    5.0446   -4.7093    0.8713 C   0  0  1  0  0  0  0  0  0  0  0  0
    5.1884   -6.2417    0.7115 C   0  0  0  0  0  0  0  0  0  0  0  0
    4.2892   -7.0928    1.6209 C   0  0  0  0  0  0  0  0  0  0  0  0
    2.8036   -6.6530    1.5264 C   0  0  2  0  0  0  0  0  0  0  0  0
    2.7031   -5.1901    2.0356 C   0  0  1  0  0  0  0  0  0  0  0  0
    2.8698   -5.1406    3.5855 C   0  0  1  0  0  0  0  0  0  0  0  0
    2.3967   -3.9109    4.0947 O   0  0  0  0  0  0  0  0  0  0  0  0
    2.1093   -6.2548    4.2851 C   0  0  0  0  0  0  0  0  0  0  0  0
    1.5917   -7.3410    3.6805 C   0  0  0  0  0  0  0  0  0  0  0  0
    0.6335   -8.2726    4.4102 C   0  0  0  0  0  0  0  0  0  0  0  0
   -0.7456   -8.1003    3.7710 C   0  0  0  0  0  0  0  0  0  0  0  0
   -1.7473   -7.8511    4.4335 O   0  0  0  0  0  0  0  0  0  0  0  0
   -0.8046   -8.2034    2.2428 C   0  0  0  0  0  0  0  0  0  0  0  0
    0.3340   -7.3952    1.5627 C   0  0  0  0  0  0  0  0  0  0  0  0
    1.7472   -7.6190    2.1822 C   0  0  1  0  0  0  0  0  0  0  0  0
    2.1550   -9.0983    1.9351 C   0  0  0  0  0  0  0  0  0  0  0  0
    3.5940   -4.2639    1.1333 C   0  0  1  0  0  0  0  0  0  0  0  0
    5.5052   -4.0153   -0.4497 C   0  0  0  0  0  0  0  0  0  0  0  0
    5.3499   -2.4671   -0.5199 C   0  0  1  0  0  0  0  0  0  0  0  0
    5.2774   -2.0099   -1.9897 C   0  0  0  0  0  0  0  0  0  0  0  0
    6.5476   -1.8911   -0.0326 O   0  0  0  0  0  0  0  0  0  0  0  0
    4.9609   -0.1469    1.2351 H   0  0  0  0  0  0  0  0  0  0  0  0
    3.2092   -0.1237    1.0569 H   0  0  0  0  0  0  0  0  0  0  0  0
    4.2337    0.1275   -0.3340 H   0  0  0  0  0  0  0  0  0  0  0  0
    3.2481   -2.0983   -0.3466 H   0  0  0  0  0  0  0  0  0  0  0  0
    2.9617   -2.3894    2.0746 H   0  0  0  0  0  0  0  0  0  0  0  0
    5.6720   -1.9838    2.4873 H   0  0  0  0  0  0  0  0  0  0  0  0
    4.7430   -2.9958    3.5449 H   0  0  0  0  0  0  0  0  0  0  0  0
    6.8659   -3.9183    1.8077 H   0  0  0  0  0  0  0  0  0  0  0  0
    5.8753   -4.8558    2.8898 H   0  0  0  0  0  0  0  0  0  0  0  0
    4.9547   -6.5160   -0.3185 H   0  0  0  0  0  0  0  0  0  0  0  0
    6.2272   -6.5305    0.8679 H   0  0  0  0  0  0  0  0  0  0  0  0
    4.4241   -8.1237    1.2986 H   0  0  0  0  0  0  0  0  0  0  0  0
    4.6464   -7.0627    2.6503 H   0  0  0  0  0  0  0  0  0  0  0  0
    2.5707   -6.6454    0.4641 H   0  0  0  0  0  0  0  0  0  0  0  0
    1.6872   -4.8552    1.8400 H   0  0  0  0  0  0  0  0  0  0  0  0
    3.9109   -5.2579    3.8780 H   0  0  0  0  0  0  0  0  0  0  0  0
    1.5208   -3.7669    3.7635 H   0  0  0  0  0  0  0  0  0  0  0  0
    1.9179   -6.0975    5.3352 H   0  0  0  0  0  0  0  0  0  0  0  0
    0.9564   -9.3106    4.3395 H   0  0  0  0  0  0  0  0  0  0  0  0
    0.5807   -8.0231    5.4687 H   0  0  0  0  0  0  0  0  0  0  0  0
   -0.7551   -9.2575    1.9647 H   0  0  0  0  0  0  0  0  0  0  0  0
   -1.7783   -7.8496    1.9051 H   0  0  0  0  0  0  0  0  0  0  0  0
    0.3506   -7.6251    0.4956 H   0  0  0  0  0  0  0  0  0  0  0  0
    0.0661   -6.3417    1.6247 H   0  0  0  0  0  0  0  0  0  0  0  0
    2.3810   -9.2731    0.8817 H   0  0  0  0  0  0  0  0  0  0  0  0
    1.3687   -9.8065    2.1965 H   0  0  0  0  0  0  0  0  0  0  0  0
    3.0285   -9.3798    2.5235 H   0  0  0  0  0  0  0  0  0  0  0  0
    3.0745   -4.2679    0.1731 H   0  0  0  0  0  0  0  0  0  0  0  0
    6.5420   -4.2714   -0.6711 H   0  0  0  0  0  0  0  0  0  0  0  0
    4.9206   -4.4416   -1.2670 H   0  0  0  0  0  0  0  0  0  0  0  0
    4.3729   -2.3878   -2.4708 H   0  0  0  0  0  0  0  0  0  0  0  0
    6.1348   -2.3828   -2.5554 H   0  0  0  0  0  0  0  0  0  0  0  0
    5.2695   -0.9216   -2.0786 H   0  0  0  0  0  0  0  0  0  0  0  0
    6.5958   -2.0832    0.8935 H   0  0  0  0  0  0  0  0  0  0  0  0
  1  2  1  0
  1 27  1  0
  1 28  1  0
  1 29  1  0
  2 24  1  0
  2  3  1  0
  2 30  1  6
  3 22  1  0
  3  4  1  0
  3 31  1  1
  4  5  1  0
  4 32  1  0
  4 33  1  0
  6  5  1  1
  5 34  1  0
  5 35  1  0
  6 22  1  0
  6  7  1  0
  6 23  1  0
  7  8  1  0
  7 36  1  0
  7 37  1  0
  8  9  1  0
  8 38  1  0
  8 39  1  0
  9 20  1  0
  9 10  1  0
  9 40  1  6
 10 11  1  0
 10 22  1  0
 10 41  1  1
 11 12  1  0
 11 13  1  0
 11 42  1  6
 12 43  1  0
 13 14  2  0
 13 44  1  0
 14 20  1  0
 14 15  1  0
 15 16  1  0
 15 45  1  0
 15 46  1  0
 16 17  2  0
 16 18  1  0
 18 19  1  0
 18 47  1  0
 18 48  1  0
 19 20  1  0
 19 49  1  0
 19 50  1  0
 20 21  1  1
 21 51  1  0
 21 52  1  0
 21 53  1  0
 22 54  1  6
 23 24  1  0
 23 55  1  0
 23 56  1  0
 24 25  1  0
 24 26  1  1
 25 57  1  0
 25 58  1  0
 25 59  1  0
 26 60  1  0
M  END
>  <i_m_ct_stereo_status>  (220) 
1

>  <s_m_source_file>  (220) 
/var/tmp/pbs.5076255.sched01/tmppxgjifq_/8475v0iq0b.sdf

>  <i_m_source_file_index>  (220) 
9

>  <i_lp_mmshare_version>  (220) 
48012

>  <i_f3d_flags>  (220) 
0

>  <s_epik_input>  (220) 
W0NIMl0xW0NAXShbQ0gzXSkoW09IXSlbQ0BIXShbQ0gzXSlbQ0BIXShbQ0gyXVtDSDJdMilbQ0BASF0oW0NAQF0xMjMpW0NASF00W0NAQEhdKFtDSDJdW0NIMl0zKVtDQEBdNShbQ0gzXSlDKD1bQ0hdW0NAQEhdNFtPSF0pW0NIMl1DKD1PKVtDSDJdW0NIMl01

>  <s_epik_cmdline>  (220) 
J2VwaWtfcHl0aG9uJywgJy1waHQnLCAnMi4wJywgJy1waCcsICc3LjAnLCAnLXRuJywgJzgnLCAnLW1hJywgJzIwMCcsICctaW1hZScsICc8aW5maWxlLm1hZT4nLCAnLW9tYWUnLCAnPG91dGZpbGUubWFlPic=

>  <r_lp_tautomer_probability>  (220) 
1

>  <r_epik_Ionization_Penalty>  (220) 
2.18882e-06

>  <r_epik_Ionization_Penalty_Charging>  (220) 
0

>  <r_epik_Ionization_Penalty_Neutral>  (220) 
2.18882e-06

>  <r_epik_State_Penalty>  (220) 
-0

>  <r_epik_Charging_Adjusted_Penalty>  (220) 
0

>  <i_epik_Tot_Q>  (220) 
0

>  <i_epik_Tot_abs_Q>  (220) 
0

>  <s_lp_Force_Field>  (220) 
OPLS3e

>  <r_lp_Energy>  (220) 
68.8076

>  <b_lp_Chiralities_Consistent>  (220) 
1

>  <s_lp_Variant>  (220) 
62:0-1

>  <s_i_glide_gridfile>  (220) 
pfpi4k_grid

>  <i_i_glide_lignum>  (220) 
9

>  <i_i_glide_rotatable_bonds>  (220) 
2

>  <r_i_docking_score>  (220) 
-3.56289

>  <r_i_glide_ligand_efficiency>  (220) 
-0.137034

>  <r_i_glide_ligand_efficiency_sa>  (220) 
-0.405964

>  <r_i_glide_ligand_efficiency_ln>  (220) 
-0.836733

>  <r_i_glide_gscore>  (220) 
-3.56289

>  <r_i_glide_lipo>  (220) 
-0.575862

>  <r_i_glide_hbond>  (220) 
-0.00698148

>  <r_i_glide_metal>  (220) 
-0

>  <r_i_glide_rewards>  (220) 
-0.964675

>  <r_i_glide_evdw>  (220) 
-30.7148

>  <r_i_glide_ecoul>  (220) 
-2.79953

>  <r_i_glide_erotb>  (220) 
0

>  <r_i_glide_esite>  (220) 
-0.0597044

>  <r_i_glide_emodel>  (220) 
-40.9326

>  <r_i_glide_energy>  (220) 
-33.5143

>  <r_i_glide_einternal>  (220) 
0.0188868

>  <r_i_glide_intrahb_reward>  (220) 
-0

>  <i_i_glide_confnum>  (220) 
1

>  <i_i_glide_posenum>  (220) 
1

>  <r_i_glide_eff_state_penalty>  (220) 
0

>  <ligand_id>  (220) 
62

>  <original_smiles>  (220) 
CC1C2CCC3(CCC4C(C(O)C=C5CC(=O)CCC54C)C23)CC1(C)O

>  <smiles>  (220) 
[H]OC1([H])C([H])=C2C([H])([H])C(=O)C([H])([H])C([H])([H])C2(C([H])([H])[H])C2([H])C([H])([H])C([H])([H])C34C([H])([H])C([H])([H])C([H])(C([H])(C([H])([H])[H])C(O[H])(C([H])([H])[H])C3([H])[H])C4([H])C12[H]

$$$$
63:0:0
     RDKit          3D

 62 68  0  0  1  0  0  0  0  0999 V2000
    0.6810   -0.3549    4.3866 C   0  0  0  0  0  0  0  0  0  0  0  0
    1.9829   -0.6404    3.5926 C   0  0  2  0  0  0  0  0  0  0  0  0
    3.0839    0.3974    3.8137 C   0  0  0  0  0  0  0  0  0  0  0  0
    4.3487   -0.0027    3.5058 C   0  0  0  0  0  0  0  0  0  0  0  0
    4.3818   -1.1672    2.5137 C   0  0  2  0  0  0  0  0  0  0  0  0
    5.6375   -1.7434    1.7983 C   0  0  2  0  0  0  0  0  0  0  0  0
    5.9326   -1.0219    0.4507 C   0  0  0  0  0  0  0  0  0  0  0  0
    4.7449   -1.2352   -0.5476 C   0  0  0  0  0  0  0  0  0  0  0  0
    3.5252   -1.8290    0.2217 C   0  0  1  0  0  0  0  0  0  0  0  0
    4.0310   -3.1943    0.6842 C   0  0  0  0  0  0  0  0  0  0  0  0
    5.1914   -3.1630    1.4289 C   0  0  0  0  0  0  0  0  0  0  0  0
    5.5623   -4.4979    1.6860 C   0  0  0  0  0  0  0  0  0  0  0  0
    6.6100   -4.9546    2.4107 O   0  0  0  0  0  0  0  0  0  0  0  0
    4.6265   -5.3610    1.0872 N   0  0  0  0  0  0  0  0  0  0  0  0
    4.6498   -6.7417    1.1477 N   0  0  0  0  0  0  0  0  0  0  0  0
    3.6962   -7.3731    1.6970 C   0  0  0  0  0  0  0  0  0  0  0  0
    2.4639   -6.8022    2.3948 C   0  0  0  0  0  0  0  0  0  0  0  0
    2.0001   -7.9330    3.1811 N   0  0  0  0  0  0  0  0  0  0  0  0
    0.6436   -7.8609    3.7072 C   0  0  0  0  0  0  0  0  0  0  0  0
    0.3008   -9.1194    4.5280 C   0  0  0  0  0  0  0  0  0  0  0  0
    0.6249  -10.4183    3.7584 C   0  0  0  0  0  0  0  0  0  0  0  0
    2.0515  -10.3830    3.1823 C   0  0  0  0  0  0  0  0  0  0  0  0
    2.2292   -9.1039    2.3555 C   0  0  2  0  0  0  0  0  0  0  0  0
    3.6265   -8.8808    1.7703 C   0  0  1  0  0  0  0  0  0  0  0  0
    3.7966   -9.4563    0.4978 O   0  0  0  0  0  0  0  0  0  0  0  0
    3.7016   -4.5269    0.4300 C   0  0  0  0  0  0  0  0  0  0  0  0
    2.6541   -4.9548   -0.3134 O   0  0  0  0  0  0  0  0  0  0  0  0
    3.3051   -0.8688    1.4254 C   0  0  1  0  0  0  0  0  0  0  0  0
    1.9050   -0.4509    2.0539 C   0  0  2  0  0  0  0  0  0  0  0  0
    1.8829    1.0805    2.0666 C   0  0  0  0  0  0  0  0  0  0  0  0
    2.6127    1.5624    3.0925 C   0  0  0  0  0  0  0  0  0  0  0  0
    0.8782   -0.3683    5.4610 H   0  0  0  0  0  0  0  0  0  0  0  0
   -0.0715   -1.1211    4.1880 H   0  0  0  0  0  0  0  0  0  0  0  0
    0.2290    0.6113    4.1553 H   0  0  0  0  0  0  0  0  0  0  0  0
    2.2565   -1.6512    3.8817 H   0  0  0  0  0  0  0  0  0  0  0  0
    5.0914    0.7585    3.3273 H   0  0  0  0  0  0  0  0  0  0  0  0
    4.0942   -1.9975    3.1530 H   0  0  0  0  0  0  0  0  0  0  0  0
    6.5049   -1.7676    2.4493 H   0  0  0  0  0  0  0  0  0  0  0  0
    6.1252    0.0399    0.6098 H   0  0  0  0  0  0  0  0  0  0  0  0
    6.8371   -1.4419    0.0154 H   0  0  0  0  0  0  0  0  0  0  0  0
    4.4968   -0.2967   -1.0402 H   0  0  0  0  0  0  0  0  0  0  0  0
    5.0398   -1.9217   -1.3402 H   0  0  0  0  0  0  0  0  0  0  0  0
    2.6408   -1.9242   -0.4142 H   0  0  0  0  0  0  0  0  0  0  0  0
    6.6245   -5.8886    2.3147 H   0  0  0  0  0  0  0  0  0  0  0  0
    2.7069   -5.9419    3.0203 H   0  0  0  0  0  0  0  0  0  0  0  0
    1.7291   -6.5112    1.6419 H   0  0  0  0  0  0  0  0  0  0  0  0
    0.5475   -6.9819    4.3462 H   0  0  0  0  0  0  0  0  0  0  0  0
   -0.0712   -7.7457    2.8936 H   0  0  0  0  0  0  0  0  0  0  0  0
    0.8776   -9.1140    5.4533 H   0  0  0  0  0  0  0  0  0  0  0  0
   -0.7511   -9.1012    4.8172 H   0  0  0  0  0  0  0  0  0  0  0  0
    0.5108  -11.2797    4.4167 H   0  0  0  0  0  0  0  0  0  0  0  0
   -0.0963  -10.5552    2.9528 H   0  0  0  0  0  0  0  0  0  0  0  0
    2.7773  -10.3916    3.9971 H   0  0  0  0  0  0  0  0  0  0  0  0
    2.2438  -11.2679    2.5758 H   0  0  0  0  0  0  0  0  0  0  0  0
    1.5096   -9.1032    1.5318 H   0  0  0  0  0  0  0  0  0  0  0  0
    4.4067   -9.2289    2.4486 H   0  0  0  0  0  0  0  0  0  0  0  0
    3.8253  -10.4250    0.5641 H   0  0  0  0  0  0  0  0  0  0  0  0
    2.9930   -5.3043   -1.1421 H   0  0  0  0  0  0  0  0  0  0  0  0
    3.6291    0.0786    0.9912 H   0  0  0  0  0  0  0  0  0  0  0  0
    1.0221   -0.9052    1.6066 H   0  0  0  0  0  0  0  0  0  0  0  0
    1.3409    1.6708    1.3389 H   0  0  0  0  0  0  0  0  0  0  0  0
    2.7516    2.6033    3.3504 H   0  0  0  0  0  0  0  0  0  0  0  0
  1  2  1  0
  1 32  1  0
  1 33  1  0
  1 34  1  0
  2 29  1  0
  2  3  1  0
  2 35  1  6
  3 31  1  0
  3  4  2  0
  4  5  1  0
  4 36  1  0
  5 28  1  0
  5  6  1  0
  5 37  1  1
  6 11  1  0
  6  7  1  0
  6 38  1  1
  7  8  1  0
  7 39  1  0
  7 40  1  0
  8  9  1  0
  8 41  1  0
  8 42  1  0
  9 10  1  0
  9 28  1  0
  9 43  1  6
 10 26  2  0
 10 11  1  0
 11 12  2  0
 12 13  1  0
 12 14  1  0
 13 44  1  0
 14 15  1  0
 14 26  1  0
 15 16  2  3
 16 24  1  0
 16 17  1  0
 17 18  1  0
 17 45  1  0
 17 46  1  0
 18 23  1  0
 18 19  1  0
 19 20  1  0
 19 47  1  0
 19 48  1  0
 20 21  1  0
 20 49  1  0
 20 50  1  0
 21 22  1  0
 21 51  1  0
 21 52  1  0
 22 23  1  0
 22 53  1  0
 22 54  1  0
 23 24  1  0
 23 55  1  6
 24 25  1  0
 24 56  1  1
 25 57  1  0
 26 27  1  0
 27 58  1  0
 28 29  1  0
 28 59  1  6
 29 30  1  0
 29 60  1  6
 30 31  2  0
 30 61  1  0
 31 62  1  0
M  END
>  <i_m_ct_stereo_status>  (221) 
1

>  <s_m_source_file>  (221) 
/var/tmp/pbs.5076255.sched01/tmppxgjifq_/8475v0iq0b.sdf

>  <i_m_source_file_index>  (221) 
10

>  <i_lp_mmshare_version>  (221) 
48012

>  <i_f3d_flags>  (221) 
0

>  <s_epik_input>  (221) 
W0NIM11bQ0BIXTFbQ0BASF0oW0NIXT1bQ0hdMilbQ0BASF0zW0NAQEhdKFtDSDJdW0NIMl00KWMoYzVbQ0BASF00W0NASF0zW0NIXT1DMTIpYyhbT0hdKW4oYzVbT0hdKS9OPUMoXFtDSDJdNilbQ0BIXShbT0hdKVtDQEhdKE42NylbQ0gyXVtDSDJdW0NIMl1bQ0gyXTc=

>  <s_epik_cmdline>  (221) 
J2VwaWtfcHl0aG9uJywgJy1waHQnLCAnMi4wJywgJy1waCcsICc3LjAnLCAnLXRuJywgJzgnLCAnLW1hJywgJzIwMCcsICctaW1hZScsICc8aW5maWxlLm1hZT4nLCAnLW9tYWUnLCAnPG91dGZpbGUubWFlPic=

>  <r_epik_Ionization_Penalty>  (221) 
0.106688

>  <r_epik_Ionization_Penalty_Charging>  (221) 
0

>  <r_epik_Ionization_Penalty_Neutral>  (221) 
0.106688

>  <r_epik_State_Penalty>  (221) 
0.0910157

>  <r_epik_Charging_Adjusted_Penalty>  (221) 
0.0910157

>  <i_epik_Tot_Q>  (221) 
0

>  <i_epik_Tot_abs_Q>  (221) 
0

>  <s_epik_Chemistry_Notes>  (221) 
This compound has an imine and may undergo hydrolysis.

>  <s_lp_Force_Field>  (221) 
OPLS3e

>  <r_lp_Energy>  (221) 
150.681

>  <b_lp_Chiralities_Consistent>  (221) 
1

>  <s_lp_Variant>  (221) 
63:0-1

>  <s_i_glide_gridfile>  (221) 
pfpi4k_grid

>  <i_i_glide_lignum>  (221) 
10

>  <i_i_glide_rotatable_bonds>  (221) 
4

>  <r_i_docking_score>  (221) 
-4.54758

>  <r_i_glide_ligand_efficiency>  (221) 
-0.146696

>  <r_i_glide_ligand_efficiency_sa>  (221) 
-0.460829

>  <r_i_glide_ligand_efficiency_ln>  (221) 
-1.02562

>  <r_i_glide_gscore>  (221) 
-4.54758

>  <r_i_glide_lipo>  (221) 
-0.474954

>  <r_i_glide_hbond>  (221) 
-0.456

>  <r_i_glide_metal>  (221) 
-0

>  <r_i_glide_rewards>  (221) 
-0.67267

>  <r_i_glide_evdw>  (221) 
-30.6785

>  <r_i_glide_ecoul>  (221) 
-10.1432

>  <r_i_glide_erotb>  (221) 
0.111443

>  <r_i_glide_esite>  (221) 
0

>  <r_i_glide_emodel>  (221) 
-51.5399

>  <r_i_glide_energy>  (221) 
-40.8217

>  <r_i_glide_einternal>  (221) 
3.14848

>  <r_i_glide_intrahb_reward>  (221) 
-0

>  <i_i_glide_confnum>  (221) 
4

>  <i_i_glide_posenum>  (221) 
29

>  <r_i_glide_eff_state_penalty>  (221) 
0

>  <ligand_id>  (221) 
63

>  <original_smiles>  (221) 
CC1C2=CC3C4CCC(c5c4c(O)n(N=C4CN6CCCCC6C4O)c5O)C3C1C=C2

>  <smiles>  (221) 
[H]Oc1c2c(c(O[H])n1N=C1C([H])([H])N3C([H])([H])C([H])([H])C([H])([H])C([H])([H])C3([H])C1([H])O[H])C1([H])C([H])([H])C([H])([H])C2([H])C2([H])C([H])=C3C([H])=C([H])C([H])(C3([H])C([H])([H])[H])C21[H]

$$$$
63:0:1
     RDKit          3D

 62 68  0  0  1  0  0  0  0  0999 V2000
    3.2416   -7.3152    3.3505 C   0  0  0  0  0  0  0  0  0  0  0  0
    3.8978   -6.3349    2.3440 C   0  0  2  0  0  0  0  0  0  0  0  0
    4.4490   -7.0176    1.1041 C   0  0  0  0  0  0  0  0  0  0  0  0
    4.5917   -6.2121    0.0176 C   0  0  0  0  0  0  0  0  0  0  0  0
    4.7731   -4.7369    0.3631 C   0  0  2  0  0  0  0  0  0  0  0  0
    5.1948   -3.5913   -0.6056 C   0  0  2  0  0  0  0  0  0  0  0  0
    6.7396   -3.3653   -0.6425 C   0  0  0  0  0  0  0  0  0  0  0  0
    7.2739   -2.9719    0.7689 C   0  0  0  0  0  0  0  0  0  0  0  0
    6.1367   -3.1994    1.7982 C   0  0  1  0  0  0  0  0  0  0  0  0
    5.0690   -2.2224    1.3730 C   0  0  0  0  0  0  0  0  0  0  0  0
    4.6289   -2.3618    0.0827 C   0  0  0  0  0  0  0  0  0  0  0  0
    3.6857   -1.3586   -0.1640 C   0  0  0  0  0  0  0  0  0  0  0  0
    3.0118   -1.2189   -1.3212 O   0  0  0  0  0  0  0  0  0  0  0  0
    3.5640   -0.5632    1.0112 N   0  0  0  0  0  0  0  0  0  0  0  0
    2.7783    0.5373    1.2235 N   0  0  0  0  0  0  0  0  0  0  0  0
    1.9419    0.6222    2.1686 C   0  0  0  0  0  0  0  0  0  0  0  0
    1.6392   -0.4303    3.2212 C   0  0  0  0  0  0  0  0  0  0  0  0
    0.3506   -0.0120    3.7345 N   0  0  0  0  0  0  0  0  0  0  0  0
   -0.0284   -0.5701    5.0132 C   0  0  0  0  0  0  0  0  0  0  0  0
   -1.4110   -0.0493    5.4377 C   0  0  0  0  0  0  0  0  0  0  0  0
   -1.4966    1.4894    5.3536 C   0  0  0  0  0  0  0  0  0  0  0  0
   -0.9984    2.0086    3.9940 C   0  0  0  0  0  0  0  0  0  0  0  0
    0.3945    1.4370    3.7459 C   0  0  2  0  0  0  0  0  0  0  0  0
    1.0346    1.8047    2.4065 C   0  0  1  0  0  0  0  0  0  0  0  0
    1.7336    3.0293    2.4866 O   0  0  0  0  0  0  0  0  0  0  0  0
    4.4821   -1.0949    1.9167 C   0  0  0  0  0  0  0  0  0  0  0  0
    4.7516   -0.5354    3.1275 O   0  0  0  0  0  0  0  0  0  0  0  0
    5.6951   -4.6745    1.6140 C   0  0  1  0  0  0  0  0  0  0  0  0
    5.2493   -5.6880    2.7602 C   0  0  2  0  0  0  0  0  0  0  0  0
    6.1169   -6.9428    2.5745 C   0  0  0  0  0  0  0  0  0  0  0  0
    5.6361   -7.7078    1.5771 C   0  0  0  0  0  0  0  0  0  0  0  0
    2.3931   -7.8209    2.8855 H   0  0  0  0  0  0  0  0  0  0  0  0
    2.8661   -6.7703    4.2178 H   0  0  0  0  0  0  0  0  0  0  0  0
    3.9242   -8.0867    3.7063 H   0  0  0  0  0  0  0  0  0  0  0  0
    3.1272   -5.6081    2.1306 H   0  0  0  0  0  0  0  0  0  0  0  0
    5.2927   -6.5371   -0.7182 H   0  0  0  0  0  0  0  0  0  0  0  0
    3.7433   -4.4695    0.5930 H   0  0  0  0  0  0  0  0  0  0  0  0
    4.7691   -3.7063   -1.5980 H   0  0  0  0  0  0  0  0  0  0  0  0
    7.2690   -4.2537   -0.9771 H   0  0  0  0  0  0  0  0  0  0  0  0
    6.9904   -2.5813   -1.3633 H   0  0  0  0  0  0  0  0  0  0  0  0
    8.1747   -3.5425    1.0045 H   0  0  0  0  0  0  0  0  0  0  0  0
    7.5698   -1.9236    0.7723 H   0  0  0  0  0  0  0  0  0  0  0  0
    6.3890   -2.9568    2.8170 H   0  0  0  0  0  0  0  0  0  0  0  0
    2.0176   -1.0647   -1.1338 H   0  0  0  0  0  0  0  0  0  0  0  0
    1.6194   -1.4393    2.8007 H   0  0  0  0  0  0  0  0  0  0  0  0
    2.3942   -0.3625    4.0071 H   0  0  0  0  0  0  0  0  0  0  0  0
   -0.0446   -1.6575    4.9352 H   0  0  0  0  0  0  0  0  0  0  0  0
    0.7208   -0.3248    5.7681 H   0  0  0  0  0  0  0  0  0  0  0  0
   -2.1588   -0.4803    4.7727 H   0  0  0  0  0  0  0  0  0  0  0  0
   -1.6339   -0.3880    6.4430 H   0  0  0  0  0  0  0  0  0  0  0  0
   -2.5177    1.8150    5.5100 H   0  0  0  0  0  0  0  0  0  0  0  0
   -0.9040    1.9313    6.1534 H   0  0  0  0  0  0  0  0  0  0  0  0
   -1.6621    1.6728    3.1952 H   0  0  0  0  0  0  0  0  0  0  0  0
   -0.9812    3.0966    3.9688 H   0  0  0  0  0  0  0  0  0  0  0  0
    1.0838    1.7816    4.5197 H   0  0  0  0  0  0  0  0  0  0  0  0
    0.3070    1.8529    1.5971 H   0  0  0  0  0  0  0  0  0  0  0  0
    1.2995    3.6306    1.8761 H   0  0  0  0  0  0  0  0  0  0  0  0
    4.1920    0.2217    3.2171 H   0  0  0  0  0  0  0  0  0  0  0  0
    6.6303   -5.1355    1.2831 H   0  0  0  0  0  0  0  0  0  0  0  0
    5.2505   -5.2926    3.7771 H   0  0  0  0  0  0  0  0  0  0  0  0
    6.9703   -7.1757    3.1883 H   0  0  0  0  0  0  0  0  0  0  0  0
    6.0302   -8.6545    1.2292 H   0  0  0  0  0  0  0  0  0  0  0  0
  1  2  1  0
  1 32  1  0
  1 33  1  0
  1 34  1  0
  2 29  1  0
  2  3  1  0
  2 35  1  6
  3 31  1  0
  3  4  2  0
  4  5  1  0
  4 36  1  0
  5 28  1  0
  5  6  1  0
  5 37  1  1
  6 11  1  0
  6  7  1  0
  6 38  1  6
  7  8  1  0
  7 39  1  0
  7 40  1  0
  8  9  1  0
  8 41  1  0
  8 42  1  0
  9 10  1  0
  9 28  1  0
  9 43  1  1
 10 26  2  0
 10 11  1  0
 11 12  2  0
 12 13  1  0
 12 14  1  0
 13 44  1  0
 14 15  1  0
 14 26  1  0
 15 16  2  3
 16 24  1  0
 16 17  1  0
 17 18  1  0
 17 45  1  0
 17 46  1  0
 18 23  1  0
 18 19  1  0
 19 20  1  0
 19 47  1  0
 19 48  1  0
 20 21  1  0
 20 49  1  0
 20 50  1  0
 21 22  1  0
 21 51  1  0
 21 52  1  0
 22 23  1  0
 22 53  1  0
 22 54  1  0
 23 24  1  0
 23 55  1  1
 24 25  1  0
 24 56  1  6
 25 57  1  0
 26 27  1  0
 27 58  1  0
 28 29  1  0
 28 59  1  6
 29 30  1  0
 29 60  1  1
 30 31  2  0
 30 61  1  0
 31 62  1  0
M  END
>  <i_m_ct_stereo_status>  (222) 
1

>  <s_m_source_file>  (222) 
/var/tmp/pbs.5076255.sched01/tmppxgjifq_/8475v0iq0b.sdf

>  <i_m_source_file_index>  (222) 
10

>  <i_lp_mmshare_version>  (222) 
48012

>  <i_f3d_flags>  (222) 
0

>  <s_epik_input>  (222) 
W0NIM11bQ0BIXTFbQ0BASF0oW0NIXT1bQ0hdMilbQ0BASF0zW0NAQEhdKFtDSDJdW0NIMl00KWMoYzVbQ0BASF00W0NASF0zW0NIXT1DMTIpYyhbT0hdKW4oYzVbT0hdKS9OPUMoXFtDSDJdNilbQ0BIXShbT0hdKVtDQEhdKE42NylbQ0gyXVtDSDJdW0NIMl1bQ0gyXTc=

>  <s_epik_cmdline>  (222) 
J2VwaWtfcHl0aG9uJywgJy1waHQnLCAnMi4wJywgJy1waCcsICc3LjAnLCAnLXRuJywgJzgnLCAnLW1hJywgJzIwMCcsICctaW1hZScsICc8aW5maWxlLm1hZT4nLCAnLW9tYWUnLCAnPG91dGZpbGUubWFlPic=

>  <r_epik_Ionization_Penalty>  (222) 
0.106688

>  <r_epik_Ionization_Penalty_Charging>  (222) 
0

>  <r_epik_Ionization_Penalty_Neutral>  (222) 
0.106688

>  <r_epik_State_Penalty>  (222) 
0.0910157

>  <r_epik_Charging_Adjusted_Penalty>  (222) 
0.0910157

>  <i_epik_Tot_Q>  (222) 
0

>  <i_epik_Tot_abs_Q>  (222) 
0

>  <s_epik_Chemistry_Notes>  (222) 
This compound has an imine and may undergo hydrolysis.

>  <s_lp_Force_Field>  (222) 
OPLS3e

>  <r_lp_Energy>  (222) 
150.681

>  <b_lp_Chiralities_Consistent>  (222) 
1

>  <s_lp_Variant>  (222) 
63:0-1

>  <s_i_glide_gridfile>  (222) 
pfpi4k_grid

>  <i_i_glide_lignum>  (222) 
10

>  <i_i_glide_rotatable_bonds>  (222) 
4

>  <r_i_docking_score>  (222) 
-4.53971

>  <r_i_glide_ligand_efficiency>  (222) 
-0.146442

>  <r_i_glide_ligand_efficiency_sa>  (222) 
-0.460031

>  <r_i_glide_ligand_efficiency_ln>  (222) 
-1.02384

>  <r_i_glide_gscore>  (222) 
-4.53971

>  <r_i_glide_lipo>  (222) 
-0.821624

>  <r_i_glide_hbond>  (222) 
-0.237198

>  <r_i_glide_metal>  (222) 
-0

>  <r_i_glide_rewards>  (222) 
-0.535009

>  <r_i_glide_evdw>  (222) 
-16.1392

>  <r_i_glide_ecoul>  (222) 
-14.6782

>  <r_i_glide_erotb>  (222) 
0.111443

>  <r_i_glide_esite>  (222) 
-0.048641

>  <r_i_glide_emodel>  (222) 
-41.037

>  <r_i_glide_energy>  (222) 
-30.8173

>  <r_i_glide_einternal>  (222) 
3.07496

>  <r_i_glide_intrahb_reward>  (222) 
-0

>  <i_i_glide_confnum>  (222) 
4

>  <i_i_glide_posenum>  (222) 
36

>  <r_i_glide_eff_state_penalty>  (222) 
0

>  <ligand_id>  (222) 
63

>  <original_smiles>  (222) 
CC1C2=CC3C4CCC(c5c4c(O)n(N=C4CN6CCCCC6C4O)c5O)C3C1C=C2

>  <smiles>  (222) 
[H]Oc1c2c(c(O[H])n1N=C1C([H])([H])N3C([H])([H])C([H])([H])C([H])([H])C([H])([H])C3([H])C1([H])O[H])C1([H])C([H])([H])C([H])([H])C2([H])C2([H])C([H])=C3C([H])=C([H])C([H])(C3([H])C([H])([H])[H])C21[H]

$$$$
63:0:2
     RDKit          3D

 62 68  0  0  1  0  0  0  0  0999 V2000
   -0.3856   -8.6234    4.2425 C   0  0  0  0  0  0  0  0  0  0  0  0
    0.9538   -8.3973    3.5051 C   0  0  2  0  0  0  0  0  0  0  0  0
    1.4341   -9.6135    2.6911 C   0  0  0  0  0  0  0  0  0  0  0  0
    2.3420   -9.3615    1.7142 C   0  0  0  0  0  0  0  0  0  0  0  0
    3.0940   -8.0484    1.9201 C   0  0  2  0  0  0  0  0  0  0  0  0
    4.3147   -7.5497    1.0930 C   0  0  2  0  0  0  0  0  0  0  0  0
    5.6664   -8.0432    1.7037 C   0  0  0  0  0  0  0  0  0  0  0  0
    5.8655   -7.4823    3.1500 C   0  0  0  0  0  0  0  0  0  0  0  0
    4.5243   -6.8649    3.6596 C   0  0  1  0  0  0  0  0  0  0  0  0
    4.2947   -5.7021    2.6917 C   0  0  0  0  0  0  0  0  0  0  0  0
    4.2575   -6.0334    1.3517 C   0  0  0  0  0  0  0  0  0  0  0  0
    4.1442   -4.8342    0.6262 C   0  0  0  0  0  0  0  0  0  0  0  0
    4.1179   -4.6482   -0.7182 O   0  0  0  0  0  0  0  0  0  0  0  0
    4.1019   -3.7592    1.5305 N   0  0  0  0  0  0  0  0  0  0  0  0
    3.9628   -2.4083    1.1963 N   0  0  0  0  0  0  0  0  0  0  0  0
    3.0843   -1.6852    1.7651 C   0  0  0  0  0  0  0  0  0  0  0  0
    2.0605   -2.0594    2.8260 C   0  0  0  0  0  0  0  0  0  0  0  0
    1.1117   -0.9785    2.7786 N   0  0  0  0  0  0  0  0  0  0  0  0
    0.2399   -0.8525    3.9366 C   0  0  0  0  0  0  0  0  0  0  0  0
   -0.7154    0.3372    3.7627 C   0  0  0  0  0  0  0  0  0  0  0  0
    0.0364    1.6299    3.3828 C   0  0  0  0  0  0  0  0  0  0  0  0
    1.0126    1.3920    2.2114 C   0  0  0  0  0  0  0  0  0  0  0  0
    1.9180    0.2083    2.5446 C   0  0  2  0  0  0  0  0  0  0  0  0
    2.9030   -0.2081    1.4689 C   0  0  1  0  0  0  0  0  0  0  0  0
    4.1283    0.4772    1.5504 O   0  0  0  0  0  0  0  0  0  0  0  0
    4.2791   -4.3233    2.7984 C   0  0  0  0  0  0  0  0  0  0  0  0
    4.4644   -3.6031    3.9386 O   0  0  0  0  0  0  0  0  0  0  0  0
    3.4631   -7.9798    3.4382 C   0  0  1  0  0  0  0  0  0  0  0  0
    2.2337   -8.2946    4.3822 C   0  0  2  0  0  0  0  0  0  0  0  0
    2.3155   -9.7888    4.7383 C   0  0  0  0  0  0  0  0  0  0  0  0
    1.8650  -10.5394    3.7043 C   0  0  0  0  0  0  0  0  0  0  0  0
   -1.1894   -8.8436    3.5369 H   0  0  0  0  0  0  0  0  0  0  0  0
   -0.6813   -7.7362    4.8027 H   0  0  0  0  0  0  0  0  0  0  0  0
   -0.3519   -9.4534    4.9482 H   0  0  0  0  0  0  0  0  0  0  0  0
    0.7736   -7.5106    2.8972 H   0  0  0  0  0  0  0  0  0  0  0  0
    2.9535  -10.1823    1.3595 H   0  0  0  0  0  0  0  0  0  0  0  0
    2.3330   -7.3174    1.6640 H   0  0  0  0  0  0  0  0  0  0  0  0
    4.2227   -7.7606    0.0412 H   0  0  0  0  0  0  0  0  0  0  0  0
    5.7106   -9.1333    1.6964 H   0  0  0  0  0  0  0  0  0  0  0  0
    6.4867   -7.6922    1.0877 H   0  0  0  0  0  0  0  0  0  0  0  0
    6.2210   -8.2666    3.8226 H   0  0  0  0  0  0  0  0  0  0  0  0
    6.6320   -6.7092    3.1514 H   0  0  0  0  0  0  0  0  0  0  0  0
    4.5878   -6.5226    4.6824 H   0  0  0  0  0  0  0  0  0  0  0  0
    3.8201   -5.4512   -1.1480 H   0  0  0  0  0  0  0  0  0  0  0  0
    1.5967   -3.0236    2.6231 H   0  0  0  0  0  0  0  0  0  0  0  0
    2.5348   -2.0673    3.8050 H   0  0  0  0  0  0  0  0  0  0  0  0
   -0.3291   -1.7753    4.0525 H   0  0  0  0  0  0  0  0  0  0  0  0
    0.8325   -0.7388    4.8450 H   0  0  0  0  0  0  0  0  0  0  0  0
   -1.4144    0.1234    2.9551 H   0  0  0  0  0  0  0  0  0  0  0  0
   -1.3116    0.4824    4.6669 H   0  0  0  0  0  0  0  0  0  0  0  0
   -0.6800    2.4039    3.1005 H   0  0  0  0  0  0  0  0  0  0  0  0
    0.5898    1.9951    4.2498 H   0  0  0  0  0  0  0  0  0  0  0  0
    0.4584    1.1560    1.2981 H   0  0  0  0  0  0  0  0  0  0  0  0
    1.5962    2.2907    2.0093 H   0  0  0  0  0  0  0  0  0  0  0  0
    2.4834    0.4341    3.4497 H   0  0  0  0  0  0  0  0  0  0  0  0
    2.4773   -0.0917    0.4745 H   0  0  0  0  0  0  0  0  0  0  0  0
    3.9789    1.4214    1.6115 H   0  0  0  0  0  0  0  0  0  0  0  0
    4.3274   -2.7047    3.7096 H   0  0  0  0  0  0  0  0  0  0  0  0
    4.0785   -8.8707    3.5962 H   0  0  0  0  0  0  0  0  0  0  0  0
    2.1157   -7.6438    5.2509 H   0  0  0  0  0  0  0  0  0  0  0  0
    2.6977  -10.1556    5.6785 H   0  0  0  0  0  0  0  0  0  0  0  0
    1.7925  -11.6230    3.6938 H   0  0  0  0  0  0  0  0  0  0  0  0
  1  2  1  0
  1 32  1  0
  1 33  1  0
  1 34  1  0
  2 29  1  0
  2  3  1  0
  2 35  1  6
  3 31  1  0
  3  4  2  0
  4  5  1  0
  4 36  1  0
  5 28  1  0
  5  6  1  0
  5 37  1  1
  6 11  1  0
  6  7  1  0
  6 38  1  6
  7  8  1  0
  7 39  1  0
  7 40  1  0
  8  9  1  0
  8 41  1  0
  8 42  1  0
  9 10  1  0
  9 28  1  0
  9 43  1  1
 10 26  2  0
 10 11  1  0
 11 12  2  0
 12 13  1  0
 12 14  1  0
 13 44  1  0
 14 15  1  0
 14 26  1  0
 15 16  2  3
 16 24  1  0
 16 17  1  0
 17 18  1  0
 17 45  1  0
 17 46  1  0
 18 23  1  0
 18 19  1  0
 19 20  1  0
 19 47  1  0
 19 48  1  0
 20 21  1  0
 20 49  1  0
 20 50  1  0
 21 22  1  0
 21 51  1  0
 21 52  1  0
 22 23  1  0
 22 53  1  0
 22 54  1  0
 23 24  1  0
 23 55  1  1
 24 25  1  0
 24 56  1  6
 25 57  1  0
 26 27  1  0
 27 58  1  0
 28 29  1  0
 28 59  1  6
 29 30  1  0
 29 60  1  1
 30 31  2  0
 30 61  1  0
 31 62  1  0
M  END
>  <i_m_ct_stereo_status>  (223) 
1

>  <s_m_source_file>  (223) 
/var/tmp/pbs.5076255.sched01/tmppxgjifq_/8475v0iq0b.sdf

>  <i_m_source_file_index>  (223) 
10

>  <i_lp_mmshare_version>  (223) 
48012

>  <i_f3d_flags>  (223) 
0

>  <s_epik_input>  (223) 
W0NIM11bQ0BIXTFbQ0BASF0oW0NIXT1bQ0hdMilbQ0BASF0zW0NAQEhdKFtDSDJdW0NIMl00KWMoYzVbQ0BASF00W0NASF0zW0NIXT1DMTIpYyhbT0hdKW4oYzVbT0hdKS9OPUMoXFtDSDJdNilbQ0BIXShbT0hdKVtDQEhdKE42NylbQ0gyXVtDSDJdW0NIMl1bQ0gyXTc=

>  <s_epik_cmdline>  (223) 
J2VwaWtfcHl0aG9uJywgJy1waHQnLCAnMi4wJywgJy1waCcsICc3LjAnLCAnLXRuJywgJzgnLCAnLW1hJywgJzIwMCcsICctaW1hZScsICc8aW5maWxlLm1hZT4nLCAnLW9tYWUnLCAnPG91dGZpbGUubWFlPic=

>  <r_epik_Ionization_Penalty>  (223) 
0.106688

>  <r_epik_Ionization_Penalty_Charging>  (223) 
0

>  <r_epik_Ionization_Penalty_Neutral>  (223) 
0.106688

>  <r_epik_State_Penalty>  (223) 
0.0910157

>  <r_epik_Charging_Adjusted_Penalty>  (223) 
0.0910157

>  <i_epik_Tot_Q>  (223) 
0

>  <i_epik_Tot_abs_Q>  (223) 
0

>  <s_epik_Chemistry_Notes>  (223) 
This compound has an imine and may undergo hydrolysis.

>  <s_lp_Force_Field>  (223) 
OPLS3e

>  <r_lp_Energy>  (223) 
150.681

>  <b_lp_Chiralities_Consistent>  (223) 
1

>  <s_lp_Variant>  (223) 
63:0-1

>  <s_i_glide_gridfile>  (223) 
pfpi4k_grid

>  <i_i_glide_lignum>  (223) 
10

>  <i_i_glide_rotatable_bonds>  (223) 
4

>  <r_i_docking_score>  (223) 
-3.50273

>  <r_i_glide_ligand_efficiency>  (223) 
-0.112991

>  <r_i_glide_ligand_efficiency_sa>  (223) 
-0.354949

>  <r_i_glide_ligand_efficiency_ln>  (223) 
-0.789973

>  <r_i_glide_gscore>  (223) 
-3.50273

>  <r_i_glide_lipo>  (223) 
-0.417368

>  <r_i_glide_hbond>  (223) 
-0.430822

>  <r_i_glide_metal>  (223) 
-0

>  <r_i_glide_rewards>  (223) 
-0.549014

>  <r_i_glide_evdw>  (223) 
-27.8253

>  <r_i_glide_ecoul>  (223) 
-5.37106

>  <r_i_glide_erotb>  (223) 
0.111443

>  <r_i_glide_esite>  (223) 
-0.0200482

>  <r_i_glide_emodel>  (223) 
-41.3331

>  <r_i_glide_energy>  (223) 
-33.1964

>  <r_i_glide_einternal>  (223) 
2.00072

>  <r_i_glide_intrahb_reward>  (223) 
-0

>  <i_i_glide_confnum>  (223) 
1

>  <i_i_glide_posenum>  (223) 
16

>  <r_i_glide_eff_state_penalty>  (223) 
0

>  <ligand_id>  (223) 
63

>  <original_smiles>  (223) 
CC1C2=CC3C4CCC(c5c4c(O)n(N=C4CN6CCCCC6C4O)c5O)C3C1C=C2

>  <smiles>  (223) 
[H]Oc1c2c(c(O[H])n1N=C1C([H])([H])N3C([H])([H])C([H])([H])C([H])([H])C([H])([H])C3([H])C1([H])O[H])C1([H])C([H])([H])C([H])([H])C2([H])C2([H])C([H])=C3C([H])=C([H])C([H])(C3([H])C([H])([H])[H])C21[H]

$$$$
63:1:0
     RDKit          3D

 62 68  0  0  1  0  0  0  0  0999 V2000
   -0.2660   -7.8269    2.2627 C   0  0  0  0  0  0  0  0  0  0  0  0
    1.1428   -8.3016    2.7046 C   0  0  2  0  0  0  0  0  0  0  0  0
    1.2491   -9.8240    2.8707 C   0  0  0  0  0  0  0  0  0  0  0  0
    2.5007  -10.3369    2.8720 C   0  0  0  0  0  0  0  0  0  0  0  0
    3.5822   -9.2976    3.1836 C   0  0  2  0  0  0  0  0  0  0  0  0
    5.0933   -9.5696    3.4198 C   0  0  2  0  0  0  0  0  0  0  0  0
    5.3996   -9.8816    4.9124 C   0  0  0  0  0  0  0  0  0  0  0  0
    5.0510   -8.6426    5.7995 C   0  0  0  0  0  0  0  0  0  0  0  0
    4.2251   -7.6167    4.9598 C   0  0  1  0  0  0  0  0  0  0  0  0
    5.1974   -7.1593    3.8576 C   0  0  0  0  0  0  0  0  0  0  0  0
    5.7374   -8.2022    3.1078 C   0  0  0  0  0  0  0  0  0  0  0  0
    6.6607   -7.6621    2.2221 C   0  0  0  0  0  0  0  0  0  0  0  0
    7.4144   -8.3294    1.2992 O   0  0  0  0  0  0  0  0  0  0  0  0
    6.7246   -6.2564    2.3981 N   0  0  0  0  0  0  0  0  0  0  0  0
    7.4841   -5.3686    1.6784 N   0  0  0  0  0  0  0  0  0  0  0  0
    6.9404   -4.6241    0.8074 C   0  0  0  0  0  0  0  0  0  0  0  0
    7.6844   -3.5438    0.0425 C   0  0  0  0  0  0  0  0  0  0  0  0
    6.6614   -2.6463   -0.5136 N   0  0  0  0  0  0  0  0  0  0  0  0
    6.3133   -1.6072    0.4692 C   0  0  0  0  0  0  0  0  0  0  0  0
    5.1020   -0.7713    0.0283 C   0  0  0  0  0  0  0  0  0  0  0  0
    3.8785   -1.6873   -0.1141 C   0  0  0  0  0  0  0  0  0  0  0  0
    4.1866   -2.8486   -1.0758 C   0  0  0  0  0  0  0  0  0  0  0  0
    5.5256   -3.5507   -0.7478 C   0  0  2  0  0  0  0  0  0  0  0  0
    5.4814   -4.5868    0.3818 C   0  0  1  0  0  0  0  0  0  0  0  0
    5.0079   -5.8265   -0.1126 O   0  0  0  0  0  0  0  0  0  0  0  0
    5.8140   -5.9829    3.4535 C   0  0  0  0  0  0  0  0  0  0  0  0
    5.6220   -4.7215    3.9647 O   0  0  0  0  0  0  0  0  0  0  0  0
    3.0519   -8.4532    4.3764 C   0  0  1  0  0  0  0  0  0  0  0  0
    1.5653   -7.9486    4.1609 C   0  0  2  0  0  0  0  0  0  0  0  0
    0.6626   -8.9725    4.8571 C   0  0  0  0  0  0  0  0  0  0  0  0
    0.5319  -10.0825    4.0956 C   0  0  0  0  0  0  0  0  0  0  0  0
   -0.5322   -8.2420    1.2878 H   0  0  0  0  0  0  0  0  0  0  0  0
   -0.2927   -6.7426    2.1576 H   0  0  0  0  0  0  0  0  0  0  0  0
   -1.0623   -8.1103    2.9537 H   0  0  0  0  0  0  0  0  0  0  0  0
    1.8068   -7.9055    1.9439 H   0  0  0  0  0  0  0  0  0  0  0  0
    2.6709  -11.3164    3.3083 H   0  0  0  0  0  0  0  0  0  0  0  0
    3.6065   -8.7274    2.2577 H   0  0  0  0  0  0  0  0  0  0  0  0
    5.4831  -10.3301    2.7426 H   0  0  0  0  0  0  0  0  0  0  0  0
    4.8663  -10.7756    5.2440 H   0  0  0  0  0  0  0  0  0  0  0  0
    6.4617  -10.1023    5.0208 H   0  0  0  0  0  0  0  0  0  0  0  0
    4.5205   -8.9635    6.6961 H   0  0  0  0  0  0  0  0  0  0  0  0
    5.9685   -8.1674    6.1493 H   0  0  0  0  0  0  0  0  0  0  0  0
    3.8875   -6.7793    5.5738 H   0  0  0  0  0  0  0  0  0  0  0  0
    8.2265   -7.8439    1.2149 H   0  0  0  0  0  0  0  0  0  0  0  0
    8.4059   -3.0331    0.6839 H   0  0  0  0  0  0  0  0  0  0  0  0
    8.2329   -4.0366   -0.7589 H   0  0  0  0  0  0  0  0  0  0  0  0
    6.1163   -2.0276    1.4603 H   0  0  0  0  0  0  0  0  0  0  0  0
    7.1638   -0.9256    0.5931 H   0  0  0  0  0  0  0  0  0  0  0  0
    4.8950    0.0218    0.7477 H   0  0  0  0  0  0  0  0  0  0  0  0
    5.3098   -0.2862   -0.9276 H   0  0  0  0  0  0  0  0  0  0  0  0
    3.6028   -2.0777    0.8659 H   0  0  0  0  0  0  0  0  0  0  0  0
    3.0221   -1.1186   -0.4820 H   0  0  0  0  0  0  0  0  0  0  0  0
    3.3743   -3.5781   -1.0528 H   0  0  0  0  0  0  0  0  0  0  0  0
    4.2128   -2.4687   -2.1001 H   0  0  0  0  0  0  0  0  0  0  0  0
    5.7860   -4.1051   -1.6537 H   0  0  0  0  0  0  0  0  0  0  0  0
    4.8520   -4.2506    1.2051 H   0  0  0  0  0  0  0  0  0  0  0  0
    4.3884   -5.7012   -0.8250 H   0  0  0  0  0  0  0  0  0  0  0  0
    5.0403   -4.8219    4.7027 H   0  0  0  0  0  0  0  0  0  0  0  0
    2.9123   -9.1893    5.1680 H   0  0  0  0  0  0  0  0  0  0  0  0
    1.3643   -6.9160    4.4397 H   0  0  0  0  0  0  0  0  0  0  0  0
    0.2091   -8.8113    5.8247 H   0  0  0  0  0  0  0  0  0  0  0  0
   -0.0906  -10.9354    4.3339 H   0  0  0  0  0  0  0  0  0  0  0  0
  1  2  1  0
  1 32  1  0
  1 33  1  0
  1 34  1  0
  2 29  1  0
  2  3  1  0
  2 35  1  6
  3 31  1  0
  3  4  2  0
  4  5  1  0
  4 36  1  0
  5 28  1  0
  5  6  1  0
  5 37  1  6
  6 11  1  0
  6  7  1  0
  6 38  1  6
  7  8  1  0
  7 39  1  0
  7 40  1  0
  8  9  1  0
  8 41  1  0
  8 42  1  0
  9 10  1  0
  9 28  1  0
  9 43  1  1
 10 26  2  0
 10 11  1  0
 11 12  2  0
 12 13  1  0
 12 14  1  0
 13 44  1  0
 14 15  1  0
 14 26  1  0
 15 16  2  3
 16 24  1  0
 16 17  1  0
 17 18  1  0
 17 45  1  0
 17 46  1  0
 18 23  1  0
 18 19  1  0
 19 20  1  0
 19 47  1  0
 19 48  1  0
 20 21  1  0
 20 49  1  0
 20 50  1  0
 21 22  1  0
 21 51  1  0
 21 52  1  0
 22 23  1  0
 22 53  1  0
 22 54  1  0
 23 24  1  0
 23 55  1  6
 24 25  1  0
 24 56  1  1
 25 57  1  0
 26 27  1  0
 27 58  1  0
 28 29  1  0
 28 59  1  1
 29 30  1  0
 29 60  1  1
 30 31  2  0
 30 61  1  0
 31 62  1  0
M  END
>  <i_m_ct_stereo_status>  (224) 
1

>  <s_m_source_file>  (224) 
/var/tmp/pbs.5076255.sched01/tmppxgjifq_/8475v0iq0b.sdf

>  <i_m_source_file_index>  (224) 
11

>  <i_lp_mmshare_version>  (224) 
48012

>  <i_f3d_flags>  (224) 
0

>  <s_epik_input>  (224) 
W0NIM11bQ0BIXTFbQ0BASF0oW0NIXT1bQ0hdMilbQ0BASF0zW0NAQEhdKFtDSDJdW0NIMl00KWMoYzVbQ0BASF00W0NASF0zW0NIXT1DMTIpYyhbT0hdKW4oYzVbT0hdKS9OPUMoXFtDSDJdNilbQ0BIXShbT0hdKVtDQEhdKE42NylbQ0gyXVtDSDJdW0NIMl1bQ0gyXTc=

>  <s_epik_cmdline>  (224) 
J2VwaWtfcHl0aG9uJywgJy1waHQnLCAnMi4wJywgJy1waCcsICc3LjAnLCAnLXRuJywgJzgnLCAnLW1hJywgJzIwMCcsICctaW1hZScsICc8aW5maWxlLm1hZT4nLCAnLW9tYWUnLCAnPG91dGZpbGUubWFlPic=

>  <r_epik_Ionization_Penalty>  (224) 
0.106688

>  <r_epik_Ionization_Penalty_Charging>  (224) 
0

>  <r_epik_Ionization_Penalty_Neutral>  (224) 
0.106688

>  <r_epik_State_Penalty>  (224) 
0.0910157

>  <r_epik_Charging_Adjusted_Penalty>  (224) 
0.0910157

>  <i_epik_Tot_Q>  (224) 
0

>  <i_epik_Tot_abs_Q>  (224) 
0

>  <s_epik_Chemistry_Notes>  (224) 
This compound has an imine and may undergo hydrolysis.

>  <s_lp_Force_Field>  (224) 
OPLS3e

>  <r_lp_Energy>  (224) 
151.016

>  <b_lp_Chiralities_Consistent>  (224) 
1

>  <s_lp_Variant>  (224) 
63:0-2

>  <s_i_glide_gridfile>  (224) 
pfpi4k_grid

>  <i_i_glide_lignum>  (224) 
11

>  <i_i_glide_rotatable_bonds>  (224) 
4

>  <r_i_docking_score>  (224) 
-3.63673

>  <r_i_glide_ligand_efficiency>  (224) 
-0.117314

>  <r_i_glide_ligand_efficiency_sa>  (224) 
-0.368528

>  <r_i_glide_ligand_efficiency_ln>  (224) 
-0.820194

>  <r_i_glide_gscore>  (224) 
-3.63673

>  <r_i_glide_lipo>  (224) 
-0.581161

>  <r_i_glide_hbond>  (224) 
-0.105139

>  <r_i_glide_metal>  (224) 
-0

>  <r_i_glide_rewards>  (224) 
-0.725955

>  <r_i_glide_evdw>  (224) 
-32.1817

>  <r_i_glide_ecoul>  (224) 
-4.84555

>  <r_i_glide_erotb>  (224) 
0.111443

>  <r_i_glide_esite>  (224) 
0

>  <r_i_glide_emodel>  (224) 
-43.9887

>  <r_i_glide_energy>  (224) 
-37.0273

>  <r_i_glide_einternal>  (224) 
1.99468

>  <r_i_glide_intrahb_reward>  (224) 
-0

>  <i_i_glide_confnum>  (224) 
1

>  <i_i_glide_posenum>  (224) 
36

>  <r_i_glide_eff_state_penalty>  (224) 
0

>  <ligand_id>  (224) 
63

>  <original_smiles>  (224) 
CC1C2=CC3C4CCC(c5c4c(O)n(N=C4CN6CCCCC6C4O)c5O)C3C1C=C2

>  <smiles>  (224) 
[H]Oc1c2c(c(O[H])n1N=C1C([H])([H])N3C([H])([H])C([H])([H])C([H])([H])C([H])([H])C3([H])C1([H])O[H])C1([H])C([H])([H])C([H])([H])C2([H])C2([H])C([H])=C3C([H])=C([H])C([H])(C3([H])C([H])([H])[H])C21[H]

$$$$
63:1:1
     RDKit          3D

 62 68  0  0  1  0  0  0  0  0999 V2000
   -0.2666   -7.8449    2.2764 C   0  0  0  0  0  0  0  0  0  0  0  0
    1.1435   -8.3283    2.7055 C   0  0  2  0  0  0  0  0  0  0  0  0
    1.2459   -9.8548    2.8340 C   0  0  0  0  0  0  0  0  0  0  0  0
    2.4978  -10.3698    2.8240 C   0  0  0  0  0  0  0  0  0  0  0  0
    3.5769   -9.3419    3.1595 C   0  0  2  0  0  0  0  0  0  0  0  0
    5.0862   -9.6275    3.3907 C   0  0  2  0  0  0  0  0  0  0  0  0
    5.3926   -9.9736    4.8753 C   0  0  0  0  0  0  0  0  0  0  0  0
    5.0456   -8.7570    5.7922 C   0  0  0  0  0  0  0  0  0  0  0  0
    4.2232   -7.7096    4.9761 C   0  0  1  0  0  0  0  0  0  0  0  0
    5.1973   -7.2326    3.8849 C   0  0  0  0  0  0  0  0  0  0  0  0
    5.7364   -8.2575    3.1137 C   0  0  0  0  0  0  0  0  0  0  0  0
    6.6551   -7.6896    2.2348 C   0  0  0  0  0  0  0  0  0  0  0  0
    7.4062   -8.3234    1.2813 O   0  0  0  0  0  0  0  0  0  0  0  0
    6.7188   -6.2916    2.4521 N   0  0  0  0  0  0  0  0  0  0  0  0
    7.4753   -5.3727    1.7629 N   0  0  0  0  0  0  0  0  0  0  0  0
    6.9474   -4.6367    0.8785 C   0  0  0  0  0  0  0  0  0  0  0  0
    7.6942   -3.5390    0.1371 C   0  0  0  0  0  0  0  0  0  0  0  0
    6.6727   -2.6414   -0.4205 N   0  0  0  0  0  0  0  0  0  0  0  0
    6.3021   -1.6174    0.5725 C   0  0  0  0  0  0  0  0  0  0  0  0
    5.0907   -0.7843    0.1249 C   0  0  0  0  0  0  0  0  0  0  0  0
    3.8773   -1.7104   -0.0444 C   0  0  0  0  0  0  0  0  0  0  0  0
    4.2084   -2.8563   -1.0167 C   0  0  0  0  0  0  0  0  0  0  0  0
    5.5471   -3.5507   -0.6782 C   0  0  2  0  0  0  0  0  0  0  0  0
    5.4913   -4.5994    0.4372 C   0  0  1  0  0  0  0  0  0  0  0  0
    5.0181   -5.8355   -0.0638 O   0  0  0  0  0  0  0  0  0  0  0  0
    5.8116   -6.0529    3.5066 C   0  0  0  0  0  0  0  0  0  0  0  0
    5.6043   -4.8106    4.0514 O   0  0  0  0  0  0  0  0  0  0  0  0
    3.0481   -8.5263    4.3726 C   0  0  1  0  0  0  0  0  0  0  0  0
    1.5621   -8.0116    4.1706 C   0  0  2  0  0  0  0  0  0  0  0  0
    0.6598   -9.0533    4.8400 C   0  0  0  0  0  0  0  0  0  0  0  0
    0.5302  -10.1441    4.0505 C   0  0  0  0  0  0  0  0  0  0  0  0
   -0.5338   -8.2505    1.2990 H   0  0  0  0  0  0  0  0  0  0  0  0
   -0.2922   -6.7590    2.1885 H   0  0  0  0  0  0  0  0  0  0  0  0
   -1.0618   -8.1397    2.9619 H   0  0  0  0  0  0  0  0  0  0  0  0
    1.8062   -7.9166    1.9531 H   0  0  0  0  0  0  0  0  0  0  0  0
    2.6658  -11.3593    3.2354 H   0  0  0  0  0  0  0  0  0  0  0  0
    3.6044   -8.7465    2.2493 H   0  0  0  0  0  0  0  0  0  0  0  0
    5.4783  -10.3675    2.6919 H   0  0  0  0  0  0  0  0  0  0  0  0
    4.8566  -10.8714    5.1822 H   0  0  0  0  0  0  0  0  0  0  0  0
    6.4534  -10.1956    4.9789 H   0  0  0  0  0  0  0  0  0  0  0  0
    4.5104   -9.0961    6.6804 H   0  0  0  0  0  0  0  0  0  0  0  0
    5.9619   -8.2884    6.1536 H   0  0  0  0  0  0  0  0  0  0  0  0
    3.8917   -6.8796    5.6045 H   0  0  0  0  0  0  0  0  0  0  0  0
    8.1522   -7.7647    1.1345 H   0  0  0  0  0  0  0  0  0  0  0  0
    8.4024   -3.0298    0.7983 H   0  0  0  0  0  0  0  0  0  0  0  0
    8.2622   -4.0133   -0.6650 H   0  0  0  0  0  0  0  0  0  0  0  0
    6.0932   -2.0502    1.5552 H   0  0  0  0  0  0  0  0  0  0  0  0
    7.1446   -0.9295    0.7198 H   0  0  0  0  0  0  0  0  0  0  0  0
    4.8660   -0.0039    0.8527 H   0  0  0  0  0  0  0  0  0  0  0  0
    5.3080   -0.2858   -0.8208 H   0  0  0  0  0  0  0  0  0  0  0  0
    3.5906   -2.1148    0.9261 H   0  0  0  0  0  0  0  0  0  0  0  0
    3.0213   -1.1439   -0.4185 H   0  0  0  0  0  0  0  0  0  0  0  0
    3.4024   -3.5940   -1.0156 H   0  0  0  0  0  0  0  0  0  0  0  0
    4.2485   -2.4637   -2.0352 H   0  0  0  0  0  0  0  0  0  0  0  0
    5.8214   -4.0951   -1.5859 H   0  0  0  0  0  0  0  0  0  0  0  0
    4.8556   -4.2768    1.2600 H   0  0  0  0  0  0  0  0  0  0  0  0
    4.3242   -5.7066   -0.6988 H   0  0  0  0  0  0  0  0  0  0  0  0
    6.1912   -4.2407    3.5989 H   0  0  0  0  0  0  0  0  0  0  0  0
    2.9073   -9.2804    5.1475 H   0  0  0  0  0  0  0  0  0  0  0  0
    1.3629   -6.9870    4.4744 H   0  0  0  0  0  0  0  0  0  0  0  0
    0.2034   -8.9159    5.8089 H   0  0  0  0  0  0  0  0  0  0  0  0
   -0.1002  -11.0001    4.2628 H   0  0  0  0  0  0  0  0  0  0  0  0
  1  2  1  0
  1 32  1  0
  1 33  1  0
  1 34  1  0
  2 29  1  0
  2  3  1  0
  2 35  1  6
  3 31  1  0
  3  4  2  0
  4  5  1  0
  4 36  1  0
  5 28  1  0
  5  6  1  0
  5 37  1  6
  6 11  1  0
  6  7  1  0
  6 38  1  6
  7  8  1  0
  7 39  1  0
  7 40  1  0
  8  9  1  0
  8 41  1  0
  8 42  1  0
  9 10  1  0
  9 28  1  0
  9 43  1  1
 10 26  2  0
 10 11  1  0
 11 12  2  0
 12 13  1  0
 12 14  1  0
 13 44  1  0
 14 15  1  0
 14 26  1  0
 15 16  2  3
 16 24  1  0
 16 17  1  0
 17 18  1  0
 17 45  1  0
 17 46  1  0
 18 23  1  0
 18 19  1  0
 19 20  1  0
 19 47  1  0
 19 48  1  0
 20 21  1  0
 20 49  1  0
 20 50  1  0
 21 22  1  0
 21 51  1  0
 21 52  1  0
 22 23  1  0
 22 53  1  0
 22 54  1  0
 23 24  1  0
 23 55  1  6
 24 25  1  0
 24 56  1  1
 25 57  1  0
 26 27  1  0
 27 58  1  0
 28 29  1  0
 28 59  1  1
 29 30  1  0
 29 60  1  1
 30 31  2  0
 30 61  1  0
 31 62  1  0
M  END
>  <i_m_ct_stereo_status>  (225) 
1

>  <s_m_source_file>  (225) 
/var/tmp/pbs.5076255.sched01/tmppxgjifq_/8475v0iq0b.sdf

>  <i_m_source_file_index>  (225) 
11

>  <i_lp_mmshare_version>  (225) 
48012

>  <i_f3d_flags>  (225) 
0

>  <s_epik_input>  (225) 
W0NIM11bQ0BIXTFbQ0BASF0oW0NIXT1bQ0hdMilbQ0BASF0zW0NAQEhdKFtDSDJdW0NIMl00KWMoYzVbQ0BASF00W0NASF0zW0NIXT1DMTIpYyhbT0hdKW4oYzVbT0hdKS9OPUMoXFtDSDJdNilbQ0BIXShbT0hdKVtDQEhdKE42NylbQ0gyXVtDSDJdW0NIMl1bQ0gyXTc=

>  <s_epik_cmdline>  (225) 
J2VwaWtfcHl0aG9uJywgJy1waHQnLCAnMi4wJywgJy1waCcsICc3LjAnLCAnLXRuJywgJzgnLCAnLW1hJywgJzIwMCcsICctaW1hZScsICc8aW5maWxlLm1hZT4nLCAnLW9tYWUnLCAnPG91dGZpbGUubWFlPic=

>  <r_epik_Ionization_Penalty>  (225) 
0.106688

>  <r_epik_Ionization_Penalty_Charging>  (225) 
0

>  <r_epik_Ionization_Penalty_Neutral>  (225) 
0.106688

>  <r_epik_State_Penalty>  (225) 
0.0910157

>  <r_epik_Charging_Adjusted_Penalty>  (225) 
0.0910157

>  <i_epik_Tot_Q>  (225) 
0

>  <i_epik_Tot_abs_Q>  (225) 
0

>  <s_epik_Chemistry_Notes>  (225) 
This compound has an imine and may undergo hydrolysis.

>  <s_lp_Force_Field>  (225) 
OPLS3e

>  <r_lp_Energy>  (225) 
151.016

>  <b_lp_Chiralities_Consistent>  (225) 
1

>  <s_lp_Variant>  (225) 
63:0-2

>  <s_i_glide_gridfile>  (225) 
pfpi4k_grid

>  <i_i_glide_lignum>  (225) 
11

>  <i_i_glide_rotatable_bonds>  (225) 
4

>  <r_i_docking_score>  (225) 
-3.52844

>  <r_i_glide_ligand_efficiency>  (225) 
-0.113821

>  <r_i_glide_ligand_efficiency_sa>  (225) 
-0.357554

>  <r_i_glide_ligand_efficiency_ln>  (225) 
-0.795771

>  <r_i_glide_gscore>  (225) 
-3.52844

>  <r_i_glide_lipo>  (225) 
-0.626804

>  <r_i_glide_hbond>  (225) 
-0.0570096

>  <r_i_glide_metal>  (225) 
-0

>  <r_i_glide_rewards>  (225) 
-0.721815

>  <r_i_glide_evdw>  (225) 
-32.29

>  <r_i_glide_ecoul>  (225) 
-4.13169

>  <r_i_glide_erotb>  (225) 
0.111443

>  <r_i_glide_esite>  (225) 
0

>  <r_i_glide_emodel>  (225) 
-43.4792

>  <r_i_glide_energy>  (225) 
-36.4217

>  <r_i_glide_einternal>  (225) 
1.48419

>  <r_i_glide_intrahb_reward>  (225) 
-0

>  <i_i_glide_confnum>  (225) 
1

>  <i_i_glide_posenum>  (225) 
1

>  <r_i_glide_eff_state_penalty>  (225) 
0

>  <ligand_id>  (225) 
63

>  <original_smiles>  (225) 
CC1C2=CC3C4CCC(c5c4c(O)n(N=C4CN6CCCCC6C4O)c5O)C3C1C=C2

>  <smiles>  (225) 
[H]Oc1c2c(c(O[H])n1N=C1C([H])([H])N3C([H])([H])C([H])([H])C([H])([H])C([H])([H])C3([H])C1([H])O[H])C1([H])C([H])([H])C([H])([H])C2([H])C2([H])C([H])=C3C([H])=C([H])C([H])(C3([H])C([H])([H])[H])C21[H]

$$$$
63:1:2
     RDKit          3D

 62 68  0  0  1  0  0  0  0  0999 V2000
   -0.3485   -7.7167    2.1762 C   0  0  0  0  0  0  0  0  0  0  0  0
    1.0529   -8.1995    2.6334 C   0  0  2  0  0  0  0  0  0  0  0  0
    1.1476   -9.7178    2.8191 C   0  0  0  0  0  0  0  0  0  0  0  0
    2.4005  -10.2487    2.8186 C   0  0  0  0  0  0  0  0  0  0  0  0
    3.4816   -9.2176    3.1408 C   0  0  2  0  0  0  0  0  0  0  0  0
    4.9901   -9.5089    3.3947 C   0  0  2  0  0  0  0  0  0  0  0  0
    5.2760   -9.8077    4.8958 C   0  0  0  0  0  0  0  0  0  0  0  0
    4.9308   -8.5615    5.7719 C   0  0  0  0  0  0  0  0  0  0  0  0
    4.1225   -7.5324    4.9164 C   0  0  1  0  0  0  0  0  0  0  0  0
    5.1107   -7.1080    3.8178 C   0  0  0  0  0  0  0  0  0  0  0  0
    5.6476   -8.1569    3.0927 C   0  0  0  0  0  0  0  0  0  0  0  0
    6.5934   -7.6107    2.1970 C   0  0  0  0  0  0  0  0  0  0  0  0
    7.3448   -8.2788    1.2880 O   0  0  0  0  0  0  0  0  0  0  0  0
    6.6423   -6.2210    2.3760 N   0  0  0  0  0  0  0  0  0  0  0  0
    7.4202   -5.3037    1.6788 N   0  0  0  0  0  0  0  0  0  0  0  0
    6.8988   -4.5970    0.7656 C   0  0  0  0  0  0  0  0  0  0  0  0
    7.6676   -3.5363   -0.0066 C   0  0  0  0  0  0  0  0  0  0  0  0
    6.6556   -2.6441   -0.5841 N   0  0  0  0  0  0  0  0  0  0  0  0
    6.2917   -1.5839    0.3677 C   0  0  0  0  0  0  0  0  0  0  0  0
    5.0891   -0.7604   -0.1081 C   0  0  0  0  0  0  0  0  0  0  0  0
    3.8702   -1.6759   -0.2628 C   0  0  0  0  0  0  0  0  0  0  0  0
    4.1945   -2.8501   -1.2010 C   0  0  0  0  0  0  0  0  0  0  0  0
    5.5258   -3.5472   -0.8472 C   0  0  2  0  0  0  0  0  0  0  0  0
    5.4552   -4.5702    0.2936 C   0  0  1  0  0  0  0  0  0  0  0  0
    4.9918   -5.8216   -0.1846 O   0  0  0  0  0  0  0  0  0  0  0  0
    5.7358   -5.9266    3.4076 C   0  0  0  0  0  0  0  0  0  0  0  0
    5.5277   -4.6854    3.9135 O   0  0  0  0  0  0  0  0  0  0  0  0
    2.9453   -8.3597    4.3242 C   0  0  1  0  0  0  0  0  0  0  0  0
    1.4635   -7.8366    4.0898 C   0  0  2  0  0  0  0  0  0  0  0  0
    0.5408   -8.8463    4.7844 C   0  0  0  0  0  0  0  0  0  0  0  0
    0.4153   -9.9584    4.0337 C   0  0  0  0  0  0  0  0  0  0  0  0
   -0.6093   -8.1495    1.2100 H   0  0  0  0  0  0  0  0  0  0  0  0
   -0.3610   -6.6353    2.0516 H   0  0  0  0  0  0  0  0  0  0  0  0
   -1.1537   -7.9839    2.8624 H   0  0  0  0  0  0  0  0  0  0  0  0
    1.7306   -7.8101    1.8768 H   0  0  0  0  0  0  0  0  0  0  0  0
    2.5471  -11.2218    3.2659 H   0  0  0  0  0  0  0  0  0  0  0  0
    3.5204   -8.6522    2.2131 H   0  0  0  0  0  0  0  0  0  0  0  0
    5.3715  -10.2788    2.7322 H   0  0  0  0  0  0  0  0  0  0  0  0
    4.7315  -10.6922    5.2287 H   0  0  0  0  0  0  0  0  0  0  0  0
    6.3337  -10.0340    5.0176 H   0  0  0  0  0  0  0  0  0  0  0  0
    4.3848   -8.8670    6.6667 H   0  0  0  0  0  0  0  0  0  0  0  0
    5.8449   -8.0863    6.1283 H   0  0  0  0  0  0  0  0  0  0  0  0
    3.7881   -6.6875    5.5145 H   0  0  0  0  0  0  0  0  0  0  0  0
    7.1168   -9.1936    1.3589 H   0  0  0  0  0  0  0  0  0  0  0  0
    8.3779   -3.0184    0.6421 H   0  0  0  0  0  0  0  0  0  0  0  0
    8.2333   -4.0391   -0.7923 H   0  0  0  0  0  0  0  0  0  0  0  0
    6.0751   -1.9909    1.3613 H   0  0  0  0  0  0  0  0  0  0  0  0
    7.1401   -0.9061    0.4981 H   0  0  0  0  0  0  0  0  0  0  0  0
    4.8698    0.0435    0.5949 H   0  0  0  0  0  0  0  0  0  0  0  0
    5.3181   -0.2890   -1.0652 H   0  0  0  0  0  0  0  0  0  0  0  0
    3.5724   -2.0515    0.7169 H   0  0  0  0  0  0  0  0  0  0  0  0
    3.0260   -1.1093   -0.6585 H   0  0  0  0  0  0  0  0  0  0  0  0
    3.3813   -3.5774   -1.1838 H   0  0  0  0  0  0  0  0  0  0  0  0
    4.2389   -2.4850   -2.2297 H   0  0  0  0  0  0  0  0  0  0  0  0
    5.8042   -4.1148   -1.7362 H   0  0  0  0  0  0  0  0  0  0  0  0
    4.8110   -4.2232    1.1001 H   0  0  0  0  0  0  0  0  0  0  0  0
    4.3493   -5.7081   -0.8750 H   0  0  0  0  0  0  0  0  0  0  0  0
    6.1253   -4.1234    3.4375 H   0  0  0  0  0  0  0  0  0  0  0  0
    2.7857   -9.0891    5.1219 H   0  0  0  0  0  0  0  0  0  0  0  0
    1.2723   -6.7972    4.3574 H   0  0  0  0  0  0  0  0  0  0  0  0
    0.0891   -8.6759    5.7493 H   0  0  0  0  0  0  0  0  0  0  0  0
   -0.1783  -10.8298    4.2777 H   0  0  0  0  0  0  0  0  0  0  0  0
  1  2  1  0
  1 32  1  0
  1 33  1  0
  1 34  1  0
  2 29  1  0
  2  3  1  0
  2 35  1  6
  3 31  1  0
  3  4  2  0
  4  5  1  0
  4 36  1  0
  5 28  1  0
  5  6  1  0
  5 37  1  6
  6 11  1  0
  6  7  1  0
  6 38  1  6
  7  8  1  0
  7 39  1  0
  7 40  1  0
  8  9  1  0
  8 41  1  0
  8 42  1  0
  9 10  1  0
  9 28  1  0
  9 43  1  1
 10 26  2  0
 10 11  1  0
 11 12  2  0
 12 13  1  0
 12 14  1  0
 13 44  1  0
 14 15  1  0
 14 26  1  0
 15 16  2  3
 16 24  1  0
 16 17  1  0
 17 18  1  0
 17 45  1  0
 17 46  1  0
 18 23  1  0
 18 19  1  0
 19 20  1  0
 19 47  1  0
 19 48  1  0
 20 21  1  0
 20 49  1  0
 20 50  1  0
 21 22  1  0
 21 51  1  0
 21 52  1  0
 22 23  1  0
 22 53  1  0
 22 54  1  0
 23 24  1  0
 23 55  1  6
 24 25  1  0
 24 56  1  1
 25 57  1  0
 26 27  1  0
 27 58  1  0
 28 29  1  0
 28 59  1  1
 29 30  1  0
 29 60  1  1
 30 31  2  0
 30 61  1  0
 31 62  1  0
M  END
>  <i_m_ct_stereo_status>  (226) 
1

>  <s_m_source_file>  (226) 
/var/tmp/pbs.5076255.sched01/tmppxgjifq_/8475v0iq0b.sdf

>  <i_m_source_file_index>  (226) 
11

>  <i_lp_mmshare_version>  (226) 
48012

>  <i_f3d_flags>  (226) 
0

>  <s_epik_input>  (226) 
W0NIM11bQ0BIXTFbQ0BASF0oW0NIXT1bQ0hdMilbQ0BASF0zW0NAQEhdKFtDSDJdW0NIMl00KWMoYzVbQ0BASF00W0NASF0zW0NIXT1DMTIpYyhbT0hdKW4oYzVbT0hdKS9OPUMoXFtDSDJdNilbQ0BIXShbT0hdKVtDQEhdKE42NylbQ0gyXVtDSDJdW0NIMl1bQ0gyXTc=

>  <s_epik_cmdline>  (226) 
J2VwaWtfcHl0aG9uJywgJy1waHQnLCAnMi4wJywgJy1waCcsICc3LjAnLCAnLXRuJywgJzgnLCAnLW1hJywgJzIwMCcsICctaW1hZScsICc8aW5maWxlLm1hZT4nLCAnLW9tYWUnLCAnPG91dGZpbGUubWFlPic=

>  <r_epik_Ionization_Penalty>  (226) 
0.106688

>  <r_epik_Ionization_Penalty_Charging>  (226) 
0

>  <r_epik_Ionization_Penalty_Neutral>  (226) 
0.106688

>  <r_epik_State_Penalty>  (226) 
0.0910157

>  <r_epik_Charging_Adjusted_Penalty>  (226) 
0.0910157

>  <i_epik_Tot_Q>  (226) 
0

>  <i_epik_Tot_abs_Q>  (226) 
0

>  <s_epik_Chemistry_Notes>  (226) 
This compound has an imine and may undergo hydrolysis.

>  <s_lp_Force_Field>  (226) 
OPLS3e

>  <r_lp_Energy>  (226) 
151.016

>  <b_lp_Chiralities_Consistent>  (226) 
1

>  <s_lp_Variant>  (226) 
63:0-2

>  <s_i_glide_gridfile>  (226) 
pfpi4k_grid

>  <i_i_glide_lignum>  (226) 
11

>  <i_i_glide_rotatable_bonds>  (226) 
4

>  <r_i_docking_score>  (226) 
-3.34261

>  <r_i_glide_ligand_efficiency>  (226) 
-0.107826

>  <r_i_glide_ligand_efficiency_sa>  (226) 
-0.338723

>  <r_i_glide_ligand_efficiency_ln>  (226) 
-0.753861

>  <r_i_glide_gscore>  (226) 
-3.34261

>  <r_i_glide_lipo>  (226) 
-0.530953

>  <r_i_glide_hbond>  (226) 
-0.155951

>  <r_i_glide_metal>  (226) 
-0

>  <r_i_glide_rewards>  (226) 
-0.727489

>  <r_i_glide_evdw>  (226) 
-32.1316

>  <r_i_glide_ecoul>  (226) 
-2.88721

>  <r_i_glide_erotb>  (226) 
0.111443

>  <r_i_glide_esite>  (226) 
0

>  <r_i_glide_emodel>  (226) 
-42.003

>  <r_i_glide_energy>  (226) 
-35.0188

>  <r_i_glide_einternal>  (226) 
1.01849

>  <r_i_glide_intrahb_reward>  (226) 
-0

>  <i_i_glide_confnum>  (226) 
5

>  <i_i_glide_posenum>  (226) 
18

>  <r_i_glide_eff_state_penalty>  (226) 
0

>  <ligand_id>  (226) 
63

>  <original_smiles>  (226) 
CC1C2=CC3C4CCC(c5c4c(O)n(N=C4CN6CCCCC6C4O)c5O)C3C1C=C2

>  <smiles>  (226) 
[H]Oc1c2c(c(O[H])n1N=C1C([H])([H])N3C([H])([H])C([H])([H])C([H])([H])C([H])([H])C3([H])C1([H])O[H])C1([H])C([H])([H])C([H])([H])C2([H])C2([H])C([H])=C3C([H])=C([H])C([H])(C3([H])C([H])([H])[H])C21[H]

$$$$
63:2:0
     RDKit          3D

 63 69  0  0  1  0  0  0  0  0999 V2000
   -0.2164   -8.4159    4.2062 C   0  0  0  0  0  0  0  0  0  0  0  0
    1.1442   -8.3311    3.4645 C   0  0  2  0  0  0  0  0  0  0  0  0
    1.5019   -9.5969    2.6841 C   0  0  0  0  0  0  0  0  0  0  0  0
    2.4329   -9.4450    1.6938 C   0  0  0  0  0  0  0  0  0  0  0  0
    3.3088   -8.2112    1.8823 C   0  0  2  0  0  0  0  0  0  0  0  0
    4.5802   -7.8506    1.0578 C   0  0  2  0  0  0  0  0  0  0  0  0
    5.8685   -8.4716    1.6738 C   0  0  0  0  0  0  0  0  0  0  0  0
    6.1185   -7.8999    3.1083 C   0  0  0  0  0  0  0  0  0  0  0  0
    4.8437   -7.1389    3.5953 C   0  0  1  0  0  0  0  0  0  0  0  0
    4.7231   -5.9737    2.6112 C   0  0  0  0  0  0  0  0  0  0  0  0
    4.6796   -6.3374    1.2752 C   0  0  0  0  0  0  0  0  0  0  0  0
    4.6656   -5.1595    0.5132 C   0  0  0  0  0  0  0  0  0  0  0  0
    4.6178   -5.0157   -0.8356 O   0  0  0  0  0  0  0  0  0  0  0  0
    4.6944   -4.0546    1.3780 N   0  0  0  0  0  0  0  0  0  0  0  0
    4.6791   -2.7192    1.0102 N   0  0  0  0  0  0  0  0  0  0  0  0
    3.7363   -1.9550    1.3945 C   0  0  0  0  0  0  0  0  0  0  0  0
    2.5145   -2.3050    2.2496 C   0  0  0  0  0  0  0  0  0  0  0  0
    1.7269   -1.0567    2.2252 N   0  0  1  0  0  0  0  0  0  0  0  0
    0.7305   -0.8592    3.3006 C   0  0  0  0  0  0  0  0  0  0  0  0
   -0.0322    0.4598    3.0496 C   0  0  0  0  0  0  0  0  0  0  0  0
    0.9352    1.6515    2.9255 C   0  0  0  0  0  0  0  0  0  0  0  0
    2.0212    1.3619    1.8774 C   0  0  0  0  0  0  0  0  0  0  0  0
    2.7172    0.0318    2.1511 C   0  0  2  0  0  0  0  0  0  0  0  0
    3.6670   -0.4812    1.0653 C   0  0  1  0  0  0  0  0  0  0  0  0
    4.9293    0.1340    1.0902 O   0  0  0  0  0  0  0  0  0  0  0  0
    4.7783   -4.5824    2.6783 C   0  0  0  0  0  0  0  0  0  0  0  0
    4.9209   -3.8270    3.7981 O   0  0  0  0  0  0  0  0  0  0  0  0
    3.6813   -8.1545    3.3975 C   0  0  1  0  0  0  0  0  0  0  0  0
    2.4225   -8.3338    4.3503 C   0  0  2  0  0  0  0  0  0  0  0  0
    2.3643   -9.8217    4.7258 C   0  0  0  0  0  0  0  0  0  0  0  0
    1.8458  -10.5466    3.7161 C   0  0  0  0  0  0  0  0  0  0  0  0
   -1.0358   -8.5610    3.4979 H   0  0  0  0  0  0  0  0  0  0  0  0
   -0.4229   -7.4953    4.7555 H   0  0  0  0  0  0  0  0  0  0  0  0
   -0.2701   -9.2388    4.9209 H   0  0  0  0  0  0  0  0  0  0  0  0
    1.0480   -7.4435    2.8464 H   0  0  0  0  0  0  0  0  0  0  0  0
    2.9650  -10.3218    1.3564 H   0  0  0  0  0  0  0  0  0  0  0  0
    2.6216   -7.4155    1.6060 H   0  0  0  0  0  0  0  0  0  0  0  0
    4.4648   -8.0838    0.0042 H   0  0  0  0  0  0  0  0  0  0  0  0
    5.8078   -9.5602    1.6846 H   0  0  0  0  0  0  0  0  0  0  0  0
    6.7228   -8.2188    1.0510 H   0  0  0  0  0  0  0  0  0  0  0  0
    6.3967   -8.7033    3.7915 H   0  0  0  0  0  0  0  0  0  0  0  0
    6.9631   -7.2107    3.0937 H   0  0  0  0  0  0  0  0  0  0  0  0
    4.9438   -6.7961    4.6248 H   0  0  0  0  0  0  0  0  0  0  0  0
    4.1072   -5.7190   -1.2163 H   0  0  0  0  0  0  0  0  0  0  0  0
    1.9688   -3.1598    1.8527 H   0  0  0  0  0  0  0  0  0  0  0  0
    2.8234   -2.5152    3.2724 H   0  0  0  0  0  0  0  0  0  0  0  0
    0.0344   -1.6953    3.2948 H   0  0  0  0  0  0  0  0  0  0  0  0
    1.2120   -0.8403    4.2784 H   0  0  0  0  0  0  0  0  0  0  0  0
   -0.6217    0.3916    2.1284 H   0  0  0  0  0  0  0  0  0  0  0  0
   -0.7425    0.6424    3.8586 H   0  0  0  0  0  0  0  0  0  0  0  0
    0.3838    2.5486    2.6348 H   0  0  0  0  0  0  0  0  0  0  0  0
    1.3893    1.8594    3.8951 H   0  0  0  0  0  0  0  0  0  0  0  0
    1.5761    1.3348    0.8812 H   0  0  0  0  0  0  0  0  0  0  0  0
    2.7621    2.1587    1.9043 H   0  0  0  0  0  0  0  0  0  0  0  0
    3.2479    0.0968    3.1067 H   0  0  0  0  0  0  0  0  0  0  0  0
    3.2310   -0.3873    0.0671 H   0  0  0  0  0  0  0  0  0  0  0  0
    4.9762    0.7744    0.3698 H   0  0  0  0  0  0  0  0  0  0  0  0
    4.9768   -2.9293    3.5098 H   0  0  0  0  0  0  0  0  0  0  0  0
    4.2051   -9.0964    3.5723 H   0  0  0  0  0  0  0  0  0  0  0  0
    2.3708   -7.6585    5.2001 H   0  0  0  0  0  0  0  0  0  0  0  0
    2.7080  -10.2071    5.6770 H   0  0  0  0  0  0  0  0  0  0  0  0
    1.6706  -11.6187    3.7176 H   0  0  0  0  0  0  0  0  0  0  0  0
    1.2440   -1.0346    1.3332 H   0  0  0  0  0  0  0  0  0  0  0  0
  1  2  1  0
  1 32  1  0
  1 33  1  0
  1 34  1  0
  2 29  1  0
  2  3  1  0
  2 35  1  6
  3 31  1  0
  3  4  2  0
  4  5  1  0
  4 36  1  0
  5 28  1  0
  5  6  1  0
  5 37  1  1
  6 11  1  0
  6  7  1  0
  6 38  1  6
  7  8  1  0
  7 39  1  0
  7 40  1  0
  8  9  1  0
  8 41  1  0
  8 42  1  0
  9 10  1  0
  9 28  1  0
  9 43  1  1
 10 26  2  0
 10 11  1  0
 11 12  2  0
 12 13  1  0
 12 14  1  0
 13 44  1  0
 14 15  1  0
 14 26  1  0
 15 16  2  3
 16 24  1  0
 16 17  1  0
 17 18  1  0
 17 45  1  0
 17 46  1  0
 18 23  1  0
 18 19  1  0
 18 63  1  6
 19 20  1  0
 19 47  1  0
 19 48  1  0
 20 21  1  0
 20 49  1  0
 20 50  1  0
 21 22  1  0
 21 51  1  0
 21 52  1  0
 22 23  1  0
 22 53  1  0
 22 54  1  0
 23 24  1  0
 23 55  1  1
 24 25  1  0
 24 56  1  6
 25 57  1  0
 26 27  1  0
 27 58  1  0
 28 29  1  0
 28 59  1  1
 29 30  1  0
 29 60  1  1
 30 31  2  0
 30 61  1  0
 31 62  1  0
M  CHG  1  18   1
M  END
>  <i_m_ct_stereo_status>  (227) 
1

>  <s_m_source_file>  (227) 
/var/tmp/pbs.5076255.sched01/tmppxgjifq_/8475v0iq0b.sdf

>  <i_m_source_file_index>  (227) 
12

>  <i_lp_mmshare_version>  (227) 
48012

>  <i_f3d_flags>  (227) 
0

>  <s_epik_input>  (227) 
W0NIM11bQ0BIXTFbQ0BASF0oW0NIXT1bQ0hdMilbQ0BASF0zW0NAQEhdKFtDSDJdW0NIMl00KWMoYzVbQ0BASF00W0NASF0zW0NIXT1DMTIpYyhbT0hdKW4oYzVbT0hdKS9OPUMoXFtDSDJdNilbQ0BIXShbT0hdKVtDQEhdKE42NylbQ0gyXVtDSDJdW0NIMl1bQ0gyXTc=

>  <s_epik_cmdline>  (227) 
J2VwaWtfcHl0aG9uJywgJy1waHQnLCAnMi4wJywgJy1waCcsICc3LjAnLCAnLXRuJywgJzgnLCAnLW1hJywgJzIwMCcsICctaW1hZScsICc8aW5maWxlLm1hZT4nLCAnLW9tYWUnLCAnPG91dGZpbGUubWFlPic=

>  <r_epik_Ionization_Penalty>  (227) 
1.19696

>  <r_epik_Ionization_Penalty_Charging>  (227) 
1.14714

>  <r_epik_Ionization_Penalty_Neutral>  (227) 
0.0498181

>  <r_epik_State_Penalty>  (227) 
1.21662

>  <r_epik_Charging_Adjusted_Penalty>  (227) 
2.36376

>  <i_epik_Tot_Q>  (227) 
1

>  <i_epik_Tot_abs_Q>  (227) 
1

>  <s_epik_Chemistry_Notes>  (227) 
This compound has an imine and may undergo hydrolysis.

>  <s_lp_Force_Field>  (227) 
OPLS3e

>  <r_lp_Energy>  (227) 
157.046

>  <b_lp_Chiralities_Consistent>  (227) 
1

>  <s_lp_Variant>  (227) 
63:0-3

>  <s_i_glide_gridfile>  (227) 
pfpi4k_grid

>  <i_i_glide_lignum>  (227) 
12

>  <i_i_glide_rotatable_bonds>  (227) 
4

>  <r_i_docking_score>  (227) 
-4.84729

>  <r_i_glide_ligand_efficiency>  (227) 
-0.156364

>  <r_i_glide_ligand_efficiency_sa>  (227) 
-0.4912

>  <r_i_glide_ligand_efficiency_ln>  (227) 
-1.09321

>  <r_i_glide_gscore>  (227) 
-4.84729

>  <r_i_glide_lipo>  (227) 
-0.411713

>  <r_i_glide_hbond>  (227) 
-0.821851

>  <r_i_glide_metal>  (227) 
-0

>  <r_i_glide_rewards>  (227) 
-0.563547

>  <r_i_glide_evdw>  (227) 
-28.3634

>  <r_i_glide_ecoul>  (227) 
-11.2457

>  <r_i_glide_erotb>  (227) 
0.110963

>  <r_i_glide_esite>  (227) 
-0.0561141

>  <r_i_glide_emodel>  (227) 
-52.0662

>  <r_i_glide_energy>  (227) 
-39.6091

>  <r_i_glide_einternal>  (227) 
1.63129

>  <r_i_glide_intrahb_reward>  (227) 
-0

>  <i_i_glide_confnum>  (227) 
4

>  <i_i_glide_posenum>  (227) 
2

>  <r_i_glide_eff_state_penalty>  (227) 
0

>  <ligand_id>  (227) 
63

>  <original_smiles>  (227) 
CC1C2=CC3C4CCC(c5c4c(O)n(N=C4CN6CCCCC6C4O)c5O)C3C1C=C2

>  <smiles>  (227) 
[H]Oc1c2c(c(O[H])n1N=C1C([H])(O[H])C3([H])C([H])([H])C([H])([H])C([H])([H])C([H])([H])[N+]3([H])C1([H])[H])C1([H])C([H])([H])C([H])([H])C2([H])C2([H])C([H])=C3C([H])=C([H])C([H])(C3([H])C([H])([H])[H])C21[H]

$$$$
63:2:1
     RDKit          3D

 63 69  0  0  1  0  0  0  0  0999 V2000
   -0.1664   -6.7265    4.0713 C   0  0  0  0  0  0  0  0  0  0  0  0
    0.8930   -6.1397    3.0992 C   0  0  2  0  0  0  0  0  0  0  0  0
    0.9134   -6.8097    1.7281 C   0  0  0  0  0  0  0  0  0  0  0  0
    1.4666   -6.0771    0.7172 C   0  0  0  0  0  0  0  0  0  0  0  0
    2.4619   -5.0296    1.2160 C   0  0  2  0  0  0  0  0  0  0  0  0
    3.4137   -4.1694    0.3372 C   0  0  2  0  0  0  0  0  0  0  0  0
    4.7950   -4.8544    0.1327 C   0  0  0  0  0  0  0  0  0  0  0  0
    5.5186   -5.0356    1.5110 C   0  0  0  0  0  0  0  0  0  0  0  0
    4.5130   -4.7570    2.6733 C   0  0  1  0  0  0  0  0  0  0  0  0
    4.1573   -3.2805    2.4833 C   0  0  0  0  0  0  0  0  0  0  0  0
    3.6605   -2.9542    1.2304 C   0  0  0  0  0  0  0  0  0  0  0  0
    3.4535   -1.5704    1.1830 C   0  0  0  0  0  0  0  0  0  0  0  0
    3.0202   -0.8297    0.1287 O   0  0  0  0  0  0  0  0  0  0  0  0
    3.8196   -1.0237    2.4357 N   0  0  0  0  0  0  0  0  0  0  0  0
    3.7604    0.2983    2.8397 N   0  0  0  0  0  0  0  0  0  0  0  0
    2.6331    0.8847    2.9180 C   0  0  0  0  0  0  0  0  0  0  0  0
    1.2363    0.2893    2.6992 C   0  0  0  0  0  0  0  0  0  0  0  0
    0.3514    1.4728    2.8128 N   0  0  1  0  0  0  0  0  0  0  0  0
   -1.0784    1.2308    3.1102 C   0  0  0  0  0  0  0  0  0  0  0  0
   -1.8252    2.5786    3.1282 C   0  0  0  0  0  0  0  0  0  0  0  0
   -1.1802    3.5761    4.1059 C   0  0  0  0  0  0  0  0  0  0  0  0
    0.3255    3.7368    3.8270 C   0  0  0  0  0  0  0  0  0  0  0  0
    1.0102    2.3666    3.7838 C   0  0  2  0  0  0  0  0  0  0  0  0
    2.4615    2.3389    3.3062 C   0  0  1  0  0  0  0  0  0  0  0  0
    3.3830    2.7521    4.2904 O   0  0  0  0  0  0  0  0  0  0  0  0
    4.2913   -2.0898    3.2029 C   0  0  0  0  0  0  0  0  0  0  0  0
    4.7919   -1.9381    4.4600 O   0  0  0  0  0  0  0  0  0  0  0  0
    3.2947   -5.6763    2.3605 C   0  0  1  0  0  0  0  0  0  0  0  0
    2.3848   -6.4300    3.4259 C   0  0  2  0  0  0  0  0  0  0  0  0
    2.3653   -7.9070    3.0069 C   0  0  0  0  0  0  0  0  0  0  0  0
    1.5096   -8.1013    1.9911 C   0  0  0  0  0  0  0  0  0  0  0  0
   -1.1766   -6.6004    3.6752 H   0  0  0  0  0  0  0  0  0  0  0  0
   -0.1290   -6.2147    5.0357 H   0  0  0  0  0  0  0  0  0  0  0  0
   -0.0331   -7.7927    4.2608 H   0  0  0  0  0  0  0  0  0  0  0  0
    0.6684   -5.0778    3.0689 H   0  0  0  0  0  0  0  0  0  0  0  0
    1.7911   -6.6051   -0.1550 H   0  0  0  0  0  0  0  0  0  0  0  0
    1.7967   -4.2743    1.6151 H   0  0  0  0  0  0  0  0  0  0  0  0
    2.9565   -3.8637   -0.5973 H   0  0  0  0  0  0  0  0  0  0  0  0
    4.6786   -5.8082   -0.3871 H   0  0  0  0  0  0  0  0  0  0  0  0
    5.4134   -4.2297   -0.5105 H   0  0  0  0  0  0  0  0  0  0  0  0
    5.9516   -6.0332    1.5757 H   0  0  0  0  0  0  0  0  0  0  0  0
    6.3539   -4.3415    1.5872 H   0  0  0  0  0  0  0  0  0  0  0  0
    4.9542   -4.9595    3.6480 H   0  0  0  0  0  0  0  0  0  0  0  0
    2.1093   -1.0494   -0.1284 H   0  0  0  0  0  0  0  0  0  0  0  0
    1.1166   -0.1986    1.7295 H   0  0  0  0  0  0  0  0  0  0  0  0
    1.0385   -0.4388    3.4951 H   0  0  0  0  0  0  0  0  0  0  0  0
   -1.4945    0.5780    2.3389 H   0  0  0  0  0  0  0  0  0  0  0  0
   -1.1803    0.7180    4.0722 H   0  0  0  0  0  0  0  0  0  0  0  0
   -1.8342    3.0071    2.1224 H   0  0  0  0  0  0  0  0  0  0  0  0
   -2.8673    2.4096    3.3968 H   0  0  0  0  0  0  0  0  0  0  0  0
   -1.6703    4.5406    4.0096 H   0  0  0  0  0  0  0  0  0  0  0  0
   -1.3450    3.2388    5.1293 H   0  0  0  0  0  0  0  0  0  0  0  0
    0.4844    4.2541    2.8782 H   0  0  0  0  0  0  0  0  0  0  0  0
    0.7864    4.3419    4.6066 H   0  0  0  0  0  0  0  0  0  0  0  0
    0.9442    1.8977    4.7735 H   0  0  0  0  0  0  0  0  0  0  0  0
    2.5884    2.9530    2.4083 H   0  0  0  0  0  0  0  0  0  0  0  0
    4.2060    2.8886    3.8401 H   0  0  0  0  0  0  0  0  0  0  0  0
    4.7701   -1.0152    4.6649 H   0  0  0  0  0  0  0  0  0  0  0  0
    3.7846   -6.5180    1.8685 H   0  0  0  0  0  0  0  0  0  0  0  0
    2.6452   -6.2623    4.4697 H   0  0  0  0  0  0  0  0  0  0  0  0
    2.9704   -8.6640    3.4836 H   0  0  0  0  0  0  0  0  0  0  0  0
    1.2944   -9.0443    1.5011 H   0  0  0  0  0  0  0  0  0  0  0  0
    0.3935    1.9555    1.9168 H   0  0  0  0  0  0  0  0  0  0  0  0
  1  2  1  0
  1 32  1  0
  1 33  1  0
  1 34  1  0
  2 29  1  0
  2  3  1  0
  2 35  1  6
  3 31  1  0
  3  4  2  0
  4  5  1  0
  4 36  1  0
  5 28  1  0
  5  6  1  0
  5 37  1  1
  6 11  1  0
  6  7  1  0
  6 38  1  6
  7  8  1  0
  7 39  1  0
  7 40  1  0
  8  9  1  0
  8 41  1  0
  8 42  1  0
  9 10  1  0
  9 28  1  0
  9 43  1  1
 10 26  2  0
 10 11  1  0
 11 12  2  0
 12 13  1  0
 12 14  1  0
 13 44  1  0
 14 15  1  0
 14 26  1  0
 15 16  2  3
 16 24  1  0
 16 17  1  0
 17 18  1  0
 17 45  1  0
 17 46  1  0
 18 23  1  0
 18 19  1  0
 18 63  1  6
 19 20  1  0
 19 47  1  0
 19 48  1  0
 20 21  1  0
 20 49  1  0
 20 50  1  0
 21 22  1  0
 21 51  1  0
 21 52  1  0
 22 23  1  0
 22 53  1  0
 22 54  1  0
 23 24  1  0
 23 55  1  1
 24 25  1  0
 24 56  1  6
 25 57  1  0
 26 27  1  0
 27 58  1  0
 28 29  1  0
 28 59  1  6
 29 30  1  0
 29 60  1  1
 30 31  2  0
 30 61  1  0
 31 62  1  0
M  CHG  1  18   1
M  END
>  <i_m_ct_stereo_status>  (228) 
1

>  <s_m_source_file>  (228) 
/var/tmp/pbs.5076255.sched01/tmppxgjifq_/8475v0iq0b.sdf

>  <i_m_source_file_index>  (228) 
12

>  <i_lp_mmshare_version>  (228) 
48012

>  <i_f3d_flags>  (228) 
0

>  <s_epik_input>  (228) 
W0NIM11bQ0BIXTFbQ0BASF0oW0NIXT1bQ0hdMilbQ0BASF0zW0NAQEhdKFtDSDJdW0NIMl00KWMoYzVbQ0BASF00W0NASF0zW0NIXT1DMTIpYyhbT0hdKW4oYzVbT0hdKS9OPUMoXFtDSDJdNilbQ0BIXShbT0hdKVtDQEhdKE42NylbQ0gyXVtDSDJdW0NIMl1bQ0gyXTc=

>  <s_epik_cmdline>  (228) 
J2VwaWtfcHl0aG9uJywgJy1waHQnLCAnMi4wJywgJy1waCcsICc3LjAnLCAnLXRuJywgJzgnLCAnLW1hJywgJzIwMCcsICctaW1hZScsICc8aW5maWxlLm1hZT4nLCAnLW9tYWUnLCAnPG91dGZpbGUubWFlPic=

>  <r_epik_Ionization_Penalty>  (228) 
1.19696

>  <r_epik_Ionization_Penalty_Charging>  (228) 
1.14714

>  <r_epik_Ionization_Penalty_Neutral>  (228) 
0.0498181

>  <r_epik_State_Penalty>  (228) 
1.21662

>  <r_epik_Charging_Adjusted_Penalty>  (228) 
2.36376

>  <i_epik_Tot_Q>  (228) 
1

>  <i_epik_Tot_abs_Q>  (228) 
1

>  <s_epik_Chemistry_Notes>  (228) 
This compound has an imine and may undergo hydrolysis.

>  <s_lp_Force_Field>  (228) 
OPLS3e

>  <r_lp_Energy>  (228) 
157.046

>  <b_lp_Chiralities_Consistent>  (228) 
1

>  <s_lp_Variant>  (228) 
63:0-3

>  <s_i_glide_gridfile>  (228) 
pfpi4k_grid

>  <i_i_glide_lignum>  (228) 
12

>  <i_i_glide_rotatable_bonds>  (228) 
4

>  <r_i_docking_score>  (228) 
-4.17921

>  <r_i_glide_ligand_efficiency>  (228) 
-0.134813

>  <r_i_glide_ligand_efficiency_sa>  (228) 
-0.4235

>  <r_i_glide_ligand_efficiency_ln>  (228) 
-0.942541

>  <r_i_glide_gscore>  (228) 
-4.17921

>  <r_i_glide_lipo>  (228) 
-0.10842

>  <r_i_glide_hbond>  (228) 
-0.339237

>  <r_i_glide_metal>  (228) 
-0

>  <r_i_glide_rewards>  (228) 
-0.542128

>  <r_i_glide_evdw>  (228) 
-25.8021

>  <r_i_glide_ecoul>  (228) 
-13.0885

>  <r_i_glide_erotb>  (228) 
0.110963

>  <r_i_glide_esite>  (228) 
-0.0470177

>  <r_i_glide_emodel>  (228) 
-48.646

>  <r_i_glide_energy>  (228) 
-38.8906

>  <r_i_glide_einternal>  (228) 
2.53841

>  <r_i_glide_intrahb_reward>  (228) 
-0

>  <i_i_glide_confnum>  (228) 
3

>  <i_i_glide_posenum>  (228) 
1

>  <r_i_glide_eff_state_penalty>  (228) 
0

>  <ligand_id>  (228) 
63

>  <original_smiles>  (228) 
CC1C2=CC3C4CCC(c5c4c(O)n(N=C4CN6CCCCC6C4O)c5O)C3C1C=C2

>  <smiles>  (228) 
[H]Oc1c2c(c(O[H])n1N=C1C([H])(O[H])C3([H])C([H])([H])C([H])([H])C([H])([H])C([H])([H])[N+]3([H])C1([H])[H])C1([H])C([H])([H])C([H])([H])C2([H])C2([H])C([H])=C3C([H])=C([H])C([H])(C3([H])C([H])([H])[H])C21[H]

$$$$
63:2:2
     RDKit          3D

 63 69  0  0  1  0  0  0  0  0999 V2000
   -0.6693   -8.3358    2.5429 C   0  0  0  0  0  0  0  0  0  0  0  0
    0.8108   -8.2940    2.9995 C   0  0  2  0  0  0  0  0  0  0  0  0
    1.3513   -9.6497    3.4698 C   0  0  0  0  0  0  0  0  0  0  0  0
    2.7082   -9.7820    3.4861 C   0  0  0  0  0  0  0  0  0  0  0  0
    3.4370   -8.4375    3.5360 C   0  0  2  0  0  0  0  0  0  0  0  0
    4.9651   -8.2218    3.7455 C   0  0  2  0  0  0  0  0  0  0  0  0
    5.3312   -8.1177    5.2559 C   0  0  0  0  0  0  0  0  0  0  0  0
    4.6362   -6.8710    5.8946 C   0  0  0  0  0  0  0  0  0  0  0  0
    3.5614   -6.3120    4.9055 C   0  0  1  0  0  0  0  0  0  0  0  0
    4.3793   -5.8533    3.6917 C   0  0  0  0  0  0  0  0  0  0  0  0
    5.1982   -6.8266    3.1425 C   0  0  0  0  0  0  0  0  0  0  0  0
    5.9319   -6.2368    2.1047 C   0  0  0  0  0  0  0  0  0  0  0  0
    6.8408   -6.8345    1.2872 O   0  0  0  0  0  0  0  0  0  0  0  0
    5.5766   -4.8716    2.0084 N   0  0  0  0  0  0  0  0  0  0  0  0
    6.0694   -3.9305    1.1237 N   0  0  0  0  0  0  0  0  0  0  0  0
    5.3678   -3.5841    0.1207 C   0  0  0  0  0  0  0  0  0  0  0  0
    3.9734   -4.0713   -0.2667 C   0  0  0  0  0  0  0  0  0  0  0  0
    3.7686   -3.4276   -1.5842 N   0  0  1  0  0  0  0  0  0  0  0  0
    2.3912   -3.2823   -2.1004 C   0  0  0  0  0  0  0  0  0  0  0  0
    2.4336   -2.6629   -3.5086 C   0  0  0  0  0  0  0  0  0  0  0  0
    3.1935   -1.3265   -3.5185 C   0  0  0  0  0  0  0  0  0  0  0  0
    4.5912   -1.4917   -2.9013 C   0  0  0  0  0  0  0  0  0  0  0  0
    4.5074   -2.1479   -1.5264 C   0  0  2  0  0  0  0  0  0  0  0  0
    5.8294   -2.5554   -0.8955 C   0  0  1  0  0  0  0  0  0  0  0  0
    6.5369   -1.4542   -0.3352 O   0  0  0  0  0  0  0  0  0  0  0  0
    4.6305   -4.6586    3.0283 C   0  0  0  0  0  0  0  0  0  0  0  0
    4.0801   -3.4442    3.2971 O   0  0  0  0  0  0  0  0  0  0  0  0
    2.6779   -7.5454    4.5636 C   0  0  1  0  0  0  0  0  0  0  0  0
    1.1104   -7.5389    4.3293 C   0  0  2  0  0  0  0  0  0  0  0  0
    0.5338   -8.6092    5.2650 C   0  0  0  0  0  0  0  0  0  0  0  0
    0.7128   -9.8407    4.7521 C   0  0  0  0  0  0  0  0  0  0  0  0
   -0.7906   -9.0081    1.6916 H   0  0  0  0  0  0  0  0  0  0  0  0
   -1.0084   -7.3520    2.2208 H   0  0  0  0  0  0  0  0  0  0  0  0
   -1.3501   -8.6847    3.3192 H   0  0  0  0  0  0  0  0  0  0  0  0
    1.3448   -7.8909    2.1389 H   0  0  0  0  0  0  0  0  0  0  0  0
    3.1295  -10.5535    4.1130 H   0  0  0  0  0  0  0  0  0  0  0  0
    3.3013   -8.0803    2.5209 H   0  0  0  0  0  0  0  0  0  0  0  0
    5.5555   -8.9620    3.2240 H   0  0  0  0  0  0  0  0  0  0  0  0
    5.0689   -9.0350    5.7868 H   0  0  0  0  0  0  0  0  0  0  0  0
    6.4065   -8.0011    5.3540 H   0  0  0  0  0  0  0  0  0  0  0  0
    4.2073   -7.1336    6.8641 H   0  0  0  0  0  0  0  0  0  0  0  0
    5.3725   -6.0952    6.0930 H   0  0  0  0  0  0  0  0  0  0  0  0
    3.0000   -5.4975    5.3480 H   0  0  0  0  0  0  0  0  0  0  0  0
    7.0097   -7.7011    1.6364 H   0  0  0  0  0  0  0  0  0  0  0  0
    3.9146   -5.1538   -0.3278 H   0  0  0  0  0  0  0  0  0  0  0  0
    3.2531   -3.7097    0.4624 H   0  0  0  0  0  0  0  0  0  0  0  0
    1.8915   -4.2495   -2.1232 H   0  0  0  0  0  0  0  0  0  0  0  0
    1.8093   -2.6735   -1.4182 H   0  0  0  0  0  0  0  0  0  0  0  0
    2.8975   -3.3592   -4.2118 H   0  0  0  0  0  0  0  0  0  0  0  0
    1.4164   -2.5136   -3.8595 H   0  0  0  0  0  0  0  0  0  0  0  0
    3.2813   -0.9497   -4.5380 H   0  0  0  0  0  0  0  0  0  0  0  0
    2.6298   -0.5758   -2.9601 H   0  0  0  0  0  0  0  0  0  0  0  0
    5.2223   -2.0965   -3.5554 H   0  0  0  0  0  0  0  0  0  0  0  0
    5.0465   -0.5087   -2.7832 H   0  0  0  0  0  0  0  0  0  0  0  0
    3.9714   -1.4752   -0.8531 H   0  0  0  0  0  0  0  0  0  0  0  0
    6.4753   -3.0724   -1.6130 H   0  0  0  0  0  0  0  0  0  0  0  0
    6.1014   -1.1566    0.4548 H   0  0  0  0  0  0  0  0  0  0  0  0
    4.5119   -2.8245    2.7347 H   0  0  0  0  0  0  0  0  0  0  0  0
    2.7450   -8.1145    5.4954 H   0  0  0  0  0  0  0  0  0  0  0  0
    0.6181   -6.5697    4.4076 H   0  0  0  0  0  0  0  0  0  0  0  0
    0.0460   -8.3794    6.2008 H   0  0  0  0  0  0  0  0  0  0  0  0
    0.3616  -10.7723    5.1848 H   0  0  0  0  0  0  0  0  0  0  0  0
    4.2449   -4.0124   -2.2559 H   0  0  0  0  0  0  0  0  0  0  0  0
  1  2  1  0
  1 32  1  0
  1 33  1  0
  1 34  1  0
  2 29  1  0
  2  3  1  0
  2 35  1  6
  3 31  1  0
  3  4  2  0
  4  5  1  0
  4 36  1  0
  5 28  1  0
  5  6  1  0
  5 37  1  6
  6 11  1  0
  6  7  1  0
  6 38  1  6
  7  8  1  0
  7 39  1  0
  7 40  1  0
  8  9  1  0
  8 41  1  0
  8 42  1  0
  9 10  1  0
  9 28  1  0
  9 43  1  1
 10 26  2  0
 10 11  1  0
 11 12  2  0
 12 13  1  0
 12 14  1  0
 13 44  1  0
 14 15  1  0
 14 26  1  0
 15 16  2  3
 16 24  1  0
 16 17  1  0
 17 18  1  0
 17 45  1  0
 17 46  1  0
 18 23  1  0
 18 19  1  0
 18 63  1  6
 19 20  1  0
 19 47  1  0
 19 48  1  0
 20 21  1  0
 20 49  1  0
 20 50  1  0
 21 22  1  0
 21 51  1  0
 21 52  1  0
 22 23  1  0
 22 53  1  0
 22 54  1  0
 23 24  1  0
 23 55  1  1
 24 25  1  0
 24 56  1  6
 25 57  1  0
 26 27  1  0
 27 58  1  0
 28 29  1  0
 28 59  1  1
 29 30  1  0
 29 60  1  6
 30 31  2  0
 30 61  1  0
 31 62  1  0
M  CHG  1  18   1
M  END
>  <i_m_ct_stereo_status>  (229) 
1

>  <s_m_source_file>  (229) 
/var/tmp/pbs.5076255.sched01/tmppxgjifq_/8475v0iq0b.sdf

>  <i_m_source_file_index>  (229) 
12

>  <i_lp_mmshare_version>  (229) 
48012

>  <i_f3d_flags>  (229) 
0

>  <s_epik_input>  (229) 
W0NIM11bQ0BIXTFbQ0BASF0oW0NIXT1bQ0hdMilbQ0BASF0zW0NAQEhdKFtDSDJdW0NIMl00KWMoYzVbQ0BASF00W0NASF0zW0NIXT1DMTIpYyhbT0hdKW4oYzVbT0hdKS9OPUMoXFtDSDJdNilbQ0BIXShbT0hdKVtDQEhdKE42NylbQ0gyXVtDSDJdW0NIMl1bQ0gyXTc=

>  <s_epik_cmdline>  (229) 
J2VwaWtfcHl0aG9uJywgJy1waHQnLCAnMi4wJywgJy1waCcsICc3LjAnLCAnLXRuJywgJzgnLCAnLW1hJywgJzIwMCcsICctaW1hZScsICc8aW5maWxlLm1hZT4nLCAnLW9tYWUnLCAnPG91dGZpbGUubWFlPic=

>  <r_epik_Ionization_Penalty>  (229) 
1.19696

>  <r_epik_Ionization_Penalty_Charging>  (229) 
1.14714

>  <r_epik_Ionization_Penalty_Neutral>  (229) 
0.0498181

>  <r_epik_State_Penalty>  (229) 
1.21662

>  <r_epik_Charging_Adjusted_Penalty>  (229) 
2.36376

>  <i_epik_Tot_Q>  (229) 
1

>  <i_epik_Tot_abs_Q>  (229) 
1

>  <s_epik_Chemistry_Notes>  (229) 
This compound has an imine and may undergo hydrolysis.

>  <s_lp_Force_Field>  (229) 
OPLS3e

>  <r_lp_Energy>  (229) 
157.046

>  <b_lp_Chiralities_Consistent>  (229) 
1

>  <s_lp_Variant>  (229) 
63:0-3

>  <s_i_glide_gridfile>  (229) 
pfpi4k_grid

>  <i_i_glide_lignum>  (229) 
12

>  <i_i_glide_rotatable_bonds>  (229) 
4

>  <r_i_docking_score>  (229) 
-3.88331

>  <r_i_glide_ligand_efficiency>  (229) 
-0.125268

>  <r_i_glide_ligand_efficiency_sa>  (229) 
-0.393515

>  <r_i_glide_ligand_efficiency_ln>  (229) 
-0.875805

>  <r_i_glide_gscore>  (229) 
-3.88331

>  <r_i_glide_lipo>  (229) 
-0.615909

>  <r_i_glide_hbond>  (229) 
-0.113119

>  <r_i_glide_metal>  (229) 
-0

>  <r_i_glide_rewards>  (229) 
-0.644736

>  <r_i_glide_evdw>  (229) 
-31.4253

>  <r_i_glide_ecoul>  (229) 
-6.97252

>  <r_i_glide_erotb>  (229) 
0.110963

>  <r_i_glide_esite>  (229) 
-0.00336508

>  <r_i_glide_emodel>  (229) 
-48.8998

>  <r_i_glide_energy>  (229) 
-38.3978

>  <r_i_glide_einternal>  (229) 
0.292294

>  <r_i_glide_intrahb_reward>  (229) 
-0

>  <i_i_glide_confnum>  (229) 
3

>  <i_i_glide_posenum>  (229) 
3

>  <r_i_glide_eff_state_penalty>  (229) 
0

>  <ligand_id>  (229) 
63

>  <original_smiles>  (229) 
CC1C2=CC3C4CCC(c5c4c(O)n(N=C4CN6CCCCC6C4O)c5O)C3C1C=C2

>  <smiles>  (229) 
[H]Oc1c2c(c(O[H])n1N=C1C([H])(O[H])C3([H])C([H])([H])C([H])([H])C([H])([H])C([H])([H])[N+]3([H])C1([H])[H])C1([H])C([H])([H])C([H])([H])C2([H])C2([H])C([H])=C3C([H])=C([H])C([H])(C3([H])C([H])([H])[H])C21[H]

$$$$
63:3:0
     RDKit          3D

 63 69  0  0  1  0  0  0  0  0999 V2000
    2.6461  -10.1238    2.8336 C   0  0  0  0  0  0  0  0  0  0  0  0
    4.0337   -9.5004    3.1387 C   0  0  2  0  0  0  0  0  0  0  0  0
    5.0485  -10.4898    3.7243 C   0  0  0  0  0  0  0  0  0  0  0  0
    6.3614  -10.1474    3.6111 C   0  0  0  0  0  0  0  0  0  0  0  0
    6.5632   -8.6393    3.4298 C   0  0  2  0  0  0  0  0  0  0  0  0
    7.9152   -7.8702    3.4475 C   0  0  2  0  0  0  0  0  0  0  0  0
    8.2865   -7.4221    4.8972 C   0  0  0  0  0  0  0  0  0  0  0  0
    7.2222   -6.4167    5.4475 C   0  0  0  0  0  0  0  0  0  0  0  0
    5.9748   -6.4308    4.5109 C   0  0  1  0  0  0  0  0  0  0  0  0
    6.5105   -5.9220    3.1736 C   0  0  0  0  0  0  0  0  0  0  0  0
    7.5851   -6.6059    2.6429 C   0  0  0  0  0  0  0  0  0  0  0  0
    7.9887   -5.9322    1.4896 C   0  0  0  0  0  0  0  0  0  0  0  0
    8.9983   -6.2518    0.6339 O   0  0  0  0  0  0  0  0  0  0  0  0
    7.1621   -4.8157    1.2806 N   0  0  0  0  0  0  0  0  0  0  0  0
    7.2506   -3.8850    0.2599 N   0  0  0  0  0  0  0  0  0  0  0  0
    6.2422   -3.5869   -0.4497 C   0  0  0  0  0  0  0  0  0  0  0  0
    6.2943   -2.5392   -1.5425 C   0  0  0  0  0  0  0  0  0  0  0  0
    4.8599   -2.2806   -1.8015 N   0  0  1  0  0  0  0  0  0  0  0  0
    4.5225   -1.5863   -3.0615 C   0  0  0  0  0  0  0  0  0  0  0  0
    3.0018   -1.3892   -3.1084 C   0  0  0  0  0  0  0  0  0  0  0  0
    2.2562   -2.7382   -2.9328 C   0  0  0  0  0  0  0  0  0  0  0  0
    2.6762   -3.4156   -1.6232 C   0  0  0  0  0  0  0  0  0  0  0  0
    4.1994   -3.5923   -1.6632 C   0  0  2  0  0  0  0  0  0  0  0  0
    4.8097   -4.1349   -0.3843 C   0  0  1  0  0  0  0  0  0  0  0  0
    4.7299   -5.5506   -0.3075 O   0  0  0  0  0  0  0  0  0  0  0  0
    6.2783   -4.8033    2.3799 C   0  0  0  0  0  0  0  0  0  0  0  0
    5.4176   -3.8083    2.6624 O   0  0  0  0  0  0  0  0  0  0  0  0
    5.5786   -7.9302    4.4126 C   0  0  1  0  0  0  0  0  0  0  0  0
    4.1002   -8.5019    4.3284 C   0  0  2  0  0  0  0  0  0  0  0  0
    3.9809   -9.5495    5.4423 C   0  0  0  0  0  0  0  0  0  0  0  0
    4.5637  -10.7096    5.0676 C   0  0  0  0  0  0  0  0  0  0  0  0
    2.7453  -10.9147    2.0858 H   0  0  0  0  0  0  0  0  0  0  0  0
    1.9613   -9.3778    2.4218 H   0  0  0  0  0  0  0  0  0  0  0  0
    2.1672  -10.5653    3.7084 H   0  0  0  0  0  0  0  0  0  0  0  0
    4.3392   -9.0741    2.1896 H   0  0  0  0  0  0  0  0  0  0  0  0
    7.0513  -10.6161    4.2982 H   0  0  0  0  0  0  0  0  0  0  0  0
    6.2487   -8.5132    2.3993 H   0  0  0  0  0  0  0  0  0  0  0  0
    8.7093   -8.4320    2.9726 H   0  0  0  0  0  0  0  0  0  0  0  0
    8.3980   -8.2820    5.5679 H   0  0  0  0  0  0  0  0  0  0  0  0
    9.2516   -6.9226    4.8758 H   0  0  0  0  0  0  0  0  0  0  0  0
    6.9623   -6.6593    6.4790 H   0  0  0  0  0  0  0  0  0  0  0  0
    7.6360   -5.4101    5.4670 H   0  0  0  0  0  0  0  0  0  0  0  0
    5.1706   -5.8024    4.8978 H   0  0  0  0  0  0  0  0  0  0  0  0
    9.5397   -6.9435    0.9988 H   0  0  0  0  0  0  0  0  0  0  0  0
    6.8029   -1.6522   -1.1711 H   0  0  0  0  0  0  0  0  0  0  0  0
    6.8119   -2.9357   -2.4227 H   0  0  0  0  0  0  0  0  0  0  0  0
    5.0127   -0.6176   -3.0702 H   0  0  0  0  0  0  0  0  0  0  0  0
    4.8565   -2.1730   -3.9147 H   0  0  0  0  0  0  0  0  0  0  0  0
    2.6870   -0.6927   -2.3242 H   0  0  0  0  0  0  0  0  0  0  0  0
    2.7323   -0.9249   -4.0563 H   0  0  0  0  0  0  0  0  0  0  0  0
    1.1825   -2.6124   -2.8682 H   0  0  0  0  0  0  0  0  0  0  0  0
    2.4250   -3.3706   -3.8064 H   0  0  0  0  0  0  0  0  0  0  0  0
    2.3589   -2.8280   -0.7550 H   0  0  0  0  0  0  0  0  0  0  0  0
    2.1695   -4.3699   -1.5112 H   0  0  0  0  0  0  0  0  0  0  0  0
    4.4874   -4.2289   -2.5036 H   0  0  0  0  0  0  0  0  0  0  0  0
    4.2912   -3.6640    0.4535 H   0  0  0  0  0  0  0  0  0  0  0  0
    4.2602   -5.8917   -1.0560 H   0  0  0  0  0  0  0  0  0  0  0  0
    5.4576   -3.2073    1.9389 H   0  0  0  0  0  0  0  0  0  0  0  0
    5.8835   -8.2880    5.3970 H   0  0  0  0  0  0  0  0  0  0  0  0
    3.2983   -7.7663    4.3320 H   0  0  0  0  0  0  0  0  0  0  0  0
    3.4890   -9.3652    6.3803 H   0  0  0  0  0  0  0  0  0  0  0  0
    4.5935  -11.6269    5.6424 H   0  0  0  0  0  0  0  0  0  0  0  0
    4.5139   -1.7104   -1.0441 H   0  0  0  0  0  0  0  0  0  0  0  0
  1  2  1  0
  1 32  1  0
  1 33  1  0
  1 34  1  0
  2 29  1  0
  2  3  1  0
  2 35  1  6
  3 31  1  0
  3  4  2  0
  4  5  1  0
  4 36  1  0
  5 28  1  0
  5  6  1  0
  5 37  1  6
  6 11  1  0
  6  7  1  0
  6 38  1  6
  7  8  1  0
  7 39  1  0
  7 40  1  0
  8  9  1  0
  8 41  1  0
  8 42  1  0
  9 10  1  0
  9 28  1  0
  9 43  1  1
 10 26  2  0
 10 11  1  0
 11 12  2  0
 12 13  1  0
 12 14  1  0
 13 44  1  0
 14 15  1  0
 14 26  1  0
 15 16  2  3
 16 24  1  0
 16 17  1  0
 17 18  1  0
 17 45  1  0
 17 46  1  0
 18 23  1  0
 18 19  1  0
 18 63  1  1
 19 20  1  0
 19 47  1  0
 19 48  1  0
 20 21  1  0
 20 49  1  0
 20 50  1  0
 21 22  1  0
 21 51  1  0
 21 52  1  0
 22 23  1  0
 22 53  1  0
 22 54  1  0
 23 24  1  0
 23 55  1  6
 24 25  1  0
 24 56  1  1
 25 57  1  0
 26 27  1  0
 27 58  1  0
 28 29  1  0
 28 59  1  1
 29 30  1  0
 29 60  1  6
 30 31  2  0
 30 61  1  0
 31 62  1  0
M  CHG  1  18   1
M  END
>  <i_m_ct_stereo_status>  (230) 
1

>  <s_m_source_file>  (230) 
/var/tmp/pbs.5076255.sched01/tmppxgjifq_/8475v0iq0b.sdf

>  <i_m_source_file_index>  (230) 
13

>  <i_lp_mmshare_version>  (230) 
48012

>  <i_f3d_flags>  (230) 
0

>  <s_epik_input>  (230) 
W0NIM11bQ0BIXTFbQ0BASF0oW0NIXT1bQ0hdMilbQ0BASF0zW0NAQEhdKFtDSDJdW0NIMl00KWMoYzVbQ0BASF00W0NASF0zW0NIXT1DMTIpYyhbT0hdKW4oYzVbT0hdKS9OPUMoXFtDSDJdNilbQ0BIXShbT0hdKVtDQEhdKE42NylbQ0gyXVtDSDJdW0NIMl1bQ0gyXTc=

>  <s_epik_cmdline>  (230) 
J2VwaWtfcHl0aG9uJywgJy1waHQnLCAnMi4wJywgJy1waCcsICc3LjAnLCAnLXRuJywgJzgnLCAnLW1hJywgJzIwMCcsICctaW1hZScsICc8aW5maWxlLm1hZT4nLCAnLW9tYWUnLCAnPG91dGZpbGUubWFlPic=

>  <r_epik_Ionization_Penalty>  (230) 
1.19696

>  <r_epik_Ionization_Penalty_Charging>  (230) 
1.14714

>  <r_epik_Ionization_Penalty_Neutral>  (230) 
0.0498181

>  <r_epik_State_Penalty>  (230) 
1.21662

>  <r_epik_Charging_Adjusted_Penalty>  (230) 
2.36376

>  <i_epik_Tot_Q>  (230) 
1

>  <i_epik_Tot_abs_Q>  (230) 
1

>  <s_epik_Chemistry_Notes>  (230) 
This compound has an imine and may undergo hydrolysis.

>  <s_lp_Force_Field>  (230) 
OPLS3e

>  <r_lp_Energy>  (230) 
157.873

>  <b_lp_Chiralities_Consistent>  (230) 
1

>  <s_lp_Variant>  (230) 
63:0-4

>  <s_i_glide_gridfile>  (230) 
pfpi4k_grid

>  <i_i_glide_lignum>  (230) 
13

>  <i_i_glide_rotatable_bonds>  (230) 
4

>  <r_i_docking_score>  (230) 
-4.35699

>  <r_i_glide_ligand_efficiency>  (230) 
-0.140548

>  <r_i_glide_ligand_efficiency_sa>  (230) 
-0.441515

>  <r_i_glide_ligand_efficiency_ln>  (230) 
-0.982634

>  <r_i_glide_gscore>  (230) 
-4.35699

>  <r_i_glide_lipo>  (230) 
-0.282813

>  <r_i_glide_hbond>  (230) 
-0.463129

>  <r_i_glide_metal>  (230) 
-0

>  <r_i_glide_rewards>  (230) 
-0.790472

>  <r_i_glide_evdw>  (230) 
-27.2562

>  <r_i_glide_ecoul>  (230) 
-10.1528

>  <r_i_glide_erotb>  (230) 
0.0776742

>  <r_i_glide_esite>  (230) 
-0.0125123

>  <r_i_glide_emodel>  (230) 
-46.3639

>  <r_i_glide_energy>  (230) 
-37.409

>  <r_i_glide_einternal>  (230) 
1.23499

>  <r_i_glide_intrahb_reward>  (230) 
-0

>  <i_i_glide_confnum>  (230) 
1

>  <i_i_glide_posenum>  (230) 
7

>  <r_i_glide_eff_state_penalty>  (230) 
0

>  <ligand_id>  (230) 
63

>  <original_smiles>  (230) 
CC1C2=CC3C4CCC(c5c4c(O)n(N=C4CN6CCCCC6C4O)c5O)C3C1C=C2

>  <smiles>  (230) 
[H]Oc1c2c(c(O[H])n1N=C1C([H])(O[H])C3([H])C([H])([H])C([H])([H])C([H])([H])C([H])([H])[N+]3([H])C1([H])[H])C1([H])C([H])([H])C([H])([H])C2([H])C2([H])C([H])=C3C([H])=C([H])C([H])(C3([H])C([H])([H])[H])C21[H]

$$$$
63:3:1
     RDKit          3D

 63 69  0  0  1  0  0  0  0  0999 V2000
   -1.0070   -8.0941    2.3195 C   0  0  0  0  0  0  0  0  0  0  0  0
    0.4520   -7.9834    2.8183 C   0  0  2  0  0  0  0  0  0  0  0  0
    1.0985   -9.3379    3.1389 C   0  0  0  0  0  0  0  0  0  0  0  0
    2.4571   -9.3574    3.1878 C   0  0  0  0  0  0  0  0  0  0  0  0
    3.0630   -7.9706    3.4180 C   0  0  2  0  0  0  0  0  0  0  0  0
    4.5600   -7.6527    3.7023 C   0  0  2  0  0  0  0  0  0  0  0  0
    4.8840   -7.6971    5.2227 C   0  0  0  0  0  0  0  0  0  0  0  0
    4.0705   -6.5959    5.9745 C   0  0  0  0  0  0  0  0  0  0  0  0
    2.9715   -6.0183    5.0226 C   0  0  1  0  0  0  0  0  0  0  0  0
    3.7663   -5.3494    3.8963 C   0  0  0  0  0  0  0  0  0  0  0  0
    4.6835   -6.1828    3.2736 C   0  0  0  0  0  0  0  0  0  0  0  0
    5.3898   -5.4185    2.3437 C   0  0  0  0  0  0  0  0  0  0  0  0
    6.3608   -5.8501    1.4961 O   0  0  0  0  0  0  0  0  0  0  0  0
    4.9206   -4.0837    2.3787 N   0  0  0  0  0  0  0  0  0  0  0  0
    5.3275   -3.0064    1.6033 N   0  0  0  0  0  0  0  0  0  0  0  0
    4.7819   -2.7688    0.4763 C   0  0  0  0  0  0  0  0  0  0  0  0
    5.1505   -1.5707   -0.3693 C   0  0  0  0  0  0  0  0  0  0  0  0
    4.0625   -1.5309   -1.3669 N   0  0  1  0  0  0  0  0  0  0  0  0
    4.3000   -0.7361   -2.5859 C   0  0  0  0  0  0  0  0  0  0  0  0
    3.0543   -0.7681   -3.4663 C   0  0  0  0  0  0  0  0  0  0  0  0
    2.6312   -2.2186   -3.7861 C   0  0  0  0  0  0  0  0  0  0  0  0
    2.4669   -3.0430   -2.4979 C   0  0  0  0  0  0  0  0  0  0  0  0
    3.7304   -2.9399   -1.6421 C   0  0  2  0  0  0  0  0  0  0  0  0
    3.6771   -3.5463   -0.2438 C   0  0  1  0  0  0  0  0  0  0  0  0
    3.9191   -4.9391   -0.3357 O   0  0  0  0  0  0  0  0  0  0  0  0
    3.9331   -4.0686    3.3792 C   0  0  0  0  0  0  0  0  0  0  0  0
    3.2657   -2.9457    3.7570 O   0  0  0  0  0  0  0  0  0  0  0  0
    2.2063   -7.2736    4.5170 C   0  0  1  0  0  0  0  0  0  0  0  0
    0.6520   -7.3706    4.2359 C   0  0  2  0  0  0  0  0  0  0  0  0
    0.1586   -8.5924    5.0207 C   0  0  0  0  0  0  0  0  0  0  0  0
    0.4653   -9.7297    4.3755 C   0  0  0  0  0  0  0  0  0  0  0  0
   -1.0520   -8.6535    1.3858 H   0  0  0  0  0  0  0  0  0  0  0  0
   -1.4214   -7.1108    2.1074 H   0  0  0  0  0  0  0  0  0  0  0  0
   -1.6746   -8.5933    3.0231 H   0  0  0  0  0  0  0  0  0  0  0  0
    0.9645   -7.4396    2.0246 H   0  0  0  0  0  0  0  0  0  0  0  0
    2.9328  -10.1592    3.7357 H   0  0  0  0  0  0  0  0  0  0  0  0
    2.9208   -7.5085    2.4452 H   0  0  0  0  0  0  0  0  0  0  0  0
    5.2266   -8.2681    3.1102 H   0  0  0  0  0  0  0  0  0  0  0  0
    4.6940   -8.6891    5.6340 H   0  0  0  0  0  0  0  0  0  0  0  0
    5.9431   -7.5001    5.3639 H   0  0  0  0  0  0  0  0  0  0  0  0
    3.6448   -7.0050    6.8922 H   0  0  0  0  0  0  0  0  0  0  0  0
    4.7320   -5.7879    6.2844 H   0  0  0  0  0  0  0  0  0  0  0  0
    2.3307   -5.3105    5.5377 H   0  0  0  0  0  0  0  0  0  0  0  0
    6.6067   -5.0964    0.9848 H   0  0  0  0  0  0  0  0  0  0  0  0
    5.2087   -0.6654    0.2301 H   0  0  0  0  0  0  0  0  0  0  0  0
    6.1194   -1.7510   -0.8292 H   0  0  0  0  0  0  0  0  0  0  0  0
    4.5249    0.2876   -2.3203 H   0  0  0  0  0  0  0  0  0  0  0  0
    5.1429   -1.1405   -3.1237 H   0  0  0  0  0  0  0  0  0  0  0  0
    2.2417   -0.2517   -2.9491 H   0  0  0  0  0  0  0  0  0  0  0  0
    3.2300   -0.2199   -4.3912 H   0  0  0  0  0  0  0  0  0  0  0  0
    1.6793   -2.2276   -4.3276 H   0  0  0  0  0  0  0  0  0  0  0  0
    3.3626   -2.6826   -4.4532 H   0  0  0  0  0  0  0  0  0  0  0  0
    1.6053   -2.6883   -1.9338 H   0  0  0  0  0  0  0  0  0  0  0  0
    2.2472   -4.0700   -2.7727 H   0  0  0  0  0  0  0  0  0  0  0  0
    4.5597   -3.3842   -2.1914 H   0  0  0  0  0  0  0  0  0  0  0  0
    2.7239   -3.3287    0.2513 H   0  0  0  0  0  0  0  0  0  0  0  0
    3.4102   -5.3214   -1.0474 H   0  0  0  0  0  0  0  0  0  0  0  0
    3.6330   -2.2371    3.2519 H   0  0  0  0  0  0  0  0  0  0  0  0
    2.3051   -7.9367    5.3808 H   0  0  0  0  0  0  0  0  0  0  0  0
    0.0738   -6.4649    4.4116 H   0  0  0  0  0  0  0  0  0  0  0  0
   -0.3749   -8.5215    5.9586 H   0  0  0  0  0  0  0  0  0  0  0  0
    0.1897  -10.7345    4.6847 H   0  0  0  0  0  0  0  0  0  0  0  0
    3.2448   -1.1470   -0.9166 H   0  0  0  0  0  0  0  0  0  0  0  0
  1  2  1  0
  1 32  1  0
  1 33  1  0
  1 34  1  0
  2 29  1  0
  2  3  1  0
  2 35  1  6
  3 31  1  0
  3  4  2  0
  4  5  1  0
  4 36  1  0
  5 28  1  0
  5  6  1  0
  5 37  1  6
  6 11  1  0
  6  7  1  0
  6 38  1  6
  7  8  1  0
  7 39  1  0
  7 40  1  0
  8  9  1  0
  8 41  1  0
  8 42  1  0
  9 10  1  0
  9 28  1  0
  9 43  1  1
 10 26  2  0
 10 11  1  0
 11 12  2  0
 12 13  1  0
 12 14  1  0
 13 44  1  0
 14 15  1  0
 14 26  1  0
 15 16  2  3
 16 24  1  0
 16 17  1  0
 17 18  1  0
 17 45  1  0
 17 46  1  0
 18 23  1  0
 18 19  1  0
 18 63  1  1
 19 20  1  0
 19 47  1  0
 19 48  1  0
 20 21  1  0
 20 49  1  0
 20 50  1  0
 21 22  1  0
 21 51  1  0
 21 52  1  0
 22 23  1  0
 22 53  1  0
 22 54  1  0
 23 24  1  0
 23 55  1  6
 24 25  1  0
 24 56  1  1
 25 57  1  0
 26 27  1  0
 27 58  1  0
 28 29  1  0
 28 59  1  1
 29 30  1  0
 29 60  1  6
 30 31  2  0
 30 61  1  0
 31 62  1  0
M  CHG  1  18   1
M  END
>  <i_m_ct_stereo_status>  (231) 
1

>  <s_m_source_file>  (231) 
/var/tmp/pbs.5076255.sched01/tmppxgjifq_/8475v0iq0b.sdf

>  <i_m_source_file_index>  (231) 
13

>  <i_lp_mmshare_version>  (231) 
48012

>  <i_f3d_flags>  (231) 
0

>  <s_epik_input>  (231) 
W0NIM11bQ0BIXTFbQ0BASF0oW0NIXT1bQ0hdMilbQ0BASF0zW0NAQEhdKFtDSDJdW0NIMl00KWMoYzVbQ0BASF00W0NASF0zW0NIXT1DMTIpYyhbT0hdKW4oYzVbT0hdKS9OPUMoXFtDSDJdNilbQ0BIXShbT0hdKVtDQEhdKE42NylbQ0gyXVtDSDJdW0NIMl1bQ0gyXTc=

>  <s_epik_cmdline>  (231) 
J2VwaWtfcHl0aG9uJywgJy1waHQnLCAnMi4wJywgJy1waCcsICc3LjAnLCAnLXRuJywgJzgnLCAnLW1hJywgJzIwMCcsICctaW1hZScsICc8aW5maWxlLm1hZT4nLCAnLW9tYWUnLCAnPG91dGZpbGUubWFlPic=

>  <r_epik_Ionization_Penalty>  (231) 
1.19696

>  <r_epik_Ionization_Penalty_Charging>  (231) 
1.14714

>  <r_epik_Ionization_Penalty_Neutral>  (231) 
0.0498181

>  <r_epik_State_Penalty>  (231) 
1.21662

>  <r_epik_Charging_Adjusted_Penalty>  (231) 
2.36376

>  <i_epik_Tot_Q>  (231) 
1

>  <i_epik_Tot_abs_Q>  (231) 
1

>  <s_epik_Chemistry_Notes>  (231) 
This compound has an imine and may undergo hydrolysis.

>  <s_lp_Force_Field>  (231) 
OPLS3e

>  <r_lp_Energy>  (231) 
157.873

>  <b_lp_Chiralities_Consistent>  (231) 
1

>  <s_lp_Variant>  (231) 
63:0-4

>  <s_i_glide_gridfile>  (231) 
pfpi4k_grid

>  <i_i_glide_lignum>  (231) 
13

>  <i_i_glide_rotatable_bonds>  (231) 
4

>  <r_i_docking_score>  (231) 
-3.53952

>  <r_i_glide_ligand_efficiency>  (231) 
-0.114178

>  <r_i_glide_ligand_efficiency_sa>  (231) 
-0.358677

>  <r_i_glide_ligand_efficiency_ln>  (231) 
-0.79827

>  <r_i_glide_gscore>  (231) 
-3.53952

>  <r_i_glide_lipo>  (231) 
-0.463584

>  <r_i_glide_hbond>  (231) 
0

>  <r_i_glide_metal>  (231) 
-0

>  <r_i_glide_rewards>  (231) 
-0.587254

>  <r_i_glide_evdw>  (231) 
-29.4768

>  <r_i_glide_ecoul>  (231) 
-7.18575

>  <r_i_glide_erotb>  (231) 
0.110963

>  <r_i_glide_esite>  (231) 
-0.0479403

>  <r_i_glide_emodel>  (231) 
-43.925

>  <r_i_glide_energy>  (231) 
-36.6626

>  <r_i_glide_einternal>  (231) 
1.35979

>  <r_i_glide_intrahb_reward>  (231) 
-0

>  <i_i_glide_confnum>  (231) 
5

>  <i_i_glide_posenum>  (231) 
25

>  <r_i_glide_eff_state_penalty>  (231) 
0

>  <ligand_id>  (231) 
63

>  <original_smiles>  (231) 
CC1C2=CC3C4CCC(c5c4c(O)n(N=C4CN6CCCCC6C4O)c5O)C3C1C=C2

>  <smiles>  (231) 
[H]Oc1c2c(c(O[H])n1N=C1C([H])(O[H])C3([H])C([H])([H])C([H])([H])C([H])([H])C([H])([H])[N+]3([H])C1([H])[H])C1([H])C([H])([H])C([H])([H])C2([H])C2([H])C([H])=C3C([H])=C([H])C([H])(C3([H])C([H])([H])[H])C21[H]

$$$$
63:3:2
     RDKit          3D

 63 69  0  0  1  0  0  0  0  0999 V2000
   -0.6930   -8.1937    2.5664 C   0  0  0  0  0  0  0  0  0  0  0  0
    0.7526   -8.0325    3.1039 C   0  0  2  0  0  0  0  0  0  0  0  0
    1.3878   -9.3516    3.5569 C   0  0  0  0  0  0  0  0  0  0  0  0
    2.7501   -9.3574    3.6477 C   0  0  0  0  0  0  0  0  0  0  0  0
    3.3493   -7.9539    3.7740 C   0  0  2  0  0  0  0  0  0  0  0  0
    4.8395   -7.6034    4.0661 C   0  0  2  0  0  0  0  0  0  0  0  0
    5.1187   -7.5184    5.5959 C   0  0  0  0  0  0  0  0  0  0  0  0
    4.2779   -6.3638    6.2337 C   0  0  0  0  0  0  0  0  0  0  0  0
    3.2086   -5.8735    5.2031 C   0  0  1  0  0  0  0  0  0  0  0  0
    4.0376   -5.2983    4.0469 C   0  0  0  0  0  0  0  0  0  0  0  0
    4.9734   -6.1747    3.5143 C   0  0  0  0  0  0  0  0  0  0  0  0
    5.7027   -5.4836    2.5310 C   0  0  0  0  0  0  0  0  0  0  0  0
    6.6966   -5.9689    1.7350 O   0  0  0  0  0  0  0  0  0  0  0  0
    5.2247   -4.1499    2.4659 N   0  0  0  0  0  0  0  0  0  0  0  0
    5.6471   -3.1262    1.6333 N   0  0  0  0  0  0  0  0  0  0  0  0
    5.0506   -2.8967    0.5314 C   0  0  0  0  0  0  0  0  0  0  0  0
    5.4465   -1.7625   -0.3842 C   0  0  0  0  0  0  0  0  0  0  0  0
    4.2992   -1.6710   -1.3028 N   0  0  1  0  0  0  0  0  0  0  0  0
    4.5037   -0.9307   -2.5553 C   0  0  0  0  0  0  0  0  0  0  0  0
    3.1971   -0.8939   -3.3590 C   0  0  0  0  0  0  0  0  0  0  0  0
    2.6392   -2.3131   -3.5957 C   0  0  0  0  0  0  0  0  0  0  0  0
    2.5164   -3.0750   -2.2677 C   0  0  0  0  0  0  0  0  0  0  0  0
    3.8442   -3.0558   -1.5066 C   0  0  2  0  0  0  0  0  0  0  0  0
    3.8439   -3.6174   -0.0811 C   0  0  1  0  0  0  0  0  0  0  0  0
    3.9463   -5.0338   -0.0957 O   0  0  0  0  0  0  0  0  0  0  0  0
    4.2104   -4.0642    3.4338 C   0  0  0  0  0  0  0  0  0  0  0  0
    3.5298   -2.9170    3.7058 O   0  0  0  0  0  0  0  0  0  0  0  0
    2.4603   -7.1726    4.7854 C   0  0  1  0  0  0  0  0  0  0  0  0
    0.9096   -7.3023    4.4702 C   0  0  2  0  0  0  0  0  0  0  0  0
    0.3893   -8.4548    5.3399 C   0  0  0  0  0  0  0  0  0  0  0  0
    0.7072   -9.6449    4.7989 C   0  0  0  0  0  0  0  0  0  0  0  0
   -0.7073   -8.8439    1.6882 H   0  0  0  0  0  0  0  0  0  0  0  0
   -1.1062   -7.2345    2.2563 H   0  0  0  0  0  0  0  0  0  0  0  0
   -1.3801   -8.6288    3.2935 H   0  0  0  0  0  0  0  0  0  0  0  0
    1.2868   -7.5512    2.2874 H   0  0  0  0  0  0  0  0  0  0  0  0
    3.2119  -10.1100    4.2706 H   0  0  0  0  0  0  0  0  0  0  0  0
    3.2315   -7.5769    2.7631 H   0  0  0  0  0  0  0  0  0  0  0  0
    5.5231   -8.2745    3.5564 H   0  0  0  0  0  0  0  0  0  0  0  0
    4.9187   -8.4720    6.0877 H   0  0  0  0  0  0  0  0  0  0  0  0
    6.1730   -7.3067    5.7562 H   0  0  0  0  0  0  0  0  0  0  0  0
    3.8290   -6.6981    7.1733 H   0  0  0  0  0  0  0  0  0  0  0  0
    4.9277   -5.5300    6.4959 H   0  0  0  0  0  0  0  0  0  0  0  0
    2.5479   -5.1311    5.6451 H   0  0  0  0  0  0  0  0  0  0  0  0
    6.8561   -6.8601    2.0068 H   0  0  0  0  0  0  0  0  0  0  0  0
    5.6132   -0.8478    0.1770 H   0  0  0  0  0  0  0  0  0  0  0  0
    6.3638   -2.0369   -0.9032 H   0  0  0  0  0  0  0  0  0  0  0  0
    4.8184    0.0848   -2.3345 H   0  0  0  0  0  0  0  0  0  0  0  0
    5.2816   -1.4240   -3.1218 H   0  0  0  0  0  0  0  0  0  0  0  0
    2.4551   -0.2987   -2.8165 H   0  0  0  0  0  0  0  0  0  0  0  0
    3.3485   -0.3935   -4.3168 H   0  0  0  0  0  0  0  0  0  0  0  0
    1.6555   -2.2561   -4.0696 H   0  0  0  0  0  0  0  0  0  0  0  0
    3.2821   -2.8551   -4.2925 H   0  0  0  0  0  0  0  0  0  0  0  0
    1.7423   -2.6497   -1.6518 H   0  0  0  0  0  0  0  0  0  0  0  0
    2.1977   -4.0933   -2.4708 H   0  0  0  0  0  0  0  0  0  0  0  0
    4.5958   -3.5833   -2.0975 H   0  0  0  0  0  0  0  0  0  0  0  0
    2.9485   -3.3014    0.4659 H   0  0  0  0  0  0  0  0  0  0  0  0
    3.5812   -5.3829   -0.9022 H   0  0  0  0  0  0  0  0  0  0  0  0
    3.9116   -2.2497    3.1630 H   0  0  0  0  0  0  0  0  0  0  0  0
    2.5323   -7.7632    5.7032 H   0  0  0  0  0  0  0  0  0  0  0  0
    0.3280   -6.3866    4.5503 H   0  0  0  0  0  0  0  0  0  0  0  0
   -0.1582   -8.3031    6.2596 H   0  0  0  0  0  0  0  0  0  0  0  0
    0.4254  -10.6214    5.1858 H   0  0  0  0  0  0  0  0  0  0  0  0
    3.5488   -1.2078   -0.8057 H   0  0  0  0  0  0  0  0  0  0  0  0
  1  2  1  0
  1 32  1  0
  1 33  1  0
  1 34  1  0
  2 29  1  0
  2  3  1  0
  2 35  1  6
  3 31  1  0
  3  4  2  0
  4  5  1  0
  4 36  1  0
  5 28  1  0
  5  6  1  0
  5 37  1  6
  6 11  1  0
  6  7  1  0
  6 38  1  6
  7  8  1  0
  7 39  1  0
  7 40  1  0
  8  9  1  0
  8 41  1  0
  8 42  1  0
  9 10  1  0
  9 28  1  0
  9 43  1  1
 10 26  2  0
 10 11  1  0
 11 12  2  0
 12 13  1  0
 12 14  1  0
 13 44  1  0
 14 15  1  0
 14 26  1  0
 15 16  2  3
 16 24  1  0
 16 17  1  0
 17 18  1  0
 17 45  1  0
 17 46  1  0
 18 23  1  0
 18 19  1  0
 18 63  1  1
 19 20  1  0
 19 47  1  0
 19 48  1  0
 20 21  1  0
 20 49  1  0
 20 50  1  0
 21 22  1  0
 21 51  1  0
 21 52  1  0
 22 23  1  0
 22 53  1  0
 22 54  1  0
 23 24  1  0
 23 55  1  6
 24 25  1  0
 24 56  1  1
 25 57  1  0
 26 27  1  0
 27 58  1  0
 28 29  1  0
 28 59  1  1
 29 30  1  0
 29 60  1  6
 30 31  2  0
 30 61  1  0
 31 62  1  0
M  CHG  1  18   1
M  END
>  <i_m_ct_stereo_status>  (232) 
1

>  <s_m_source_file>  (232) 
/var/tmp/pbs.5076255.sched01/tmppxgjifq_/8475v0iq0b.sdf

>  <i_m_source_file_index>  (232) 
13

>  <i_lp_mmshare_version>  (232) 
48012

>  <i_f3d_flags>  (232) 
0

>  <s_epik_input>  (232) 
W0NIM11bQ0BIXTFbQ0BASF0oW0NIXT1bQ0hdMilbQ0BASF0zW0NAQEhdKFtDSDJdW0NIMl00KWMoYzVbQ0BASF00W0NASF0zW0NIXT1DMTIpYyhbT0hdKW4oYzVbT0hdKS9OPUMoXFtDSDJdNilbQ0BIXShbT0hdKVtDQEhdKE42NylbQ0gyXVtDSDJdW0NIMl1bQ0gyXTc=

>  <s_epik_cmdline>  (232) 
J2VwaWtfcHl0aG9uJywgJy1waHQnLCAnMi4wJywgJy1waCcsICc3LjAnLCAnLXRuJywgJzgnLCAnLW1hJywgJzIwMCcsICctaW1hZScsICc8aW5maWxlLm1hZT4nLCAnLW9tYWUnLCAnPG91dGZpbGUubWFlPic=

>  <r_epik_Ionization_Penalty>  (232) 
1.19696

>  <r_epik_Ionization_Penalty_Charging>  (232) 
1.14714

>  <r_epik_Ionization_Penalty_Neutral>  (232) 
0.0498181

>  <r_epik_State_Penalty>  (232) 
1.21662

>  <r_epik_Charging_Adjusted_Penalty>  (232) 
2.36376

>  <i_epik_Tot_Q>  (232) 
1

>  <i_epik_Tot_abs_Q>  (232) 
1

>  <s_epik_Chemistry_Notes>  (232) 
This compound has an imine and may undergo hydrolysis.

>  <s_lp_Force_Field>  (232) 
OPLS3e

>  <r_lp_Energy>  (232) 
157.873

>  <b_lp_Chiralities_Consistent>  (232) 
1

>  <s_lp_Variant>  (232) 
63:0-4

>  <s_i_glide_gridfile>  (232) 
pfpi4k_grid

>  <i_i_glide_lignum>  (232) 
13

>  <i_i_glide_rotatable_bonds>  (232) 
4

>  <r_i_docking_score>  (232) 
-3.40057

>  <r_i_glide_ligand_efficiency>  (232) 
-0.109696

>  <r_i_glide_ligand_efficiency_sa>  (232) 
-0.344596

>  <r_i_glide_ligand_efficiency_ln>  (232) 
-0.766932

>  <r_i_glide_gscore>  (232) 
-3.40057

>  <r_i_glide_lipo>  (232) 
-0.46018

>  <r_i_glide_hbond>  (232) 
0

>  <r_i_glide_metal>  (232) 
-0

>  <r_i_glide_rewards>  (232) 
-0.606382

>  <r_i_glide_evdw>  (232) 
-29.6019

>  <r_i_glide_ecoul>  (232) 
-6.17155

>  <r_i_glide_erotb>  (232) 
0.110963

>  <r_i_glide_esite>  (232) 
-0.0391415

>  <r_i_glide_emodel>  (232) 
-42.5788

>  <r_i_glide_energy>  (232) 
-35.7734

>  <r_i_glide_einternal>  (232) 
1.41784

>  <r_i_glide_intrahb_reward>  (232) 
-0

>  <i_i_glide_confnum>  (232) 
1

>  <i_i_glide_posenum>  (232) 
17

>  <r_i_glide_eff_state_penalty>  (232) 
0

>  <ligand_id>  (232) 
63

>  <original_smiles>  (232) 
CC1C2=CC3C4CCC(c5c4c(O)n(N=C4CN6CCCCC6C4O)c5O)C3C1C=C2

>  <smiles>  (232) 
[H]Oc1c2c(c(O[H])n1N=C1C([H])(O[H])C3([H])C([H])([H])C([H])([H])C([H])([H])C([H])([H])[N+]3([H])C1([H])[H])C1([H])C([H])([H])C([H])([H])C2([H])C2([H])C([H])=C3C([H])=C([H])C([H])(C3([H])C([H])([H])[H])C21[H]

$$$$
63:4:0
     RDKit          3D

 61 67  0  0  1  0  0  0  0  0999 V2000
   -0.9892   -8.4125    2.0925 C   0  0  0  0  0  0  0  0  0  0  0  0
    0.0305   -7.8616    3.1195 C   0  0  2  0  0  0  0  0  0  0  0  0
    1.4722   -8.3282    2.8906 C   0  0  0  0  0  0  0  0  0  0  0  0
    2.4504   -7.5673    3.4622 C   0  0  0  0  0  0  0  0  0  0  0  0
    1.9392   -6.7306    4.6395 C   0  0  2  0  0  0  0  0  0  0  0  0
    2.8076   -5.9205    5.6483 C   0  0  2  0  0  0  0  0  0  0  0  0
    3.2530   -6.7670    6.8718 C   0  0  0  0  0  0  0  0  0  0  0  0
    1.9974   -7.2443    7.6848 C   0  0  0  0  0  0  0  0  0  0  0  0
    0.6915   -6.9859    6.8507 C   0  0  1  0  0  0  0  0  0  0  0  0
    0.6433   -5.4614    6.7078 C   0  0  0  0  0  0  0  0  0  0  0  0
    1.8072   -4.8958    6.1945 C   0  0  0  0  0  0  0  0  0  0  0  0
    1.6957   -3.5074    6.2836 C   0  0  0  0  0  0  0  0  0  0  0  0
    2.6479   -2.6056    5.9376 O   0  0  0  0  0  0  0  0  0  0  0  0
    0.4154   -3.1870    6.7844 N   0  0  0  0  0  0  0  0  0  0  0  0
   -0.1650   -1.9389    6.9404 N   0  0  0  0  0  0  0  0  0  0  0  0
   -0.2386   -1.1181    5.9727 C   0  0  0  0  0  0  0  0  0  0  0  0
    0.2944   -1.2854    4.5597 C   0  0  0  0  0  0  0  0  0  0  0  0
    0.3937    0.0828    4.0969 N   0  0  0  0  0  0  0  0  0  0  0  0
    0.6184    0.2404    2.6678 C   0  0  0  0  0  0  0  0  0  0  0  0
    0.6791    1.7324    2.3160 C   0  0  0  0  0  0  0  0  0  0  0  0
   -0.5398    2.4929    2.8720 C   0  0  0  0  0  0  0  0  0  0  0  0
   -0.7239    2.2396    4.3665 C   0  0  0  0  0  0  0  0  0  0  0  0
   -0.8186    0.7223    4.5985 C   0  0  2  0  0  0  0  0  0  0  0  0
   -0.9041    0.2459    6.0740 C   0  0  1  0  0  0  0  0  0  0  0  0
   -2.1539    0.1524    6.4086 O   0  0  0  0  0  0  0  0  0  0  0  0
   -0.2011   -4.4142    7.0938 C   0  0  0  0  0  0  0  0  0  0  0  0
   -1.4136   -4.5040    7.7095 O   0  0  0  0  0  0  0  0  0  0  0  0
    0.9811   -7.6501    5.4689 C   0  0  1  0  0  0  0  0  0  0  0  0
   -0.0771   -8.4143    4.5648 C   0  0  2  0  0  0  0  0  0  0  0  0
    0.5164   -9.7983    4.2608 C   0  0  0  0  0  0  0  0  0  0  0  0
    1.4420   -9.7198    3.2883 C   0  0  0  0  0  0  0  0  0  0  0  0
   -0.7284   -8.0767    1.0884 H   0  0  0  0  0  0  0  0  0  0  0  0
   -2.0001   -8.0543    2.3024 H   0  0  0  0  0  0  0  0  0  0  0  0
   -1.0307   -9.5052    2.0669 H   0  0  0  0  0  0  0  0  0  0  0  0
   -0.1002   -6.7850    3.0719 H   0  0  0  0  0  0  0  0  0  0  0  0
    3.4207   -8.0152    3.6209 H   0  0  0  0  0  0  0  0  0  0  0  0
    1.4003   -5.9436    4.1157 H   0  0  0  0  0  0  0  0  0  0  0  0
    3.6398   -5.4210    5.1579 H   0  0  0  0  0  0  0  0  0  0  0  0
    3.8684   -7.6119    6.5536 H   0  0  0  0  0  0  0  0  0  0  0  0
    3.8841   -6.1553    7.5175 H   0  0  0  0  0  0  0  0  0  0  0  0
    2.1164   -8.2959    7.9561 H   0  0  0  0  0  0  0  0  0  0  0  0
    1.9426   -6.7012    8.6273 H   0  0  0  0  0  0  0  0  0  0  0  0
   -0.1913   -7.4005    7.3466 H   0  0  0  0  0  0  0  0  0  0  0  0
    3.1759   -2.9857    5.2684 H   0  0  0  0  0  0  0  0  0  0  0  0
    1.2678   -1.7359    4.5026 H   0  0  0  0  0  0  0  0  0  0  0  0
   -0.4429   -1.8602    3.9748 H   0  0  0  0  0  0  0  0  0  0  0  0
    1.5560   -0.2446    2.3953 H   0  0  0  0  0  0  0  0  0  0  0  0
   -0.1701   -0.2500    2.1059 H   0  0  0  0  0  0  0  0  0  0  0  0
    1.6028    2.1684    2.6981 H   0  0  0  0  0  0  0  0  0  0  0  0
    0.7186    1.8388    1.2315 H   0  0  0  0  0  0  0  0  0  0  0  0
   -0.4187    3.5594    2.7167 H   0  0  0  0  0  0  0  0  0  0  0  0
   -1.4300    2.1915    2.3201 H   0  0  0  0  0  0  0  0  0  0  0  0
    0.1238    2.6739    4.9055 H   0  0  0  0  0  0  0  0  0  0  0  0
   -1.6300    2.7450    4.7114 H   0  0  0  0  0  0  0  0  0  0  0  0
   -1.6635    0.3170    4.0306 H   0  0  0  0  0  0  0  0  0  0  0  0
   -0.2136    0.8560    6.6634 H   0  0  0  0  0  0  0  0  0  0  0  0
   -1.6462   -5.4104    7.8124 H   0  0  0  0  0  0  0  0  0  0  0  0
    1.6299   -8.4776    5.7638 H   0  0  0  0  0  0  0  0  0  0  0  0
   -1.0968   -8.4348    4.9476 H   0  0  0  0  0  0  0  0  0  0  0  0
    0.2103  -10.6954    4.7828 H   0  0  0  0  0  0  0  0  0  0  0  0
    2.0186  -10.5397    2.8764 H   0  0  0  0  0  0  0  0  0  0  0  0
  1  2  1  0
  1 32  1  0
  1 33  1  0
  1 34  1  0
  2 29  1  0
  2  3  1  0
  2 35  1  1
  3 31  1  0
  3  4  2  0
  4  5  1  0
  4 36  1  0
  5 28  1  0
  5  6  1  0
  5 37  1  6
  6 11  1  0
  6  7  1  0
  6 38  1  6
  7  8  1  0
  7 39  1  0
  7 40  1  0
  8  9  1  0
  8 41  1  0
  8 42  1  0
  9 10  1  0
  9 28  1  0
  9 43  1  1
 10 26  2  0
 10 11  1  0
 11 12  2  0
 12 13  1  0
 12 14  1  0
 13 44  1  0
 14 15  1  0
 14 26  1  0
 15 16  2  3
 16 24  1  0
 16 17  1  0
 17 18  1  0
 17 45  1  0
 17 46  1  0
 18 23  1  0
 18 19  1  0
 19 20  1  0
 19 47  1  0
 19 48  1  0
 20 21  1  0
 20 49  1  0
 20 50  1  0
 21 22  1  0
 21 51  1  0
 21 52  1  0
 22 23  1  0
 22 53  1  0
 22 54  1  0
 23 24  1  0
 23 55  1  6
 24 25  1  0
 24 56  1  1
 26 27  1  0
 27 57  1  0
 28 29  1  0
 28 58  1  1
 29 30  1  0
 29 59  1  1
 30 31  2  0
 30 60  1  0
 31 61  1  0
M  CHG  1  25  -1
M  END
>  <i_m_ct_stereo_status>  (233) 
1

>  <s_m_source_file>  (233) 
/var/tmp/pbs.5076255.sched01/tmppxgjifq_/8475v0iq0b.sdf

>  <i_m_source_file_index>  (233) 
14

>  <i_lp_mmshare_version>  (233) 
48012

>  <i_f3d_flags>  (233) 
0

>  <s_epik_input>  (233) 
W0NIM11bQ0BIXTFbQ0BASF0oW0NIXT1bQ0hdMilbQ0BASF0zW0NAQEhdKFtDSDJdW0NIMl00KWMoYzVbQ0BASF00W0NASF0zW0NIXT1DMTIpYyhbT0hdKW4oYzVbT0hdKS9OPUMoXFtDSDJdNilbQ0BIXShbT0hdKVtDQEhdKE42NylbQ0gyXVtDSDJdW0NIMl1bQ0gyXTc=

>  <s_epik_cmdline>  (233) 
J2VwaWtfcHl0aG9uJywgJy1waHQnLCAnMi4wJywgJy1waCcsICc3LjAnLCAnLXRuJywgJzgnLCAnLW1hJywgJzIwMCcsICctaW1hZScsICc8aW5maWxlLm1hZT4nLCAnLW9tYWUnLCAnPG91dGZpbGUubWFlPic=

>  <r_epik_Ionization_Penalty>  (233) 
3.44112

>  <r_epik_Ionization_Penalty_Charging>  (233) 
2.29327

>  <r_epik_Ionization_Penalty_Neutral>  (233) 
1.14785

>  <r_epik_State_Penalty>  (233) 
2.5248

>  <r_epik_Charging_Adjusted_Penalty>  (233) 
4.81807

>  <i_epik_Tot_Q>  (233) 
-1

>  <i_epik_Tot_abs_Q>  (233) 
1

>  <s_epik_Chemistry_Notes>  (233) 
This compound has an imine and may undergo hydrolysis.

>  <s_lp_Force_Field>  (233) 
OPLS3e

>  <r_lp_Energy>  (233) 
156.966

>  <b_lp_Chiralities_Consistent>  (233) 
1

>  <s_lp_Variant>  (233) 
63:0-5

>  <s_i_glide_gridfile>  (233) 
pfpi4k_grid

>  <i_i_glide_lignum>  (233) 
14

>  <i_i_glide_rotatable_bonds>  (233) 
3

>  <r_i_docking_score>  (233) 
-3.14328

>  <r_i_glide_ligand_efficiency>  (233) 
-0.101396

>  <r_i_glide_ligand_efficiency_sa>  (233) 
-0.318524

>  <r_i_glide_ligand_efficiency_ln>  (233) 
-0.708906

>  <r_i_glide_gscore>  (233) 
-3.14328

>  <r_i_glide_lipo>  (233) 
-0.0229384

>  <r_i_glide_hbond>  (233) 
-0.2

>  <r_i_glide_metal>  (233) 
-0

>  <r_i_glide_rewards>  (233) 
-0.541882

>  <r_i_glide_evdw>  (233) 
-27.8157

>  <r_i_glide_ecoul>  (233) 
-7.01346

>  <r_i_glide_erotb>  (233) 
0.111927

>  <r_i_glide_esite>  (233) 
-0.0475815

>  <r_i_glide_emodel>  (233) 
-42.8816

>  <r_i_glide_energy>  (233) 
-34.8292

>  <r_i_glide_einternal>  (233) 
2.48457

>  <r_i_glide_intrahb_reward>  (233) 
-0

>  <i_i_glide_confnum>  (233) 
5

>  <i_i_glide_posenum>  (233) 
9

>  <r_i_glide_eff_state_penalty>  (233) 
0

>  <ligand_id>  (233) 
63

>  <original_smiles>  (233) 
CC1C2=CC3C4CCC(c5c4c(O)n(N=C4CN6CCCCC6C4O)c5O)C3C1C=C2

>  <smiles>  (233) 
[H]Oc1c2c(c(O[H])n1N=C1C([H])([H])N3C([H])([H])C([H])([H])C([H])([H])C([H])([H])C3([H])C1([H])[O-])C1([H])C([H])([H])C([H])([H])C2([H])C2([H])C([H])=C3C([H])=C([H])C([H])(C3([H])C([H])([H])[H])C21[H]

$$$$
63:4:1
     RDKit          3D

 61 67  0  0  1  0  0  0  0  0999 V2000
   -0.9848   -7.8760    2.1779 C   0  0  0  0  0  0  0  0  0  0  0  0
    0.0205   -7.3669    3.2419 C   0  0  2  0  0  0  0  0  0  0  0  0
    1.4545   -7.8568    3.0204 C   0  0  0  0  0  0  0  0  0  0  0  0
    2.4355   -7.1360    3.6303 C   0  0  0  0  0  0  0  0  0  0  0  0
    1.9256   -6.3150    4.8194 C   0  0  2  0  0  0  0  0  0  0  0  0
    2.7979   -5.5483    5.8595 C   0  0  2  0  0  0  0  0  0  0  0  0
    3.2094   -6.4412    7.0629 C   0  0  0  0  0  0  0  0  0  0  0  0
    1.9339   -6.9109    7.8463 C   0  0  0  0  0  0  0  0  0  0  0  0
    0.6507   -6.6083    7.0039 C   0  0  1  0  0  0  0  0  0  0  0  0
    0.6271   -5.0799    6.9075 C   0  0  0  0  0  0  0  0  0  0  0  0
    1.8069   -4.5233    6.4278 C   0  0  0  0  0  0  0  0  0  0  0  0
    1.7018   -3.1467    6.5296 C   0  0  0  0  0  0  0  0  0  0  0  0
    2.6556   -2.2213    6.1960 O   0  0  0  0  0  0  0  0  0  0  0  0
    0.4287   -2.7983    7.0234 N   0  0  0  0  0  0  0  0  0  0  0  0
   -0.1141   -1.5408    7.2171 N   0  0  0  0  0  0  0  0  0  0  0  0
   -0.2694   -0.7361    6.2411 C   0  0  0  0  0  0  0  0  0  0  0  0
    0.1375   -0.9249    4.7905 C   0  0  0  0  0  0  0  0  0  0  0  0
    0.2348    0.4311    4.3085 N   0  0  0  0  0  0  0  0  0  0  0  0
    0.3386    0.5538    2.8619 C   0  0  0  0  0  0  0  0  0  0  0  0
    0.3812    2.0387    2.4808 C   0  0  0  0  0  0  0  0  0  0  0  0
   -0.7885    2.8252    3.1012 C   0  0  0  0  0  0  0  0  0  0  0  0
   -0.8551    2.5986    4.6158 C   0  0  0  0  0  0  0  0  0  0  0  0
   -0.9397    1.0867    4.8857 C   0  0  2  0  0  0  0  0  0  0  0  0
   -0.8971    0.6333    6.3546 C   0  0  1  0  0  0  0  0  0  0  0  0
   -2.1523    0.5442    6.7850 O   0  0  0  0  0  0  0  0  0  0  0  0
   -0.2059   -4.0295    7.3076 C   0  0  0  0  0  0  0  0  0  0  0  0
   -1.4281   -4.1074    7.9035 O   0  0  0  0  0  0  0  0  0  0  0  0
    0.9375   -7.2363    5.6100 C   0  0  1  0  0  0  0  0  0  0  0  0
   -0.1225   -7.9534    4.6712 C   0  0  2  0  0  0  0  0  0  0  0  0
    0.4367   -9.3441    4.3392 C   0  0  0  0  0  0  0  0  0  0  0  0
    1.3869   -9.2549    3.3813 C   0  0  0  0  0  0  0  0  0  0  0  0
   -0.7022   -7.5297    1.1802 H   0  0  0  0  0  0  0  0  0  0  0  0
   -1.9874   -7.5037    2.3868 H   0  0  0  0  0  0  0  0  0  0  0  0
   -1.0515   -8.9642    2.1260 H   0  0  0  0  0  0  0  0  0  0  0  0
   -0.0871   -6.2880    3.2159 H   0  0  0  0  0  0  0  0  0  0  0  0
    3.3934   -7.6095    3.7937 H   0  0  0  0  0  0  0  0  0  0  0  0
    1.4047   -5.5043    4.3139 H   0  0  0  0  0  0  0  0  0  0  0  0
    3.6451   -5.0483    5.3900 H   0  0  0  0  0  0  0  0  0  0  0  0
    3.8078   -7.2898    6.7270 H   0  0  0  0  0  0  0  0  0  0  0  0
    3.8411   -5.8598    7.7331 H   0  0  0  0  0  0  0  0  0  0  0  0
    2.0198   -7.9706    8.0880 H   0  0  0  0  0  0  0  0  0  0  0  0
    1.8759   -6.3905    8.8021 H   0  0  0  0  0  0  0  0  0  0  0  0
   -0.2355   -7.0098    7.4893 H   0  0  0  0  0  0  0  0  0  0  0  0
    2.2487   -1.3820    6.1760 H   0  0  0  0  0  0  0  0  0  0  0  0
    1.1075   -1.3898    4.6617 H   0  0  0  0  0  0  0  0  0  0  0  0
   -0.6333   -1.5064    4.2709 H   0  0  0  0  0  0  0  0  0  0  0  0
    1.2502    0.0580    2.5211 H   0  0  0  0  0  0  0  0  0  0  0  0
   -0.4998    0.0584    2.3794 H   0  0  0  0  0  0  0  0  0  0  0  0
    1.3312    2.4766    2.7918 H   0  0  0  0  0  0  0  0  0  0  0  0
    0.3444    2.1256    1.3979 H   0  0  0  0  0  0  0  0  0  0  0  0
   -0.6614    3.8876    2.8931 H   0  0  0  0  0  0  0  0  0  0  0  0
   -1.7238    2.5168    2.6316 H   0  0  0  0  0  0  0  0  0  0  0  0
    0.0324    3.0321    5.0829 H   0  0  0  0  0  0  0  0  0  0  0  0
   -1.7280    3.1121    5.0274 H   0  0  0  0  0  0  0  0  0  0  0  0
   -1.8207    0.6730    4.3927 H   0  0  0  0  0  0  0  0  0  0  0  0
   -0.1692    1.2428    6.8811 H   0  0  0  0  0  0  0  0  0  0  0  0
   -1.6496   -5.0214    7.9885 H   0  0  0  0  0  0  0  0  0  0  0  0
    1.5599   -8.0842    5.8952 H   0  0  0  0  0  0  0  0  0  0  0  0
   -1.1475   -7.9682    5.0368 H   0  0  0  0  0  0  0  0  0  0  0  0
    0.1056  -10.2465    4.8361 H   0  0  0  0  0  0  0  0  0  0  0  0
    1.9439  -10.0793    2.9559 H   0  0  0  0  0  0  0  0  0  0  0  0
  1  2  1  0
  1 32  1  0
  1 33  1  0
  1 34  1  0
  2 29  1  0
  2  3  1  0
  2 35  1  1
  3 31  1  0
  3  4  2  0
  4  5  1  0
  4 36  1  0
  5 28  1  0
  5  6  1  0
  5 37  1  6
  6 11  1  0
  6  7  1  0
  6 38  1  6
  7  8  1  0
  7 39  1  0
  7 40  1  0
  8  9  1  0
  8 41  1  0
  8 42  1  0
  9 10  1  0
  9 28  1  0
  9 43  1  1
 10 26  2  0
 10 11  1  0
 11 12  2  0
 12 13  1  0
 12 14  1  0
 13 44  1  0
 14 15  1  0
 14 26  1  0
 15 16  2  3
 16 24  1  0
 16 17  1  0
 17 18  1  0
 17 45  1  0
 17 46  1  0
 18 23  1  0
 18 19  1  0
 19 20  1  0
 19 47  1  0
 19 48  1  0
 20 21  1  0
 20 49  1  0
 20 50  1  0
 21 22  1  0
 21 51  1  0
 21 52  1  0
 22 23  1  0
 22 53  1  0
 22 54  1  0
 23 24  1  0
 23 55  1  6
 24 25  1  0
 24 56  1  1
 26 27  1  0
 27 57  1  0
 28 29  1  0
 28 58  1  1
 29 30  1  0
 29 59  1  1
 30 31  2  0
 30 60  1  0
 31 61  1  0
M  CHG  1  25  -1
M  END
>  <i_m_ct_stereo_status>  (234) 
1

>  <s_m_source_file>  (234) 
/var/tmp/pbs.5076255.sched01/tmppxgjifq_/8475v0iq0b.sdf

>  <i_m_source_file_index>  (234) 
14

>  <i_lp_mmshare_version>  (234) 
48012

>  <i_f3d_flags>  (234) 
0

>  <s_epik_input>  (234) 
W0NIM11bQ0BIXTFbQ0BASF0oW0NIXT1bQ0hdMilbQ0BASF0zW0NAQEhdKFtDSDJdW0NIMl00KWMoYzVbQ0BASF00W0NASF0zW0NIXT1DMTIpYyhbT0hdKW4oYzVbT0hdKS9OPUMoXFtDSDJdNilbQ0BIXShbT0hdKVtDQEhdKE42NylbQ0gyXVtDSDJdW0NIMl1bQ0gyXTc=

>  <s_epik_cmdline>  (234) 
J2VwaWtfcHl0aG9uJywgJy1waHQnLCAnMi4wJywgJy1waCcsICc3LjAnLCAnLXRuJywgJzgnLCAnLW1hJywgJzIwMCcsICctaW1hZScsICc8aW5maWxlLm1hZT4nLCAnLW9tYWUnLCAnPG91dGZpbGUubWFlPic=

>  <r_epik_Ionization_Penalty>  (234) 
3.44112

>  <r_epik_Ionization_Penalty_Charging>  (234) 
2.29327

>  <r_epik_Ionization_Penalty_Neutral>  (234) 
1.14785

>  <r_epik_State_Penalty>  (234) 
2.5248

>  <r_epik_Charging_Adjusted_Penalty>  (234) 
4.81807

>  <i_epik_Tot_Q>  (234) 
-1

>  <i_epik_Tot_abs_Q>  (234) 
1

>  <s_epik_Chemistry_Notes>  (234) 
This compound has an imine and may undergo hydrolysis.

>  <s_lp_Force_Field>  (234) 
OPLS3e

>  <r_lp_Energy>  (234) 
156.966

>  <b_lp_Chiralities_Consistent>  (234) 
1

>  <s_lp_Variant>  (234) 
63:0-5

>  <s_i_glide_gridfile>  (234) 
pfpi4k_grid

>  <i_i_glide_lignum>  (234) 
14

>  <i_i_glide_rotatable_bonds>  (234) 
3

>  <r_i_docking_score>  (234) 
-3.1199

>  <r_i_glide_ligand_efficiency>  (234) 
-0.100642

>  <r_i_glide_ligand_efficiency_sa>  (234) 
-0.316154

>  <r_i_glide_ligand_efficiency_ln>  (234) 
-0.703633

>  <r_i_glide_gscore>  (234) 
-3.1199

>  <r_i_glide_lipo>  (234) 
0

>  <r_i_glide_hbond>  (234) 
-0.202348

>  <r_i_glide_metal>  (234) 
-0

>  <r_i_glide_rewards>  (234) 
-0.541882

>  <r_i_glide_evdw>  (234) 
-25.6829

>  <r_i_glide_ecoul>  (234) 
-7.61859

>  <r_i_glide_erotb>  (234) 
0.111927

>  <r_i_glide_esite>  (234) 
-0.0606641

>  <r_i_glide_emodel>  (234) 
-42.4108

>  <r_i_glide_energy>  (234) 
-33.3015

>  <r_i_glide_einternal>  (234) 
1.13557

>  <r_i_glide_intrahb_reward>  (234) 
-0

>  <i_i_glide_confnum>  (234) 
6

>  <i_i_glide_posenum>  (234) 
38

>  <r_i_glide_eff_state_penalty>  (234) 
0

>  <ligand_id>  (234) 
63

>  <original_smiles>  (234) 
CC1C2=CC3C4CCC(c5c4c(O)n(N=C4CN6CCCCC6C4O)c5O)C3C1C=C2

>  <smiles>  (234) 
[H]Oc1c2c(c(O[H])n1N=C1C([H])([H])N3C([H])([H])C([H])([H])C([H])([H])C([H])([H])C3([H])C1([H])[O-])C1([H])C([H])([H])C([H])([H])C2([H])C2([H])C([H])=C3C([H])=C([H])C([H])(C3([H])C([H])([H])[H])C21[H]

$$$$
63:4:2
     RDKit          3D

 61 67  0  0  1  0  0  0  0  0999 V2000
   -1.2998    1.9703    2.8564 C   0  0  0  0  0  0  0  0  0  0  0  0
   -0.5123    0.8933    3.6452 C   0  0  2  0  0  0  0  0  0  0  0  0
   -1.3889    0.0595    4.5839 C   0  0  0  0  0  0  0  0  0  0  0  0
   -0.8694   -1.1340    4.9831 C   0  0  0  0  0  0  0  0  0  0  0  0
    0.6520   -1.2024    4.8451 C   0  0  2  0  0  0  0  0  0  0  0  0
    1.5818   -2.3355    5.3756 C   0  0  2  0  0  0  0  0  0  0  0  0
    2.0378   -2.0737    6.8437 C   0  0  0  0  0  0  0  0  0  0  0  0
    2.8862   -0.7606    6.9214 C   0  0  0  0  0  0  0  0  0  0  0  0
    2.7460    0.0237    5.5764 C   0  0  1  0  0  0  0  0  0  0  0  0
    3.3741   -0.9111    4.5354 C   0  0  0  0  0  0  0  0  0  0  0  0
    2.8289   -2.1852    4.4961 C   0  0  0  0  0  0  0  0  0  0  0  0
    3.5420   -2.9351    3.5389 C   0  0  0  0  0  0  0  0  0  0  0  0
    3.3061   -4.2099    3.1411 O   0  0  0  0  0  0  0  0  0  0  0  0
    4.5677   -2.1196    3.0067 N   0  0  0  0  0  0  0  0  0  0  0  0
    5.5042   -2.4450    2.0443 N   0  0  0  0  0  0  0  0  0  0  0  0
    5.1732   -2.4239    0.8192 C   0  0  0  0  0  0  0  0  0  0  0  0
    3.7913   -2.1855    0.2432 C   0  0  0  0  0  0  0  0  0  0  0  0
    3.8610   -2.8026   -1.0764 N   0  0  0  0  0  0  0  0  0  0  0  0
    2.8003   -2.4054   -1.9999 C   0  0  0  0  0  0  0  0  0  0  0  0
    2.9949   -3.0619   -3.3675 C   0  0  0  0  0  0  0  0  0  0  0  0
    4.4117   -2.8393   -3.8795 C   0  0  0  0  0  0  0  0  0  0  0  0
    5.4684   -3.1997   -2.8285 C   0  0  0  0  0  0  0  0  0  0  0  0
    5.1846   -2.4185   -1.5421 C   0  0  2  0  0  0  0  0  0  0  0  0
    6.0931   -2.7021   -0.3349 C   0  0  1  0  0  0  0  0  0  0  0  0
    7.0514   -1.8235   -0.3960 O   0  0  0  0  0  0  0  0  0  0  0  0
    4.4728   -0.8790    3.6591 C   0  0  0  0  0  0  0  0  0  0  0  0
    5.3325    0.1417    3.4408 O   0  0  0  0  0  0  0  0  0  0  0  0
    1.2106    0.1587    5.3638 C   0  0  1  0  0  0  0  0  0  0  0  0
    0.4581    1.4098    4.7444 C   0  0  2  0  0  0  0  0  0  0  0  0
   -0.6252    1.8052    5.7534 C   0  0  0  0  0  0  0  0  0  0  0  0
   -1.6770    0.9714    5.6686 C   0  0  0  0  0  0  0  0  0  0  0  0
   -2.0533    1.5102    2.2110 H   0  0  0  0  0  0  0  0  0  0  0  0
   -0.6357    2.5344    2.1975 H   0  0  0  0  0  0  0  0  0  0  0  0
   -1.8205    2.6935    3.4880 H   0  0  0  0  0  0  0  0  0  0  0  0
   -0.0159    0.3125    2.8718 H   0  0  0  0  0  0  0  0  0  0  0  0
   -1.2540   -1.6009    5.8770 H   0  0  0  0  0  0  0  0  0  0  0  0
    0.7720   -1.3049    3.7700 H   0  0  0  0  0  0  0  0  0  0  0  0
    1.1423   -3.3208    5.2478 H   0  0  0  0  0  0  0  0  0  0  0  0
    1.1825   -2.0334    7.5208 H   0  0  0  0  0  0  0  0  0  0  0  0
    2.6530   -2.9044    7.1786 H   0  0  0  0  0  0  0  0  0  0  0  0
    2.5827   -0.1644    7.7838 H   0  0  0  0  0  0  0  0  0  0  0  0
    3.9337   -1.0032    7.0862 H   0  0  0  0  0  0  0  0  0  0  0  0
    3.2488    0.9892    5.6287 H   0  0  0  0  0  0  0  0  0  0  0  0
    2.5928   -4.5445    3.6563 H   0  0  0  0  0  0  0  0  0  0  0  0
    3.0056   -2.6483    0.8469 H   0  0  0  0  0  0  0  0  0  0  0  0
    3.5999   -1.1082    0.1974 H   0  0  0  0  0  0  0  0  0  0  0  0
    1.8417   -2.7239   -1.5899 H   0  0  0  0  0  0  0  0  0  0  0  0
    2.7587   -1.3197   -2.1084 H   0  0  0  0  0  0  0  0  0  0  0  0
    2.8166   -4.1273   -3.2903 H   0  0  0  0  0  0  0  0  0  0  0  0
    2.2569   -2.6999   -4.0822 H   0  0  0  0  0  0  0  0  0  0  0  0
    4.5738   -3.4834   -4.7346 H   0  0  0  0  0  0  0  0  0  0  0  0
    4.5278   -1.8021   -4.1944 H   0  0  0  0  0  0  0  0  0  0  0  0
    5.4436   -4.2764   -2.6493 H   0  0  0  0  0  0  0  0  0  0  0  0
    6.4638   -2.9674   -3.2087 H   0  0  0  0  0  0  0  0  0  0  0  0
    5.1825   -1.3411   -1.7530 H   0  0  0  0  0  0  0  0  0  0  0  0
    6.2665   -3.7750   -0.2883 H   0  0  0  0  0  0  0  0  0  0  0  0
    4.9349    0.9291    3.7914 H   0  0  0  0  0  0  0  0  0  0  0  0
    0.8627    0.1998    6.3974 H   0  0  0  0  0  0  0  0  0  0  0  0
    1.0863    2.2363    4.4177 H   0  0  0  0  0  0  0  0  0  0  0  0
   -0.5267    2.6437    6.4326 H   0  0  0  0  0  0  0  0  0  0  0  0
   -2.5887    1.0510    6.2448 H   0  0  0  0  0  0  0  0  0  0  0  0
  1  2  1  0
  1 32  1  0
  1 33  1  0
  1 34  1  0
  2 29  1  0
  2  3  1  0
  2 35  1  6
  3 31  1  0
  3  4  2  0
  4  5  1  0
  4 36  1  0
  5 28  1  0
  5  6  1  0
  5 37  1  6
  6 11  1  0
  6  7  1  0
  6 38  1  1
  7  8  1  0
  7 39  1  0
  7 40  1  0
  8  9  1  0
  8 41  1  0
  8 42  1  0
  9 10  1  0
  9 28  1  0
  9 43  1  1
 10 26  2  0
 10 11  1  0
 11 12  2  0
 12 13  1  0
 12 14  1  0
 13 44  1  0
 14 15  1  0
 14 26  1  0
 15 16  2  3
 16 24  1  0
 16 17  1  0
 17 18  1  0
 17 45  1  0
 17 46  1  0
 18 23  1  0
 18 19  1  0
 19 20  1  0
 19 47  1  0
 19 48  1  0
 20 21  1  0
 20 49  1  0
 20 50  1  0
 21 22  1  0
 21 51  1  0
 21 52  1  0
 22 23  1  0
 22 53  1  0
 22 54  1  0
 23 24  1  0
 23 55  1  6
 24 25  1  0
 24 56  1  6
 26 27  1  0
 27 57  1  0
 28 29  1  0
 28 58  1  1
 29 30  1  0
 29 59  1  6
 30 31  2  0
 30 60  1  0
 31 61  1  0
M  CHG  1  25  -1
M  END
>  <i_m_ct_stereo_status>  (235) 
1

>  <s_m_source_file>  (235) 
/var/tmp/pbs.5076255.sched01/tmppxgjifq_/8475v0iq0b.sdf

>  <i_m_source_file_index>  (235) 
14

>  <i_lp_mmshare_version>  (235) 
48012

>  <i_f3d_flags>  (235) 
0

>  <s_epik_input>  (235) 
W0NIM11bQ0BIXTFbQ0BASF0oW0NIXT1bQ0hdMilbQ0BASF0zW0NAQEhdKFtDSDJdW0NIMl00KWMoYzVbQ0BASF00W0NASF0zW0NIXT1DMTIpYyhbT0hdKW4oYzVbT0hdKS9OPUMoXFtDSDJdNilbQ0BIXShbT0hdKVtDQEhdKE42NylbQ0gyXVtDSDJdW0NIMl1bQ0gyXTc=

>  <s_epik_cmdline>  (235) 
J2VwaWtfcHl0aG9uJywgJy1waHQnLCAnMi4wJywgJy1waCcsICc3LjAnLCAnLXRuJywgJzgnLCAnLW1hJywgJzIwMCcsICctaW1hZScsICc8aW5maWxlLm1hZT4nLCAnLW9tYWUnLCAnPG91dGZpbGUubWFlPic=

>  <r_epik_Ionization_Penalty>  (235) 
3.44112

>  <r_epik_Ionization_Penalty_Charging>  (235) 
2.29327

>  <r_epik_Ionization_Penalty_Neutral>  (235) 
1.14785

>  <r_epik_State_Penalty>  (235) 
2.5248

>  <r_epik_Charging_Adjusted_Penalty>  (235) 
4.81807

>  <i_epik_Tot_Q>  (235) 
-1

>  <i_epik_Tot_abs_Q>  (235) 
1

>  <s_epik_Chemistry_Notes>  (235) 
This compound has an imine and may undergo hydrolysis.

>  <s_lp_Force_Field>  (235) 
OPLS3e

>  <r_lp_Energy>  (235) 
156.966

>  <b_lp_Chiralities_Consistent>  (235) 
1

>  <s_lp_Variant>  (235) 
63:0-5

>  <s_i_glide_gridfile>  (235) 
pfpi4k_grid

>  <i_i_glide_lignum>  (235) 
14

>  <i_i_glide_rotatable_bonds>  (235) 
3

>  <r_i_docking_score>  (235) 
-3.01323

>  <r_i_glide_ligand_efficiency>  (235) 
-0.0972008

>  <r_i_glide_ligand_efficiency_sa>  (235) 
-0.305345

>  <r_i_glide_ligand_efficiency_ln>  (235) 
-0.679575

>  <r_i_glide_gscore>  (235) 
-3.01323

>  <r_i_glide_lipo>  (235) 
-0.484416

>  <r_i_glide_hbond>  (235) 
-0.22529

>  <r_i_glide_metal>  (235) 
-0

>  <r_i_glide_rewards>  (235) 
-0.633308

>  <r_i_glide_evdw>  (235) 
-31.817

>  <r_i_glide_ecoul>  (235) 
-1.27526

>  <r_i_glide_erotb>  (235) 
0.111927

>  <r_i_glide_esite>  (235) 
0

>  <r_i_glide_emodel>  (235) 
-42.199

>  <r_i_glide_energy>  (235) 
-33.0923

>  <r_i_glide_einternal>  (235) 
0.627675

>  <r_i_glide_intrahb_reward>  (235) 
-0

>  <i_i_glide_confnum>  (235) 
6

>  <i_i_glide_posenum>  (235) 
29

>  <r_i_glide_eff_state_penalty>  (235) 
0

>  <ligand_id>  (235) 
63

>  <original_smiles>  (235) 
CC1C2=CC3C4CCC(c5c4c(O)n(N=C4CN6CCCCC6C4O)c5O)C3C1C=C2

>  <smiles>  (235) 
[H]Oc1c2c(c(O[H])n1N=C1C([H])([H])N3C([H])([H])C([H])([H])C([H])([H])C([H])([H])C3([H])C1([H])[O-])C1([H])C([H])([H])C([H])([H])C2([H])C2([H])C([H])=C3C([H])=C([H])C([H])(C3([H])C([H])([H])[H])C21[H]

$$$$
63:5:0
     RDKit          3D

 61 67  0  0  1  0  0  0  0  0999 V2000
   -0.9325    2.5905   10.5358 C   0  0  0  0  0  0  0  0  0  0  0  0
   -0.7527    2.8687    9.0258 C   0  0  2  0  0  0  0  0  0  0  0  0
   -1.1664    4.2830    8.5873 C   0  0  0  0  0  0  0  0  0  0  0  0
   -0.6233    4.7276    7.4215 C   0  0  0  0  0  0  0  0  0  0  0  0
   -0.2028    3.5949    6.4863 C   0  0  2  0  0  0  0  0  0  0  0  0
    0.2287    3.7489    4.9987 C   0  0  2  0  0  0  0  0  0  0  0  0
   -0.9787    3.6248    4.0229 C   0  0  0  0  0  0  0  0  0  0  0  0
   -1.6456    2.2045    4.1443 C   0  0  0  0  0  0  0  0  0  0  0  0
   -1.1082    1.4666    5.4214 C   0  0  1  0  0  0  0  0  0  0  0  0
    0.3926    1.3087    5.1478 C   0  0  0  0  0  0  0  0  0  0  0  0
    1.0444    2.4674    4.7960 C   0  0  0  0  0  0  0  0  0  0  0  0
    2.3649    2.1258    4.4166 C   0  0  0  0  0  0  0  0  0  0  0  0
    3.3681    2.9711    4.1274 O   0  0  0  0  0  0  0  0  0  0  0  0
    2.4838    0.7278    4.4784 N   0  0  0  0  0  0  0  0  0  0  0  0
    3.6466    0.0187    4.1280 N   0  0  0  0  0  0  0  0  0  0  0  0
    3.7474   -0.8175    3.1524 C   0  0  0  0  0  0  0  0  0  0  0  0
    5.0151   -1.5045    2.7970 C   0  0  0  0  0  0  0  0  0  0  0  0
    4.8332   -1.9108    1.4081 N   0  0  0  0  0  0  0  0  0  0  0  0
    5.7909   -2.9107    0.9369 C   0  0  0  0  0  0  0  0  0  0  0  0
    5.4543   -3.2838   -0.5223 C   0  0  0  0  0  0  0  0  0  0  0  0
    3.9868   -3.7064   -0.6836 C   0  0  0  0  0  0  0  0  0  0  0  0
    3.0524   -2.6500   -0.0767 C   0  0  0  0  0  0  0  0  0  0  0  0
    3.4834   -2.3896    1.3712 C   0  0  2  0  0  0  0  0  0  0  0  0
    2.7006   -1.3371    2.1890 C   0  0  1  0  0  0  0  0  0  0  0  0
    1.7410   -1.9098    2.8693 O   0  0  0  0  0  0  0  0  0  0  0  0
    1.2793    0.2263    4.9631 C   0  0  0  0  0  0  0  0  0  0  0  0
    1.0074   -1.0650    5.1620 O   0  0  0  0  0  0  0  0  0  0  0  0
   -1.3241    2.4939    6.5651 C   0  0  1  0  0  0  0  0  0  0  0  0
   -1.7241    2.1379    8.0492 C   0  0  2  0  0  0  0  0  0  0  0  0
   -2.9665    2.9841    8.3892 C   0  0  0  0  0  0  0  0  0  0  0  0
   -2.5960    4.2479    8.6848 C   0  0  0  0  0  0  0  0  0  0  0  0
   -0.3085    3.2632   11.1193 H   0  0  0  0  0  0  0  0  0  0  0  0
   -0.6284    1.5740   10.7813 H   0  0  0  0  0  0  0  0  0  0  0  0
   -1.9539    2.7172   10.8747 H   0  0  0  0  0  0  0  0  0  0  0  0
    0.2947    2.6414    8.8305 H   0  0  0  0  0  0  0  0  0  0  0  0
   -1.1158    5.5439    6.9149 H   0  0  0  0  0  0  0  0  0  0  0  0
    0.7090    3.2595    6.9658 H   0  0  0  0  0  0  0  0  0  0  0  0
    0.8372    4.6193    4.8257 H   0  0  0  0  0  0  0  0  0  0  0  0
   -1.7050    4.4210    4.2094 H   0  0  0  0  0  0  0  0  0  0  0  0
   -0.6261    3.7505    3.0025 H   0  0  0  0  0  0  0  0  0  0  0  0
   -2.7366    2.3070    4.1608 H   0  0  0  0  0  0  0  0  0  0  0  0
   -1.4190    1.6173    3.2579 H   0  0  0  0  0  0  0  0  0  0  0  0
   -1.5964    0.5204    5.5703 H   0  0  0  0  0  0  0  0  0  0  0  0
    3.9516    2.5271    3.5006 H   0  0  0  0  0  0  0  0  0  0  0  0
    5.8363   -0.8166    2.9127 H   0  0  0  0  0  0  0  0  0  0  0  0
    5.1675   -2.3611    3.4564 H   0  0  0  0  0  0  0  0  0  0  0  0
    6.8053   -2.4900    0.9993 H   0  0  0  0  0  0  0  0  0  0  0  0
    5.7664   -3.7917    1.5904 H   0  0  0  0  0  0  0  0  0  0  0  0
    5.6458   -2.4272   -1.1579 H   0  0  0  0  0  0  0  0  0  0  0  0
    6.1133   -4.0889   -0.8494 H   0  0  0  0  0  0  0  0  0  0  0  0
    3.7510   -3.8548   -1.7429 H   0  0  0  0  0  0  0  0  0  0  0  0
    3.8197   -4.6723   -0.1882 H   0  0  0  0  0  0  0  0  0  0  0  0
    3.0983   -1.7343   -0.6738 H   0  0  0  0  0  0  0  0  0  0  0  0
    2.0249   -3.0123   -0.1380 H   0  0  0  0  0  0  0  0  0  0  0  0
    3.4157   -3.3162    1.9311 H   0  0  0  0  0  0  0  0  0  0  0  0
    2.5207   -0.4707    1.4872 H   0  0  0  0  0  0  0  0  0  0  0  0
    1.6334   -1.5787    4.6096 H   0  0  0  0  0  0  0  0  0  0  0  0
   -2.2200    3.0050    6.2217 H   0  0  0  0  0  0  0  0  0  0  0  0
   -1.8346    1.0768    8.2745 H   0  0  0  0  0  0  0  0  0  0  0  0
   -3.9685    2.5890    8.3634 H   0  0  0  0  0  0  0  0  0  0  0  0
   -3.2618    5.0494    8.9657 H   0  0  0  0  0  0  0  0  0  0  0  0
  1  2  1  0
  1 32  1  0
  1 33  1  0
  1 34  1  0
  2 29  1  0
  2  3  1  0
  2 35  1  6
  3 31  1  0
  3  4  2  0
  4  5  1  0
  4 36  1  0
  5 28  1  0
  5  6  1  0
  5 37  1  1
  6 11  1  0
  6  7  1  0
  6 38  1  1
  7  8  1  0
  7 39  1  0
  7 40  1  0
  8  9  1  0
  8 41  1  0
  8 42  1  0
  9 10  1  0
  9 28  1  0
  9 43  1  1
 10 26  2  0
 10 11  1  0
 11 12  2  0
 12 13  1  0
 12 14  1  0
 13 44  1  0
 14 15  1  0
 14 26  1  0
 15 16  2  3
 16 24  1  0
 16 17  1  0
 17 18  1  0
 17 45  1  0
 17 46  1  0
 18 23  1  0
 18 19  1  0
 19 20  1  0
 19 47  1  0
 19 48  1  0
 20 21  1  0
 20 49  1  0
 20 50  1  0
 21 22  1  0
 21 51  1  0
 21 52  1  0
 22 23  1  0
 22 53  1  0
 22 54  1  0
 23 24  1  0
 23 55  1  1
 24 25  1  0
 24 56  1  6
 26 27  1  0
 27 57  1  0
 28 29  1  0
 28 58  1  6
 29 30  1  0
 29 59  1  6
 30 31  2  0
 30 60  1  0
 31 61  1  0
M  CHG  1  25  -1
M  END
>  <i_m_ct_stereo_status>  (236) 
1

>  <s_m_source_file>  (236) 
/var/tmp/pbs.5076255.sched01/tmppxgjifq_/8475v0iq0b.sdf

>  <i_m_source_file_index>  (236) 
15

>  <i_lp_mmshare_version>  (236) 
48012

>  <i_f3d_flags>  (236) 
0

>  <s_epik_input>  (236) 
W0NIM11bQ0BIXTFbQ0BASF0oW0NIXT1bQ0hdMilbQ0BASF0zW0NAQEhdKFtDSDJdW0NIMl00KWMoYzVbQ0BASF00W0NASF0zW0NIXT1DMTIpYyhbT0hdKW4oYzVbT0hdKS9OPUMoXFtDSDJdNilbQ0BIXShbT0hdKVtDQEhdKE42NylbQ0gyXVtDSDJdW0NIMl1bQ0gyXTc=

>  <s_epik_cmdline>  (236) 
J2VwaWtfcHl0aG9uJywgJy1waHQnLCAnMi4wJywgJy1waCcsICc3LjAnLCAnLXRuJywgJzgnLCAnLW1hJywgJzIwMCcsICctaW1hZScsICc8aW5maWxlLm1hZT4nLCAnLW9tYWUnLCAnPG91dGZpbGUubWFlPic=

>  <r_epik_Ionization_Penalty>  (236) 
3.44112

>  <r_epik_Ionization_Penalty_Charging>  (236) 
2.29327

>  <r_epik_Ionization_Penalty_Neutral>  (236) 
1.14785

>  <r_epik_State_Penalty>  (236) 
2.5248

>  <r_epik_Charging_Adjusted_Penalty>  (236) 
4.81807

>  <i_epik_Tot_Q>  (236) 
-1

>  <i_epik_Tot_abs_Q>  (236) 
1

>  <s_epik_Chemistry_Notes>  (236) 
This compound has an imine and may undergo hydrolysis.

>  <s_lp_Force_Field>  (236) 
OPLS3e

>  <r_lp_Energy>  (236) 
162.92

>  <b_lp_Chiralities_Consistent>  (236) 
1

>  <s_lp_Variant>  (236) 
63:0-6

>  <s_i_glide_gridfile>  (236) 
pfpi4k_grid

>  <i_i_glide_lignum>  (236) 
15

>  <i_i_glide_rotatable_bonds>  (236) 
3

>  <r_i_docking_score>  (236) 
-2.93747

>  <r_i_glide_ligand_efficiency>  (236) 
-0.094757

>  <r_i_glide_ligand_efficiency_sa>  (236) 
-0.297668

>  <r_i_glide_ligand_efficiency_ln>  (236) 
-0.662489

>  <r_i_glide_gscore>  (236) 
-2.93747

>  <r_i_glide_lipo>  (236) 
-0.368314

>  <r_i_glide_hbond>  (236) 
-0.251031

>  <r_i_glide_metal>  (236) 
-0

>  <r_i_glide_rewards>  (236) 
-1.05711

>  <r_i_glide_evdw>  (236) 
-30.5513

>  <r_i_glide_ecoul>  (236) 
1.03166

>  <r_i_glide_erotb>  (236) 
0.111927

>  <r_i_glide_esite>  (236) 
-0.000123787

>  <r_i_glide_emodel>  (236) 
-39.2046

>  <r_i_glide_energy>  (236) 
-29.5196

>  <r_i_glide_einternal>  (236) 
1.9825

>  <r_i_glide_intrahb_reward>  (236) 
-0.5

>  <i_i_glide_confnum>  (236) 
4

>  <i_i_glide_posenum>  (236) 
40

>  <r_i_glide_eff_state_penalty>  (236) 
0

>  <ligand_id>  (236) 
63

>  <original_smiles>  (236) 
CC1C2=CC3C4CCC(c5c4c(O)n(N=C4CN6CCCCC6C4O)c5O)C3C1C=C2

>  <smiles>  (236) 
[H]Oc1c2c(c(O[H])n1N=C1C([H])([H])N3C([H])([H])C([H])([H])C([H])([H])C([H])([H])C3([H])C1([H])[O-])C1([H])C([H])([H])C([H])([H])C2([H])C2([H])C([H])=C3C([H])=C([H])C([H])(C3([H])C([H])([H])[H])C21[H]

$$$$
63:5:1
     RDKit          3D

 61 67  0  0  1  0  0  0  0  0999 V2000
    3.0093   -3.0472   -1.3071 C   0  0  0  0  0  0  0  0  0  0  0  0
    3.3575   -2.5013    0.0989 C   0  0  2  0  0  0  0  0  0  0  0  0
    4.8640   -2.3091    0.3132 C   0  0  0  0  0  0  0  0  0  0  0  0
    5.2108   -1.4814    1.3356 C   0  0  0  0  0  0  0  0  0  0  0  0
    4.0955   -1.2910    2.3656 C   0  0  2  0  0  0  0  0  0  0  0  0
    4.2139   -0.5544    3.7305 C   0  0  2  0  0  0  0  0  0  0  0  0
    4.6667   -1.5158    4.8700 C   0  0  0  0  0  0  0  0  0  0  0  0
    3.6019   -2.6346    5.0858 C   0  0  0  0  0  0  0  0  0  0  0  0
    2.5843   -2.6176    3.8979 C   0  0  1  0  0  0  0  0  0  0  0  0
    1.8879   -1.2510    4.0149 C   0  0  0  0  0  0  0  0  0  0  0  0
    2.7563   -0.1726    4.0320 C   0  0  0  0  0  0  0  0  0  0  0  0
    2.0047    0.9924    4.2673 C   0  0  0  0  0  0  0  0  0  0  0  0
    2.4614    2.2753    4.3340 O   0  0  0  0  0  0  0  0  0  0  0  0
    0.6590    0.6230    4.4661 N   0  0  0  0  0  0  0  0  0  0  0  0
   -0.4001    1.4830    4.7462 N   0  0  0  0  0  0  0  0  0  0  0  0
   -0.8123    1.7133    5.9296 C   0  0  0  0  0  0  0  0  0  0  0  0
   -1.8546    2.7588    6.1958 C   0  0  0  0  0  0  0  0  0  0  0  0
   -1.6655    3.1107    7.5998 N   0  0  0  0  0  0  0  0  0  0  0  0
   -2.8115    3.7950    8.1962 C   0  0  0  0  0  0  0  0  0  0  0  0
   -2.5109    4.0806    9.6766 C   0  0  0  0  0  0  0  0  0  0  0  0
   -2.0949    2.8095   10.4291 C   0  0  0  0  0  0  0  0  0  0  0  0
   -0.9554    2.0878    9.6871 C   0  0  0  0  0  0  0  0  0  0  0  0
   -1.3871    1.8303    8.2296 C   0  0  2  0  0  0  0  0  0  0  0  0
   -0.3690    1.1786    7.2779 C   0  0  1  0  0  0  0  0  0  0  0  0
   -0.5791   -0.1030    7.3590 O   0  0  0  0  0  0  0  0  0  0  0  0
    0.5907   -0.7760    4.2954 C   0  0  0  0  0  0  0  0  0  0  0  0
   -0.5497   -1.5161    4.4356 O   0  0  0  0  0  0  0  0  0  0  0  0
    3.4786   -2.6926    2.6271 C   0  0  1  0  0  0  0  0  0  0  0  0
    3.1380   -3.4721    1.2939 C   0  0  2  0  0  0  0  0  0  0  0  0
    4.3443   -4.3738    1.0069 C   0  0  0  0  0  0  0  0  0  0  0  0
    5.3530   -3.6556    0.4704 C   0  0  0  0  0  0  0  0  0  0  0  0
    3.3260   -2.3497   -2.0869 H   0  0  0  0  0  0  0  0  0  0  0  0
    1.9294   -3.1627   -1.4226 H   0  0  0  0  0  0  0  0  0  0  0  0
    3.4651   -4.0135   -1.5289 H   0  0  0  0  0  0  0  0  0  0  0  0
    2.7818   -1.5819    0.1778 H   0  0  0  0  0  0  0  0  0  0  0  0
    6.1993   -1.5626    1.7671 H   0  0  0  0  0  0  0  0  0  0  0  0
    3.4084   -0.6378    1.8301 H   0  0  0  0  0  0  0  0  0  0  0  0
    4.8297    0.3358    3.6725 H   0  0  0  0  0  0  0  0  0  0  0  0
    5.6494   -1.9387    4.6581 H   0  0  0  0  0  0  0  0  0  0  0  0
    4.7747   -0.9522    5.7948 H   0  0  0  0  0  0  0  0  0  0  0  0
    4.0915   -3.6030    5.1975 H   0  0  0  0  0  0  0  0  0  0  0  0
    3.0706   -2.4685    6.0233 H   0  0  0  0  0  0  0  0  0  0  0  0
    1.8826   -3.4406    3.9759 H   0  0  0  0  0  0  0  0  0  0  0  0
    3.3149    2.2947    3.9292 H   0  0  0  0  0  0  0  0  0  0  0  0
   -1.7147    3.6171    5.5377 H   0  0  0  0  0  0  0  0  0  0  0  0
   -2.8286    2.3134    5.9967 H   0  0  0  0  0  0  0  0  0  0  0  0
   -2.9624    4.7367    7.6787 H   0  0  0  0  0  0  0  0  0  0  0  0
   -3.7252    3.2111    8.0925 H   0  0  0  0  0  0  0  0  0  0  0  0
   -1.7039    4.8111    9.7557 H   0  0  0  0  0  0  0  0  0  0  0  0
   -3.3844    4.5217   10.1527 H   0  0  0  0  0  0  0  0  0  0  0  0
   -1.7793    3.0529   11.4440 H   0  0  0  0  0  0  0  0  0  0  0  0
   -2.9556    2.1435   10.5271 H   0  0  0  0  0  0  0  0  0  0  0  0
   -0.0480    2.6997    9.7220 H   0  0  0  0  0  0  0  0  0  0  0  0
   -0.7337    1.1512   10.1995 H   0  0  0  0  0  0  0  0  0  0  0  0
   -2.3106    1.2424    8.2211 H   0  0  0  0  0  0  0  0  0  0  0  0
    0.5952    1.6500    7.4591 H   0  0  0  0  0  0  0  0  0  0  0  0
   -0.3074   -2.4198    4.2917 H   0  0  0  0  0  0  0  0  0  0  0  0
    4.3204   -3.2761    3.0032 H   0  0  0  0  0  0  0  0  0  0  0  0
    2.1813   -3.9902    1.2712 H   0  0  0  0  0  0  0  0  0  0  0  0
    4.3458   -5.4337    1.2085 H   0  0  0  0  0  0  0  0  0  0  0  0
    6.3002   -4.0612    0.1230 H   0  0  0  0  0  0  0  0  0  0  0  0
  1  2  1  0
  1 32  1  0
  1 33  1  0
  1 34  1  0
  2 29  1  0
  2  3  1  0
  2 35  1  1
  3 31  1  0
  3  4  2  0
  4  5  1  0
  4 36  1  0
  5 28  1  0
  5  6  1  0
  5 37  1  6
  6 11  1  0
  6  7  1  0
  6 38  1  6
  7  8  1  0
  7 39  1  0
  7 40  1  0
  8  9  1  0
  8 41  1  0
  8 42  1  0
  9 10  1  0
  9 28  1  0
  9 43  1  1
 10 26  2  0
 10 11  1  0
 11 12  2  0
 12 13  1  0
 12 14  1  0
 13 44  1  0
 14 15  1  0
 14 26  1  0
 15 16  2  3
 16 24  1  0
 16 17  1  0
 17 18  1  0
 17 45  1  0
 17 46  1  0
 18 23  1  0
 18 19  1  0
 19 20  1  0
 19 47  1  0
 19 48  1  0
 20 21  1  0
 20 49  1  0
 20 50  1  0
 21 22  1  0
 21 51  1  0
 21 52  1  0
 22 23  1  0
 22 53  1  0
 22 54  1  0
 23 24  1  0
 23 55  1  1
 24 25  1  0
 24 56  1  1
 26 27  1  0
 27 57  1  0
 28 29  1  0
 28 58  1  1
 29 30  1  0
 29 59  1  1
 30 31  2  0
 30 60  1  0
 31 61  1  0
M  CHG  1  25  -1
M  END
>  <i_m_ct_stereo_status>  (237) 
1

>  <s_m_source_file>  (237) 
/var/tmp/pbs.5076255.sched01/tmppxgjifq_/8475v0iq0b.sdf

>  <i_m_source_file_index>  (237) 
15

>  <i_lp_mmshare_version>  (237) 
48012

>  <i_f3d_flags>  (237) 
0

>  <s_epik_input>  (237) 
W0NIM11bQ0BIXTFbQ0BASF0oW0NIXT1bQ0hdMilbQ0BASF0zW0NAQEhdKFtDSDJdW0NIMl00KWMoYzVbQ0BASF00W0NASF0zW0NIXT1DMTIpYyhbT0hdKW4oYzVbT0hdKS9OPUMoXFtDSDJdNilbQ0BIXShbT0hdKVtDQEhdKE42NylbQ0gyXVtDSDJdW0NIMl1bQ0gyXTc=

>  <s_epik_cmdline>  (237) 
J2VwaWtfcHl0aG9uJywgJy1waHQnLCAnMi4wJywgJy1waCcsICc3LjAnLCAnLXRuJywgJzgnLCAnLW1hJywgJzIwMCcsICctaW1hZScsICc8aW5maWxlLm1hZT4nLCAnLW9tYWUnLCAnPG91dGZpbGUubWFlPic=

>  <r_epik_Ionization_Penalty>  (237) 
3.44112

>  <r_epik_Ionization_Penalty_Charging>  (237) 
2.29327

>  <r_epik_Ionization_Penalty_Neutral>  (237) 
1.14785

>  <r_epik_State_Penalty>  (237) 
2.5248

>  <r_epik_Charging_Adjusted_Penalty>  (237) 
4.81807

>  <i_epik_Tot_Q>  (237) 
-1

>  <i_epik_Tot_abs_Q>  (237) 
1

>  <s_epik_Chemistry_Notes>  (237) 
This compound has an imine and may undergo hydrolysis.

>  <s_lp_Force_Field>  (237) 
OPLS3e

>  <r_lp_Energy>  (237) 
162.92

>  <b_lp_Chiralities_Consistent>  (237) 
1

>  <s_lp_Variant>  (237) 
63:0-6

>  <s_i_glide_gridfile>  (237) 
pfpi4k_grid

>  <i_i_glide_lignum>  (237) 
15

>  <i_i_glide_rotatable_bonds>  (237) 
3

>  <r_i_docking_score>  (237) 
-2.67933

>  <r_i_glide_ligand_efficiency>  (237) 
-0.0864302

>  <r_i_glide_ligand_efficiency_sa>  (237) 
-0.27151

>  <r_i_glide_ligand_efficiency_ln>  (237) 
-0.604272

>  <r_i_glide_gscore>  (237) 
-2.67933

>  <r_i_glide_lipo>  (237) 
-0.403484

>  <r_i_glide_hbond>  (237) 
-0.0708536

>  <r_i_glide_metal>  (237) 
-0

>  <r_i_glide_rewards>  (237) 
-0.541882

>  <r_i_glide_evdw>  (237) 
-28.1531

>  <r_i_glide_ecoul>  (237) 
-2.33717

>  <r_i_glide_erotb>  (237) 
0.111927

>  <r_i_glide_esite>  (237) 
-0.0168108

>  <r_i_glide_emodel>  (237) 
-36.6954

>  <r_i_glide_energy>  (237) 
-30.4903

>  <r_i_glide_einternal>  (237) 
0.756241

>  <r_i_glide_intrahb_reward>  (237) 
-0

>  <i_i_glide_confnum>  (237) 
4

>  <i_i_glide_posenum>  (237) 
10

>  <r_i_glide_eff_state_penalty>  (237) 
0

>  <ligand_id>  (237) 
63

>  <original_smiles>  (237) 
CC1C2=CC3C4CCC(c5c4c(O)n(N=C4CN6CCCCC6C4O)c5O)C3C1C=C2

>  <smiles>  (237) 
[H]Oc1c2c(c(O[H])n1N=C1C([H])([H])N3C([H])([H])C([H])([H])C([H])([H])C([H])([H])C3([H])C1([H])[O-])C1([H])C([H])([H])C([H])([H])C2([H])C2([H])C([H])=C3C([H])=C([H])C([H])(C3([H])C([H])([H])[H])C21[H]

$$$$
63:5:2
     RDKit          3D

 61 67  0  0  1  0  0  0  0  0999 V2000
    0.3980    3.8113    9.7259 C   0  0  0  0  0  0  0  0  0  0  0  0
    0.1011    3.3091    8.2879 C   0  0  2  0  0  0  0  0  0  0  0  0
   -0.9981    4.1022    7.5761 C   0  0  0  0  0  0  0  0  0  0  0  0
   -1.0180    4.0011    6.2172 C   0  0  0  0  0  0  0  0  0  0  0  0
   -0.2995    2.7602    5.6965 C   0  0  2  0  0  0  0  0  0  0  0  0
   -0.3050    2.2509    4.2274 C   0  0  2  0  0  0  0  0  0  0  0  0
   -1.4904    1.2859    3.9468 C   0  0  0  0  0  0  0  0  0  0  0  0
   -1.3884    0.0050    4.8427 C   0  0  0  0  0  0  0  0  0  0  0  0
   -0.3101    0.2338    5.9494 C   0  0  1  0  0  0  0  0  0  0  0  0
    0.9886    0.3942    5.1499 C   0  0  0  0  0  0  0  0  0  0  0  0
    0.9526    1.3818    4.1820 C   0  0  0  0  0  0  0  0  0  0  0  0
    2.1721    1.3568    3.4868 C   0  0  0  0  0  0  0  0  0  0  0  0
    2.5969    2.2155    2.5242 O   0  0  0  0  0  0  0  0  0  0  0  0
    2.9420    0.2816    3.9674 N   0  0  0  0  0  0  0  0  0  0  0  0
    4.1942   -0.1097    3.5082 N   0  0  0  0  0  0  0  0  0  0  0  0
    4.3553   -0.8879    2.5040 C   0  0  0  0  0  0  0  0  0  0  0  0
    5.7163   -1.1875    1.9441 C   0  0  0  0  0  0  0  0  0  0  0  0
    5.4724   -1.6438    0.5800 N   0  0  0  0  0  0  0  0  0  0  0  0
    6.5961   -2.3527   -0.0304 C   0  0  0  0  0  0  0  0  0  0  0  0
    6.1923   -2.8162   -1.4452 C   0  0  0  0  0  0  0  0  0  0  0  0
    4.8835   -3.6224   -1.4349 C   0  0  0  0  0  0  0  0  0  0  0  0
    3.7767   -2.8500   -0.6889 C   0  0  0  0  0  0  0  0  0  0  0  0
    4.2820   -2.4767    0.7207 C   0  0  2  0  0  0  0  0  0  0  0  0
    3.3574   -1.6306    1.6260 C   0  0  1  0  0  0  0  0  0  0  0  0
    2.6576   -2.4677    2.3393 O   0  0  0  0  0  0  0  0  0  0  0  0
    2.2036   -0.2947    5.0174 C   0  0  0  0  0  0  0  0  0  0  0  0
    2.6312   -1.3566    5.7449 O   0  0  0  0  0  0  0  0  0  0  0  0
   -0.7214    1.5752    6.6214 C   0  0  1  0  0  0  0  0  0  0  0  0
   -0.5955    1.9256    8.1633 C   0  0  2  0  0  0  0  0  0  0  0  0
   -1.9816    2.3935    8.6240 C   0  0  0  0  0  0  0  0  0  0  0  0
   -2.2075    3.6662    8.2331 C   0  0  0  0  0  0  0  0  0  0  0  0
    0.7462    4.8461    9.7112 H   0  0  0  0  0  0  0  0  0  0  0  0
    1.1870    3.2170   10.1893 H   0  0  0  0  0  0  0  0  0  0  0  0
   -0.4662    3.7735   10.3904 H   0  0  0  0  0  0  0  0  0  0  0  0
    1.0666    3.3514    7.7905 H   0  0  0  0  0  0  0  0  0  0  0  0
   -1.9338    4.2174    5.6912 H   0  0  0  0  0  0  0  0  0  0  0  0
    0.7449    3.0334    5.8343 H   0  0  0  0  0  0  0  0  0  0  0  0
   -0.2335    3.0545    3.4958 H   0  0  0  0  0  0  0  0  0  0  0  0
   -2.4425    1.7949    4.0920 H   0  0  0  0  0  0  0  0  0  0  0  0
   -1.4660    0.9829    2.9012 H   0  0  0  0  0  0  0  0  0  0  0  0
   -2.3654   -0.2357    5.2615 H   0  0  0  0  0  0  0  0  0  0  0  0
   -1.1077   -0.8541    4.2313 H   0  0  0  0  0  0  0  0  0  0  0  0
   -0.2594   -0.6052    6.6445 H   0  0  0  0  0  0  0  0  0  0  0  0
    3.5317    2.1047    2.4446 H   0  0  0  0  0  0  0  0  0  0  0  0
    6.3387   -0.2937    1.9607 H   0  0  0  0  0  0  0  0  0  0  0  0
    6.1820   -1.9584    2.5626 H   0  0  0  0  0  0  0  0  0  0  0  0
    7.4483   -1.6753   -0.0879 H   0  0  0  0  0  0  0  0  0  0  0  0
    6.8992   -3.2002    0.5845 H   0  0  0  0  0  0  0  0  0  0  0  0
    6.0637   -1.9500   -2.0918 H   0  0  0  0  0  0  0  0  0  0  0  0
    6.9911   -3.4149   -1.8800 H   0  0  0  0  0  0  0  0  0  0  0  0
    4.5630   -3.8411   -2.4546 H   0  0  0  0  0  0  0  0  0  0  0  0
    5.0480   -4.5875   -0.9498 H   0  0  0  0  0  0  0  0  0  0  0  0
    3.5062   -1.9553   -1.2553 H   0  0  0  0  0  0  0  0  0  0  0  0
    2.8781   -3.4690   -0.6302 H   0  0  0  0  0  0  0  0  0  0  0  0
    4.5496   -3.3878    1.2620 H   0  0  0  0  0  0  0  0  0  0  0  0
    2.9007   -0.8593    0.9981 H   0  0  0  0  0  0  0  0  0  0  0  0
    3.4471   -1.6241    5.3442 H   0  0  0  0  0  0  0  0  0  0  0  0
   -1.8048    1.5378    6.5062 H   0  0  0  0  0  0  0  0  0  0  0  0
   -0.1482    1.1558    8.7901 H   0  0  0  0  0  0  0  0  0  0  0  0
   -2.6598    1.7681    9.1856 H   0  0  0  0  0  0  0  0  0  0  0  0
   -3.0930    4.2490    8.4550 H   0  0  0  0  0  0  0  0  0  0  0  0
  1  2  1  0
  1 32  1  0
  1 33  1  0
  1 34  1  0
  2 29  1  0
  2  3  1  0
  2 35  1  6
  3 31  1  0
  3  4  2  0
  4  5  1  0
  4 36  1  0
  5 28  1  0
  5  6  1  0
  5 37  1  1
  6 11  1  0
  6  7  1  0
  6 38  1  6
  7  8  1  0
  7 39  1  0
  7 40  1  0
  8  9  1  0
  8 41  1  0
  8 42  1  0
  9 10  1  0
  9 28  1  0
  9 43  1  1
 10 26  2  0
 10 11  1  0
 11 12  2  0
 12 13  1  0
 12 14  1  0
 13 44  1  0
 14 15  1  0
 14 26  1  0
 15 16  2  3
 16 24  1  0
 16 17  1  0
 17 18  1  0
 17 45  1  0
 17 46  1  0
 18 23  1  0
 18 19  1  0
 19 20  1  0
 19 47  1  0
 19 48  1  0
 20 21  1  0
 20 49  1  0
 20 50  1  0
 21 22  1  0
 21 51  1  0
 21 52  1  0
 22 23  1  0
 22 53  1  0
 22 54  1  0
 23 24  1  0
 23 55  1  1
 24 25  1  0
 24 56  1  6
 26 27  1  0
 27 57  1  0
 28 29  1  0
 28 58  1  1
 29 30  1  0
 29 59  1  1
 30 31  2  0
 30 60  1  0
 31 61  1  0
M  CHG  1  25  -1
M  END
>  <i_m_ct_stereo_status>  (238) 
1

>  <s_m_source_file>  (238) 
/var/tmp/pbs.5076255.sched01/tmppxgjifq_/8475v0iq0b.sdf

>  <i_m_source_file_index>  (238) 
15

>  <i_lp_mmshare_version>  (238) 
48012

>  <i_f3d_flags>  (238) 
0

>  <s_epik_input>  (238) 
W0NIM11bQ0BIXTFbQ0BASF0oW0NIXT1bQ0hdMilbQ0BASF0zW0NAQEhdKFtDSDJdW0NIMl00KWMoYzVbQ0BASF00W0NASF0zW0NIXT1DMTIpYyhbT0hdKW4oYzVbT0hdKS9OPUMoXFtDSDJdNilbQ0BIXShbT0hdKVtDQEhdKE42NylbQ0gyXVtDSDJdW0NIMl1bQ0gyXTc=

>  <s_epik_cmdline>  (238) 
J2VwaWtfcHl0aG9uJywgJy1waHQnLCAnMi4wJywgJy1waCcsICc3LjAnLCAnLXRuJywgJzgnLCAnLW1hJywgJzIwMCcsICctaW1hZScsICc8aW5maWxlLm1hZT4nLCAnLW9tYWUnLCAnPG91dGZpbGUubWFlPic=

>  <r_epik_Ionization_Penalty>  (238) 
3.44112

>  <r_epik_Ionization_Penalty_Charging>  (238) 
2.29327

>  <r_epik_Ionization_Penalty_Neutral>  (238) 
1.14785

>  <r_epik_State_Penalty>  (238) 
2.5248

>  <r_epik_Charging_Adjusted_Penalty>  (238) 
4.81807

>  <i_epik_Tot_Q>  (238) 
-1

>  <i_epik_Tot_abs_Q>  (238) 
1

>  <s_epik_Chemistry_Notes>  (238) 
This compound has an imine and may undergo hydrolysis.

>  <s_lp_Force_Field>  (238) 
OPLS3e

>  <r_lp_Energy>  (238) 
162.92

>  <b_lp_Chiralities_Consistent>  (238) 
1

>  <s_lp_Variant>  (238) 
63:0-6

>  <s_i_glide_gridfile>  (238) 
pfpi4k_grid

>  <i_i_glide_lignum>  (238) 
15

>  <i_i_glide_rotatable_bonds>  (238) 
3

>  <r_i_docking_score>  (238) 
-2.45778

>  <r_i_glide_ligand_efficiency>  (238) 
-0.0792833

>  <r_i_glide_ligand_efficiency_sa>  (238) 
-0.249059

>  <r_i_glide_ligand_efficiency_ln>  (238) 
-0.554306

>  <r_i_glide_gscore>  (238) 
-2.45778

>  <r_i_glide_lipo>  (238) 
-0.18135

>  <r_i_glide_hbond>  (238) 
-0.305018

>  <r_i_glide_metal>  (238) 
-0

>  <r_i_glide_rewards>  (238) 
-0.610339

>  <r_i_glide_evdw>  (238) 
-32.3582

>  <r_i_glide_ecoul>  (238) 
0.971123

>  <r_i_glide_erotb>  (238) 
0.111927

>  <r_i_glide_esite>  (238) 
-0.000762623

>  <r_i_glide_emodel>  (238) 
-36.9063

>  <r_i_glide_energy>  (238) 
-31.3871

>  <r_i_glide_einternal>  (238) 
1.01865

>  <r_i_glide_intrahb_reward>  (238) 
-0

>  <i_i_glide_confnum>  (238) 
4

>  <i_i_glide_posenum>  (238) 
22

>  <r_i_glide_eff_state_penalty>  (238) 
0

>  <ligand_id>  (238) 
63

>  <original_smiles>  (238) 
CC1C2=CC3C4CCC(c5c4c(O)n(N=C4CN6CCCCC6C4O)c5O)C3C1C=C2

>  <smiles>  (238) 
[H]Oc1c2c(c(O[H])n1N=C1C([H])([H])N3C([H])([H])C([H])([H])C([H])([H])C([H])([H])C3([H])C1([H])[O-])C1([H])C([H])([H])C([H])([H])C2([H])C2([H])C([H])=C3C([H])=C([H])C([H])(C3([H])C([H])([H])[H])C21[H]

$$$$
64:0:0
     RDKit          3D

 24 26  0  0  1  0  0  0  0  0999 V2000
    6.6213   -1.4871   -0.3099 O   0  0  0  0  0  0  0  0  0  0  0  0
    6.3676   -2.6663   -0.5455 C   0  0  0  0  0  0  0  0  0  0  0  0
    5.4544   -3.0938   -1.4353 N   0  0  0  0  0  0  0  0  0  0  0  0
    4.6305   -2.3105   -2.2864 C   0  0  0  0  0  0  0  0  0  0  0  0
    4.6236   -0.9703   -2.3227 N   0  0  0  0  0  0  0  0  0  0  0  0
    3.7099   -0.4735   -3.2568 C   0  0  0  0  0  0  0  0  0  0  0  0
    3.0423   -1.4634   -3.9344 C   0  0  0  0  0  0  0  0  0  0  0  0
    3.5388   -3.0543   -3.4458 S   0  0  0  0  0  0  0  0  0  0  0  0
    7.1756   -3.7410    0.0712 C   0  0  0  0  0  0  0  0  0  0  0  0
    8.5675   -3.7405    0.2885 C   0  0  0  0  0  0  0  0  0  0  0  0
    9.0094   -4.8317    0.8676 N   0  0  0  0  0  0  0  0  0  0  0  0
    7.8742   -5.5766    1.0654 N   0  0  0  0  0  0  0  0  0  0  0  0
    7.8158   -6.8011    1.6549 C   0  0  0  0  0  0  0  0  0  0  0  0
    6.5811   -7.3989    1.7653 C   0  0  0  0  0  0  0  0  0  0  0  0
    5.4481   -6.7129    1.2639 C   0  0  0  0  0  0  0  0  0  0  0  0
    5.4986   -5.5159    0.6820 N   0  0  0  0  0  0  0  0  0  0  0  0
    6.7088   -4.9268    0.5872 C   0  0  0  0  0  0  0  0  0  0  0  0
    5.3698   -4.0969   -1.5429 H   0  0  0  0  0  0  0  0  0  0  0  0
    3.5869    0.5962   -3.3684 H   0  0  0  0  0  0  0  0  0  0  0  0
    2.2845   -1.3516   -4.6962 H   0  0  0  0  0  0  0  0  0  0  0  0
    9.2588   -2.9620    0.0015 H   0  0  0  0  0  0  0  0  0  0  0  0
    8.7467   -7.2360    2.0055 H   0  0  0  0  0  0  0  0  0  0  0  0
    6.4870   -8.3768    2.2251 H   0  0  0  0  0  0  0  0  0  0  0  0
    4.4682   -7.1799    1.3390 H   0  0  0  0  0  0  0  0  0  0  0  0
  1  2  2  0
  2  3  1  0
  2  9  1  0
  3  4  1  0
  3 18  1  0
  4  8  1  0
  4  5  2  0
  5  6  1  0
  6 19  1  0
  6  7  2  0
  7 20  1  0
  7  8  1  0
  9 17  2  0
  9 10  1  0
 10 11  2  0
 10 21  1  0
 11 12  1  0
 12 17  1  0
 12 13  1  0
 13 14  2  0
 13 22  1  0
 14 15  1  0
 14 23  1  0
 15 16  2  0
 15 24  1  0
 16 17  1  0
M  END
>  <i_m_ct_stereo_status>  (239) 
1

>  <s_m_source_file>  (239) 
/var/tmp/pbs.5076255.sched01/tmppxgjifq_/8475v0iq0b.sdf

>  <i_m_source_file_index>  (239) 
16

>  <i_lp_mmshare_version>  (239) 
48012

>  <i_f3d_flags>  (239) 
0

>  <s_epik_input>  (239) 
W2NIXTFbY0hdW2NIXW5jKG4xMiljKFtjSF1uMilDKD1PKS9OPWMzXFtuSF1bY0hdW2NIXXMz

>  <s_epik_cmdline>  (239) 
J2VwaWtfcHl0aG9uJywgJy1waHQnLCAnMi4wJywgJy1waCcsICc3LjAnLCAnLXRuJywgJzgnLCAnLW1hJywgJzIwMCcsICctaW1hZScsICc8aW5maWxlLm1hZT4nLCAnLW9tYWUnLCAnPG91dGZpbGUubWFlPic=

>  <r_lp_tautomer_probability>  (239) 
0.999

>  <r_epik_Ionization_Penalty>  (239) 
0.0414863

>  <r_epik_Ionization_Penalty_Charging>  (239) 
0

>  <r_epik_Ionization_Penalty_Neutral>  (239) 
0.0414863

>  <r_epik_State_Penalty>  (239) 
0.0123377

>  <r_epik_Charging_Adjusted_Penalty>  (239) 
0.0123377

>  <i_epik_Tot_Q>  (239) 
0

>  <i_epik_Tot_abs_Q>  (239) 
0

>  <s_lp_Force_Field>  (239) 
OPLS3e

>  <r_lp_Energy>  (239) 
23.0686

>  <b_lp_Chiralities_Consistent>  (239) 
1

>  <s_lp_Variant>  (239) 
64:0-1

>  <s_i_glide_gridfile>  (239) 
pfpi4k_grid

>  <i_i_glide_lignum>  (239) 
16

>  <i_i_glide_rotatable_bonds>  (239) 
3

>  <r_i_docking_score>  (239) 
-4.33012

>  <r_i_glide_ligand_efficiency>  (239) 
-0.254713

>  <r_i_glide_ligand_efficiency_sa>  (239) 
-0.654939

>  <r_i_glide_ligand_efficiency_ln>  (239) 
-1.12963

>  <r_i_glide_gscore>  (239) 
-4.33012

>  <r_i_glide_lipo>  (239) 
-0.933443

>  <r_i_glide_hbond>  (239) 
-0.117959

>  <r_i_glide_metal>  (239) 
-0

>  <r_i_glide_rewards>  (239) 
-1.99821

>  <r_i_glide_evdw>  (239) 
-29.0055

>  <r_i_glide_ecoul>  (239) 
-4.59905

>  <r_i_glide_erotb>  (239) 
0.86798

>  <r_i_glide_esite>  (239) 
-0.00836006

>  <r_i_glide_emodel>  (239) 
-43.4054

>  <r_i_glide_energy>  (239) 
-33.6045

>  <r_i_glide_einternal>  (239) 
0.813703

>  <r_i_glide_intrahb_reward>  (239) 
-0

>  <i_i_glide_confnum>  (239) 
1

>  <i_i_glide_posenum>  (239) 
9

>  <r_i_glide_eff_state_penalty>  (239) 
0

>  <ligand_id>  (239) 
64

>  <original_smiles>  (239) 
O=C(N=c1[nH]ccs1)c1cnn2cccnc12

>  <smiles>  (239) 
[H]c1nc(N([H])C(=O)c2c([H])nn3c([H])c([H])c([H])nc23)sc1[H]

$$$$
64:0:1
     RDKit          3D

 24 26  0  0  1  0  0  0  0  0999 V2000
    6.9156   -1.9273   -0.7231 O   0  0  0  0  0  0  0  0  0  0  0  0
    6.4776   -3.0751   -0.6674 C   0  0  0  0  0  0  0  0  0  0  0  0
    5.4295   -3.5116   -1.3854 N   0  0  0  0  0  0  0  0  0  0  0  0
    4.6247   -2.6757   -2.2012 C   0  0  0  0  0  0  0  0  0  0  0  0
    3.9478   -3.1825   -3.2258 N   0  0  0  0  0  0  0  0  0  0  0  0
    3.1907   -2.2218   -3.8901 C   0  0  0  0  0  0  0  0  0  0  0  0
    3.3613   -0.9493   -3.4005 C   0  0  0  0  0  0  0  0  0  0  0  0
    4.3851   -0.9349   -2.0004 S   0  0  0  0  0  0  0  0  0  0  0  0
    7.2309   -4.0876    0.0745 C   0  0  0  0  0  0  0  0  0  0  0  0
    8.6131   -4.0615    0.3235 C   0  0  0  0  0  0  0  0  0  0  0  0
    9.0208   -5.0957    1.0070 N   0  0  0  0  0  0  0  0  0  0  0  0
    7.8881   -5.8265    1.2176 N   0  0  0  0  0  0  0  0  0  0  0  0
    7.8197   -7.0013    1.8854 C   0  0  0  0  0  0  0  0  0  0  0  0
    6.5844   -7.5897    2.0030 C   0  0  0  0  0  0  0  0  0  0  0  0
    5.4641   -6.9496    1.4155 C   0  0  0  0  0  0  0  0  0  0  0  0
    5.5231   -5.7976    0.7501 N   0  0  0  0  0  0  0  0  0  0  0  0
    6.7375   -5.2247    0.6622 C   0  0  0  0  0  0  0  0  0  0  0  0
    5.2079   -4.5002   -1.3821 H   0  0  0  0  0  0  0  0  0  0  0  0
    2.5415   -2.5250   -4.6996 H   0  0  0  0  0  0  0  0  0  0  0  0
    2.9010   -0.0190   -3.7159 H   0  0  0  0  0  0  0  0  0  0  0  0
    9.3122   -3.3119   -0.0204 H   0  0  0  0  0  0  0  0  0  0  0  0
    8.7474   -7.4022    2.2861 H   0  0  0  0  0  0  0  0  0  0  0  0
    6.4819   -8.5292    2.5397 H   0  0  0  0  0  0  0  0  0  0  0  0
    4.4869   -7.4065    1.4942 H   0  0  0  0  0  0  0  0  0  0  0  0
  1  2  2  0
  2  3  1  0
  2  9  1  0
  3  4  1  0
  3 18  1  0
  4  8  1  0
  4  5  2  0
  5  6  1  0
  6 19  1  0
  6  7  2  0
  7 20  1  0
  7  8  1  0
  9 17  2  0
  9 10  1  0
 10 11  2  0
 10 21  1  0
 11 12  1  0
 12 17  1  0
 12 13  1  0
 13 14  2  0
 13 22  1  0
 14 15  1  0
 14 23  1  0
 15 16  2  0
 15 24  1  0
 16 17  1  0
M  END
>  <i_m_ct_stereo_status>  (240) 
1

>  <s_m_source_file>  (240) 
/var/tmp/pbs.5076255.sched01/tmppxgjifq_/8475v0iq0b.sdf

>  <i_m_source_file_index>  (240) 
16

>  <i_lp_mmshare_version>  (240) 
48012

>  <i_f3d_flags>  (240) 
0

>  <s_epik_input>  (240) 
W2NIXTFbY0hdW2NIXW5jKG4xMiljKFtjSF1uMilDKD1PKS9OPWMzXFtuSF1bY0hdW2NIXXMz

>  <s_epik_cmdline>  (240) 
J2VwaWtfcHl0aG9uJywgJy1waHQnLCAnMi4wJywgJy1waCcsICc3LjAnLCAnLXRuJywgJzgnLCAnLW1hJywgJzIwMCcsICctaW1hZScsICc8aW5maWxlLm1hZT4nLCAnLW9tYWUnLCAnPG91dGZpbGUubWFlPic=

>  <r_lp_tautomer_probability>  (240) 
0.999

>  <r_epik_Ionization_Penalty>  (240) 
0.0414863

>  <r_epik_Ionization_Penalty_Charging>  (240) 
0

>  <r_epik_Ionization_Penalty_Neutral>  (240) 
0.0414863

>  <r_epik_State_Penalty>  (240) 
0.0123377

>  <r_epik_Charging_Adjusted_Penalty>  (240) 
0.0123377

>  <i_epik_Tot_Q>  (240) 
0

>  <i_epik_Tot_abs_Q>  (240) 
0

>  <s_lp_Force_Field>  (240) 
OPLS3e

>  <r_lp_Energy>  (240) 
23.0686

>  <b_lp_Chiralities_Consistent>  (240) 
1

>  <s_lp_Variant>  (240) 
64:0-1

>  <s_i_glide_gridfile>  (240) 
pfpi4k_grid

>  <i_i_glide_lignum>  (240) 
16

>  <i_i_glide_rotatable_bonds>  (240) 
3

>  <r_i_docking_score>  (240) 
-3.89086

>  <r_i_glide_ligand_efficiency>  (240) 
-0.228874

>  <r_i_glide_ligand_efficiency_sa>  (240) 
-0.588499

>  <r_i_glide_ligand_efficiency_ln>  (240) 
-1.01504

>  <r_i_glide_gscore>  (240) 
-3.89086

>  <r_i_glide_lipo>  (240) 
-0.641512

>  <r_i_glide_hbond>  (240) 
-0.161645

>  <r_i_glide_metal>  (240) 
-0

>  <r_i_glide_rewards>  (240) 
-1.99511

>  <r_i_glide_evdw>  (240) 
-26.897

>  <r_i_glide_ecoul>  (240) 
-4.10478

>  <r_i_glide_erotb>  (240) 
0.86798

>  <r_i_glide_esite>  (240) 
0

>  <r_i_glide_emodel>  (240) 
-37.8566

>  <r_i_glide_energy>  (240) 
-31.0018

>  <r_i_glide_einternal>  (240) 
4.03509

>  <r_i_glide_intrahb_reward>  (240) 
-0

>  <i_i_glide_confnum>  (240) 
3

>  <i_i_glide_posenum>  (240) 
11

>  <r_i_glide_eff_state_penalty>  (240) 
0

>  <ligand_id>  (240) 
64

>  <original_smiles>  (240) 
O=C(N=c1[nH]ccs1)c1cnn2cccnc12

>  <smiles>  (240) 
[H]c1nc(N([H])C(=O)c2c([H])nn3c([H])c([H])c([H])nc23)sc1[H]

$$$$
64:0:2
     RDKit          3D

 24 26  0  0  1  0  0  0  0  0999 V2000
    4.2866   -4.1422    1.6317 O   0  0  0  0  0  0  0  0  0  0  0  0
    3.7512   -4.0097    0.5337 C   0  0  0  0  0  0  0  0  0  0  0  0
    2.8135   -4.8517    0.0775 N   0  0  0  0  0  0  0  0  0  0  0  0
    2.3119   -5.9593    0.7917 C   0  0  0  0  0  0  0  0  0  0  0  0
    1.0117   -6.2605    0.7178 N   0  0  0  0  0  0  0  0  0  0  0  0
    0.6946   -7.3765    1.5116 C   0  0  0  0  0  0  0  0  0  0  0  0
    1.7767   -7.9188    2.1693 C   0  0  0  0  0  0  0  0  0  0  0  0
    3.2465   -7.0691    1.8155 S   0  0  0  0  0  0  0  0  0  0  0  0
    4.1423   -2.8839   -0.3483 C   0  0  0  0  0  0  0  0  0  0  0  0
    5.1456   -1.9246   -0.0859 C   0  0  0  0  0  0  0  0  0  0  0  0
    5.2965   -1.0579   -1.0516 N   0  0  0  0  0  0  0  0  0  0  0  0
    4.3128   -1.4006   -1.9501 N   0  0  0  0  0  0  0  0  0  0  0  0
    4.0294   -0.7581   -3.1058 C   0  0  0  0  0  0  0  0  0  0  0  0
    3.0583   -1.2885   -3.9182 C   0  0  0  0  0  0  0  0  0  0  0  0
    2.3821   -2.4588   -3.4833 C   0  0  0  0  0  0  0  0  0  0  0  0
    2.6182   -3.0642   -2.3300 N   0  0  0  0  0  0  0  0  0  0  0  0
    3.5903   -2.5498   -1.5515 C   0  0  0  0  0  0  0  0  0  0  0  0
    2.4342   -4.6776   -0.8502 H   0  0  0  0  0  0  0  0  0  0  0  0
   -0.3339   -7.7275    1.5569 H   0  0  0  0  0  0  0  0  0  0  0  0
    1.8017   -8.7688    2.8297 H   0  0  0  0  0  0  0  0  0  0  0  0
    5.7646   -1.8688    0.7987 H   0  0  0  0  0  0  0  0  0  0  0  0
    4.5907    0.1437   -3.3236 H   0  0  0  0  0  0  0  0  0  0  0  0
    2.7827   -0.7956   -4.8457 H   0  0  0  0  0  0  0  0  0  0  0  0
    1.5763   -2.8686   -4.0918 H   0  0  0  0  0  0  0  0  0  0  0  0
  1  2  2  0
  2  3  1  0
  2  9  1  0
  3  4  1  0
  3 18  1  0
  4  8  1  0
  4  5  2  0
  5  6  1  0
  6 19  1  0
  6  7  2  0
  7 20  1  0
  7  8  1  0
  9 17  2  0
  9 10  1  0
 10 11  2  0
 10 21  1  0
 11 12  1  0
 12 17  1  0
 12 13  1  0
 13 14  2  0
 13 22  1  0
 14 15  1  0
 14 23  1  0
 15 16  2  0
 15 24  1  0
 16 17  1  0
M  END
>  <i_m_ct_stereo_status>  (241) 
1

>  <s_m_source_file>  (241) 
/var/tmp/pbs.5076255.sched01/tmppxgjifq_/8475v0iq0b.sdf

>  <i_m_source_file_index>  (241) 
16

>  <i_lp_mmshare_version>  (241) 
48012

>  <i_f3d_flags>  (241) 
0

>  <s_epik_input>  (241) 
W2NIXTFbY0hdW2NIXW5jKG4xMiljKFtjSF1uMilDKD1PKS9OPWMzXFtuSF1bY0hdW2NIXXMz

>  <s_epik_cmdline>  (241) 
J2VwaWtfcHl0aG9uJywgJy1waHQnLCAnMi4wJywgJy1waCcsICc3LjAnLCAnLXRuJywgJzgnLCAnLW1hJywgJzIwMCcsICctaW1hZScsICc8aW5maWxlLm1hZT4nLCAnLW9tYWUnLCAnPG91dGZpbGUubWFlPic=

>  <r_lp_tautomer_probability>  (241) 
0.999

>  <r_epik_Ionization_Penalty>  (241) 
0.0414863

>  <r_epik_Ionization_Penalty_Charging>  (241) 
0

>  <r_epik_Ionization_Penalty_Neutral>  (241) 
0.0414863

>  <r_epik_State_Penalty>  (241) 
0.0123377

>  <r_epik_Charging_Adjusted_Penalty>  (241) 
0.0123377

>  <i_epik_Tot_Q>  (241) 
0

>  <i_epik_Tot_abs_Q>  (241) 
0

>  <s_lp_Force_Field>  (241) 
OPLS3e

>  <r_lp_Energy>  (241) 
23.0686

>  <b_lp_Chiralities_Consistent>  (241) 
1

>  <s_lp_Variant>  (241) 
64:0-1

>  <s_i_glide_gridfile>  (241) 
pfpi4k_grid

>  <i_i_glide_lignum>  (241) 
16

>  <i_i_glide_rotatable_bonds>  (241) 
3

>  <r_i_docking_score>  (241) 
-3.77129

>  <r_i_glide_ligand_efficiency>  (241) 
-0.22184

>  <r_i_glide_ligand_efficiency_sa>  (241) 
-0.570414

>  <r_i_glide_ligand_efficiency_ln>  (241) 
-0.983845

>  <r_i_glide_gscore>  (241) 
-3.77129

>  <r_i_glide_lipo>  (241) 
-0.539656

>  <r_i_glide_hbond>  (241) 
-0.196634

>  <r_i_glide_metal>  (241) 
-0

>  <r_i_glide_rewards>  (241) 
-1.74117

>  <r_i_glide_evdw>  (241) 
-26.8837

>  <r_i_glide_ecoul>  (241) 
-4.62187

>  <r_i_glide_erotb>  (241) 
0.86798

>  <r_i_glide_esite>  (241) 
-0.124342

>  <r_i_glide_emodel>  (241) 
-38.057

>  <r_i_glide_energy>  (241) 
-31.5056

>  <r_i_glide_einternal>  (241) 
4.20369

>  <r_i_glide_intrahb_reward>  (241) 
-0

>  <i_i_glide_confnum>  (241) 
1

>  <i_i_glide_posenum>  (241) 
39

>  <r_i_glide_eff_state_penalty>  (241) 
0

>  <ligand_id>  (241) 
64

>  <original_smiles>  (241) 
O=C(N=c1[nH]ccs1)c1cnn2cccnc12

>  <smiles>  (241) 
[H]c1nc(N([H])C(=O)c2c([H])nn3c([H])c([H])c([H])nc23)sc1[H]

$$$$
64:1:0
     RDKit          3D

 23 25  0  0  1  0  0  0  0  0999 V2000
    0.9570   -5.8520   -0.0512 O   0  0  0  0  0  0  0  0  0  0  0  0
    1.8223   -5.8893    0.8239 C   0  0  0  0  0  0  0  0  0  0  0  0
    1.6658   -6.3804    2.0843 N   0  0  0  0  0  0  0  0  0  0  0  0
    0.7503   -7.3179    2.3906 C   0  0  0  0  0  0  0  0  0  0  0  0
   -0.5599   -7.0472    2.4764 N   0  0  0  0  0  0  0  0  0  0  0  0
   -1.3507   -8.1253    2.9020 C   0  0  0  0  0  0  0  0  0  0  0  0
   -0.6162   -9.2416    3.1862 C   0  0  0  0  0  0  0  0  0  0  0  0
    1.0822   -8.9979    2.8820 S   0  0  0  0  0  0  0  0  0  0  0  0
    3.1735   -5.3528    0.5116 C   0  0  0  0  0  0  0  0  0  0  0  0
    4.4191   -5.8646    0.9413 C   0  0  0  0  0  0  0  0  0  0  0  0
    5.4495   -5.1998    0.4791 N   0  0  0  0  0  0  0  0  0  0  0  0
    4.8714   -4.2219   -0.2920 N   0  0  0  0  0  0  0  0  0  0  0  0
    5.5510   -3.2704   -0.9749 C   0  0  0  0  0  0  0  0  0  0  0  0
    4.8240   -2.3600   -1.7000 C   0  0  0  0  0  0  0  0  0  0  0  0
    3.4073   -2.4740   -1.6902 C   0  0  0  0  0  0  0  0  0  0  0  0
    2.7324   -3.4040   -1.0250 N   0  0  0  0  0  0  0  0  0  0  0  0
    3.4561   -4.2913   -0.3096 C   0  0  0  0  0  0  0  0  0  0  0  0
   -2.4286   -7.9967    2.9917 H   0  0  0  0  0  0  0  0  0  0  0  0
   -0.9744  -10.1906    3.5616 H   0  0  0  0  0  0  0  0  0  0  0  0
    4.5633   -6.7147    1.5861 H   0  0  0  0  0  0  0  0  0  0  0  0
    6.6347   -3.2871   -0.9010 H   0  0  0  0  0  0  0  0  0  0  0  0
    5.3261   -1.5811   -2.2590 H   0  0  0  0  0  0  0  0  0  0  0  0
    2.8182   -1.7547   -2.2569 H   0  0  0  0  0  0  0  0  0  0  0  0
  1  2  2  0
  2  3  1  0
  2  9  1  0
  3  4  1  0
  4  8  1  0
  4  5  2  0
  5  6  1  0
  6 18  1  0
  6  7  2  0
  7 19  1  0
  7  8  1  0
  9 17  2  0
  9 10  1  0
 10 11  2  0
 10 20  1  0
 11 12  1  0
 12 17  1  0
 12 13  1  0
 13 14  2  0
 13 21  1  0
 14 15  1  0
 14 22  1  0
 15 16  2  0
 15 23  1  0
 16 17  1  0
M  CHG  1   3  -1
M  END
>  <i_m_ct_stereo_status>  (242) 
1

>  <s_m_source_file>  (242) 
/var/tmp/pbs.5076255.sched01/tmppxgjifq_/8475v0iq0b.sdf

>  <i_m_source_file_index>  (242) 
17

>  <i_lp_mmshare_version>  (242) 
48012

>  <i_f3d_flags>  (242) 
0

>  <s_epik_input>  (242) 
W2NIXTFbY0hdW2NIXW5jKG4xMiljKFtjSF1uMilDKD1PKS9OPWMzXFtuSF1bY0hdW2NIXXMz

>  <s_epik_cmdline>  (242) 
J2VwaWtfcHl0aG9uJywgJy1waHQnLCAnMi4wJywgJy1waCcsICc3LjAnLCAnLXRuJywgJzgnLCAnLW1hJywgJzIwMCcsICctaW1hZScsICc8aW5maWxlLm1hZT4nLCAnLW9tYWUnLCAnPG91dGZpbGUubWFlPic=

>  <r_epik_Ionization_Penalty>  (242) 
1.68109

>  <r_epik_Ionization_Penalty_Charging>  (242) 
1.59605

>  <r_epik_Ionization_Penalty_Neutral>  (242) 
0.0850448

>  <r_epik_State_Penalty>  (242) 
2.32619

>  <r_epik_Charging_Adjusted_Penalty>  (242) 
3.92223

>  <i_epik_Tot_Q>  (242) 
-1

>  <i_epik_Tot_abs_Q>  (242) 
1

>  <s_lp_Force_Field>  (242) 
OPLS3e

>  <r_lp_Energy>  (242) 
29.4013

>  <b_lp_Chiralities_Consistent>  (242) 
1

>  <s_lp_Variant>  (242) 
64:0-2

>  <s_i_glide_gridfile>  (242) 
pfpi4k_grid

>  <i_i_glide_lignum>  (242) 
17

>  <i_i_glide_rotatable_bonds>  (242) 
3

>  <r_i_docking_score>  (242) 
-3.65269

>  <r_i_glide_ligand_efficiency>  (242) 
-0.214864

>  <r_i_glide_ligand_efficiency_sa>  (242) 
-0.552476

>  <r_i_glide_ligand_efficiency_ln>  (242) 
-0.952906

>  <r_i_glide_gscore>  (242) 
-3.65269

>  <r_i_glide_lipo>  (242) 
-0.152388

>  <r_i_glide_hbond>  (242) 
-0.62198

>  <r_i_glide_metal>  (242) 
-0

>  <r_i_glide_rewards>  (242) 
-1.79472

>  <r_i_glide_evdw>  (242) 
-23.4814

>  <r_i_glide_ecoul>  (242) 
-4.58911

>  <r_i_glide_erotb>  (242) 
0.874114

>  <r_i_glide_esite>  (242) 
-0.0952796

>  <r_i_glide_emodel>  (242) 
-36.4043

>  <r_i_glide_energy>  (242) 
-28.0705

>  <r_i_glide_einternal>  (242) 
0.914298

>  <r_i_glide_intrahb_reward>  (242) 
-0

>  <i_i_glide_confnum>  (242) 
6

>  <i_i_glide_posenum>  (242) 
23

>  <r_i_glide_eff_state_penalty>  (242) 
0

>  <ligand_id>  (242) 
64

>  <original_smiles>  (242) 
O=C(N=c1[nH]ccs1)c1cnn2cccnc12

>  <smiles>  (242) 
[H]c1nc([N-]C(=O)c2c([H])nn3c([H])c([H])c([H])nc23)sc1[H]

$$$$
64:1:1
     RDKit          3D

 23 25  0  0  1  0  0  0  0  0999 V2000
    2.2232   -5.4318    2.9292 O   0  0  0  0  0  0  0  0  0  0  0  0
    2.0377   -5.5283    1.7162 C   0  0  0  0  0  0  0  0  0  0  0  0
    0.9945   -6.1914    1.1497 N   0  0  0  0  0  0  0  0  0  0  0  0
    0.3603   -7.1346    1.8733 C   0  0  0  0  0  0  0  0  0  0  0  0
   -0.9369   -7.0561    2.1901 N   0  0  0  0  0  0  0  0  0  0  0  0
   -1.4032   -8.1476    2.9250 C   0  0  0  0  0  0  0  0  0  0  0  0
   -0.4355   -9.0790    3.1879 C   0  0  0  0  0  0  0  0  0  0  0  0
    1.0966   -8.6166    2.4967 S   0  0  0  0  0  0  0  0  0  0  0  0
    3.1092   -4.9604    0.8602 C   0  0  0  0  0  0  0  0  0  0  0  0
    4.4981   -5.0164    1.1090 C   0  0  0  0  0  0  0  0  0  0  0  0
    5.2233   -4.4256    0.1888 N   0  0  0  0  0  0  0  0  0  0  0  0
    4.2952   -3.9494   -0.6990 N   0  0  0  0  0  0  0  0  0  0  0  0
    4.5732   -3.2477   -1.8291 C   0  0  0  0  0  0  0  0  0  0  0  0
    3.5206   -2.8340   -2.6070 C   0  0  0  0  0  0  0  0  0  0  0  0
    2.2128   -3.1698   -2.1857 C   0  0  0  0  0  0  0  0  0  0  0  0
    1.9272   -3.8575   -1.0816 N   0  0  0  0  0  0  0  0  0  0  0  0
    2.9633   -4.2548   -0.3151 C   0  0  0  0  0  0  0  0  0  0  0  0
   -2.4446   -8.1707    3.2174 H   0  0  0  0  0  0  0  0  0  0  0  0
   -0.5421  -10.0053    3.7345 H   0  0  0  0  0  0  0  0  0  0  0  0
    4.9835   -5.4963    1.9430 H   0  0  0  0  0  0  0  0  0  0  0  0
    5.6152   -3.0531   -2.0513 H   0  0  0  0  0  0  0  0  0  0  0  0
    3.6806   -2.2683   -3.5160 H   0  0  0  0  0  0  0  0  0  0  0  0
    1.3680   -2.8583   -2.7921 H   0  0  0  0  0  0  0  0  0  0  0  0
  1  2  2  0
  2  3  1  0
  2  9  1  0
  3  4  1  0
  4  8  1  0
  4  5  2  0
  5  6  1  0
  6 18  1  0
  6  7  2  0
  7 19  1  0
  7  8  1  0
  9 17  2  0
  9 10  1  0
 10 11  2  0
 10 20  1  0
 11 12  1  0
 12 17  1  0
 12 13  1  0
 13 14  2  0
 13 21  1  0
 14 15  1  0
 14 22  1  0
 15 16  2  0
 15 23  1  0
 16 17  1  0
M  CHG  1   3  -1
M  END
>  <i_m_ct_stereo_status>  (243) 
1

>  <s_m_source_file>  (243) 
/var/tmp/pbs.5076255.sched01/tmppxgjifq_/8475v0iq0b.sdf

>  <i_m_source_file_index>  (243) 
17

>  <i_lp_mmshare_version>  (243) 
48012

>  <i_f3d_flags>  (243) 
0

>  <s_epik_input>  (243) 
W2NIXTFbY0hdW2NIXW5jKG4xMiljKFtjSF1uMilDKD1PKS9OPWMzXFtuSF1bY0hdW2NIXXMz

>  <s_epik_cmdline>  (243) 
J2VwaWtfcHl0aG9uJywgJy1waHQnLCAnMi4wJywgJy1waCcsICc3LjAnLCAnLXRuJywgJzgnLCAnLW1hJywgJzIwMCcsICctaW1hZScsICc8aW5maWxlLm1hZT4nLCAnLW9tYWUnLCAnPG91dGZpbGUubWFlPic=

>  <r_epik_Ionization_Penalty>  (243) 
1.68109

>  <r_epik_Ionization_Penalty_Charging>  (243) 
1.59605

>  <r_epik_Ionization_Penalty_Neutral>  (243) 
0.0850448

>  <r_epik_State_Penalty>  (243) 
2.32619

>  <r_epik_Charging_Adjusted_Penalty>  (243) 
3.92223

>  <i_epik_Tot_Q>  (243) 
-1

>  <i_epik_Tot_abs_Q>  (243) 
1

>  <s_lp_Force_Field>  (243) 
OPLS3e

>  <r_lp_Energy>  (243) 
29.4013

>  <b_lp_Chiralities_Consistent>  (243) 
1

>  <s_lp_Variant>  (243) 
64:0-2

>  <s_i_glide_gridfile>  (243) 
pfpi4k_grid

>  <i_i_glide_lignum>  (243) 
17

>  <i_i_glide_rotatable_bonds>  (243) 
3

>  <r_i_docking_score>  (243) 
-3.3494

>  <r_i_glide_ligand_efficiency>  (243) 
-0.197023

>  <r_i_glide_ligand_efficiency_sa>  (243) 
-0.506603

>  <r_i_glide_ligand_efficiency_ln>  (243) 
-0.873784

>  <r_i_glide_gscore>  (243) 
-3.3494

>  <r_i_glide_lipo>  (243) 
-0.172693

>  <r_i_glide_hbond>  (243) 
-0.361812

>  <r_i_glide_metal>  (243) 
-0

>  <r_i_glide_rewards>  (243) 
-1.74373

>  <r_i_glide_evdw>  (243) 
-21.6339

>  <r_i_glide_ecoul>  (243) 
-5.1853

>  <r_i_glide_erotb>  (243) 
0.874114

>  <r_i_glide_esite>  (243) 
-0.0857938

>  <r_i_glide_emodel>  (243) 
-33.6748

>  <r_i_glide_energy>  (243) 
-26.8192

>  <r_i_glide_einternal>  (243) 
2.22451

>  <r_i_glide_intrahb_reward>  (243) 
-0

>  <i_i_glide_confnum>  (243) 
5

>  <i_i_glide_posenum>  (243) 
19

>  <r_i_glide_eff_state_penalty>  (243) 
0

>  <ligand_id>  (243) 
64

>  <original_smiles>  (243) 
O=C(N=c1[nH]ccs1)c1cnn2cccnc12

>  <smiles>  (243) 
[H]c1nc([N-]C(=O)c2c([H])nn3c([H])c([H])c([H])nc23)sc1[H]

$$$$
64:1:2
     RDKit          3D

 23 25  0  0  1  0  0  0  0  0999 V2000
    1.3502   -5.4764   -0.1845 O   0  0  0  0  0  0  0  0  0  0  0  0
    2.2176   -5.8567    0.6173 C   0  0  0  0  0  0  0  0  0  0  0  0
    3.4019   -5.2579    0.8559 N   0  0  0  0  0  0  0  0  0  0  0  0
    3.7111   -4.0665    0.3043 C   0  0  0  0  0  0  0  0  0  0  0  0
    4.5444   -3.9579   -0.7320 N   0  0  0  0  0  0  0  0  0  0  0  0
    4.7599   -2.6530   -1.1652 C   0  0  0  0  0  0  0  0  0  0  0  0
    4.1270   -1.7196   -0.3876 C   0  0  0  0  0  0  0  0  0  0  0  0
    3.2066   -2.4723    0.8907 S   0  0  0  0  0  0  0  0  0  0  0  0
    1.9426   -7.0730    1.4057 C   0  0  0  0  0  0  0  0  0  0  0  0
    2.8847   -8.0478    1.8008 C   0  0  0  0  0  0  0  0  0  0  0  0
    2.3638   -9.0422    2.4766 N   0  0  0  0  0  0  0  0  0  0  0  0
    1.0394   -8.7145    2.5448 N   0  0  0  0  0  0  0  0  0  0  0  0
    0.0968   -9.4579    3.1646 C   0  0  0  0  0  0  0  0  0  0  0  0
   -1.1841   -8.9818    3.1541 C   0  0  0  0  0  0  0  0  0  0  0  0
   -1.4578   -7.7671    2.4987 C   0  0  0  0  0  0  0  0  0  0  0  0
   -0.5375   -7.0054    1.9007 N   0  0  0  0  0  0  0  0  0  0  0  0
    0.7274   -7.4874    1.9009 C   0  0  0  0  0  0  0  0  0  0  0  0
    5.3877   -2.4688   -2.0443 H   0  0  0  0  0  0  0  0  0  0  0  0
    4.1181   -0.6482   -0.4884 H   0  0  0  0  0  0  0  0  0  0  0  0
    3.9323   -8.0225    1.5674 H   0  0  0  0  0  0  0  0  0  0  0  0
    0.4122  -10.3788    3.6528 H   0  0  0  0  0  0  0  0  0  0  0  0
   -1.9636   -9.5308    3.6650 H   0  0  0  0  0  0  0  0  0  0  0  0
   -2.4866   -7.4255    2.4950 H   0  0  0  0  0  0  0  0  0  0  0  0
  1  2  2  0
  2  3  1  0
  2  9  1  0
  3  4  1  0
  4  8  1  0
  4  5  2  0
  5  6  1  0
  6 18  1  0
  6  7  2  0
  7 19  1  0
  7  8  1  0
  9 17  2  0
  9 10  1  0
 10 11  2  0
 10 20  1  0
 11 12  1  0
 12 17  1  0
 12 13  1  0
 13 14  2  0
 13 21  1  0
 14 15  1  0
 14 22  1  0
 15 16  2  0
 15 23  1  0
 16 17  1  0
M  CHG  1   3  -1
M  END
>  <i_m_ct_stereo_status>  (244) 
1

>  <s_m_source_file>  (244) 
/var/tmp/pbs.5076255.sched01/tmppxgjifq_/8475v0iq0b.sdf

>  <i_m_source_file_index>  (244) 
17

>  <i_lp_mmshare_version>  (244) 
48012

>  <i_f3d_flags>  (244) 
0

>  <s_epik_input>  (244) 
W2NIXTFbY0hdW2NIXW5jKG4xMiljKFtjSF1uMilDKD1PKS9OPWMzXFtuSF1bY0hdW2NIXXMz

>  <s_epik_cmdline>  (244) 
J2VwaWtfcHl0aG9uJywgJy1waHQnLCAnMi4wJywgJy1waCcsICc3LjAnLCAnLXRuJywgJzgnLCAnLW1hJywgJzIwMCcsICctaW1hZScsICc8aW5maWxlLm1hZT4nLCAnLW9tYWUnLCAnPG91dGZpbGUubWFlPic=

>  <r_epik_Ionization_Penalty>  (244) 
1.68109

>  <r_epik_Ionization_Penalty_Charging>  (244) 
1.59605

>  <r_epik_Ionization_Penalty_Neutral>  (244) 
0.0850448

>  <r_epik_State_Penalty>  (244) 
2.32619

>  <r_epik_Charging_Adjusted_Penalty>  (244) 
3.92223

>  <i_epik_Tot_Q>  (244) 
-1

>  <i_epik_Tot_abs_Q>  (244) 
1

>  <s_lp_Force_Field>  (244) 
OPLS3e

>  <r_lp_Energy>  (244) 
29.4013

>  <b_lp_Chiralities_Consistent>  (244) 
1

>  <s_lp_Variant>  (244) 
64:0-2

>  <s_i_glide_gridfile>  (244) 
pfpi4k_grid

>  <i_i_glide_lignum>  (244) 
17

>  <i_i_glide_rotatable_bonds>  (244) 
3

>  <r_i_docking_score>  (244) 
-2.87201

>  <r_i_glide_ligand_efficiency>  (244) 
-0.168942

>  <r_i_glide_ligand_efficiency_sa>  (244) 
-0.434396

>  <r_i_glide_ligand_efficiency_ln>  (244) 
-0.749243

>  <r_i_glide_gscore>  (244) 
-2.87201

>  <r_i_glide_lipo>  (244) 
0

>  <r_i_glide_hbond>  (244) 
-0.362426

>  <r_i_glide_metal>  (244) 
-0

>  <r_i_glide_rewards>  (244) 
-1.74373

>  <r_i_glide_evdw>  (244) 
-21.9272

>  <r_i_glide_ecoul>  (244) 
-2.908

>  <r_i_glide_erotb>  (244) 
0.874114

>  <r_i_glide_esite>  (244) 
-0.10741

>  <r_i_glide_emodel>  (244) 
-31.3818

>  <r_i_glide_energy>  (244) 
-24.8352

>  <r_i_glide_einternal>  (244) 
0.724878

>  <r_i_glide_intrahb_reward>  (244) 
-0

>  <i_i_glide_confnum>  (244) 
6

>  <i_i_glide_posenum>  (244) 
9

>  <r_i_glide_eff_state_penalty>  (244) 
0

>  <ligand_id>  (244) 
64

>  <original_smiles>  (244) 
O=C(N=c1[nH]ccs1)c1cnn2cccnc12

>  <smiles>  (244) 
[H]c1nc([N-]C(=O)c2c([H])nn3c([H])c([H])c([H])nc23)sc1[H]

$$$$
65:0:0
     RDKit          3D

 33 35  0  0  1  0  0  0  0  0999 V2000
   -7.2678   -4.7378   -4.7029 O   0  0  0  0  0  0  0  0  0  0  0  0
   -7.3376   -5.1528   -6.0451 C   0  0  0  0  0  0  0  0  0  0  0  0
   -8.8140   -5.3419   -6.4413 C   0  0  0  0  0  0  0  0  0  0  0  0
   -9.0912   -6.1487   -7.7427 C   0  0  1  0  0  0  0  0  0  0  0  0
   -8.4558   -5.4351   -8.9646 C   0  0  0  0  0  0  0  0  0  0  0  0
   -8.7563   -6.2042  -10.2688 C   0  0  2  0  0  0  0  0  0  0  0  0
  -10.2774   -6.2884  -10.4835 C   0  0  0  0  0  0  0  0  0  0  0  0
  -10.9242   -7.0175   -9.2878 C   0  0  1  0  0  0  0  0  0  0  0  0
  -10.3464   -8.4414   -9.1794 C   0  0  0  0  0  0  0  0  0  0  0  0
   -8.8203   -8.3606   -8.9684 C   0  0  1  0  0  0  0  0  0  0  0  0
   -8.1644   -7.6286  -10.1561 C   0  0  0  0  0  0  0  0  0  0  0  0
   -8.5155   -7.5988   -7.6681 C   0  0  0  0  0  0  0  0  0  0  0  0
  -10.6265   -6.2275   -7.9886 C   0  0  0  0  0  0  0  0  0  0  0  0
   -7.6860   -5.4037   -4.1767 H   0  0  0  0  0  0  0  0  0  0  0  0
   -6.8643   -4.4025   -6.6786 H   0  0  0  0  0  0  0  0  0  0  0  0
   -6.7808   -6.0816   -6.1434 H   0  0  0  0  0  0  0  0  0  0  0  0
   -9.3229   -5.8031   -5.6091 H   0  0  0  0  0  0  0  0  0  0  0  0
   -9.2687   -4.3526   -6.5035 H   0  0  0  0  0  0  0  0  0  0  0  0
   -8.7969   -4.4026   -9.0089 H   0  0  0  0  0  0  0  0  0  0  0  0
   -7.3874   -5.3978   -8.8531 H   0  0  0  0  0  0  0  0  0  0  0  0
   -8.2945   -5.6878  -11.1087 H   0  0  0  0  0  0  0  0  0  0  0  0
  -10.7093   -5.2950  -10.5800 H   0  0  0  0  0  0  0  0  0  0  0  0
  -10.4952   -6.8132  -11.4163 H   0  0  0  0  0  0  0  0  0  0  0  0
  -12.0032   -7.0666   -9.4317 H   0  0  0  0  0  0  0  0  0  0  0  0
  -10.8108   -8.9733   -8.3475 H   0  0  0  0  0  0  0  0  0  0  0  0
  -10.5688   -9.0125  -10.0829 H   0  0  0  0  0  0  0  0  0  0  0  0
   -8.4131   -9.3683   -8.8963 H   0  0  0  0  0  0  0  0  0  0  0  0
   -8.3156   -8.1847  -11.0806 H   0  0  0  0  0  0  0  0  0  0  0  0
   -7.0838   -7.5630   -9.9995 H   0  0  0  0  0  0  0  0  0  0  0  0
   -7.4280   -7.5960   -7.5239 H   0  0  0  0  0  0  0  0  0  0  0  0
   -8.9422   -8.1560   -6.8326 H   0  0  0  0  0  0  0  0  0  0  0  0
  -11.1341   -6.7113   -7.1541 H   0  0  0  0  0  0  0  0  0  0  0  0
  -11.0610   -5.2301   -8.0633 H   0  0  0  0  0  0  0  0  0  0  0  0
  1  2  1  0
  1 14  1  0
  2  3  1  0
  2 15  1  0
  2 16  1  0
  4  3  1  1
  3 17  1  0
  3 18  1  0
  4 12  1  0
  4 13  1  0
  4  5  1  0
  5  6  1  0
  5 19  1  0
  5 20  1  0
  6 11  1  0
  6  7  1  0
  6 21  1  6
  7  8  1  0
  7 22  1  0
  7 23  1  0
  8  9  1  0
  8 13  1  0
  8 24  1  6
  9 10  1  0
  9 25  1  0
  9 26  1  0
 10 11  1  0
 10 12  1  0
 10 27  1  1
 11 28  1  0
 11 29  1  0
 12 30  1  0
 12 31  1  0
 13 32  1  0
 13 33  1  0
M  END
>  <i_m_ct_stereo_status>  (245) 
1

>  <s_m_source_file>  (245) 
/var/tmp/pbs.5076255.sched01/tmppxgjifq_/8475v0iq0b.sdf

>  <i_m_source_file_index>  (245) 
18

>  <i_lp_mmshare_version>  (245) 
48012

>  <i_f3d_flags>  (245) 
0

>  <s_epik_input>  (245) 
W09IXVtDSDJdW0NIMl1DMTJbQ0gyXVtDQEhdM1tDSDJdW0NAQEhdKFtDSDJdMilbQ0gyXVtDQEhdKFtDSDJdMylbQ0gyXTE=

>  <s_epik_cmdline>  (245) 
J2VwaWtfcHl0aG9uJywgJy1waHQnLCAnMi4wJywgJy1waCcsICc3LjAnLCAnLXRuJywgJzgnLCAnLW1hJywgJzIwMCcsICctaW1hZScsICc8aW5maWxlLm1hZT4nLCAnLW9tYWUnLCAnPG91dGZpbGUubWFlPic=

>  <r_lp_tautomer_probability>  (245) 
1

>  <r_epik_Ionization_Penalty>  (245) 
8.40745e-07

>  <r_epik_Ionization_Penalty_Charging>  (245) 
0

>  <r_epik_Ionization_Penalty_Neutral>  (245) 
8.40745e-07

>  <r_epik_State_Penalty>  (245) 
-0

>  <r_epik_Charging_Adjusted_Penalty>  (245) 
0

>  <i_epik_Tot_Q>  (245) 
0

>  <i_epik_Tot_abs_Q>  (245) 
0

>  <s_lp_Force_Field>  (245) 
OPLS3e

>  <r_lp_Energy>  (245) 
3.13638

>  <b_lp_Chiralities_Consistent>  (245) 
1

>  <s_lp_Variant>  (245) 
65:0-1

>  <s_i_glide_gridfile>  (245) 
pfpi4k_grid

>  <i_i_glide_lignum>  (245) 
18

>  <i_i_glide_rotatable_bonds>  (245) 
3

>  <r_i_docking_score>  (245) 
-3.59462

>  <r_i_glide_ligand_efficiency>  (245) 
-0.276509

>  <r_i_glide_ligand_efficiency_sa>  (245) 
-0.650165

>  <r_i_glide_ligand_efficiency_ln>  (245) 
-1.00832

>  <r_i_glide_gscore>  (245) 
-3.59462

>  <r_i_glide_lipo>  (245) 
-1.28537

>  <r_i_glide_hbond>  (245) 
0

>  <r_i_glide_metal>  (245) 
-0

>  <r_i_glide_rewards>  (245) 
-2.32034

>  <r_i_glide_evdw>  (245) 
-11.5888

>  <r_i_glide_ecoul>  (245) 
0.704616

>  <r_i_glide_erotb>  (245) 
0.484842

>  <r_i_glide_esite>  (245) 
0

>  <r_i_glide_emodel>  (245) 
-12.0853

>  <r_i_glide_energy>  (245) 
-10.8841

>  <r_i_glide_einternal>  (245) 
0.671871

>  <r_i_glide_intrahb_reward>  (245) 
-0

>  <i_i_glide_confnum>  (245) 
4

>  <i_i_glide_posenum>  (245) 
11

>  <r_i_glide_eff_state_penalty>  (245) 
0

>  <ligand_id>  (245) 
65

>  <original_smiles>  (245) 
OCCC12CC3CC(CC(C3)C1)C2

>  <smiles>  (245) 
[H]OC([H])([H])C([H])([H])C12C([H])([H])C3([H])C([H])([H])C([H])(C([H])([H])C([H])(C3([H])[H])C1([H])[H])C2([H])[H]

$$$$
66:0:0
     RDKit          3D

 43 46  0  0  1  0  0  0  0  0999 V2000
   -0.0617   -6.6533    2.4512 O   0  0  0  0  0  0  0  0  0  0  0  0
    0.7304   -7.5238    2.8325 C   0  0  0  0  0  0  0  0  0  0  0  0
    0.3019   -8.5330    3.6145 N   0  0  0  0  0  0  0  0  0  0  0  0
   -0.4328   -8.2682    4.8506 C   0  0  0  0  0  0  0  0  0  0  0  0
    0.1647   -9.1237    5.9975 C   0  0  0  0  0  0  0  0  0  0  0  0
    0.2200  -10.5441    5.6117 N   0  0  0  0  0  0  0  0  0  0  0  0
    0.9573  -10.7722    4.3609 C   0  0  0  0  0  0  0  0  0  0  0  0
    0.3261   -9.9382    3.2193 C   0  0  0  0  0  0  0  0  0  0  0  0
    2.2608   -7.3578    2.5868 C   0  0  1  0  0  0  0  0  0  0  0  0
    2.9442   -6.9413    3.9320 C   0  0  0  0  0  0  0  0  0  0  0  0
    4.4765   -6.8499    3.7629 C   0  0  2  0  0  0  0  0  0  0  0  0
    4.8083   -5.7743    2.7127 C   0  0  0  0  0  0  0  0  0  0  0  0
    4.1521   -6.1460    1.3636 C   0  0  1  0  0  0  0  0  0  0  0  0
    4.7185   -7.4954    0.8809 C   0  0  0  0  0  0  0  0  0  0  0  0
    4.4063   -8.5702    1.9293 C   0  0  1  0  0  0  0  0  0  0  0  0
    5.0386   -8.2044    3.2890 C   0  0  0  0  0  0  0  0  0  0  0  0
    2.8943   -8.6926    2.0923 C   0  0  0  0  0  0  0  0  0  0  0  0
    2.6120   -6.2457    1.5396 C   0  0  0  0  0  0  0  0  0  0  0  0
   -0.4247   -7.2078    5.1079 H   0  0  0  0  0  0  0  0  0  0  0  0
   -1.4758   -8.5292    4.6912 H   0  0  0  0  0  0  0  0  0  0  0  0
    1.1733   -8.7734    6.2255 H   0  0  0  0  0  0  0  0  0  0  0  0
   -0.4116   -9.0108    6.9203 H   0  0  0  0  0  0  0  0  0  0  0  0
    0.6080  -11.1203    6.3523 H   0  0  0  0  0  0  0  0  0  0  0  0
    1.9886  -10.4724    4.5496 H   0  0  0  0  0  0  0  0  0  0  0  0
    0.9988  -11.8325    4.1112 H   0  0  0  0  0  0  0  0  0  0  0  0
   -0.7193  -10.2420    3.0880 H   0  0  0  0  0  0  0  0  0  0  0  0
    0.8662  -10.1097    2.2764 H   0  0  0  0  0  0  0  0  0  0  0  0
    2.5377   -5.9840    4.2548 H   0  0  0  0  0  0  0  0  0  0  0  0
    2.7048   -7.6278    4.7447 H   0  0  0  0  0  0  0  0  0  0  0  0
    4.9480   -6.5776    4.7081 H   0  0  0  0  0  0  0  0  0  0  0  0
    4.4507   -4.7984    3.0395 H   0  0  0  0  0  0  0  0  0  0  0  0
    5.8894   -5.6885    2.5950 H   0  0  0  0  0  0  0  0  0  0  0  0
    4.3860   -5.3869    0.6176 H   0  0  0  0  0  0  0  0  0  0  0  0
    4.2568   -7.7802   -0.0644 H   0  0  0  0  0  0  0  0  0  0  0  0
    5.7976   -7.4298    0.7157 H   0  0  0  0  0  0  0  0  0  0  0  0
    4.7965   -9.5281    1.5963 H   0  0  0  0  0  0  0  0  0  0  0  0
    6.1306   -8.1750    3.2193 H   0  0  0  0  0  0  0  0  0  0  0  0
    4.8110   -8.9724    4.0234 H   0  0  0  0  0  0  0  0  0  0  0  0
    2.7201   -9.4740    2.8208 H   0  0  0  0  0  0  0  0  0  0  0  0
    2.4364   -9.0328    1.1598 H   0  0  0  0  0  0  0  0  0  0  0  0
    2.1478   -6.4785    0.5808 H   0  0  0  0  0  0  0  0  0  0  0  0
    2.2257   -5.2695    1.8452 H   0  0  0  0  0  0  0  0  0  0  0  0
   -0.7730  -10.8466    5.4513 H   0  0  0  0  0  0  0  0  0  0  0  0
  1  2  2  0
  2  3  1  0
  9  2  1  1
  3  8  1  0
  3  4  1  0
  4  5  1  0
  4 19  1  0
  4 20  1  0
  5  6  1  0
  5 21  1  0
  5 22  1  0
  6  7  1  0
  6 23  1  0
  6 43  1  0
  7  8  1  0
  7 24  1  0
  7 25  1  0
  8 26  1  0
  8 27  1  0
  9 17  1  0
  9 18  1  0
  9 10  1  0
 10 11  1  0
 10 28  1  0
 10 29  1  0
 11 16  1  0
 11 12  1  0
 11 30  1  1
 12 13  1  0
 12 31  1  0
 12 32  1  0
 13 14  1  0
 13 18  1  0
 13 33  1  6
 14 15  1  0
 14 34  1  0
 14 35  1  0
 15 16  1  0
 15 17  1  0
 15 36  1  6
 16 37  1  0
 16 38  1  0
 17 39  1  0
 17 40  1  0
 18 41  1  0
 18 42  1  0
M  CHG  1   6   1
M  END
>  <i_m_ct_stereo_status>  (246) 
1

>  <s_m_source_file>  (246) 
/var/tmp/pbs.5076255.sched01/tmppxgjifq_/8475v0iq0b.sdf

>  <i_m_source_file_index>  (246) 
19

>  <i_lp_mmshare_version>  (246) 
48012

>  <i_f3d_flags>  (246) 
0

>  <s_epik_input>  (246) 
W0NIMl0xW0NIMl1bTkhdW0NIMl1bQ0gyXU4xQyg9TylDMjNbQ0gyXVtDQEBIXTRbQ0gyXVtDQEhdKFtDSDJdMylbQ0gyXVtDQEBIXShbQ0gyXTQpW0NIMl0y

>  <s_epik_cmdline>  (246) 
J2VwaWtfcHl0aG9uJywgJy1waHQnLCAnMi4wJywgJy1waCcsICc3LjAnLCAnLXRuJywgJzgnLCAnLW1hJywgJzIwMCcsICctaW1hZScsICc8aW5maWxlLm1hZT4nLCAnLW9tYWUnLCAnPG91dGZpbGUubWFlPic=

>  <r_epik_Ionization_Penalty>  (246) 
0.00909225

>  <r_epik_Ionization_Penalty_Charging>  (246) 
0.00909225

>  <r_epik_Ionization_Penalty_Neutral>  (246) 
2.00727e-10

>  <r_epik_State_Penalty>  (246) 
0.00688686

>  <r_epik_Charging_Adjusted_Penalty>  (246) 
0.0159791

>  <i_epik_Tot_Q>  (246) 
1

>  <i_epik_Tot_abs_Q>  (246) 
1

>  <s_lp_Force_Field>  (246) 
OPLS3e

>  <r_lp_Energy>  (246) 
21.4551

>  <b_lp_Chiralities_Consistent>  (246) 
1

>  <s_lp_Variant>  (246) 
66:0-1

>  <s_i_glide_gridfile>  (246) 
pfpi4k_grid

>  <i_i_glide_lignum>  (246) 
19

>  <i_i_glide_rotatable_bonds>  (246) 
2

>  <r_i_docking_score>  (246) 
-4.56174

>  <r_i_glide_ligand_efficiency>  (246) 
-0.25343

>  <r_i_glide_ligand_efficiency_sa>  (246) 
-0.664175

>  <r_i_glide_ligand_efficiency_ln>  (246) 
-1.17257

>  <r_i_glide_gscore>  (246) 
-4.56174

>  <r_i_glide_lipo>  (246) 
-0.131353

>  <r_i_glide_hbond>  (246) 
-0.519849

>  <r_i_glide_metal>  (246) 
-0

>  <r_i_glide_rewards>  (246) 
-1.70883

>  <r_i_glide_evdw>  (246) 
-19.4241

>  <r_i_glide_ecoul>  (246) 
-10.8784

>  <r_i_glide_erotb>  (246) 
0.56242

>  <r_i_glide_esite>  (246) 
-0.161169

>  <r_i_glide_emodel>  (246) 
-37.1914

>  <r_i_glide_energy>  (246) 
-30.3025

>  <r_i_glide_einternal>  (246) 
11.6221

>  <r_i_glide_intrahb_reward>  (246) 
-0

>  <i_i_glide_confnum>  (246) 
4

>  <i_i_glide_posenum>  (246) 
4

>  <r_i_glide_eff_state_penalty>  (246) 
0

>  <ligand_id>  (246) 
66

>  <original_smiles>  (246) 
O=C(N1CCNCC1)C12CC3CC(CC(C3)C1)C2

>  <smiles>  (246) 
[H]C1([H])N(C(=O)C23C([H])([H])C4([H])C([H])([H])C([H])(C([H])([H])C([H])(C4([H])[H])C2([H])[H])C3([H])[H])C([H])([H])C([H])([H])[N+]([H])([H])C1([H])[H]

$$$$
66:0:1
     RDKit          3D

 43 46  0  0  1  0  0  0  0  0999 V2000
    4.5323   -4.7717    3.5402 O   0  0  0  0  0  0  0  0  0  0  0  0
    5.2460   -5.0036    2.5724 C   0  0  0  0  0  0  0  0  0  0  0  0
    6.1717   -5.9830    2.6624 N   0  0  0  0  0  0  0  0  0  0  0  0
    7.0122   -6.0948    3.8582 C   0  0  0  0  0  0  0  0  0  0  0  0
    8.4939   -6.2562    3.4147 C   0  0  0  0  0  0  0  0  0  0  0  0
    8.5833   -7.3743    2.4461 N   0  0  0  0  0  0  0  0  0  0  0  0
    7.7252   -7.2204    1.2840 C   0  0  0  0  0  0  0  0  0  0  0  0
    6.2623   -7.1366    1.7613 C   0  0  0  0  0  0  0  0  0  0  0  0
    5.2109   -4.0656    1.3284 C   0  0  1  0  0  0  0  0  0  0  0  0
    5.1370   -4.8581   -0.0006 C   0  0  0  0  0  0  0  0  0  0  0  0
    5.0692   -3.9288   -1.2226 C   0  0  2  0  0  0  0  0  0  0  0  0
    6.3549   -3.0790   -1.2590 C   0  0  0  0  0  0  0  0  0  0  0  0
    6.4410   -2.2418    0.0344 C   0  0  1  0  0  0  0  0  0  0  0  0
    5.2094   -1.3262    0.1275 C   0  0  0  0  0  0  0  0  0  0  0  0
    3.9240   -2.1833    0.1520 C   0  0  1  0  0  0  0  0  0  0  0  0
    3.8260   -3.0343   -1.1293 C   0  0  0  0  0  0  0  0  0  0  0  0
    3.9684   -3.1186    1.3977 C   0  0  0  0  0  0  0  0  0  0  0  0
    6.4811   -3.1695    1.2709 C   0  0  0  0  0  0  0  0  0  0  0  0
    6.9166   -5.2335    4.5222 H   0  0  0  0  0  0  0  0  0  0  0  0
    6.7008   -6.9469    4.4476 H   0  0  0  0  0  0  0  0  0  0  0  0
    8.8186   -5.3360    2.9250 H   0  0  0  0  0  0  0  0  0  0  0  0
    9.1610   -6.4105    4.2687 H   0  0  0  0  0  0  0  0  0  0  0  0
    9.5924   -7.4571    2.1020 H   0  0  0  0  0  0  0  0  0  0  0  0
    8.0050   -6.3098    0.7540 H   0  0  0  0  0  0  0  0  0  0  0  0
    7.8758   -8.0421    0.5930 H   0  0  0  0  0  0  0  0  0  0  0  0
    6.0395   -8.0305    2.3627 H   0  0  0  0  0  0  0  0  0  0  0  0
    5.5664   -7.1048    0.9155 H   0  0  0  0  0  0  0  0  0  0  0  0
    6.0414   -5.4548   -0.1171 H   0  0  0  0  0  0  0  0  0  0  0  0
    4.2996   -5.5601   -0.0283 H   0  0  0  0  0  0  0  0  0  0  0  0
    5.0050   -4.5379   -2.1247 H   0  0  0  0  0  0  0  0  0  0  0  0
    7.2304   -3.7259   -1.3165 H   0  0  0  0  0  0  0  0  0  0  0  0
    6.3823   -2.4545   -2.1505 H   0  0  0  0  0  0  0  0  0  0  0  0
    7.3472   -1.6369    0.0204 H   0  0  0  0  0  0  0  0  0  0  0  0
    5.2624   -0.7123    1.0290 H   0  0  0  0  0  0  0  0  0  0  0  0
    5.1793   -0.6426   -0.7178 H   0  0  0  0  0  0  0  0  0  0  0  0
    3.0458   -1.5388    0.2229 H   0  0  0  0  0  0  0  0  0  0  0  0
    3.7348   -2.4046   -2.0133 H   0  0  0  0  0  0  0  0  0  0  0  0
    2.9344   -3.6575   -1.0984 H   0  0  0  0  0  0  0  0  0  0  0  0
    3.0572   -3.7201    1.4438 H   0  0  0  0  0  0  0  0  0  0  0  0
    3.9711   -2.5155    2.3120 H   0  0  0  0  0  0  0  0  0  0  0  0
    6.5588   -2.5631    2.1759 H   0  0  0  0  0  0  0  0  0  0  0  0
    7.3835   -3.7813    1.2467 H   0  0  0  0  0  0  0  0  0  0  0  0
    8.3442   -8.2228    2.9232 H   0  0  0  0  0  0  0  0  0  0  0  0
  1  2  2  0
  2  3  1  0
  9  2  1  1
  3  8  1  0
  3  4  1  0
  4  5  1  0
  4 19  1  0
  4 20  1  0
  5  6  1  0
  5 21  1  0
  5 22  1  0
  6  7  1  0
  6 23  1  0
  6 43  1  0
  7  8  1  0
  7 24  1  0
  7 25  1  0
  8 26  1  0
  8 27  1  0
  9 17  1  0
  9 18  1  0
  9 10  1  0
 10 11  1  0
 10 28  1  0
 10 29  1  0
 11 16  1  0
 11 12  1  0
 11 30  1  6
 12 13  1  0
 12 31  1  0
 12 32  1  0
 13 14  1  0
 13 18  1  0
 13 33  1  6
 14 15  1  0
 14 34  1  0
 14 35  1  0
 15 16  1  0
 15 17  1  0
 15 36  1  1
 16 37  1  0
 16 38  1  0
 17 39  1  0
 17 40  1  0
 18 41  1  0
 18 42  1  0
M  CHG  1   6   1
M  END
>  <i_m_ct_stereo_status>  (247) 
1

>  <s_m_source_file>  (247) 
/var/tmp/pbs.5076255.sched01/tmppxgjifq_/8475v0iq0b.sdf

>  <i_m_source_file_index>  (247) 
19

>  <i_lp_mmshare_version>  (247) 
48012

>  <i_f3d_flags>  (247) 
0

>  <s_epik_input>  (247) 
W0NIMl0xW0NIMl1bTkhdW0NIMl1bQ0gyXU4xQyg9TylDMjNbQ0gyXVtDQEBIXTRbQ0gyXVtDQEhdKFtDSDJdMylbQ0gyXVtDQEBIXShbQ0gyXTQpW0NIMl0y

>  <s_epik_cmdline>  (247) 
J2VwaWtfcHl0aG9uJywgJy1waHQnLCAnMi4wJywgJy1waCcsICc3LjAnLCAnLXRuJywgJzgnLCAnLW1hJywgJzIwMCcsICctaW1hZScsICc8aW5maWxlLm1hZT4nLCAnLW9tYWUnLCAnPG91dGZpbGUubWFlPic=

>  <r_epik_Ionization_Penalty>  (247) 
0.00909225

>  <r_epik_Ionization_Penalty_Charging>  (247) 
0.00909225

>  <r_epik_Ionization_Penalty_Neutral>  (247) 
2.00727e-10

>  <r_epik_State_Penalty>  (247) 
0.00688686

>  <r_epik_Charging_Adjusted_Penalty>  (247) 
0.0159791

>  <i_epik_Tot_Q>  (247) 
1

>  <i_epik_Tot_abs_Q>  (247) 
1

>  <s_lp_Force_Field>  (247) 
OPLS3e

>  <r_lp_Energy>  (247) 
21.4551

>  <b_lp_Chiralities_Consistent>  (247) 
1

>  <s_lp_Variant>  (247) 
66:0-1

>  <s_i_glide_gridfile>  (247) 
pfpi4k_grid

>  <i_i_glide_lignum>  (247) 
19

>  <i_i_glide_rotatable_bonds>  (247) 
2

>  <r_i_docking_score>  (247) 
-3.51248

>  <r_i_glide_ligand_efficiency>  (247) 
-0.195138

>  <r_i_glide_ligand_efficiency_sa>  (247) 
-0.511406

>  <r_i_glide_ligand_efficiency_ln>  (247) 
-0.902865

>  <r_i_glide_gscore>  (247) 
-3.51248

>  <r_i_glide_lipo>  (247) 
-0.326779

>  <r_i_glide_hbond>  (247) 
-0.2

>  <r_i_glide_metal>  (247) 
-0

>  <r_i_glide_rewards>  (247) 
-1.74691

>  <r_i_glide_evdw>  (247) 
-18.9115

>  <r_i_glide_ecoul>  (247) 
-5.12573

>  <r_i_glide_erotb>  (247) 
0.56242

>  <r_i_glide_esite>  (247) 
-0.0867753

>  <r_i_glide_emodel>  (247) 
-28.6199

>  <r_i_glide_energy>  (247) 
-24.0372

>  <r_i_glide_einternal>  (247) 
10.1272

>  <r_i_glide_intrahb_reward>  (247) 
-0

>  <i_i_glide_confnum>  (247) 
1

>  <i_i_glide_posenum>  (247) 
7

>  <r_i_glide_eff_state_penalty>  (247) 
0

>  <ligand_id>  (247) 
66

>  <original_smiles>  (247) 
O=C(N1CCNCC1)C12CC3CC(CC(C3)C1)C2

>  <smiles>  (247) 
[H]C1([H])N(C(=O)C23C([H])([H])C4([H])C([H])([H])C([H])(C([H])([H])C([H])(C4([H])[H])C2([H])[H])C3([H])[H])C([H])([H])C([H])([H])[N+]([H])([H])C1([H])[H]

$$$$
66:0:2
     RDKit          3D

 43 46  0  0  1  0  0  0  0  0999 V2000
    4.5488   -4.7995    3.2964 O   0  0  0  0  0  0  0  0  0  0  0  0
    5.3534   -4.8437    2.3399 C   0  0  0  0  0  0  0  0  0  0  0  0
    6.2761   -5.8262    2.2385 N   0  0  0  0  0  0  0  0  0  0  0  0
    6.1365   -7.1191    2.9784 C   0  0  0  0  0  0  0  0  0  0  0  0
    7.4082   -7.4158    3.7875 C   0  0  0  0  0  0  0  0  0  0  0  0
    8.6121   -7.3320    2.9370 N   0  0  0  0  0  0  0  0  0  0  0  0
    8.7190   -6.0086    2.3043 C   0  0  0  0  0  0  0  0  0  0  0  0
    7.4960   -5.7750    1.4149 C   0  0  0  0  0  0  0  0  0  0  0  0
    5.1534   -3.7889    1.1723 C   0  0  1  0  0  0  0  0  0  0  0  0
    4.8246   -4.5567   -0.1563 C   0  0  0  0  0  0  0  0  0  0  0  0
    4.5538   -3.5503   -1.2910 C   0  0  2  0  0  0  0  0  0  0  0  0
    5.8017   -2.6684   -1.4977 C   0  0  0  0  0  0  0  0  0  0  0  0
    6.0720   -1.8510   -0.1999 C   0  0  1  0  0  0  0  0  0  0  0  0
    4.8771   -0.9716    0.1862 C   0  0  0  0  0  0  0  0  0  0  0  0
    3.6525   -1.8805    0.3749 C   0  0  1  0  0  0  0  0  0  0  0  0
    3.3566   -2.6500   -0.9285 C   0  0  0  0  0  0  0  0  0  0  0  0
    3.9005   -2.8892    1.4971 C   0  0  0  0  0  0  0  0  0  0  0  0
    6.3595   -2.8000    0.9590 C   0  0  0  0  0  0  0  0  0  0  0  0
    5.2498   -7.1494    3.6366 H   0  0  0  0  0  0  0  0  0  0  0  0
    5.9882   -7.8856    2.2177 H   0  0  0  0  0  0  0  0  0  0  0  0
    7.5209   -6.6773    4.5822 H   0  0  0  0  0  0  0  0  0  0  0  0
    7.3782   -8.4035    4.2208 H   0  0  0  0  0  0  0  0  0  0  0  0
    9.4726   -7.5058    3.4409 H   0  0  0  0  0  0  0  0  0  0  0  0
    8.8144   -5.2374    3.0801 H   0  0  0  0  0  0  0  0  0  0  0  0
    9.6131   -5.9112    1.6898 H   0  0  0  0  0  0  0  0  0  0  0  0
    7.4198   -6.4716    0.5591 H   0  0  0  0  0  0  0  0  0  0  0  0
    7.7546   -4.8281    1.0696 H   0  0  0  0  0  0  0  0  0  0  0  0
    5.6642   -5.1864   -0.4520 H   0  0  0  0  0  0  0  0  0  0  0  0
    3.9667   -5.2314   -0.0349 H   0  0  0  0  0  0  0  0  0  0  0  0
    4.3312   -4.1005   -2.2040 H   0  0  0  0  0  0  0  0  0  0  0  0
    6.6550   -3.3072   -1.7469 H   0  0  0  0  0  0  0  0  0  0  0  0
    5.6680   -2.0003   -2.3483 H   0  0  0  0  0  0  0  0  0  0  0  0
    6.9746   -1.2570   -0.3293 H   0  0  0  0  0  0  0  0  0  0  0  0
    5.1352   -0.4551    1.1133 H   0  0  0  0  0  0  0  0  0  0  0  0
    4.7269   -0.2179   -0.5946 H   0  0  0  0  0  0  0  0  0  0  0  0
    2.8164   -1.2486    0.6306 H   0  0  0  0  0  0  0  0  0  0  0  0
    3.1288   -1.9490   -1.7421 H   0  0  0  0  0  0  0  0  0  0  0  0
    2.4597   -3.2528   -0.7915 H   0  0  0  0  0  0  0  0  0  0  0  0
    2.9972   -3.4947    1.6242 H   0  0  0  0  0  0  0  0  0  0  0  0
    4.0589   -2.3614    2.4328 H   0  0  0  0  0  0  0  0  0  0  0  0
    6.5825   -2.2949    1.9051 H   0  0  0  0  0  0  0  0  0  0  0  0
    7.2632   -3.1584    0.5298 H   0  0  0  0  0  0  0  0  0  0  0  0
    8.5611   -7.9765    2.1606 H   0  0  0  0  0  0  0  0  0  0  0  0
  1  2  2  0
  2  3  1  0
  9  2  1  1
  3  8  1  0
  3  4  1  0
  4  5  1  0
  4 19  1  0
  4 20  1  0
  5  6  1  0
  5 21  1  0
  5 22  1  0
  6  7  1  0
  6 23  1  0
  6 43  1  0
  7  8  1  0
  7 24  1  0
  7 25  1  0
  8 26  1  0
  8 27  1  0
  9 17  1  0
  9 18  1  0
  9 10  1  0
 10 11  1  0
 10 28  1  0
 10 29  1  0
 11 16  1  0
 11 12  1  0
 11 30  1  6
 12 13  1  0
 12 31  1  0
 12 32  1  0
 13 14  1  0
 13 18  1  0
 13 33  1  6
 14 15  1  0
 14 34  1  0
 14 35  1  0
 15 16  1  0
 15 17  1  0
 15 36  1  1
 16 37  1  0
 16 38  1  0
 17 39  1  0
 17 40  1  0
 18 41  1  0
 18 42  1  0
M  CHG  1   6   1
M  END
>  <i_m_ct_stereo_status>  (248) 
1

>  <s_m_source_file>  (248) 
/var/tmp/pbs.5076255.sched01/tmppxgjifq_/8475v0iq0b.sdf

>  <i_m_source_file_index>  (248) 
19

>  <i_lp_mmshare_version>  (248) 
48012

>  <i_f3d_flags>  (248) 
0

>  <s_epik_input>  (248) 
W0NIMl0xW0NIMl1bTkhdW0NIMl1bQ0gyXU4xQyg9TylDMjNbQ0gyXVtDQEBIXTRbQ0gyXVtDQEhdKFtDSDJdMylbQ0gyXVtDQEBIXShbQ0gyXTQpW0NIMl0y

>  <s_epik_cmdline>  (248) 
J2VwaWtfcHl0aG9uJywgJy1waHQnLCAnMi4wJywgJy1waCcsICc3LjAnLCAnLXRuJywgJzgnLCAnLW1hJywgJzIwMCcsICctaW1hZScsICc8aW5maWxlLm1hZT4nLCAnLW9tYWUnLCAnPG91dGZpbGUubWFlPic=

>  <r_epik_Ionization_Penalty>  (248) 
0.00909225

>  <r_epik_Ionization_Penalty_Charging>  (248) 
0.00909225

>  <r_epik_Ionization_Penalty_Neutral>  (248) 
2.00727e-10

>  <r_epik_State_Penalty>  (248) 
0.00688686

>  <r_epik_Charging_Adjusted_Penalty>  (248) 
0.0159791

>  <i_epik_Tot_Q>  (248) 
1

>  <i_epik_Tot_abs_Q>  (248) 
1

>  <s_lp_Force_Field>  (248) 
OPLS3e

>  <r_lp_Energy>  (248) 
21.4551

>  <b_lp_Chiralities_Consistent>  (248) 
1

>  <s_lp_Variant>  (248) 
66:0-1

>  <s_i_glide_gridfile>  (248) 
pfpi4k_grid

>  <i_i_glide_lignum>  (248) 
19

>  <i_i_glide_rotatable_bonds>  (248) 
2

>  <r_i_docking_score>  (248) 
-2.82121

>  <r_i_glide_ligand_efficiency>  (248) 
-0.156734

>  <r_i_glide_ligand_efficiency_sa>  (248) 
-0.410759

>  <r_i_glide_ligand_efficiency_ln>  (248) 
-0.725177

>  <r_i_glide_gscore>  (248) 
-2.82121

>  <r_i_glide_lipo>  (248) 
-0.261802

>  <r_i_glide_hbond>  (248) 
0

>  <r_i_glide_metal>  (248) 
-0

>  <r_i_glide_rewards>  (248) 
-1.78186

>  <r_i_glide_evdw>  (248) 
-19.3937

>  <r_i_glide_ecoul>  (248) 
-2.04719

>  <r_i_glide_erotb>  (248) 
0.56242

>  <r_i_glide_esite>  (248) 
-0.0632055

>  <r_i_glide_emodel>  (248) 
-26.6721

>  <r_i_glide_energy>  (248) 
-21.4409

>  <r_i_glide_einternal>  (248) 
0.50567

>  <r_i_glide_intrahb_reward>  (248) 
-0

>  <i_i_glide_confnum>  (248) 
1

>  <i_i_glide_posenum>  (248) 
2

>  <r_i_glide_eff_state_penalty>  (248) 
0

>  <ligand_id>  (248) 
66

>  <original_smiles>  (248) 
O=C(N1CCNCC1)C12CC3CC(CC(C3)C1)C2

>  <smiles>  (248) 
[H]C1([H])N(C(=O)C23C([H])([H])C4([H])C([H])([H])C([H])(C([H])([H])C([H])(C4([H])[H])C2([H])[H])C3([H])[H])C([H])([H])C([H])([H])[N+]([H])([H])C1([H])[H]

$$$$
66:1:0
     RDKit          3D

 42 45  0  0  1  0  0  0  0  0999 V2000
    6.3589   -1.5118   -0.0868 O   0  0  0  0  0  0  0  0  0  0  0  0
    5.5253   -2.3202   -0.5073 C   0  0  0  0  0  0  0  0  0  0  0  0
    5.0250   -2.1778   -1.7495 N   0  0  0  0  0  0  0  0  0  0  0  0
    5.3133   -3.0860   -2.8600 C   0  0  0  0  0  0  0  0  0  0  0  0
    3.9818   -3.3771   -3.5769 C   0  0  0  0  0  0  0  0  0  0  0  0
    3.4251   -2.1331   -4.0966 N   0  0  0  0  0  0  0  0  0  0  0  0
    3.1541   -1.2187   -2.9848 C   0  0  0  0  0  0  0  0  0  0  0  0
    4.4443   -0.9235   -2.1969 C   0  0  0  0  0  0  0  0  0  0  0  0
    4.9206   -3.4234    0.4175 C   0  0  2  0  0  0  0  0  0  0  0  0
    3.4595   -3.0522    0.8077 C   0  0  0  0  0  0  0  0  0  0  0  0
    2.8342   -4.1667    1.6887 C   0  0  1  0  0  0  0  0  0  0  0  0
    2.8315   -5.5085    0.9238 C   0  0  0  0  0  0  0  0  0  0  0  0
    4.2808   -5.8976    0.5789 C   0  0  2  0  0  0  0  0  0  0  0  0
    5.1334   -6.0463    1.8448 C   0  0  0  0  0  0  0  0  0  0  0  0
    5.1160   -4.7056    2.6092 C   0  0  2  0  0  0  0  0  0  0  0  0
    3.6669   -4.3301    2.9726 C   0  0  0  0  0  0  0  0  0  0  0  0
    5.7382   -3.5925    1.7327 C   0  0  0  0  0  0  0  0  0  0  0  0
    4.8964   -4.8010   -0.2958 C   0  0  0  0  0  0  0  0  0  0  0  0
    6.0206   -2.6099   -3.5164 H   0  0  0  0  0  0  0  0  0  0  0  0
    5.8059   -4.0081   -2.5671 H   0  0  0  0  0  0  0  0  0  0  0  0
    4.1457   -4.0871   -4.3871 H   0  0  0  0  0  0  0  0  0  0  0  0
    3.2492   -3.8314   -2.9014 H   0  0  0  0  0  0  0  0  0  0  0  0
    2.5398   -2.3220   -4.5606 H   0  0  0  0  0  0  0  0  0  0  0  0
    2.7263   -0.2937   -3.3716 H   0  0  0  0  0  0  0  0  0  0  0  0
    2.4145   -1.6682   -2.3172 H   0  0  0  0  0  0  0  0  0  0  0  0
    4.2328   -0.2722   -1.3419 H   0  0  0  0  0  0  0  0  0  0  0  0
    5.1472   -0.3894   -2.8238 H   0  0  0  0  0  0  0  0  0  0  0  0
    3.4580   -2.1044    1.3430 H   0  0  0  0  0  0  0  0  0  0  0  0
    2.8320   -2.8688   -0.0658 H   0  0  0  0  0  0  0  0  0  0  0  0
    1.8177   -3.9066    1.9676 H   0  0  0  0  0  0  0  0  0  0  0  0
    2.3558   -6.2963    1.5098 H   0  0  0  0  0  0  0  0  0  0  0  0
    2.2396   -5.4193    0.0113 H   0  0  0  0  0  0  0  0  0  0  0  0
    4.2781   -6.8308    0.0163 H   0  0  0  0  0  0  0  0  0  0  0  0
    4.7585   -6.8627    2.4676 H   0  0  0  0  0  0  0  0  0  0  0  0
    6.1529   -6.3021    1.5606 H   0  0  0  0  0  0  0  0  0  0  0  0
    5.7070   -4.8160    3.5181 H   0  0  0  0  0  0  0  0  0  0  0  0
    3.6573   -3.4067    3.5474 H   0  0  0  0  0  0  0  0  0  0  0  0
    3.2257   -5.0999    3.6131 H   0  0  0  0  0  0  0  0  0  0  0  0
    6.7727   -3.8425    1.4992 H   0  0  0  0  0  0  0  0  0  0  0  0
    5.7508   -2.6595    2.3015 H   0  0  0  0  0  0  0  0  0  0  0  0
    4.2510   -4.7342   -1.1597 H   0  0  0  0  0  0  0  0  0  0  0  0
    5.8868   -5.1024   -0.6338 H   0  0  0  0  0  0  0  0  0  0  0  0
  1  2  2  0
  2  3  1  0
  9  2  1  6
  3  8  1  0
  3  4  1  0
  4  5  1  0
  4 19  1  0
  4 20  1  0
  5  6  1  0
  5 21  1  0
  5 22  1  0
  6  7  1  0
  6 23  1  0
  7  8  1  0
  7 24  1  0
  7 25  1  0
  8 26  1  0
  8 27  1  0
  9 17  1  0
  9 18  1  0
  9 10  1  0
 10 11  1  0
 10 28  1  0
 10 29  1  0
 11 16  1  0
 11 12  1  0
 11 30  1  1
 12 13  1  0
 12 31  1  0
 12 32  1  0
 13 14  1  0
 13 18  1  0
 13 33  1  6
 14 15  1  0
 14 34  1  0
 14 35  1  0
 15 16  1  0
 15 17  1  0
 15 36  1  1
 16 37  1  0
 16 38  1  0
 17 39  1  0
 17 40  1  0
 18 41  1  0
 18 42  1  0
M  END
>  <i_m_ct_stereo_status>  (249) 
1

>  <s_m_source_file>  (249) 
/var/tmp/pbs.5076255.sched01/tmppxgjifq_/8475v0iq0b.sdf

>  <i_m_source_file_index>  (249) 
20

>  <i_lp_mmshare_version>  (249) 
48012

>  <i_f3d_flags>  (249) 
0

>  <s_epik_input>  (249) 
W0NIMl0xW0NIMl1bTkhdW0NIMl1bQ0gyXU4xQyg9TylDMjNbQ0gyXVtDQEBIXTRbQ0gyXVtDQEhdKFtDSDJdMylbQ0gyXVtDQEBIXShbQ0gyXTQpW0NIMl0y

>  <s_epik_cmdline>  (249) 
J2VwaWtfcHl0aG9uJywgJy1waHQnLCAnMi4wJywgJy1waCcsICc3LjAnLCAnLXRuJywgJzgnLCAnLW1hJywgJzIwMCcsICctaW1hZScsICc8aW5maWxlLm1hZT4nLCAnLW9tYWUnLCAnPG91dGZpbGUubWFlPic=

>  <r_epik_Ionization_Penalty>  (249) 
2.4793

>  <r_epik_Ionization_Penalty_Charging>  (249) 
0

>  <r_epik_Ionization_Penalty_Neutral>  (249) 
2.4793

>  <r_epik_State_Penalty>  (249) 
2.64279

>  <r_epik_Charging_Adjusted_Penalty>  (249) 
2.64279

>  <i_epik_Tot_Q>  (249) 
0

>  <i_epik_Tot_abs_Q>  (249) 
0

>  <s_lp_Force_Field>  (249) 
OPLS3e

>  <r_lp_Energy>  (249) 
30.144

>  <b_lp_Chiralities_Consistent>  (249) 
1

>  <s_lp_Variant>  (249) 
66:0-2

>  <s_i_glide_gridfile>  (249) 
pfpi4k_grid

>  <i_i_glide_lignum>  (249) 
20

>  <i_i_glide_rotatable_bonds>  (249) 
2

>  <r_i_docking_score>  (249) 
-4.22097

>  <r_i_glide_ligand_efficiency>  (249) 
-0.234498

>  <r_i_glide_ligand_efficiency_sa>  (249) 
-0.61456

>  <r_i_glide_ligand_efficiency_ln>  (249) 
-1.08498

>  <r_i_glide_gscore>  (249) 
-4.22097

>  <r_i_glide_lipo>  (249) 
-0.624858

>  <r_i_glide_hbond>  (249) 
-0.355441

>  <r_i_glide_metal>  (249) 
-0

>  <r_i_glide_rewards>  (249) 
-1.7157

>  <r_i_glide_evdw>  (249) 
-25.1122

>  <r_i_glide_ecoul>  (249) 
-5.34673

>  <r_i_glide_erotb>  (249) 
0.566337

>  <r_i_glide_esite>  (249) 
-0.0336854

>  <r_i_glide_emodel>  (249) 
-31.2952

>  <r_i_glide_energy>  (249) 
-30.459

>  <r_i_glide_einternal>  (249) 
14.1868

>  <r_i_glide_intrahb_reward>  (249) 
-0

>  <i_i_glide_confnum>  (249) 
5

>  <i_i_glide_posenum>  (249) 
32

>  <r_i_glide_eff_state_penalty>  (249) 
0

>  <ligand_id>  (249) 
66

>  <original_smiles>  (249) 
O=C(N1CCNCC1)C12CC3CC(CC(C3)C1)C2

>  <smiles>  (249) 
[H]N1C([H])([H])C([H])([H])N(C(=O)C23C([H])([H])C4([H])C([H])([H])C([H])(C([H])([H])C([H])(C4([H])[H])C2([H])[H])C3([H])[H])C([H])([H])C1([H])[H]

$$$$
66:1:1
     RDKit          3D

 42 45  0  0  1  0  0  0  0  0999 V2000
    5.3376   -0.3637    3.1237 O   0  0  0  0  0  0  0  0  0  0  0  0
    4.3125   -0.6535    2.5082 C   0  0  0  0  0  0  0  0  0  0  0  0
    3.1349   -0.0625    2.7826 N   0  0  0  0  0  0  0  0  0  0  0  0
    3.0471    1.1244    3.6768 C   0  0  0  0  0  0  0  0  0  0  0  0
    2.2407    2.2444    2.9835 C   0  0  0  0  0  0  0  0  0  0  0  0
    0.9015    1.7935    2.6206 N   0  0  0  0  0  0  0  0  0  0  0  0
    1.0238    0.6607    1.7152 C   0  0  0  0  0  0  0  0  0  0  0  0
    1.7810   -0.4987    2.3742 C   0  0  0  0  0  0  0  0  0  0  0  0
    4.4540   -1.6663    1.3185 C   0  0  2  0  0  0  0  0  0  0  0  0
    3.7046   -3.0200    1.5861 C   0  0  0  0  0  0  0  0  0  0  0  0
    3.8405   -3.9321    0.3364 C   0  0  1  0  0  0  0  0  0  0  0  0
    3.3055   -3.2115   -0.9227 C   0  0  0  0  0  0  0  0  0  0  0  0
    4.1247   -1.9331   -1.1940 C   0  0  2  0  0  0  0  0  0  0  0  0
    5.6074   -2.2773   -1.3876 C   0  0  0  0  0  0  0  0  0  0  0  0
    6.1208   -2.9856   -0.1204 C   0  0  2  0  0  0  0  0  0  0  0  0
    5.3227   -4.2852    0.1299 C   0  0  0  0  0  0  0  0  0  0  0  0
    5.9617   -2.0334    1.0905 C   0  0  0  0  0  0  0  0  0  0  0  0
    3.9780   -0.9749    0.0051 C   0  0  0  0  0  0  0  0  0  0  0  0
    2.5847    0.8340    4.6161 H   0  0  0  0  0  0  0  0  0  0  0  0
    4.0284    1.5278    3.9284 H   0  0  0  0  0  0  0  0  0  0  0  0
    2.1490    3.1093    3.6481 H   0  0  0  0  0  0  0  0  0  0  0  0
    2.7733    2.5850    2.0974 H   0  0  0  0  0  0  0  0  0  0  0  0
    0.4195    2.5402    2.1293 H   0  0  0  0  0  0  0  0  0  0  0  0
    0.0415    0.3246    1.4056 H   0  0  0  0  0  0  0  0  0  0  0  0
    1.5508    0.9448    0.8128 H   0  0  0  0  0  0  0  0  0  0  0  0
    1.7249   -1.2710    1.6335 H   0  0  0  0  0  0  0  0  0  0  0  0
    1.2389   -0.8724    3.2535 H   0  0  0  0  0  0  0  0  0  0  0  0
    4.1669   -3.5170    2.4540 H   0  0  0  0  0  0  0  0  0  0  0  0
    2.6565   -2.9677    1.8142 H   0  0  0  0  0  0  0  0  0  0  0  0
    3.2705   -4.8439    0.4974 H   0  0  0  0  0  0  0  0  0  0  0  0
    3.3461   -3.8639   -1.7957 H   0  0  0  0  0  0  0  0  0  0  0  0
    2.2514   -2.9612   -0.7996 H   0  0  0  0  0  0  0  0  0  0  0  0
    3.7360   -1.4359   -2.0828 H   0  0  0  0  0  0  0  0  0  0  0  0
    5.7439   -2.9027   -2.2716 H   0  0  0  0  0  0  0  0  0  0  0  0
    6.1647   -1.3571   -1.5576 H   0  0  0  0  0  0  0  0  0  0  0  0
    7.1770   -3.2329   -0.2536 H   0  0  0  0  0  0  0  0  0  0  0  0
    5.7016   -4.7828    1.0229 H   0  0  0  0  0  0  0  0  0  0  0  0
    5.4340   -4.9838   -0.6979 H   0  0  0  0  0  0  0  0  0  0  0  0
    6.5644   -1.1388    0.9285 H   0  0  0  0  0  0  0  0  0  0  0  0
    6.3799   -2.5165    1.9725 H   0  0  0  0  0  0  0  0  0  0  0  0
    2.9309   -0.7006    0.0302 H   0  0  0  0  0  0  0  0  0  0  0  0
    4.4987   -0.0307   -0.1717 H   0  0  0  0  0  0  0  0  0  0  0  0
  1  2  2  0
  2  3  1  0
  9  2  1  1
  3  8  1  0
  3  4  1  0
  4  5  1  0
  4 19  1  0
  4 20  1  0
  5  6  1  0
  5 21  1  0
  5 22  1  0
  6  7  1  0
  6 23  1  0
  7  8  1  0
  7 24  1  0
  7 25  1  0
  8 26  1  0
  8 27  1  0
  9 17  1  0
  9 18  1  0
  9 10  1  0
 10 11  1  0
 10 28  1  0
 10 29  1  0
 11 16  1  0
 11 12  1  0
 11 30  1  1
 12 13  1  0
 12 31  1  0
 12 32  1  0
 13 14  1  0
 13 18  1  0
 13 33  1  6
 14 15  1  0
 14 34  1  0
 14 35  1  0
 15 16  1  0
 15 17  1  0
 15 36  1  6
 16 37  1  0
 16 38  1  0
 17 39  1  0
 17 40  1  0
 18 41  1  0
 18 42  1  0
M  END
>  <i_m_ct_stereo_status>  (250) 
1

>  <s_m_source_file>  (250) 
/var/tmp/pbs.5076255.sched01/tmppxgjifq_/8475v0iq0b.sdf

>  <i_m_source_file_index>  (250) 
20

>  <i_lp_mmshare_version>  (250) 
48012

>  <i_f3d_flags>  (250) 
0

>  <s_epik_input>  (250) 
W0NIMl0xW0NIMl1bTkhdW0NIMl1bQ0gyXU4xQyg9TylDMjNbQ0gyXVtDQEBIXTRbQ0gyXVtDQEhdKFtDSDJdMylbQ0gyXVtDQEBIXShbQ0gyXTQpW0NIMl0y

>  <s_epik_cmdline>  (250) 
J2VwaWtfcHl0aG9uJywgJy1waHQnLCAnMi4wJywgJy1waCcsICc3LjAnLCAnLXRuJywgJzgnLCAnLW1hJywgJzIwMCcsICctaW1hZScsICc8aW5maWxlLm1hZT4nLCAnLW9tYWUnLCAnPG91dGZpbGUubWFlPic=

>  <r_epik_Ionization_Penalty>  (250) 
2.4793

>  <r_epik_Ionization_Penalty_Charging>  (250) 
0

>  <r_epik_Ionization_Penalty_Neutral>  (250) 
2.4793

>  <r_epik_State_Penalty>  (250) 
2.64279

>  <r_epik_Charging_Adjusted_Penalty>  (250) 
2.64279

>  <i_epik_Tot_Q>  (250) 
0

>  <i_epik_Tot_abs_Q>  (250) 
0

>  <s_lp_Force_Field>  (250) 
OPLS3e

>  <r_lp_Energy>  (250) 
30.144

>  <b_lp_Chiralities_Consistent>  (250) 
1

>  <s_lp_Variant>  (250) 
66:0-2

>  <s_i_glide_gridfile>  (250) 
pfpi4k_grid

>  <i_i_glide_lignum>  (250) 
20

>  <i_i_glide_rotatable_bonds>  (250) 
2

>  <r_i_docking_score>  (250) 
-3.16747

>  <r_i_glide_ligand_efficiency>  (250) 
-0.17597

>  <r_i_glide_ligand_efficiency_sa>  (250) 
-0.461173

>  <r_i_glide_ligand_efficiency_ln>  (250) 
-0.814181

>  <r_i_glide_gscore>  (250) 
-3.16747

>  <r_i_glide_lipo>  (250) 
-0.281605

>  <r_i_glide_hbond>  (250) 
-0.0618109

>  <r_i_glide_metal>  (250) 
-0

>  <r_i_glide_rewards>  (250) 
-1.80522

>  <r_i_glide_evdw>  (250) 
-23.5596

>  <r_i_glide_ecoul>  (250) 
-2.71458

>  <r_i_glide_erotb>  (250) 
0.566337

>  <r_i_glide_esite>  (250) 
0

>  <r_i_glide_emodel>  (250) 
-31.7492

>  <r_i_glide_energy>  (250) 
-26.2742

>  <r_i_glide_einternal>  (250) 
0.827713

>  <r_i_glide_intrahb_reward>  (250) 
-0

>  <i_i_glide_confnum>  (250) 
5

>  <i_i_glide_posenum>  (250) 
29

>  <r_i_glide_eff_state_penalty>  (250) 
0

>  <ligand_id>  (250) 
66

>  <original_smiles>  (250) 
O=C(N1CCNCC1)C12CC3CC(CC(C3)C1)C2

>  <smiles>  (250) 
[H]N1C([H])([H])C([H])([H])N(C(=O)C23C([H])([H])C4([H])C([H])([H])C([H])(C([H])([H])C([H])(C4([H])[H])C2([H])[H])C3([H])[H])C([H])([H])C1([H])[H]

$$$$
66:1:2
     RDKit          3D

 42 45  0  0  1  0  0  0  0  0999 V2000
    5.7837   -0.6546    2.7041 O   0  0  0  0  0  0  0  0  0  0  0  0
    4.6845   -0.9487    2.2310 C   0  0  0  0  0  0  0  0  0  0  0  0
    3.5325   -0.4625    2.7891 N   0  0  0  0  0  0  0  0  0  0  0  0
    2.1543   -0.8340    2.4046 C   0  0  0  0  0  0  0  0  0  0  0  0
    1.3833   -1.2856    3.6672 C   0  0  0  0  0  0  0  0  0  0  0  0
    1.3322   -0.2118    4.6430 N   0  0  0  0  0  0  0  0  0  0  0  0
    2.6939    0.1268    5.0450 C   0  0  0  0  0  0  0  0  0  0  0  0
    3.5511    0.5665    3.8328 C   0  0  0  0  0  0  0  0  0  0  0  0
    4.6649   -1.7831    0.9113 C   0  0  2  0  0  0  0  0  0  0  0  0
    4.0194   -3.2150    1.1269 C   0  0  0  0  0  0  0  0  0  0  0  0
    3.9747   -3.9537   -0.2292 C   0  0  1  0  0  0  0  0  0  0  0  0
    3.1920   -3.1402   -1.2819 C   0  0  0  0  0  0  0  0  0  0  0  0
    3.8895   -1.7741   -1.5090 C   0  0  2  0  0  0  0  0  0  0  0  0
    5.3282   -1.9992   -2.0104 C   0  0  0  0  0  0  0  0  0  0  0  0
    6.0927   -2.8148   -0.9547 C   0  0  2  0  0  0  0  0  0  0  0  0
    5.4144   -4.1816   -0.7281 C   0  0  0  0  0  0  0  0  0  0  0  0
    6.1128   -2.0162    0.3835 C   0  0  0  0  0  0  0  0  0  0  0  0
    3.9111   -1.0049   -0.2275 C   0  0  0  0  0  0  0  0  0  0  0  0
    1.6599    0.0552    1.9558 H   0  0  0  0  0  0  0  0  0  0  0  0
    2.0406   -1.6502    1.7328 H   0  0  0  0  0  0  0  0  0  0  0  0
    0.3781   -1.5699    3.3761 H   0  0  0  0  0  0  0  0  0  0  0  0
    1.8503   -2.1680    4.1025 H   0  0  0  0  0  0  0  0  0  0  0  0
    0.7884   -0.4935    5.4416 H   0  0  0  0  0  0  0  0  0  0  0  0
    2.6426    0.9393    5.7777 H   0  0  0  0  0  0  0  0  0  0  0  0
    3.1564   -0.7297    5.5398 H   0  0  0  0  0  0  0  0  0  0  0  0
    4.5506    0.8199    4.1869 H   0  0  0  0  0  0  0  0  0  0  0  0
    3.1523    1.4897    3.4113 H   0  0  0  0  0  0  0  0  0  0  0  0
    4.6589   -3.7749    1.8343 H   0  0  0  0  0  0  0  0  0  0  0  0
    3.0278   -3.2342    1.5352 H   0  0  0  0  0  0  0  0  0  0  0  0
    3.4862   -4.9154   -0.0915 H   0  0  0  0  0  0  0  0  0  0  0  0
    3.1054   -3.6930   -2.2284 H   0  0  0  0  0  0  0  0  0  0  0  0
    2.1718   -2.9773   -0.9501 H   0  0  0  0  0  0  0  0  0  0  0  0
    3.3249   -1.2141   -2.2643 H   0  0  0  0  0  0  0  0  0  0  0  0
    5.3326   -2.5073   -2.9780 H   0  0  0  0  0  0  0  0  0  0  0  0
    5.7978   -1.0294   -2.1549 H   0  0  0  0  0  0  0  0  0  0  0  0
    7.1162   -2.9766   -1.3001 H   0  0  0  0  0  0  0  0  0  0  0  0
    5.9648   -4.7545    0.0155 H   0  0  0  0  0  0  0  0  0  0  0  0
    5.4018   -4.7689   -1.6456 H   0  0  0  0  0  0  0  0  0  0  0  0
    6.6322   -1.0725    0.2280 H   0  0  0  0  0  0  0  0  0  0  0  0
    6.7065   -2.5702    1.1049 H   0  0  0  0  0  0  0  0  0  0  0  0
    2.8739   -0.7964    0.0238 H   0  0  0  0  0  0  0  0  0  0  0  0
    4.3448    0.0088   -0.3492 H   0  0  0  0  0  0  0  0  0  0  0  0
  1  2  2  0
  2  3  1  0
  9  2  1  1
  3  8  1  0
  3  4  1  0
  4  5  1  0
  4 19  1  0
  4 20  1  0
  5  6  1  0
  5 21  1  0
  5 22  1  0
  6  7  1  0
  6 23  1  0
  7  8  1  0
  7 24  1  0
  7 25  1  0
  8 26  1  0
  8 27  1  0
  9 17  1  0
  9 18  1  0
  9 10  1  0
 10 11  1  0
 10 28  1  0
 10 29  1  0
 11 16  1  0
 11 12  1  0
 11 30  1  1
 12 13  1  0
 12 31  1  0
 12 32  1  0
 13 14  1  0
 13 18  1  0
 13 33  1  6
 14 15  1  0
 14 34  1  0
 14 35  1  0
 15 16  1  0
 15 17  1  0
 15 36  1  6
 16 37  1  0
 16 38  1  0
 17 39  1  0
 17 40  1  0
 18 41  1  0
 18 42  1  0
M  END
>  <i_m_ct_stereo_status>  (251) 
1

>  <s_m_source_file>  (251) 
/var/tmp/pbs.5076255.sched01/tmppxgjifq_/8475v0iq0b.sdf

>  <i_m_source_file_index>  (251) 
20

>  <i_lp_mmshare_version>  (251) 
48012

>  <i_f3d_flags>  (251) 
0

>  <s_epik_input>  (251) 
W0NIMl0xW0NIMl1bTkhdW0NIMl1bQ0gyXU4xQyg9TylDMjNbQ0gyXVtDQEBIXTRbQ0gyXVtDQEhdKFtDSDJdMylbQ0gyXVtDQEBIXShbQ0gyXTQpW0NIMl0y

>  <s_epik_cmdline>  (251) 
J2VwaWtfcHl0aG9uJywgJy1waHQnLCAnMi4wJywgJy1waCcsICc3LjAnLCAnLXRuJywgJzgnLCAnLW1hJywgJzIwMCcsICctaW1hZScsICc8aW5maWxlLm1hZT4nLCAnLW9tYWUnLCAnPG91dGZpbGUubWFlPic=

>  <r_epik_Ionization_Penalty>  (251) 
2.4793

>  <r_epik_Ionization_Penalty_Charging>  (251) 
0

>  <r_epik_Ionization_Penalty_Neutral>  (251) 
2.4793

>  <r_epik_State_Penalty>  (251) 
2.64279

>  <r_epik_Charging_Adjusted_Penalty>  (251) 
2.64279

>  <i_epik_Tot_Q>  (251) 
0

>  <i_epik_Tot_abs_Q>  (251) 
0

>  <s_lp_Force_Field>  (251) 
OPLS3e

>  <r_lp_Energy>  (251) 
30.144

>  <b_lp_Chiralities_Consistent>  (251) 
1

>  <s_lp_Variant>  (251) 
66:0-2

>  <s_i_glide_gridfile>  (251) 
pfpi4k_grid

>  <i_i_glide_lignum>  (251) 
20

>  <i_i_glide_rotatable_bonds>  (251) 
2

>  <r_i_docking_score>  (251) 
-2.70386

>  <r_i_glide_ligand_efficiency>  (251) 
-0.150214

>  <r_i_glide_ligand_efficiency_sa>  (251) 
-0.393673

>  <r_i_glide_ligand_efficiency_ln>  (251) 
-0.695013

>  <r_i_glide_gscore>  (251) 
-2.70386

>  <r_i_glide_lipo>  (251) 
-0.173188

>  <r_i_glide_hbond>  (251) 
0

>  <r_i_glide_metal>  (251) 
-0

>  <r_i_glide_rewards>  (251) 
-1.83983

>  <r_i_glide_evdw>  (251) 
-21.8721

>  <r_i_glide_ecoul>  (251) 
-1.09046

>  <r_i_glide_erotb>  (251) 
0.566337

>  <r_i_glide_esite>  (251) 
0

>  <r_i_glide_emodel>  (251) 
-27.6838

>  <r_i_glide_energy>  (251) 
-22.9626

>  <r_i_glide_einternal>  (251) 
0.404708

>  <r_i_glide_intrahb_reward>  (251) 
-0

>  <i_i_glide_confnum>  (251) 
5

>  <i_i_glide_posenum>  (251) 
2

>  <r_i_glide_eff_state_penalty>  (251) 
0

>  <ligand_id>  (251) 
66

>  <original_smiles>  (251) 
O=C(N1CCNCC1)C12CC3CC(CC(C3)C1)C2

>  <smiles>  (251) 
[H]N1C([H])([H])C([H])([H])N(C(=O)C23C([H])([H])C4([H])C([H])([H])C([H])(C([H])([H])C([H])(C4([H])[H])C2([H])[H])C3([H])[H])C([H])([H])C1([H])[H]

$$$$
68:0:0
     RDKit          3D

 30 29  0  0  1  0  0  0  0  0999 V2000
    3.4152    0.9670   -5.3105 C   0  0  0  0  0  0  0  0  0  0  0  0
    2.9124   -0.0123   -4.2581 C   0  0  0  0  0  0  0  0  0  0  0  0
    3.9933   -0.4654   -3.2714 C   0  0  0  0  0  0  0  0  0  0  0  0
    3.4402   -1.3638   -2.1588 C   0  0  0  0  0  0  0  0  0  0  0  0
    4.7327   -1.7185   -0.9307 S   0  0  0  0  0  0  0  0  0  0  0  0
    5.3224   -3.6328   -1.3145 S   0  0  0  0  0  0  0  0  0  0  0  0
    4.1943   -4.7039   -0.3641 C   0  0  0  0  0  0  0  0  0  0  0  0
    4.5192   -4.6583    1.1398 C   0  0  0  0  0  0  0  0  0  0  0  0
    3.6146   -5.5806    1.9746 C   0  0  0  0  0  0  0  0  0  0  0  0
    2.1789   -5.0474    2.1327 C   0  0  0  0  0  0  0  0  0  0  0  0
    1.0096   -6.3683    1.5425 S   0  0  0  0  0  0  0  0  0  0  0  0
    0.6333   -5.9302    0.1240 O   0  0  0  0  0  0  0  0  0  0  0  0
   -0.1898   -6.2612    2.4833 O   0  0  0  0  0  0  0  0  0  0  0  0
    2.6051    1.2717   -5.9687 H   0  0  0  0  0  0  0  0  0  0  0  0
    4.2075    0.5478   -5.9218 H   0  0  0  0  0  0  0  0  0  0  0  0
    3.7996    1.8627   -4.8250 H   0  0  0  0  0  0  0  0  0  0  0  0
    2.1311    0.5165   -3.7173 H   0  0  0  0  0  0  0  0  0  0  0  0
    2.4484   -0.8808   -4.7202 H   0  0  0  0  0  0  0  0  0  0  0  0
    4.7772   -0.9983   -3.8040 H   0  0  0  0  0  0  0  0  0  0  0  0
    4.4504    0.4149   -2.8174 H   0  0  0  0  0  0  0  0  0  0  0  0
    2.6251   -0.8547   -1.6570 H   0  0  0  0  0  0  0  0  0  0  0  0
    3.0322   -2.2912   -2.5590 H   0  0  0  0  0  0  0  0  0  0  0  0
    3.1606   -4.4223   -0.5626 H   0  0  0  0  0  0  0  0  0  0  0  0
    4.3066   -5.7264   -0.7192 H   0  0  0  0  0  0  0  0  0  0  0  0
    5.5546   -4.9715    1.2822 H   0  0  0  0  0  0  0  0  0  0  0  0
    4.4590   -3.6350    1.5149 H   0  0  0  0  0  0  0  0  0  0  0  0
    3.6312   -6.5830    1.5339 H   0  0  0  0  0  0  0  0  0  0  0  0
    4.0416   -5.7005    2.9719 H   0  0  0  0  0  0  0  0  0  0  0  0
    1.9625   -4.7890    3.1703 H   0  0  0  0  0  0  0  0  0  0  0  0
    2.0136   -4.1427    1.5469 H   0  0  0  0  0  0  0  0  0  0  0  0
  1  2  1  0
  1 14  1  0
  1 15  1  0
  1 16  1  0
  2  3  1  0
  2 17  1  0
  2 18  1  0
  3  4  1  0
  3 19  1  0
  3 20  1  0
  4  5  1  0
  4 21  1  0
  4 22  1  0
  5  6  1  0
  6  7  1  0
  7  8  1  0
  7 23  1  0
  7 24  1  0
  8  9  1  0
  8 25  1  0
  8 26  1  0
  9 10  1  0
  9 27  1  0
  9 28  1  0
 10 11  1  0
 10 29  1  0
 10 30  1  0
 11 12  2  0
 11 13  1  1
M  CHG  1  13  -1
M  END
>  <i_m_ct_stereo_status>  (252) 
1

>  <s_m_source_file>  (252) 
/var/tmp/pbs.5076255.sched01/tmppxgjifq_/8475v0iq0b.sdf

>  <i_m_source_file_index>  (252) 
22

>  <i_lp_mmshare_version>  (252) 
48012

>  <i_f3d_flags>  (252) 
0

>  <s_epik_input>  (252) 
W0NIM11bQ0gyXVtDSDJdW0NIMl1TU1tDSDJdW0NIMl1bQ0gyXVtDSDJdW1NAXSg9TylbT0hd

>  <s_epik_cmdline>  (252) 
J2VwaWtfcHl0aG9uJywgJy1waHQnLCAnMi4wJywgJy1waCcsICc3LjAnLCAnLXRuJywgJzgnLCAnLW1hJywgJzIwMCcsICctaW1hZScsICc8aW5maWxlLm1hZT4nLCAnLW9tYWUnLCAnPG91dGZpbGUubWFlPic=

>  <r_lp_tautomer_probability>  (252) 
1

>  <r_epik_Ionization_Penalty>  (252) 
1.37298e-05

>  <r_epik_Ionization_Penalty_Charging>  (252) 
1.37298e-05

>  <r_epik_Ionization_Penalty_Neutral>  (252) 
0

>  <r_epik_State_Penalty>  (252) 
-0

>  <r_epik_Charging_Adjusted_Penalty>  (252) 
1.37298e-05

>  <i_epik_Tot_Q>  (252) 
-1

>  <i_epik_Tot_abs_Q>  (252) 
1

>  <s_lp_Force_Field>  (252) 
OPLS3e

>  <r_lp_Energy>  (252) 
-0.717302

>  <b_lp_Chiralities_Consistent>  (252) 
1

>  <s_lp_Variant>  (252) 
68:0-1

>  <s_i_glide_gridfile>  (252) 
pfpi4k_grid

>  <i_i_glide_lignum>  (252) 
22

>  <i_i_glide_rotatable_bonds>  (252) 
9

>  <r_i_docking_score>  (252) 
-0.605435

>  <r_i_glide_ligand_efficiency>  (252) 
-0.0465719

>  <r_i_glide_ligand_efficiency_sa>  (252) 
-0.109506

>  <r_i_glide_ligand_efficiency_ln>  (252) 
-0.16983

>  <r_i_glide_gscore>  (252) 
-0.605435

>  <r_i_glide_lipo>  (252) 
-0.496021

>  <r_i_glide_hbond>  (252) 
-0.540723

>  <r_i_glide_metal>  (252) 
-0

>  <r_i_glide_rewards>  (252) 
-1.76306

>  <r_i_glide_evdw>  (252) 
-17.4545

>  <r_i_glide_ecoul>  (252) 
-6.74227

>  <r_i_glide_erotb>  (252) 
4.1614

>  <r_i_glide_esite>  (252) 
-0.0829679

>  <r_i_glide_emodel>  (252) 
-22.4056

>  <r_i_glide_energy>  (252) 
-24.1967

>  <r_i_glide_einternal>  (252) 
6.45366

>  <r_i_glide_intrahb_reward>  (252) 
-0

>  <i_i_glide_confnum>  (252) 
7

>  <i_i_glide_posenum>  (252) 
14

>  <r_i_glide_eff_state_penalty>  (252) 
0

>  <ligand_id>  (252) 
68

>  <original_smiles>  (252) 
CCCCSSCCCCS(=O)O

>  <smiles>  (252) 
[H]C([H])([H])C([H])([H])C([H])([H])C([H])([H])SSC([H])([H])C([H])([H])C([H])([H])C([H])([H])S(=O)[O-]

$$$$
68:0:1
     RDKit          3D

 30 29  0  0  1  0  0  0  0  0999 V2000
    2.6181    0.5722   -5.0377 C   0  0  0  0  0  0  0  0  0  0  0  0
    3.8235   -0.1088   -4.3817 C   0  0  0  0  0  0  0  0  0  0  0  0
    3.4946   -1.5045   -3.8186 C   0  0  0  0  0  0  0  0  0  0  0  0
    3.2328   -1.5015   -2.3039 C   0  0  0  0  0  0  0  0  0  0  0  0
    4.7599   -1.4288   -1.3134 S   0  0  0  0  0  0  0  0  0  0  0  0
    5.7956   -3.1219   -1.7871 S   0  0  0  0  0  0  0  0  0  0  0  0
    4.7358   -4.4567   -1.1611 C   0  0  0  0  0  0  0  0  0  0  0  0
    4.7476   -4.5805    0.3712 C   0  0  0  0  0  0  0  0  0  0  0  0
    3.6872   -5.5714    0.8944 C   0  0  0  0  0  0  0  0  0  0  0  0
    2.2462   -5.0698    0.7347 C   0  0  0  0  0  0  0  0  0  0  0  0
    1.0776   -6.3287    1.4291 S   0  0  0  0  0  0  0  0  0  0  0  0
   -0.1276   -6.2607    0.4885 O   0  0  0  0  0  0  0  0  0  0  0  0
    0.7761   -5.8575    2.8504 O   0  0  0  0  0  0  0  0  0  0  0  0
    2.8801    1.5590   -5.4218 H   0  0  0  0  0  0  0  0  0  0  0  0
    1.8108    0.6987   -4.3210 H   0  0  0  0  0  0  0  0  0  0  0  0
    2.2331   -0.0177   -5.8678 H   0  0  0  0  0  0  0  0  0  0  0  0
    4.6046   -0.2043   -5.1203 H   0  0  0  0  0  0  0  0  0  0  0  0
    4.2217    0.5418   -3.5969 H   0  0  0  0  0  0  0  0  0  0  0  0
    2.6150   -1.9092   -4.3217 H   0  0  0  0  0  0  0  0  0  0  0  0
    4.2964   -2.2020   -4.0618 H   0  0  0  0  0  0  0  0  0  0  0  0
    2.6150   -0.6543   -2.0322 H   0  0  0  0  0  0  0  0  0  0  0  0
    2.6589   -2.3830   -2.0188 H   0  0  0  0  0  0  0  0  0  0  0  0
    3.7355   -4.2542   -1.5309 H   0  0  0  0  0  0  0  0  0  0  0  0
    5.0170   -5.4110   -1.6079 H   0  0  0  0  0  0  0  0  0  0  0  0
    5.7376   -4.9201    0.6787 H   0  0  0  0  0  0  0  0  0  0  0  0
    4.6030   -3.6081    0.8452 H   0  0  0  0  0  0  0  0  0  0  0  0
    3.8020   -6.5337    0.3991 H   0  0  0  0  0  0  0  0  0  0  0  0
    3.8691   -5.7445    1.9531 H   0  0  0  0  0  0  0  0  0  0  0  0
    2.1259   -4.1259    1.2620 H   0  0  0  0  0  0  0  0  0  0  0  0
    1.9772   -4.8960   -0.3046 H   0  0  0  0  0  0  0  0  0  0  0  0
  1  2  1  0
  1 14  1  0
  1 15  1  0
  1 16  1  0
  2  3  1  0
  2 17  1  0
  2 18  1  0
  3  4  1  0
  3 19  1  0
  3 20  1  0
  4  5  1  0
  4 21  1  0
  4 22  1  0
  5  6  1  0
  6  7  1  0
  7  8  1  0
  7 23  1  0
  7 24  1  0
  8  9  1  0
  8 25  1  0
  8 26  1  0
  9 10  1  0
  9 27  1  0
  9 28  1  0
 10 11  1  0
 10 29  1  0
 10 30  1  0
 11 12  2  0
 11 13  1  1
M  CHG  1  13  -1
M  END
>  <i_m_ct_stereo_status>  (253) 
1

>  <s_m_source_file>  (253) 
/var/tmp/pbs.5076255.sched01/tmppxgjifq_/8475v0iq0b.sdf

>  <i_m_source_file_index>  (253) 
22

>  <i_lp_mmshare_version>  (253) 
48012

>  <i_f3d_flags>  (253) 
0

>  <s_epik_input>  (253) 
W0NIM11bQ0gyXVtDSDJdW0NIMl1TU1tDSDJdW0NIMl1bQ0gyXVtDSDJdW1NAXSg9TylbT0hd

>  <s_epik_cmdline>  (253) 
J2VwaWtfcHl0aG9uJywgJy1waHQnLCAnMi4wJywgJy1waCcsICc3LjAnLCAnLXRuJywgJzgnLCAnLW1hJywgJzIwMCcsICctaW1hZScsICc8aW5maWxlLm1hZT4nLCAnLW9tYWUnLCAnPG91dGZpbGUubWFlPic=

>  <r_lp_tautomer_probability>  (253) 
1

>  <r_epik_Ionization_Penalty>  (253) 
1.37298e-05

>  <r_epik_Ionization_Penalty_Charging>  (253) 
1.37298e-05

>  <r_epik_Ionization_Penalty_Neutral>  (253) 
0

>  <r_epik_State_Penalty>  (253) 
-0

>  <r_epik_Charging_Adjusted_Penalty>  (253) 
1.37298e-05

>  <i_epik_Tot_Q>  (253) 
-1

>  <i_epik_Tot_abs_Q>  (253) 
1

>  <s_lp_Force_Field>  (253) 
OPLS3e

>  <r_lp_Energy>  (253) 
-0.717302

>  <b_lp_Chiralities_Consistent>  (253) 
1

>  <s_lp_Variant>  (253) 
68:0-1

>  <s_i_glide_gridfile>  (253) 
pfpi4k_grid

>  <i_i_glide_lignum>  (253) 
22

>  <i_i_glide_rotatable_bonds>  (253) 
9

>  <r_i_docking_score>  (253) 
-0.336816

>  <r_i_glide_ligand_efficiency>  (253) 
-0.0259089

>  <r_i_glide_ligand_efficiency_sa>  (253) 
-0.0609206

>  <r_i_glide_ligand_efficiency_ln>  (253) 
-0.09448

>  <r_i_glide_gscore>  (253) 
-0.336816

>  <r_i_glide_lipo>  (253) 
-0.574142

>  <r_i_glide_hbond>  (253) 
-0.238102

>  <r_i_glide_metal>  (253) 
-0

>  <r_i_glide_rewards>  (253) 
-1.76306

>  <r_i_glide_evdw>  (253) 
-21.8765

>  <r_i_glide_ecoul>  (253) 
-4.96954

>  <r_i_glide_erotb>  (253) 
4.1614

>  <r_i_glide_esite>  (253) 
-0.0836577

>  <r_i_glide_emodel>  (253) 
-24.5197

>  <r_i_glide_energy>  (253) 
-26.846

>  <r_i_glide_einternal>  (253) 
5.75489

>  <r_i_glide_intrahb_reward>  (253) 
-0

>  <i_i_glide_confnum>  (253) 
7

>  <i_i_glide_posenum>  (253) 
36

>  <r_i_glide_eff_state_penalty>  (253) 
0

>  <ligand_id>  (253) 
68

>  <original_smiles>  (253) 
CCCCSSCCCCS(=O)O

>  <smiles>  (253) 
[H]C([H])([H])C([H])([H])C([H])([H])C([H])([H])SSC([H])([H])C([H])([H])C([H])([H])C([H])([H])S(=O)[O-]

$$$$
68:0:2
     RDKit          3D

 30 29  0  0  1  0  0  0  0  0999 V2000
    3.7442    1.1274   -4.7346 C   0  0  0  0  0  0  0  0  0  0  0  0
    2.5308    0.2185   -4.8476 C   0  0  0  0  0  0  0  0  0  0  0  0
    2.7352   -1.1744   -4.2260 C   0  0  0  0  0  0  0  0  0  0  0  0
    2.9287   -1.1306   -2.7110 C   0  0  0  0  0  0  0  0  0  0  0  0
    4.6826   -1.1156   -2.2527 S   0  0  0  0  0  0  0  0  0  0  0  0
    5.3502   -2.9903   -2.7040 S   0  0  0  0  0  0  0  0  0  0  0  0
    5.3604   -3.8996   -1.1318 C   0  0  0  0  0  0  0  0  0  0  0  0
    4.0731   -3.7236   -0.3178 C   0  0  0  0  0  0  0  0  0  0  0  0
    3.7539   -4.9623    0.5237 C   0  0  0  0  0  0  0  0  0  0  0  0
    2.6178   -4.7055    1.5269 C   0  0  0  0  0  0  0  0  0  0  0  0
    1.4541   -6.1544    1.4782 S   0  0  0  0  0  0  0  0  0  0  0  0
    0.6096   -5.9710    0.2046 O   0  0  0  0  0  0  0  0  0  0  0  0
    0.5825   -6.0311    2.7380 O   0  0  0  0  0  0  0  0  0  0  0  0
    3.5185    2.0923   -5.1838 H   0  0  0  0  0  0  0  0  0  0  0  0
    4.5828    0.6747   -5.2345 H   0  0  0  0  0  0  0  0  0  0  0  0
    4.0378    1.3150   -3.6999 H   0  0  0  0  0  0  0  0  0  0  0  0
    1.6854    0.7214   -4.3827 H   0  0  0  0  0  0  0  0  0  0  0  0
    2.2775    0.1236   -5.8985 H   0  0  0  0  0  0  0  0  0  0  0  0
    1.8299   -1.7634   -4.3610 H   0  0  0  0  0  0  0  0  0  0  0  0
    3.5260   -1.7238   -4.7308 H   0  0  0  0  0  0  0  0  0  0  0  0
    2.4271   -0.2620   -2.3135 H   0  0  0  0  0  0  0  0  0  0  0  0
    2.4463   -1.9928   -2.2735 H   0  0  0  0  0  0  0  0  0  0  0  0
    5.4813   -4.9454   -1.3749 H   0  0  0  0  0  0  0  0  0  0  0  0
    6.2251   -3.5906   -0.5427 H   0  0  0  0  0  0  0  0  0  0  0  0
    4.1514   -2.8233    0.2925 H   0  0  0  0  0  0  0  0  0  0  0  0
    3.2262   -3.5977   -0.9795 H   0  0  0  0  0  0  0  0  0  0  0  0
    3.4899   -5.7550   -0.1798 H   0  0  0  0  0  0  0  0  0  0  0  0
    4.6340   -5.3104    1.0635 H   0  0  0  0  0  0  0  0  0  0  0  0
    3.0081   -4.5586    2.5328 H   0  0  0  0  0  0  0  0  0  0  0  0
    2.0441   -3.8211    1.2724 H   0  0  0  0  0  0  0  0  0  0  0  0
  1  2  1  0
  1 14  1  0
  1 15  1  0
  1 16  1  0
  2  3  1  0
  2 17  1  0
  2 18  1  0
  3  4  1  0
  3 19  1  0
  3 20  1  0
  4  5  1  0
  4 21  1  0
  4 22  1  0
  5  6  1  0
  6  7  1  0
  7  8  1  0
  7 23  1  0
  7 24  1  0
  8  9  1  0
  8 25  1  0
  8 26  1  0
  9 10  1  0
  9 27  1  0
  9 28  1  0
 10 11  1  0
 10 29  1  0
 10 30  1  0
 11 12  2  0
 11 13  1  1
M  CHG  1  13  -1
M  END
>  <i_m_ct_stereo_status>  (254) 
1

>  <s_m_source_file>  (254) 
/var/tmp/pbs.5076255.sched01/tmppxgjifq_/8475v0iq0b.sdf

>  <i_m_source_file_index>  (254) 
22

>  <i_lp_mmshare_version>  (254) 
48012

>  <i_f3d_flags>  (254) 
0

>  <s_epik_input>  (254) 
W0NIM11bQ0gyXVtDSDJdW0NIMl1TU1tDSDJdW0NIMl1bQ0gyXVtDSDJdW1NAXSg9TylbT0hd

>  <s_epik_cmdline>  (254) 
J2VwaWtfcHl0aG9uJywgJy1waHQnLCAnMi4wJywgJy1waCcsICc3LjAnLCAnLXRuJywgJzgnLCAnLW1hJywgJzIwMCcsICctaW1hZScsICc8aW5maWxlLm1hZT4nLCAnLW9tYWUnLCAnPG91dGZpbGUubWFlPic=

>  <r_lp_tautomer_probability>  (254) 
1

>  <r_epik_Ionization_Penalty>  (254) 
1.37298e-05

>  <r_epik_Ionization_Penalty_Charging>  (254) 
1.37298e-05

>  <r_epik_Ionization_Penalty_Neutral>  (254) 
0

>  <r_epik_State_Penalty>  (254) 
-0

>  <r_epik_Charging_Adjusted_Penalty>  (254) 
1.37298e-05

>  <i_epik_Tot_Q>  (254) 
-1

>  <i_epik_Tot_abs_Q>  (254) 
1

>  <s_lp_Force_Field>  (254) 
OPLS3e

>  <r_lp_Energy>  (254) 
-0.717302

>  <b_lp_Chiralities_Consistent>  (254) 
1

>  <s_lp_Variant>  (254) 
68:0-1

>  <s_i_glide_gridfile>  (254) 
pfpi4k_grid

>  <i_i_glide_lignum>  (254) 
22

>  <i_i_glide_rotatable_bonds>  (254) 
9

>  <r_i_docking_score>  (254) 
0.00934645

>  <r_i_glide_ligand_efficiency>  (254) 
0.000718958

>  <r_i_glide_ligand_efficiency_sa>  (254) 
0.00169051

>  <r_i_glide_ligand_efficiency_ln>  (254) 
0.00262176

>  <r_i_glide_gscore>  (254) 
0.00934645

>  <r_i_glide_lipo>  (254) 
-0.236099

>  <r_i_glide_hbond>  (254) 
-0.366645

>  <r_i_glide_metal>  (254) 
-0

>  <r_i_glide_rewards>  (254) 
-1.76306

>  <r_i_glide_evdw>  (254) 
-19.7639

>  <r_i_glide_ecoul>  (254) 
-4.86257

>  <r_i_glide_erotb>  (254) 
4.1614

>  <r_i_glide_esite>  (254) 
-0.0686703

>  <r_i_glide_emodel>  (254) 
-19.3118

>  <r_i_glide_energy>  (254) 
-24.6265

>  <r_i_glide_einternal>  (254) 
9.67286

>  <r_i_glide_intrahb_reward>  (254) 
-0

>  <i_i_glide_confnum>  (254) 
2

>  <i_i_glide_posenum>  (254) 
23

>  <r_i_glide_eff_state_penalty>  (254) 
0

>  <ligand_id>  (254) 
68

>  <original_smiles>  (254) 
CCCCSSCCCCS(=O)O

>  <smiles>  (254) 
[H]C([H])([H])C([H])([H])C([H])([H])C([H])([H])SSC([H])([H])C([H])([H])C([H])([H])C([H])([H])S(=O)[O-]

$$$$
69:1:0
     RDKit          3D

 49 53  0  0  1  0  0  0  0  0999 V2000
   -1.5155   -8.7926    4.0927 C   0  0  0  0  0  0  0  0  0  0  0  0
   -1.0098   -7.6055    3.4953 O   0  0  0  0  0  0  0  0  0  0  0  0
   -0.0770   -7.8477    2.4498 C   0  0  2  0  0  0  0  0  0  0  0  0
    1.1687   -8.6129    2.9482 C   0  0  0  0  0  0  0  0  0  0  0  0
    2.4302   -8.3953    2.0816 C   0  0  0  0  0  0  0  0  0  0  0  0
    2.6076   -6.9415    1.4830 C   0  0  2  0  0  0  0  0  0  0  0  0
    3.9806   -6.8378    0.8038 C   0  0  0  0  0  0  0  0  0  0  0  0
    5.0669   -7.0380    1.8877 C   0  0  0  0  0  0  0  0  0  0  0  0
    4.9247   -6.2330    3.1194 N   0  0  0  0  0  0  0  0  0  0  0  0
    5.8848   -6.6998    4.1203 C   0  0  0  0  0  0  0  0  0  0  0  0
    3.5353   -6.1039    3.6764 C   0  0  1  0  0  0  0  0  0  0  0  0
    3.4223   -4.8085    4.5357 C   0  0  0  0  0  0  0  0  0  0  0  0
    3.2347   -3.7498    3.4814 C   0  0  0  0  0  0  0  0  0  0  0  0
    3.4724   -2.3687    3.6224 C   0  0  0  0  0  0  0  0  0  0  0  0
    3.3564   -1.5638    2.4694 C   0  0  0  0  0  0  0  0  0  0  0  0
    3.0610   -2.1415    1.2097 C   0  0  0  0  0  0  0  0  0  0  0  0
    3.0157   -1.3418    0.0986 O   0  0  0  0  0  0  0  0  0  0  0  0
    2.8137   -3.5329    1.1066 C   0  0  0  0  0  0  0  0  0  0  0  0
    2.8623   -4.3317    2.2774 C   0  0  0  0  0  0  0  0  0  0  0  0
    2.5192   -5.8123    2.5349 C   0  0  1  0  0  0  0  0  0  0  0  0
    1.1418   -5.8728    2.9087 O   0  0  0  0  0  0  0  0  0  0  0  0
    0.3636   -6.4961    1.8744 C   0  0  1  0  0  0  0  0  0  0  0  0
    1.3103   -6.7599    0.6985 C   0  0  1  0  0  0  0  0  0  0  0  0
    1.2732   -5.7494   -0.2787 O   0  0  0  0  0  0  0  0  0  0  0  0
   -2.1846   -8.5521    4.9094 H   0  0  0  0  0  0  0  0  0  0  0  0
   -0.7269   -9.4046    4.5362 H   0  0  0  0  0  0  0  0  0  0  0  0
   -2.0659   -9.4000    3.3715 H   0  0  0  0  0  0  0  0  0  0  0  0
   -0.5848   -8.4172    1.6688 H   0  0  0  0  0  0  0  0  0  0  0  0
    1.3914   -8.2996    3.9688 H   0  0  0  0  0  0  0  0  0  0  0  0
    0.9583   -9.6817    3.0054 H   0  0  0  0  0  0  0  0  0  0  0  0
    3.2722   -8.7102    2.6954 H   0  0  0  0  0  0  0  0  0  0  0  0
    2.4047   -9.1069    1.2513 H   0  0  0  0  0  0  0  0  0  0  0  0
    4.1190   -7.5891    0.0248 H   0  0  0  0  0  0  0  0  0  0  0  0
    4.1115   -5.8682    0.3263 H   0  0  0  0  0  0  0  0  0  0  0  0
    5.1409   -8.0964    2.1423 H   0  0  0  0  0  0  0  0  0  0  0  0
    6.0300   -6.8073    1.4318 H   0  0  0  0  0  0  0  0  0  0  0  0
    5.9011   -6.0775    5.0113 H   0  0  0  0  0  0  0  0  0  0  0  0
    6.8949   -6.7049    3.7079 H   0  0  0  0  0  0  0  0  0  0  0  0
    5.6592   -7.7204    4.4259 H   0  0  0  0  0  0  0  0  0  0  0  0
    3.2867   -6.9972    4.2478 H   0  0  0  0  0  0  0  0  0  0  0  0
    2.5326   -4.8439    5.1654 H   0  0  0  0  0  0  0  0  0  0  0  0
    4.2908   -4.6097    5.1626 H   0  0  0  0  0  0  0  0  0  0  0  0
    3.7219   -1.9386    4.5833 H   0  0  0  0  0  0  0  0  0  0  0  0
    3.5130   -0.5003    2.5356 H   0  0  0  0  0  0  0  0  0  0  0  0
    2.1155   -1.2352   -0.2759 H   0  0  0  0  0  0  0  0  0  0  0  0
    2.6250   -3.9249    0.1308 H   0  0  0  0  0  0  0  0  0  0  0  0
   -0.5043   -5.9164    1.5809 H   0  0  0  0  0  0  0  0  0  0  0  0
    0.9802   -7.6609    0.1775 H   0  0  0  0  0  0  0  0  0  0  0  0
    2.0105   -5.8564   -0.8732 H   0  0  0  0  0  0  0  0  0  0  0  0
  1  2  1  0
  1 25  1  0
  1 26  1  0
  1 27  1  0
  2  3  1  0
  3 22  1  0
  3  4  1  0
  3 28  1  6
  4  5  1  0
  4 29  1  0
  4 30  1  0
  6  5  1  1
  5 31  1  0
  5 32  1  0
  6 20  1  0
  6 23  1  0
  6  7  1  0
  7  8  1  0
  7 33  1  0
  7 34  1  0
  8  9  1  0
  8 35  1  0
  8 36  1  0
  9 10  1  0
  9 11  1  0
 10 37  1  0
 10 38  1  0
 10 39  1  0
 11 20  1  0
 11 12  1  0
 11 40  1  1
 12 13  1  0
 12 41  1  0
 12 42  1  0
 13 19  2  0
 13 14  1  0
 14 15  2  0
 14 43  1  0
 15 16  1  0
 15 44  1  0
 16 17  1  0
 16 18  2  0
 17 45  1  0
 18 19  1  0
 18 46  1  0
 19 20  1  0
 20 21  1  1
 21 22  1  0
 22 23  1  0
 22 47  1  6
 23 24  1  0
 23 48  1  6
 24 49  1  0
M  END
>  <i_m_ct_stereo_status>  (255) 
1

>  <s_m_source_file>  (255) 
/var/tmp/pbs.5076255.sched01/tmppxgjifq_/8475v0iq0b.sdf

>  <i_m_source_file_index>  (255) 
24

>  <i_lp_mmshare_version>  (255) 
48012

>  <i_f3d_flags>  (255) 
0

>  <s_epik_input>  (255) 
W0NIM11PW0NASF0oW0NIMl1bQ0gyXTEpW0NASF0oW0NASF0yW09IXSlPW0NAXTMoW0NAQF0xMjQpW0NAQEhdKE4oW0NIM10pW0NIMl1bQ0gyXTQpW0NIMl1jNWMzW2NIXWMoW09IXSlbY0hdW2NIXTU=

>  <s_epik_cmdline>  (255) 
J2VwaWtfcHl0aG9uJywgJy1waHQnLCAnMi4wJywgJy1waCcsICc3LjAnLCAnLXRuJywgJzgnLCAnLW1hJywgJzIwMCcsICctaW1hZScsICc8aW5maWxlLm1hZT4nLCAnLW9tYWUnLCAnPG91dGZpbGUubWFlPic=

>  <r_lp_tautomer_probability>  (255) 
1

>  <r_epik_Ionization_Penalty>  (255) 
2.09532

>  <r_epik_Ionization_Penalty_Charging>  (255) 
0

>  <r_epik_Ionization_Penalty_Neutral>  (255) 
2.09532

>  <r_epik_State_Penalty>  (255) 
2.23075

>  <r_epik_Charging_Adjusted_Penalty>  (255) 
2.23075

>  <i_epik_Tot_Q>  (255) 
0

>  <i_epik_Tot_abs_Q>  (255) 
0

>  <s_lp_Force_Field>  (255) 
OPLS3e

>  <r_lp_Energy>  (255) 
53.5148

>  <b_lp_Chiralities_Consistent>  (255) 
1

>  <s_lp_Variant>  (255) 
69:0-2

>  <s_i_glide_gridfile>  (255) 
pfpi4k_grid

>  <i_i_glide_lignum>  (255) 
24

>  <i_i_glide_rotatable_bonds>  (255) 
3

>  <r_i_docking_score>  (255) 
-3.87855

>  <r_i_glide_ligand_efficiency>  (255) 
-0.161606

>  <r_i_glide_ligand_efficiency_sa>  (255) 
-0.466153

>  <r_i_glide_ligand_efficiency_ln>  (255) 
-0.928315

>  <r_i_glide_gscore>  (255) 
-3.87855

>  <r_i_glide_lipo>  (255) 
-0.160737

>  <r_i_glide_hbond>  (255) 
-0.135327

>  <r_i_glide_metal>  (255) 
-0

>  <r_i_glide_rewards>  (255) 
-1.1495

>  <r_i_glide_evdw>  (255) 
-12.3797

>  <r_i_glide_ecoul>  (255) 
-12.0933

>  <r_i_glide_erotb>  (255) 
0

>  <r_i_glide_esite>  (255) 
0

>  <r_i_glide_emodel>  (255) 
-29.1559

>  <r_i_glide_energy>  (255) 
-24.473

>  <r_i_glide_einternal>  (255) 
3.79728

>  <r_i_glide_intrahb_reward>  (255) 
-0

>  <i_i_glide_confnum>  (255) 
2

>  <i_i_glide_posenum>  (255) 
18

>  <r_i_glide_eff_state_penalty>  (255) 
0

>  <ligand_id>  (255) 
69

>  <original_smiles>  (255) 
COC1CCC23CCN(C)C4Cc5ccc(O)cc5C42OC1C3O

>  <smiles>  (255) 
[H]Oc1c([H])c([H])c2c(c1[H])C13OC4([H])C([H])(OC([H])([H])[H])C([H])([H])C([H])([H])C1(C([H])([H])C([H])([H])N(C([H])([H])[H])C3([H])C2([H])[H])C4([H])O[H]

$$$$
69:1:1
     RDKit          3D

 49 53  0  0  1  0  0  0  0  0999 V2000
    2.3943   -3.4170    6.1968 C   0  0  0  0  0  0  0  0  0  0  0  0
    2.4090   -3.2131    4.7884 O   0  0  0  0  0  0  0  0  0  0  0  0
    2.6563   -4.3822    4.0105 C   0  0  2  0  0  0  0  0  0  0  0  0
    4.1127   -4.8667    4.1815 C   0  0  0  0  0  0  0  0  0  0  0  0
    4.6300   -5.7247    2.9985 C   0  0  0  0  0  0  0  0  0  0  0  0
    4.1207   -5.2978    1.5614 C   0  0  2  0  0  0  0  0  0  0  0  0
    4.8536   -6.1308    0.5017 C   0  0  0  0  0  0  0  0  0  0  0  0
    6.3647   -5.7934    0.6112 C   0  0  0  0  0  0  0  0  0  0  0  0
    6.7241   -4.3594    0.6159 N   0  0  0  0  0  0  0  0  0  0  0  0
    8.1491   -4.2213    0.9210 C   0  0  0  0  0  0  0  0  0  0  0  0
    5.8677   -3.4685    1.4531 C   0  0  1  0  0  0  0  0  0  0  0  0
    5.9434   -2.0029    0.9339 C   0  0  0  0  0  0  0  0  0  0  0  0
    4.9890   -2.0369   -0.2309 C   0  0  0  0  0  0  0  0  0  0  0  0
    4.9400   -1.1458   -1.3159 C   0  0  0  0  0  0  0  0  0  0  0  0
    4.0409   -1.4240   -2.3706 C   0  0  0  0  0  0  0  0  0  0  0  0
    3.2628   -2.6042   -2.3414 C   0  0  0  0  0  0  0  0  0  0  0  0
    2.4705   -2.9165   -3.4124 O   0  0  0  0  0  0  0  0  0  0  0  0
    3.2979   -3.4483   -1.2135 C   0  0  0  0  0  0  0  0  0  0  0  0
    4.1533   -3.1462   -0.1321 C   0  0  0  0  0  0  0  0  0  0  0  0
    4.3606   -3.8028    1.2435 C   0  0  1  0  0  0  0  0  0  0  0  0
    3.4625   -3.1775    2.1540 O   0  0  0  0  0  0  0  0  0  0  0  0
    2.4006   -4.0738    2.5266 C   0  0  1  0  0  0  0  0  0  0  0  0
    2.6041   -5.3791    1.7194 C   0  0  1  0  0  0  0  0  0  0  0  0
    1.8206   -5.4617    0.5495 O   0  0  0  0  0  0  0  0  0  0  0  0
    2.2463   -2.4638    6.7079 H   0  0  0  0  0  0  0  0  0  0  0  0
    3.3306   -3.8336    6.5716 H   0  0  0  0  0  0  0  0  0  0  0  0
    1.5760   -4.0792    6.4815 H   0  0  0  0  0  0  0  0  0  0  0  0
    1.9563   -5.1610    4.3167 H   0  0  0  0  0  0  0  0  0  0  0  0
    4.7644   -3.9995    4.2924 H   0  0  0  0  0  0  0  0  0  0  0  0
    4.2199   -5.4292    5.1075 H   0  0  0  0  0  0  0  0  0  0  0  0
    5.7140   -5.7293    3.0844 H   0  0  0  0  0  0  0  0  0  0  0  0
    4.3343   -6.7627    3.1651 H   0  0  0  0  0  0  0  0  0  0  0  0
    4.6927   -7.2036    0.6422 H   0  0  0  0  0  0  0  0  0  0  0  0
    4.5013   -5.8970   -0.5025 H   0  0  0  0  0  0  0  0  0  0  0  0
    6.8052   -6.2958    1.4712 H   0  0  0  0  0  0  0  0  0  0  0  0
    6.8645   -6.2500   -0.2379 H   0  0  0  0  0  0  0  0  0  0  0  0
    8.4986   -3.1911    0.8501 H   0  0  0  0  0  0  0  0  0  0  0  0
    8.7508   -4.8174    0.2362 H   0  0  0  0  0  0  0  0  0  0  0  0
    8.3637   -4.5796    1.9275 H   0  0  0  0  0  0  0  0  0  0  0  0
    6.1732   -3.5506    2.4971 H   0  0  0  0  0  0  0  0  0  0  0  0
    5.5576   -1.3088    1.6817 H   0  0  0  0  0  0  0  0  0  0  0  0
    6.9402   -1.6791    0.6319 H   0  0  0  0  0  0  0  0  0  0  0  0
    5.5670   -0.2681   -1.3297 H   0  0  0  0  0  0  0  0  0  0  0  0
    3.9611   -0.7497   -3.2107 H   0  0  0  0  0  0  0  0  0  0  0  0
    1.9423   -3.6955   -3.2845 H   0  0  0  0  0  0  0  0  0  0  0  0
    2.6918   -4.3209   -1.2347 H   0  0  0  0  0  0  0  0  0  0  0  0
    1.4140   -3.6311    2.3969 H   0  0  0  0  0  0  0  0  0  0  0  0
    2.3105   -6.2639    2.2896 H   0  0  0  0  0  0  0  0  0  0  0  0
    2.3515   -5.8733   -0.1187 H   0  0  0  0  0  0  0  0  0  0  0  0
  1  2  1  0
  1 25  1  0
  1 26  1  0
  1 27  1  0
  2  3  1  0
  3 22  1  0
  3  4  1  0
  3 28  1  1
  4  5  1  0
  4 29  1  0
  4 30  1  0
  6  5  1  1
  5 31  1  0
  5 32  1  0
  6 20  1  0
  6 23  1  0
  6  7  1  0
  7  8  1  0
  7 33  1  0
  7 34  1  0
  8  9  1  0
  8 35  1  0
  8 36  1  0
  9 10  1  0
  9 11  1  0
 10 37  1  0
 10 38  1  0
 10 39  1  0
 11 20  1  0
 11 12  1  0
 11 40  1  1
 12 13  1  0
 12 41  1  0
 12 42  1  0
 13 19  2  0
 13 14  1  0
 14 15  2  0
 14 43  1  0
 15 16  1  0
 15 44  1  0
 16 17  1  0
 16 18  2  0
 17 45  1  0
 18 19  1  0
 18 46  1  0
 19 20  1  0
 20 21  1  1
 21 22  1  0
 22 23  1  0
 22 47  1  1
 23 24  1  0
 23 48  1  1
 24 49  1  0
M  END
>  <i_m_ct_stereo_status>  (256) 
1

>  <s_m_source_file>  (256) 
/var/tmp/pbs.5076255.sched01/tmppxgjifq_/8475v0iq0b.sdf

>  <i_m_source_file_index>  (256) 
24

>  <i_lp_mmshare_version>  (256) 
48012

>  <i_f3d_flags>  (256) 
0

>  <s_epik_input>  (256) 
W0NIM11PW0NASF0oW0NIMl1bQ0gyXTEpW0NASF0oW0NASF0yW09IXSlPW0NAXTMoW0NAQF0xMjQpW0NAQEhdKE4oW0NIM10pW0NIMl1bQ0gyXTQpW0NIMl1jNWMzW2NIXWMoW09IXSlbY0hdW2NIXTU=

>  <s_epik_cmdline>  (256) 
J2VwaWtfcHl0aG9uJywgJy1waHQnLCAnMi4wJywgJy1waCcsICc3LjAnLCAnLXRuJywgJzgnLCAnLW1hJywgJzIwMCcsICctaW1hZScsICc8aW5maWxlLm1hZT4nLCAnLW9tYWUnLCAnPG91dGZpbGUubWFlPic=

>  <r_lp_tautomer_probability>  (256) 
1

>  <r_epik_Ionization_Penalty>  (256) 
2.09532

>  <r_epik_Ionization_Penalty_Charging>  (256) 
0

>  <r_epik_Ionization_Penalty_Neutral>  (256) 
2.09532

>  <r_epik_State_Penalty>  (256) 
2.23075

>  <r_epik_Charging_Adjusted_Penalty>  (256) 
2.23075

>  <i_epik_Tot_Q>  (256) 
0

>  <i_epik_Tot_abs_Q>  (256) 
0

>  <s_lp_Force_Field>  (256) 
OPLS3e

>  <r_lp_Energy>  (256) 
53.5148

>  <b_lp_Chiralities_Consistent>  (256) 
1

>  <s_lp_Variant>  (256) 
69:0-2

>  <s_i_glide_gridfile>  (256) 
pfpi4k_grid

>  <i_i_glide_lignum>  (256) 
24

>  <i_i_glide_rotatable_bonds>  (256) 
3

>  <r_i_docking_score>  (256) 
-3.61643

>  <r_i_glide_ligand_efficiency>  (256) 
-0.150684

>  <r_i_glide_ligand_efficiency_sa>  (256) 
-0.434649

>  <r_i_glide_ligand_efficiency_ln>  (256) 
-0.865576

>  <r_i_glide_gscore>  (256) 
-3.61643

>  <r_i_glide_lipo>  (256) 
-0.661024

>  <r_i_glide_hbond>  (256) 
-0.0449182

>  <r_i_glide_metal>  (256) 
-0

>  <r_i_glide_rewards>  (256) 
-1.1495

>  <r_i_glide_evdw>  (256) 
-20.9307

>  <r_i_glide_ecoul>  (256) 
-4.76298

>  <r_i_glide_erotb>  (256) 
0

>  <r_i_glide_esite>  (256) 
0

>  <r_i_glide_emodel>  (256) 
-31.8098

>  <r_i_glide_energy>  (256) 
-25.6936

>  <r_i_glide_einternal>  (256) 
1.15452

>  <r_i_glide_intrahb_reward>  (256) 
-0

>  <i_i_glide_confnum>  (256) 
2

>  <i_i_glide_posenum>  (256) 
11

>  <r_i_glide_eff_state_penalty>  (256) 
0

>  <ligand_id>  (256) 
69

>  <original_smiles>  (256) 
COC1CCC23CCN(C)C4Cc5ccc(O)cc5C42OC1C3O

>  <smiles>  (256) 
[H]Oc1c([H])c([H])c2c(c1[H])C13OC4([H])C([H])(OC([H])([H])[H])C([H])([H])C([H])([H])C1(C([H])([H])C([H])([H])N(C([H])([H])[H])C3([H])C2([H])[H])C4([H])O[H]

$$$$
69:1:2
     RDKit          3D

 49 53  0  0  1  0  0  0  0  0999 V2000
    2.3506   -3.3977    6.2846 C   0  0  0  0  0  0  0  0  0  0  0  0
    2.3907   -3.1937    4.8769 O   0  0  0  0  0  0  0  0  0  0  0  0
    2.6447   -4.3663    4.1066 C   0  0  2  0  0  0  0  0  0  0  0  0
    4.0992   -4.8534    4.2895 C   0  0  0  0  0  0  0  0  0  0  0  0
    4.6251   -5.7159    3.1140 C   0  0  0  0  0  0  0  0  0  0  0  0
    4.1248   -5.2977    1.6711 C   0  0  2  0  0  0  0  0  0  0  0  0
    4.8679   -6.1310    0.6203 C   0  0  0  0  0  0  0  0  0  0  0  0
    6.3809   -5.7954    0.7358 C   0  0  0  0  0  0  0  0  0  0  0  0
    6.7379   -4.3602    0.7402 N   0  0  0  0  0  0  0  0  0  0  0  0
    8.1604   -4.2234    1.0541 C   0  0  0  0  0  0  0  0  0  0  0  0
    5.8743   -3.4663    1.5672 C   0  0  1  0  0  0  0  0  0  0  0  0
    5.9522   -2.0011    1.0426 C   0  0  0  0  0  0  0  0  0  0  0  0
    5.0072   -2.0389   -0.1292 C   0  0  0  0  0  0  0  0  0  0  0  0
    4.9638   -1.1463   -1.2154 C   0  0  0  0  0  0  0  0  0  0  0  0
    4.0782   -1.4334   -2.2773 C   0  0  0  0  0  0  0  0  0  0  0  0
    3.3032   -2.6156   -2.2569 C   0  0  0  0  0  0  0  0  0  0  0  0
    2.5146   -2.9279   -3.3296 O   0  0  0  0  0  0  0  0  0  0  0  0
    3.3358   -3.4648   -1.1328 C   0  0  0  0  0  0  0  0  0  0  0  0
    4.1759   -3.1528   -0.0399 C   0  0  0  0  0  0  0  0  0  0  0  0
    4.3694   -3.8024    1.3438 C   0  0  1  0  0  0  0  0  0  0  0  0
    3.4632   -3.1683    2.2412 O   0  0  0  0  0  0  0  0  0  0  0  0
    2.3992   -4.0630    2.6182 C   0  0  1  0  0  0  0  0  0  0  0  0
    2.6059   -5.3737    1.8215 C   0  0  1  0  0  0  0  0  0  0  0  0
    1.8320   -5.4599    0.6498 O   0  0  0  0  0  0  0  0  0  0  0  0
    2.2084   -2.4420    6.7918 H   0  0  0  0  0  0  0  0  0  0  0  0
    3.2740   -3.8286    6.6733 H   0  0  0  0  0  0  0  0  0  0  0  0
    1.5205   -4.0495    6.5580 H   0  0  0  0  0  0  0  0  0  0  0  0
    1.9416   -5.1430    4.4097 H   0  0  0  0  0  0  0  0  0  0  0  0
    4.7486   -3.9842    4.4035 H   0  0  0  0  0  0  0  0  0  0  0  0
    4.1952   -5.4137    5.2198 H   0  0  0  0  0  0  0  0  0  0  0  0
    5.7082   -5.7193    3.2110 H   0  0  0  0  0  0  0  0  0  0  0  0
    4.3304   -6.7529    3.2851 H   0  0  0  0  0  0  0  0  0  0  0  0
    4.7041   -7.2005    0.7627 H   0  0  0  0  0  0  0  0  0  0  0  0
    4.5184   -5.9048   -0.3876 H   0  0  0  0  0  0  0  0  0  0  0  0
    6.8114   -6.2925    1.6043 H   0  0  0  0  0  0  0  0  0  0  0  0
    6.8889   -6.2584   -0.1033 H   0  0  0  0  0  0  0  0  0  0  0  0
    8.5110   -3.1953    0.9696 H   0  0  0  0  0  0  0  0  0  0  0  0
    8.7668   -4.8245    0.3757 H   0  0  0  0  0  0  0  0  0  0  0  0
    8.3720   -4.5736    2.0657 H   0  0  0  0  0  0  0  0  0  0  0  0
    6.1674   -3.5417    2.6135 H   0  0  0  0  0  0  0  0  0  0  0  0
    5.5634   -1.3033    1.7843 H   0  0  0  0  0  0  0  0  0  0  0  0
    6.9508   -1.6793    0.7504 H   0  0  0  0  0  0  0  0  0  0  0  0
    5.5803   -0.2595   -1.2284 H   0  0  0  0  0  0  0  0  0  0  0  0
    4.0043   -0.7621   -3.1178 H   0  0  0  0  0  0  0  0  0  0  0  0
    1.9887   -3.7097   -3.2107 H   0  0  0  0  0  0  0  0  0  0  0  0
    2.7483   -4.3544   -1.1827 H   0  0  0  0  0  0  0  0  0  0  0  0
    1.4120   -3.6230    2.4771 H   0  0  0  0  0  0  0  0  0  0  0  0
    2.2989   -6.2466    2.3991 H   0  0  0  0  0  0  0  0  0  0  0  0
    2.2769   -4.9516   -0.0117 H   0  0  0  0  0  0  0  0  0  0  0  0
  1  2  1  0
  1 25  1  0
  1 26  1  0
  1 27  1  0
  2  3  1  0
  3 22  1  0
  3  4  1  0
  3 28  1  1
  4  5  1  0
  4 29  1  0
  4 30  1  0
  6  5  1  1
  5 31  1  0
  5 32  1  0
  6 20  1  0
  6 23  1  0
  6  7  1  0
  7  8  1  0
  7 33  1  0
  7 34  1  0
  8  9  1  0
  8 35  1  0
  8 36  1  0
  9 10  1  0
  9 11  1  0
 10 37  1  0
 10 38  1  0
 10 39  1  0
 11 20  1  0
 11 12  1  0
 11 40  1  1
 12 13  1  0
 12 41  1  0
 12 42  1  0
 13 19  2  0
 13 14  1  0
 14 15  2  0
 14 43  1  0
 15 16  1  0
 15 44  1  0
 16 17  1  0
 16 18  2  0
 17 45  1  0
 18 19  1  0
 18 46  1  0
 19 20  1  0
 20 21  1  1
 21 22  1  0
 22 23  1  0
 22 47  1  1
 23 24  1  0
 23 48  1  1
 24 49  1  0
M  END
>  <i_m_ct_stereo_status>  (257) 
1

>  <s_m_source_file>  (257) 
/var/tmp/pbs.5076255.sched01/tmppxgjifq_/8475v0iq0b.sdf

>  <i_m_source_file_index>  (257) 
24

>  <i_lp_mmshare_version>  (257) 
48012

>  <i_f3d_flags>  (257) 
0

>  <s_epik_input>  (257) 
W0NIM11PW0NASF0oW0NIMl1bQ0gyXTEpW0NASF0oW0NASF0yW09IXSlPW0NAXTMoW0NAQF0xMjQpW0NAQEhdKE4oW0NIM10pW0NIMl1bQ0gyXTQpW0NIMl1jNWMzW2NIXWMoW09IXSlbY0hdW2NIXTU=

>  <s_epik_cmdline>  (257) 
J2VwaWtfcHl0aG9uJywgJy1waHQnLCAnMi4wJywgJy1waCcsICc3LjAnLCAnLXRuJywgJzgnLCAnLW1hJywgJzIwMCcsICctaW1hZScsICc8aW5maWxlLm1hZT4nLCAnLW9tYWUnLCAnPG91dGZpbGUubWFlPic=

>  <r_lp_tautomer_probability>  (257) 
1

>  <r_epik_Ionization_Penalty>  (257) 
2.09532

>  <r_epik_Ionization_Penalty_Charging>  (257) 
0

>  <r_epik_Ionization_Penalty_Neutral>  (257) 
2.09532

>  <r_epik_State_Penalty>  (257) 
2.23075

>  <r_epik_Charging_Adjusted_Penalty>  (257) 
2.23075

>  <i_epik_Tot_Q>  (257) 
0

>  <i_epik_Tot_abs_Q>  (257) 
0

>  <s_lp_Force_Field>  (257) 
OPLS3e

>  <r_lp_Energy>  (257) 
53.5148

>  <b_lp_Chiralities_Consistent>  (257) 
1

>  <s_lp_Variant>  (257) 
69:0-2

>  <s_i_glide_gridfile>  (257) 
pfpi4k_grid

>  <i_i_glide_lignum>  (257) 
24

>  <i_i_glide_rotatable_bonds>  (257) 
3

>  <r_i_docking_score>  (257) 
-3.5678

>  <r_i_glide_ligand_efficiency>  (257) 
-0.148658

>  <r_i_glide_ligand_efficiency_sa>  (257) 
-0.428804

>  <r_i_glide_ligand_efficiency_ln>  (257) 
-0.853937

>  <r_i_glide_gscore>  (257) 
-3.5678

>  <r_i_glide_lipo>  (257) 
-0.628346

>  <r_i_glide_hbond>  (257) 
-0.00722672

>  <r_i_glide_metal>  (257) 
-0

>  <r_i_glide_rewards>  (257) 
-1.1495

>  <r_i_glide_evdw>  (257) 
-20.8641

>  <r_i_glide_ecoul>  (257) 
-4.9301

>  <r_i_glide_erotb>  (257) 
0

>  <r_i_glide_esite>  (257) 
0

>  <r_i_glide_emodel>  (257) 
-32.2378

>  <r_i_glide_energy>  (257) 
-25.7942

>  <r_i_glide_einternal>  (257) 
0.479931

>  <r_i_glide_intrahb_reward>  (257) 
-0

>  <i_i_glide_confnum>  (257) 
1

>  <i_i_glide_posenum>  (257) 
6

>  <r_i_glide_eff_state_penalty>  (257) 
0

>  <ligand_id>  (257) 
69

>  <original_smiles>  (257) 
COC1CCC23CCN(C)C4Cc5ccc(O)cc5C42OC1C3O

>  <smiles>  (257) 
[H]Oc1c([H])c([H])c2c(c1[H])C13OC4([H])C([H])(OC([H])([H])[H])C([H])([H])C([H])([H])C1(C([H])([H])C([H])([H])N(C([H])([H])[H])C3([H])C2([H])[H])C4([H])O[H]

$$$$
72:0:0
     RDKit          3D

 44 48  0  0  1  0  0  0  0  0999 V2000
    8.4398   -3.4898    0.5052 C   0  0  0  0  0  0  0  0  0  0  0  0
    7.1593   -3.0182   -0.0624 N   0  0  1  0  0  0  0  0  0  0  0  0
    7.0115   -3.3885   -1.4747 C   0  0  0  0  0  0  0  0  0  0  0  0
    5.6445   -4.1630   -1.5562 C   0  0  0  0  0  0  0  0  0  0  0  0
    4.7886   -3.6608   -0.3752 C   0  0  2  0  0  0  0  0  0  0  0  0
    3.9449   -4.7325    0.3013 C   0  0  0  0  0  0  0  0  0  0  0  0
    4.6203   -5.4037    1.3250 C   0  0  0  0  0  0  0  0  0  0  0  0
    3.9434   -6.4370    1.9937 C   0  0  0  0  0  0  0  0  0  0  0  0
    2.6206   -6.7271    1.6210 C   0  0  0  0  0  0  0  0  0  0  0  0
    1.9492   -5.9500    0.6540 C   0  0  0  0  0  0  0  0  0  0  0  0
    0.6626   -6.2327    0.3456 O   0  0  0  0  0  0  0  0  0  0  0  0
    2.6086   -4.9101   -0.0418 C   0  0  0  0  0  0  0  0  0  0  0  0
    1.9418   -4.1466   -0.9902 O   0  0  0  0  0  0  0  0  0  0  0  0
    2.6274   -3.0566   -1.5854 C   0  0  2  0  0  0  0  0  0  0  0  0
    2.8765   -3.1928   -3.1191 C   0  0  1  0  0  0  0  0  0  0  0  0
    1.6746   -2.9438   -3.7792 O   0  0  0  0  0  0  0  0  0  0  0  0
    3.7631   -2.0766   -3.6381 C   0  0  0  0  0  0  0  0  0  0  0  0
    4.4496   -1.2021   -2.8707 C   0  0  0  0  0  0  0  0  0  0  0  0
    4.4972   -1.2537   -1.3531 C   0  0  0  0  0  0  0  0  0  0  0  0
    3.8217   -2.5057   -0.7285 C   0  0  2  0  0  0  0  0  0  0  0  0
    5.9697   -4.7619    1.4521 C   0  0  0  0  0  0  0  0  0  0  0  0
    5.9160   -3.4304    0.6518 C   0  0  1  0  0  0  0  0  0  0  0  0
    8.6259   -4.5738    0.4259 H   0  0  0  0  0  0  0  0  0  0  0  0
    8.4017   -3.2383    1.5641 H   0  0  0  0  0  0  0  0  0  0  0  0
    9.2694   -2.9456    0.0052 H   0  0  0  0  0  0  0  0  0  0  0  0
    7.0182   -2.5070   -2.1586 H   0  0  0  0  0  0  0  0  0  0  0  0
    7.9278   -3.9005   -1.7654 H   0  0  0  0  0  0  0  0  0  0  0  0
    5.1967   -4.1013   -2.5420 H   0  0  0  0  0  0  0  0  0  0  0  0
    5.7156   -5.2166   -1.2713 H   0  0  0  0  0  0  0  0  0  0  0  0
    4.4254   -6.9603    2.8042 H   0  0  0  0  0  0  0  0  0  0  0  0
    2.0961   -7.5291    2.0981 H   0  0  0  0  0  0  0  0  0  0  0  0
    0.4267   -7.1290    0.5341 H   0  0  0  0  0  0  0  0  0  0  0  0
    1.9240   -2.2800   -1.6079 H   0  0  0  0  0  0  0  0  0  0  0  0
    3.2726   -4.1656   -3.4640 H   0  0  0  0  0  0  0  0  0  0  0  0
    1.0492   -3.6193   -3.5407 H   0  0  0  0  0  0  0  0  0  0  0  0
    3.7004   -1.9229   -4.6994 H   0  0  0  0  0  0  0  0  0  0  0  0
    4.9734   -0.3665   -3.3280 H   0  0  0  0  0  0  0  0  0  0  0  0
    5.5213   -1.1184   -1.0041 H   0  0  0  0  0  0  0  0  0  0  0  0
    3.9370   -0.3910   -0.9904 H   0  0  0  0  0  0  0  0  0  0  0  0
    3.4119   -2.1840    0.2338 H   0  0  0  0  0  0  0  0  0  0  0  0
    6.1905   -4.5600    2.5040 H   0  0  0  0  0  0  0  0  0  0  0  0
    6.7175   -5.4761    1.0648 H   0  0  0  0  0  0  0  0  0  0  0  0
    5.6031   -2.6296    1.3477 H   0  0  0  0  0  0  0  0  0  0  0  0
    7.1359   -2.0071   -0.0810 H   0  0  0  0  0  0  0  0  0  0  0  0
  1  2  1  0
  1 23  1  0
  1 24  1  0
  1 25  1  0
  2 22  1  0
  2  3  1  0
  2 44  1  6
  3  4  1  0
  3 26  1  0
  3 27  1  0
  5  4  1  6
  4 28  1  0
  4 29  1  0
  5 20  1  0
  5 22  1  0
  5  6  1  0
  6 12  1  0
  6  7  2  0
  7  8  1  0
  7 21  1  0
  8  9  2  0
  8 30  1  0
  9 10  1  0
  9 31  1  0
 10 11  1  0
 10 12  2  0
 11 32  1  0
 12 13  1  0
 13 14  1  0
 14 20  1  0
 14 15  1  0
 14 33  1  6
 15 16  1  0
 15 17  1  0
 15 34  1  1
 16 35  1  0
 17 18  2  0
 17 36  1  0
 18 19  1  0
 18 37  1  0
 19 20  1  0
 19 38  1  0
 19 39  1  0
 20 40  1  1
 21 22  1  0
 21 41  1  0
 21 42  1  0
 22 43  1  1
M  CHG  1   2   1
M  END
>  <i_m_ct_stereo_status>  (258) 
1

>  <s_m_source_file>  (258) 
/var/tmp/pbs.5076255.sched01/tmppxgjifq_/8475v0iq0b.sdf

>  <i_m_source_file_index>  (258) 
27

>  <i_lp_mmshare_version>  (258) 
48012

>  <i_f3d_flags>  (258) 
0

>  <s_epik_input>  (258) 
W0NIMl0xW0NIMl1OKFtDSDNdKVtDQEBIXTJbQ0gyXWMoYzNbQ0BdMTI0KVtjSF1bY0hdYyhbT0hdKWMzT1tDQEhdNVtDQEBIXTRbQ0gyXVtDSF09W0NIXVtDQEBIXTVbT0hd

>  <s_epik_cmdline>  (258) 
J2VwaWtfcHl0aG9uJywgJy1waHQnLCAnMi4wJywgJy1waCcsICc3LjAnLCAnLXRuJywgJzgnLCAnLW1hJywgJzIwMCcsICctaW1hZScsICc8aW5maWxlLm1hZT4nLCAnLW9tYWUnLCAnPG91dGZpbGUubWFlPic=

>  <r_lp_tautomer_probability>  (258) 
1

>  <r_epik_Ionization_Penalty>  (258) 
0.0115679

>  <r_epik_Ionization_Penalty_Charging>  (258) 
0.00815192

>  <r_epik_Ionization_Penalty_Neutral>  (258) 
0.00341598

>  <r_epik_State_Penalty>  (258) 
0.00612829

>  <r_epik_Charging_Adjusted_Penalty>  (258) 
0.0142802

>  <i_epik_Tot_Q>  (258) 
1

>  <i_epik_Tot_abs_Q>  (258) 
1

>  <s_lp_Force_Field>  (258) 
OPLS3e

>  <r_lp_Energy>  (258) 
48.2997

>  <b_lp_Chiralities_Consistent>  (258) 
1

>  <s_lp_Variant>  (258) 
72:0-1

>  <s_i_glide_gridfile>  (258) 
pfpi4k_grid

>  <i_i_glide_lignum>  (258) 
27

>  <i_i_glide_rotatable_bonds>  (258) 
2

>  <r_i_docking_score>  (258) 
-3.86234

>  <r_i_glide_ligand_efficiency>  (258) 
-0.175561

>  <r_i_glide_ligand_efficiency_sa>  (258) 
-0.491929

>  <r_i_glide_ligand_efficiency_ln>  (258) 
-0.944098

>  <r_i_glide_gscore>  (258) 
-3.86234

>  <r_i_glide_lipo>  (258) 
-0.909585

>  <r_i_glide_hbond>  (258) 
0

>  <r_i_glide_metal>  (258) 
-0

>  <r_i_glide_rewards>  (258) 
-1.3611

>  <r_i_glide_evdw>  (258) 
-6.9467

>  <r_i_glide_ecoul>  (258) 
-8.2955

>  <r_i_glide_erotb>  (258) 
0

>  <r_i_glide_esite>  (258) 
0

>  <r_i_glide_emodel>  (258) 
-15.6548

>  <r_i_glide_energy>  (258) 
-15.2422

>  <r_i_glide_einternal>  (258) 
0.726901

>  <r_i_glide_intrahb_reward>  (258) 
-0

>  <i_i_glide_confnum>  (258) 
1

>  <i_i_glide_posenum>  (258) 
33

>  <r_i_glide_eff_state_penalty>  (258) 
0

>  <ligand_id>  (258) 
72

>  <original_smiles>  (258) 
CN1CCC23c4c(ccc(O)c4OC4C(O)C=CCC42)CC13

>  <smiles>  (258) 
[H]Oc1c([H])c([H])c2c3c1OC1([H])C([H])(O[H])C([H])=C([H])C([H])([H])C1([H])C31C([H])([H])C([H])([H])[N+]([H])(C([H])([H])[H])C1([H])C2([H])[H]

$$$$
72:0:1
     RDKit          3D

 44 48  0  0  1  0  0  0  0  0999 V2000
    8.6223   -2.8880   -0.1168 C   0  0  0  0  0  0  0  0  0  0  0  0
    7.1523   -2.7544   -0.2721 N   0  0  1  0  0  0  0  0  0  0  0  0
    6.6399   -3.1308   -1.6083 C   0  0  0  0  0  0  0  0  0  0  0  0
    5.4225   -4.0224   -1.3724 C   0  0  0  0  0  0  0  0  0  0  0  0
    4.9648   -3.7813    0.0670 C   0  0  2  0  0  0  0  0  0  0  0  0
    4.5677   -5.0406    0.7929 C   0  0  0  0  0  0  0  0  0  0  0  0
    5.6096   -5.6203    1.5097 C   0  0  0  0  0  0  0  0  0  0  0  0
    5.3810   -6.8071    2.2272 C   0  0  0  0  0  0  0  0  0  0  0  0
    4.0709   -7.3433    2.2033 C   0  0  0  0  0  0  0  0  0  0  0  0
    3.0203   -6.6895    1.5071 C   0  0  0  0  0  0  0  0  0  0  0  0
    1.7479   -7.1951    1.5741 O   0  0  0  0  0  0  0  0  0  0  0  0
    3.2417   -5.4923    0.7827 C   0  0  0  0  0  0  0  0  0  0  0  0
    2.2192   -4.7980    0.1993 O   0  0  0  0  0  0  0  0  0  0  0  0
    2.4348   -3.4401   -0.2269 C   0  0  2  0  0  0  0  0  0  0  0  0
    2.1298   -3.3893   -1.7457 C   0  0  1  0  0  0  0  0  0  0  0  0
    0.7470   -3.4585   -1.9179 O   0  0  0  0  0  0  0  0  0  0  0  0
    2.6870   -2.1759   -2.4398 C   0  0  0  0  0  0  0  0  0  0  0  0
    3.4969   -1.2879   -1.8415 C   0  0  0  0  0  0  0  0  0  0  0  0
    3.9866   -1.3965   -0.4104 C   0  0  0  0  0  0  0  0  0  0  0  0
    3.7896   -2.7966    0.2093 C   0  0  2  0  0  0  0  0  0  0  0  0
    6.8295   -4.7571    1.3254 C   0  0  0  0  0  0  0  0  0  0  0  0
    6.2959   -3.4163    0.7464 C   0  0  1  0  0  0  0  0  0  0  0  0
    8.9804   -3.8987   -0.3157 H   0  0  0  0  0  0  0  0  0  0  0  0
    8.9463   -2.6044    0.8811 H   0  0  0  0  0  0  0  0  0  0  0  0
    9.1449   -2.2182   -0.7960 H   0  0  0  0  0  0  0  0  0  0  0  0
    6.3542   -2.2324   -2.1451 H   0  0  0  0  0  0  0  0  0  0  0  0
    7.4079   -3.5964   -2.2267 H   0  0  0  0  0  0  0  0  0  0  0  0
    4.6817   -3.9403   -2.1548 H   0  0  0  0  0  0  0  0  0  0  0  0
    5.7786   -5.0372   -1.4039 H   0  0  0  0  0  0  0  0  0  0  0  0
    6.1727   -7.3036    2.7797 H   0  0  0  0  0  0  0  0  0  0  0  0
    3.8627   -8.2570    2.7411 H   0  0  0  0  0  0  0  0  0  0  0  0
    1.6772   -7.9638    2.1195 H   0  0  0  0  0  0  0  0  0  0  0  0
    1.7097   -2.8416    0.3213 H   0  0  0  0  0  0  0  0  0  0  0  0
    2.5233   -4.2515   -2.2392 H   0  0  0  0  0  0  0  0  0  0  0  0
    0.5220   -4.0229   -2.6681 H   0  0  0  0  0  0  0  0  0  0  0  0
    2.2993   -1.9826   -3.4226 H   0  0  0  0  0  0  0  0  0  0  0  0
    3.7757   -0.3905   -2.3739 H   0  0  0  0  0  0  0  0  0  0  0  0
    5.0198   -1.0747   -0.3613 H   0  0  0  0  0  0  0  0  0  0  0  0
    3.4334   -0.6715    0.1848 H   0  0  0  0  0  0  0  0  0  0  0  0
    3.7039   -2.6326    1.2862 H   0  0  0  0  0  0  0  0  0  0  0  0
    7.3596   -4.6272    2.2658 H   0  0  0  0  0  0  0  0  0  0  0  0
    7.4979   -5.2732    0.6384 H   0  0  0  0  0  0  0  0  0  0  0  0
    6.1182   -2.7136    1.5641 H   0  0  0  0  0  0  0  0  0  0  0  0
    6.9566   -1.7672   -0.1704 H   0  0  0  0  0  0  0  0  0  0  0  0
  1  2  1  0
  1 23  1  0
  1 24  1  0
  1 25  1  0
  2 22  1  0
  2  3  1  0
  2 44  1  1
  3  4  1  0
  3 26  1  0
  3 27  1  0
  5  4  1  6
  4 28  1  0
  4 29  1  0
  5 20  1  0
  5 22  1  0
  5  6  1  0
  6 12  1  0
  6  7  2  0
  7  8  1  0
  7 21  1  0
  8  9  2  0
  8 30  1  0
  9 10  1  0
  9 31  1  0
 10 11  1  0
 10 12  2  0
 11 32  1  0
 12 13  1  0
 13 14  1  0
 14 20  1  0
 14 15  1  0
 14 33  1  1
 15 16  1  0
 15 17  1  0
 15 34  1  6
 16 35  1  0
 17 18  2  0
 17 36  1  0
 18 19  1  0
 18 37  1  0
 19 20  1  0
 19 38  1  0
 19 39  1  0
 20 40  1  1
 21 22  1  0
 21 41  1  0
 21 42  1  0
 22 43  1  1
M  CHG  1   2   1
M  END
>  <i_m_ct_stereo_status>  (259) 
1

>  <s_m_source_file>  (259) 
/var/tmp/pbs.5076255.sched01/tmppxgjifq_/8475v0iq0b.sdf

>  <i_m_source_file_index>  (259) 
27

>  <i_lp_mmshare_version>  (259) 
48012

>  <i_f3d_flags>  (259) 
0

>  <s_epik_input>  (259) 
W0NIMl0xW0NIMl1OKFtDSDNdKVtDQEBIXTJbQ0gyXWMoYzNbQ0BdMTI0KVtjSF1bY0hdYyhbT0hdKWMzT1tDQEhdNVtDQEBIXTRbQ0gyXVtDSF09W0NIXVtDQEBIXTVbT0hd

>  <s_epik_cmdline>  (259) 
J2VwaWtfcHl0aG9uJywgJy1waHQnLCAnMi4wJywgJy1waCcsICc3LjAnLCAnLXRuJywgJzgnLCAnLW1hJywgJzIwMCcsICctaW1hZScsICc8aW5maWxlLm1hZT4nLCAnLW9tYWUnLCAnPG91dGZpbGUubWFlPic=

>  <r_lp_tautomer_probability>  (259) 
1

>  <r_epik_Ionization_Penalty>  (259) 
0.0115679

>  <r_epik_Ionization_Penalty_Charging>  (259) 
0.00815192

>  <r_epik_Ionization_Penalty_Neutral>  (259) 
0.00341598

>  <r_epik_State_Penalty>  (259) 
0.00612829

>  <r_epik_Charging_Adjusted_Penalty>  (259) 
0.0142802

>  <i_epik_Tot_Q>  (259) 
1

>  <i_epik_Tot_abs_Q>  (259) 
1

>  <s_lp_Force_Field>  (259) 
OPLS3e

>  <r_lp_Energy>  (259) 
48.2997

>  <b_lp_Chiralities_Consistent>  (259) 
1

>  <s_lp_Variant>  (259) 
72:0-1

>  <s_i_glide_gridfile>  (259) 
pfpi4k_grid

>  <i_i_glide_lignum>  (259) 
27

>  <i_i_glide_rotatable_bonds>  (259) 
2

>  <r_i_docking_score>  (259) 
-3.70807

>  <r_i_glide_ligand_efficiency>  (259) 
-0.168549

>  <r_i_glide_ligand_efficiency_sa>  (259) 
-0.472281

>  <r_i_glide_ligand_efficiency_ln>  (259) 
-0.906389

>  <r_i_glide_gscore>  (259) 
-3.70807

>  <r_i_glide_lipo>  (259) 
-0.667406

>  <r_i_glide_hbond>  (259) 
-0.0116771

>  <r_i_glide_metal>  (259) 
-0

>  <r_i_glide_rewards>  (259) 
-1.3611

>  <r_i_glide_evdw>  (259) 
-7.4849

>  <r_i_glide_ecoul>  (259) 
-8.62432

>  <r_i_glide_erotb>  (259) 
0

>  <r_i_glide_esite>  (259) 
0

>  <r_i_glide_emodel>  (259) 
-17.4904

>  <r_i_glide_energy>  (259) 
-16.1092

>  <r_i_glide_einternal>  (259) 
0.830873

>  <r_i_glide_intrahb_reward>  (259) 
-0

>  <i_i_glide_confnum>  (259) 
2

>  <i_i_glide_posenum>  (259) 
25

>  <r_i_glide_eff_state_penalty>  (259) 
0

>  <ligand_id>  (259) 
72

>  <original_smiles>  (259) 
CN1CCC23c4c(ccc(O)c4OC4C(O)C=CCC42)CC13

>  <smiles>  (259) 
[H]Oc1c([H])c([H])c2c3c1OC1([H])C([H])(O[H])C([H])=C([H])C([H])([H])C1([H])C31C([H])([H])C([H])([H])[N+]([H])(C([H])([H])[H])C1([H])C2([H])[H]

$$$$
72:0:2
     RDKit          3D

 44 48  0  0  1  0  0  0  0  0999 V2000
    2.3154    0.6105    3.4163 C   0  0  0  0  0  0  0  0  0  0  0  0
    2.8075   -0.1939    2.2620 N   0  0  1  0  0  0  0  0  0  0  0  0
    4.2187    0.0703    1.9018 C   0  0  0  0  0  0  0  0  0  0  0  0
    4.9225   -1.2839    1.7625 C   0  0  0  0  0  0  0  0  0  0  0  0
    3.8008   -2.3183    1.5476 C   0  0  2  0  0  0  0  0  0  0  0  0
    4.0401   -3.6014    2.2922 C   0  0  0  0  0  0  0  0  0  0  0  0
    3.4768   -3.6154    3.5672 C   0  0  0  0  0  0  0  0  0  0  0  0
    3.6440   -4.7496    4.3707 C   0  0  0  0  0  0  0  0  0  0  0  0
    4.3528   -5.8396    3.8296 C   0  0  0  0  0  0  0  0  0  0  0  0
    4.8527   -5.8143    2.5062 C   0  0  0  0  0  0  0  0  0  0  0  0
    5.4799   -6.9066    1.9922 O   0  0  0  0  0  0  0  0  0  0  0  0
    4.6902   -4.6757    1.6738 C   0  0  0  0  0  0  0  0  0  0  0  0
    5.0778   -4.6824    0.3591 O   0  0  0  0  0  0  0  0  0  0  0  0
    4.5850   -3.6635   -0.5262 C   0  0  2  0  0  0  0  0  0  0  0  0
    5.8102   -2.9148   -1.1134 C   0  0  1  0  0  0  0  0  0  0  0  0
    6.2966   -3.6042   -2.2152 O   0  0  0  0  0  0  0  0  0  0  0  0
    5.4883   -1.5760   -1.6990 C   0  0  0  0  0  0  0  0  0  0  0  0
    4.3143   -0.9753   -1.6224 C   0  0  0  0  0  0  0  0  0  0  0  0
    3.1545   -1.5614   -0.8806 C   0  0  0  0  0  0  0  0  0  0  0  0
    3.5039   -2.7154    0.0775 C   0  0  2  0  0  0  0  0  0  0  0  0
    2.7699   -2.2959    3.7654 C   0  0  0  0  0  0  0  0  0  0  0  0
    2.6527   -1.6738    2.3495 C   0  0  1  0  0  0  0  0  0  0  0  0
    2.9285    0.4780    4.3135 H   0  0  0  0  0  0  0  0  0  0  0  0
    1.2808    0.3466    3.6569 H   0  0  0  0  0  0  0  0  0  0  0  0
    2.3373    1.6781    3.1668 H   0  0  0  0  0  0  0  0  0  0  0  0
    4.2436    0.6345    0.9634 H   0  0  0  0  0  0  0  0  0  0  0  0
    4.7034    0.6492    2.6832 H   0  0  0  0  0  0  0  0  0  0  0  0
    5.6984   -1.2621    1.0029 H   0  0  0  0  0  0  0  0  0  0  0  0
    5.4236   -1.4848    2.7134 H   0  0  0  0  0  0  0  0  0  0  0  0
    3.2384   -4.7898    5.3758 H   0  0  0  0  0  0  0  0  0  0  0  0
    4.4953   -6.7256    4.4269 H   0  0  0  0  0  0  0  0  0  0  0  0
    5.4835   -7.6541    2.5754 H   0  0  0  0  0  0  0  0  0  0  0  0
    4.0890   -4.1964   -1.3438 H   0  0  0  0  0  0  0  0  0  0  0  0
    6.5837   -2.7889   -0.3528 H   0  0  0  0  0  0  0  0  0  0  0  0
    5.7898   -4.4017   -2.2958 H   0  0  0  0  0  0  0  0  0  0  0  0
    6.2502   -1.1554   -2.3201 H   0  0  0  0  0  0  0  0  0  0  0  0
    4.1643   -0.0539   -2.1680 H   0  0  0  0  0  0  0  0  0  0  0  0
    2.6666   -0.7446   -0.3581 H   0  0  0  0  0  0  0  0  0  0  0  0
    2.5118   -1.9500   -1.6708 H   0  0  0  0  0  0  0  0  0  0  0  0
    2.5936   -3.3127    0.1356 H   0  0  0  0  0  0  0  0  0  0  0  0
    1.7849   -2.4268    4.2171 H   0  0  0  0  0  0  0  0  0  0  0  0
    3.3867   -1.6969    4.4401 H   0  0  0  0  0  0  0  0  0  0  0  0
    1.6859   -1.9444    1.9162 H   0  0  0  0  0  0  0  0  0  0  0  0
    2.2676    0.1034    1.4608 H   0  0  0  0  0  0  0  0  0  0  0  0
  1  2  1  0
  1 23  1  0
  1 24  1  0
  1 25  1  0
  2 22  1  0
  2  3  1  0
  2 44  1  6
  3  4  1  0
  3 26  1  0
  3 27  1  0
  5  4  1  6
  4 28  1  0
  4 29  1  0
  5 20  1  0
  5 22  1  0
  5  6  1  0
  6 12  1  0
  6  7  2  0
  7  8  1  0
  7 21  1  0
  8  9  2  0
  8 30  1  0
  9 10  1  0
  9 31  1  0
 10 11  1  0
 10 12  2  0
 11 32  1  0
 12 13  1  0
 13 14  1  0
 14 20  1  0
 14 15  1  0
 14 33  1  6
 15 16  1  0
 15 17  1  0
 15 34  1  1
 16 35  1  0
 17 18  2  0
 17 36  1  0
 18 19  1  0
 18 37  1  0
 19 20  1  0
 19 38  1  0
 19 39  1  0
 20 40  1  1
 21 22  1  0
 21 41  1  0
 21 42  1  0
 22 43  1  6
M  CHG  1   2   1
M  END
>  <i_m_ct_stereo_status>  (260) 
1

>  <s_m_source_file>  (260) 
/var/tmp/pbs.5076255.sched01/tmppxgjifq_/8475v0iq0b.sdf

>  <i_m_source_file_index>  (260) 
27

>  <i_lp_mmshare_version>  (260) 
48012

>  <i_f3d_flags>  (260) 
0

>  <s_epik_input>  (260) 
W0NIMl0xW0NIMl1OKFtDSDNdKVtDQEBIXTJbQ0gyXWMoYzNbQ0BdMTI0KVtjSF1bY0hdYyhbT0hdKWMzT1tDQEhdNVtDQEBIXTRbQ0gyXVtDSF09W0NIXVtDQEBIXTVbT0hd

>  <s_epik_cmdline>  (260) 
J2VwaWtfcHl0aG9uJywgJy1waHQnLCAnMi4wJywgJy1waCcsICc3LjAnLCAnLXRuJywgJzgnLCAnLW1hJywgJzIwMCcsICctaW1hZScsICc8aW5maWxlLm1hZT4nLCAnLW9tYWUnLCAnPG91dGZpbGUubWFlPic=

>  <r_lp_tautomer_probability>  (260) 
1

>  <r_epik_Ionization_Penalty>  (260) 
0.0115679

>  <r_epik_Ionization_Penalty_Charging>  (260) 
0.00815192

>  <r_epik_Ionization_Penalty_Neutral>  (260) 
0.00341598

>  <r_epik_State_Penalty>  (260) 
0.00612829

>  <r_epik_Charging_Adjusted_Penalty>  (260) 
0.0142802

>  <i_epik_Tot_Q>  (260) 
1

>  <i_epik_Tot_abs_Q>  (260) 
1

>  <s_lp_Force_Field>  (260) 
OPLS3e

>  <r_lp_Energy>  (260) 
48.2997

>  <b_lp_Chiralities_Consistent>  (260) 
1

>  <s_lp_Variant>  (260) 
72:0-1

>  <s_i_glide_gridfile>  (260) 
pfpi4k_grid

>  <i_i_glide_lignum>  (260) 
27

>  <i_i_glide_rotatable_bonds>  (260) 
2

>  <r_i_docking_score>  (260) 
-2.61845

>  <r_i_glide_ligand_efficiency>  (260) 
-0.11902

>  <r_i_glide_ligand_efficiency_sa>  (260) 
-0.3335

>  <r_i_glide_ligand_efficiency_ln>  (260) 
-0.640044

>  <r_i_glide_gscore>  (260) 
-2.61845

>  <r_i_glide_lipo>  (260) 
-0.189375

>  <r_i_glide_hbond>  (260) 
0

>  <r_i_glide_metal>  (260) 
-0

>  <r_i_glide_rewards>  (260) 
-1.3611

>  <r_i_glide_evdw>  (260) 
-9.70933

>  <r_i_glide_ecoul>  (260) 
-3.80293

>  <r_i_glide_erotb>  (260) 
0

>  <r_i_glide_esite>  (260) 
-0.0120685

>  <r_i_glide_emodel>  (260) 
-14.1223

>  <r_i_glide_energy>  (260) 
-13.5123

>  <r_i_glide_einternal>  (260) 
0.704668

>  <r_i_glide_intrahb_reward>  (260) 
-0

>  <i_i_glide_confnum>  (260) 
1

>  <i_i_glide_posenum>  (260) 
14

>  <r_i_glide_eff_state_penalty>  (260) 
0

>  <ligand_id>  (260) 
72

>  <original_smiles>  (260) 
CN1CCC23c4c(ccc(O)c4OC4C(O)C=CCC42)CC13

>  <smiles>  (260) 
[H]Oc1c([H])c([H])c2c3c1OC1([H])C([H])(O[H])C([H])=C([H])C([H])([H])C1([H])C31C([H])([H])C([H])([H])[N+]([H])(C([H])([H])[H])C1([H])C2([H])[H]

$$$$
72:1:0
     RDKit          3D

 43 47  0  0  1  0  0  0  0  0999 V2000
    8.7797   -2.0555   -0.8147 C   0  0  0  0  0  0  0  0  0  0  0  0
    7.3675   -2.2621   -1.0078 N   0  0  0  0  0  0  0  0  0  0  0  0
    7.1756   -3.2740   -2.0247 C   0  0  0  0  0  0  0  0  0  0  0  0
    5.7194   -3.7156   -1.7714 C   0  0  0  0  0  0  0  0  0  0  0  0
    5.4011   -3.3738   -0.3170 C   0  0  2  0  0  0  0  0  0  0  0  0
    5.2619   -4.5982    0.5339 C   0  0  0  0  0  0  0  0  0  0  0  0
    6.4126   -4.9538    1.2208 C   0  0  0  0  0  0  0  0  0  0  0  0
    6.4048   -6.0551    2.0926 C   0  0  0  0  0  0  0  0  0  0  0  0
    5.1837   -6.7742    2.2000 C   0  0  0  0  0  0  0  0  0  0  0  0
    4.0194   -6.3566    1.5011 C   0  0  0  0  0  0  0  0  0  0  0  0
    2.8514   -7.0393    1.6644 O   0  0  0  0  0  0  0  0  0  0  0  0
    4.0049   -5.2134    0.6672 C   0  0  0  0  0  0  0  0  0  0  0  0
    2.8569   -4.6962    0.1282 O   0  0  0  0  0  0  0  0  0  0  0  0
    2.8421   -3.3448   -0.3695 C   0  0  2  0  0  0  0  0  0  0  0  0
    2.4431   -3.3884   -1.8724 C   0  0  1  0  0  0  0  0  0  0  0  0
    1.0650   -3.6427   -1.9120 O   0  0  0  0  0  0  0  0  0  0  0  0
    2.6382   -2.0791   -2.6036 C   0  0  0  0  0  0  0  0  0  0  0  0
    3.4243   -1.0920   -2.1235 C   0  0  0  0  0  0  0  0  0  0  0  0
    4.1535   -1.1354   -0.7897 C   0  0  0  0  0  0  0  0  0  0  0  0
    4.1405   -2.5168   -0.0919 C   0  0  2  0  0  0  0  0  0  0  0  0
    7.4536   -3.9301    0.8868 C   0  0  0  0  0  0  0  0  0  0  0  0
    6.7250   -2.7667    0.1876 C   0  0  1  0  0  0  0  0  0  0  0  0
    9.0494   -1.7159   -1.8040 H   0  0  0  0  0  0  0  0  0  0  0  0
    9.3741   -2.9450   -0.6046 H   0  0  0  0  0  0  0  0  0  0  0  0
    8.9814   -1.2888   -0.0669 H   0  0  0  0  0  0  0  0  0  0  0  0
    7.2130   -2.8387   -3.0055 H   0  0  0  0  0  0  0  0  0  0  0  0
    8.0157   -3.9673   -1.8931 H   0  0  0  0  0  0  0  0  0  0  0  0
    5.1622   -3.0589   -2.4344 H   0  0  0  0  0  0  0  0  0  0  0  0
    5.4026   -4.7159   -2.0647 H   0  0  0  0  0  0  0  0  0  0  0  0
    7.2717   -6.3227    2.6742 H   0  0  0  0  0  0  0  0  0  0  0  0
    5.1335   -7.6215    2.8550 H   0  0  0  0  0  0  0  0  0  0  0  0
    2.9415   -7.7800    2.2202 H   0  0  0  0  0  0  0  0  0  0  0  0
    2.0445   -2.8370    0.1847 H   0  0  0  0  0  0  0  0  0  0  0  0
    3.0357   -4.1346   -2.4155 H   0  0  0  0  0  0  0  0  0  0  0  0
    0.8266   -4.0891   -2.7245 H   0  0  0  0  0  0  0  0  0  0  0  0
    2.1557   -1.9697   -3.5636 H   0  0  0  0  0  0  0  0  0  0  0  0
    3.5081   -0.1692   -2.6661 H   0  0  0  0  0  0  0  0  0  0  0  0
    5.1701   -0.7359   -0.8841 H   0  0  0  0  0  0  0  0  0  0  0  0
    3.6262   -0.4558   -0.1284 H   0  0  0  0  0  0  0  0  0  0  0  0
    4.1338   -2.3224    0.9855 H   0  0  0  0  0  0  0  0  0  0  0  0
    7.9130   -3.5409    1.7777 H   0  0  0  0  0  0  0  0  0  0  0  0
    8.2546   -4.4133    0.3116 H   0  0  0  0  0  0  0  0  0  0  0  0
    6.5732   -1.9231    0.8634 H   0  0  0  0  0  0  0  0  0  0  0  0
  1  2  1  0
  1 23  1  0
  1 24  1  0
  1 25  1  0
  2 22  1  0
  2  3  1  0
  3  4  1  0
  3 26  1  0
  3 27  1  0
  5  4  1  6
  4 28  1  0
  4 29  1  0
  5 20  1  0
  5 22  1  0
  5  6  1  0
  6 12  1  0
  6  7  2  0
  7  8  1  0
  7 21  1  0
  8  9  2  0
  8 30  1  0
  9 10  1  0
  9 31  1  0
 10 11  1  0
 10 12  2  0
 11 32  1  0
 12 13  1  0
 13 14  1  0
 14 20  1  0
 14 15  1  0
 14 33  1  1
 15 16  1  0
 15 17  1  0
 15 34  1  6
 16 35  1  0
 17 18  2  0
 17 36  1  0
 18 19  1  0
 18 37  1  0
 19 20  1  0
 19 38  1  0
 19 39  1  0
 20 40  1  1
 21 22  1  0
 21 41  1  0
 21 42  1  0
 22 43  1  1
M  END
>  <i_m_ct_stereo_status>  (261) 
1

>  <s_m_source_file>  (261) 
/var/tmp/pbs.5076255.sched01/tmppxgjifq_/8475v0iq0b.sdf

>  <i_m_source_file_index>  (261) 
28

>  <i_lp_mmshare_version>  (261) 
48012

>  <i_f3d_flags>  (261) 
0

>  <s_epik_input>  (261) 
W0NIMl0xW0NIMl1OKFtDSDNdKVtDQEBIXTJbQ0gyXWMoYzNbQ0BdMTI0KVtjSF1bY0hdYyhbT0hdKWMzT1tDQEhdNVtDQEBIXTRbQ0gyXVtDSF09W0NIXVtDQEBIXTVbT0hd

>  <s_epik_cmdline>  (261) 
J2VwaWtfcHl0aG9uJywgJy1waHQnLCAnMi4wJywgJy1waCcsICc3LjAnLCAnLXRuJywgJzgnLCAnLW1hJywgJzIwMCcsICctaW1hZScsICc8aW5maWxlLm1hZT4nLCAnLW9tYWUnLCAnPG91dGZpbGUubWFlPic=

>  <r_lp_tautomer_probability>  (261) 
1

>  <r_epik_Ionization_Penalty>  (261) 
2.54377

>  <r_epik_Ionization_Penalty_Charging>  (261) 
0

>  <r_epik_Ionization_Penalty_Neutral>  (261) 
2.54377

>  <r_epik_State_Penalty>  (261) 
2.71156

>  <r_epik_Charging_Adjusted_Penalty>  (261) 
2.71156

>  <i_epik_Tot_Q>  (261) 
0

>  <i_epik_Tot_abs_Q>  (261) 
0

>  <s_lp_Force_Field>  (261) 
OPLS3e

>  <r_lp_Energy>  (261) 
40.2151

>  <b_lp_Chiralities_Consistent>  (261) 
1

>  <s_lp_Variant>  (261) 
72:0-2

>  <s_i_glide_gridfile>  (261) 
pfpi4k_grid

>  <i_i_glide_lignum>  (261) 
28

>  <i_i_glide_rotatable_bonds>  (261) 
2

>  <r_i_docking_score>  (261) 
-4.05997

>  <r_i_glide_ligand_efficiency>  (261) 
-0.184544

>  <r_i_glide_ligand_efficiency_sa>  (261) 
-0.5171

>  <r_i_glide_ligand_efficiency_ln>  (261) 
-0.992406

>  <r_i_glide_gscore>  (261) 
-4.05997

>  <r_i_glide_lipo>  (261) 
-0.803357

>  <r_i_glide_hbond>  (261) 
-0.16

>  <r_i_glide_metal>  (261) 
-0

>  <r_i_glide_rewards>  (261) 
-1.36797

>  <r_i_glide_evdw>  (261) 
-5.36403

>  <r_i_glide_ecoul>  (261) 
-9.73629

>  <r_i_glide_erotb>  (261) 
0

>  <r_i_glide_esite>  (261) 
0

>  <r_i_glide_emodel>  (261) 
-16.3914

>  <r_i_glide_energy>  (261) 
-15.1003

>  <r_i_glide_einternal>  (261) 
0.460929

>  <r_i_glide_intrahb_reward>  (261) 
-0

>  <i_i_glide_confnum>  (261) 
2

>  <i_i_glide_posenum>  (261) 
18

>  <r_i_glide_eff_state_penalty>  (261) 
0

>  <ligand_id>  (261) 
72

>  <original_smiles>  (261) 
CN1CCC23c4c(ccc(O)c4OC4C(O)C=CCC42)CC13

>  <smiles>  (261) 
[H]Oc1c([H])c([H])c2c3c1OC1([H])C([H])(O[H])C([H])=C([H])C([H])([H])C1([H])C31C([H])([H])C([H])([H])N(C([H])([H])[H])C1([H])C2([H])[H]

$$$$
72:1:1
     RDKit          3D

 43 47  0  0  1  0  0  0  0  0999 V2000
    8.6360   -1.9747    0.4678 C   0  0  0  0  0  0  0  0  0  0  0  0
    7.4291   -2.2044   -0.3140 N   0  0  0  0  0  0  0  0  0  0  0  0
    7.4985   -3.4255   -1.0909 C   0  0  0  0  0  0  0  0  0  0  0  0
    6.0497   -3.6080   -1.5481 C   0  0  0  0  0  0  0  0  0  0  0  0
    5.1490   -2.9231   -0.4960 C   0  0  2  0  0  0  0  0  0  0  0  0
    4.4049   -3.8964    0.3925 C   0  0  0  0  0  0  0  0  0  0  0  0
    5.0266   -4.1339    1.6079 C   0  0  0  0  0  0  0  0  0  0  0  0
    4.4017   -5.0041    2.5292 C   0  0  0  0  0  0  0  0  0  0  0  0
    3.1856   -5.6174    2.1436 C   0  0  0  0  0  0  0  0  0  0  0  0
    2.5726   -5.3003    0.9111 C   0  0  0  0  0  0  0  0  0  0  0  0
    1.3696   -5.8639    0.5903 O   0  0  0  0  0  0  0  0  0  0  0  0
    3.1427   -4.3750    0.0029 C   0  0  0  0  0  0  0  0  0  0  0  0
    2.4310   -3.9210   -1.0810 O   0  0  0  0  0  0  0  0  0  0  0  0
    2.9526   -2.8199   -1.8276 C   0  0  2  0  0  0  0  0  0  0  0  0
    3.3164   -3.2200   -3.2676 C   0  0  1  0  0  0  0  0  0  0  0  0
    2.1382   -3.4216   -3.9815 O   0  0  0  0  0  0  0  0  0  0  0  0
    3.9521   -2.0829   -3.9956 C   0  0  0  0  0  0  0  0  0  0  0  0
    4.5181   -1.0341   -3.4139 C   0  0  0  0  0  0  0  0  0  0  0  0
    4.6519   -0.8305   -1.9342 C   0  0  0  0  0  0  0  0  0  0  0  0
    4.0673   -1.9916   -1.0909 C   0  0  2  0  0  0  0  0  0  0  0  0
    6.2329   -3.2481    1.6828 C   0  0  0  0  0  0  0  0  0  0  0  0
    6.1838   -2.2931    0.4574 C   0  0  1  0  0  0  0  0  0  0  0  0
    9.4688   -1.8613   -0.2134 H   0  0  0  0  0  0  0  0  0  0  0  0
    8.8853   -2.8207    1.1122 H   0  0  0  0  0  0  0  0  0  0  0  0
    8.5552   -1.0587    1.0523 H   0  0  0  0  0  0  0  0  0  0  0  0
    8.2070   -3.3569   -1.9232 H   0  0  0  0  0  0  0  0  0  0  0  0
    7.8016   -4.2476   -0.4535 H   0  0  0  0  0  0  0  0  0  0  0  0
    5.9701   -3.1273   -2.5191 H   0  0  0  0  0  0  0  0  0  0  0  0
    5.7585   -4.6501   -1.6866 H   0  0  0  0  0  0  0  0  0  0  0  0
    4.8342   -5.1787    3.4999 H   0  0  0  0  0  0  0  0  0  0  0  0
    2.6843   -6.2877    2.8340 H   0  0  0  0  0  0  0  0  0  0  0  0
    1.2061   -6.6517    1.0894 H   0  0  0  0  0  0  0  0  0  0  0  0
    2.0765   -2.2028   -1.9494 H   0  0  0  0  0  0  0  0  0  0  0  0
    3.9429   -4.1064   -3.3523 H   0  0  0  0  0  0  0  0  0  0  0  0
    1.6095   -4.0712   -3.5378 H   0  0  0  0  0  0  0  0  0  0  0  0
    3.8485   -2.0666   -5.0715 H   0  0  0  0  0  0  0  0  0  0  0  0
    4.8611   -0.2516   -4.0475 H   0  0  0  0  0  0  0  0  0  0  0  0
    5.6761   -0.5817   -1.6620 H   0  0  0  0  0  0  0  0  0  0  0  0
    4.0990    0.0821   -1.7752 H   0  0  0  0  0  0  0  0  0  0  0  0
    3.5845   -1.5229   -0.2292 H   0  0  0  0  0  0  0  0  0  0  0  0
    6.1888   -2.6749    2.6020 H   0  0  0  0  0  0  0  0  0  0  0  0
    7.1009   -3.8957    1.6938 H   0  0  0  0  0  0  0  0  0  0  0  0
    5.8717   -1.2997    0.7854 H   0  0  0  0  0  0  0  0  0  0  0  0
  1  2  1  0
  1 23  1  0
  1 24  1  0
  1 25  1  0
  2 22  1  0
  2  3  1  0
  3  4  1  0
  3 26  1  0
  3 27  1  0
  5  4  1  6
  4 28  1  0
  4 29  1  0
  5 20  1  0
  5 22  1  0
  5  6  1  0
  6 12  1  0
  6  7  2  0
  7  8  1  0
  7 21  1  0
  8  9  2  0
  8 30  1  0
  9 10  1  0
  9 31  1  0
 10 11  1  0
 10 12  2  0
 11 32  1  0
 12 13  1  0
 13 14  1  0
 14 20  1  0
 14 15  1  0
 14 33  1  6
 15 16  1  0
 15 17  1  0
 15 34  1  1
 16 35  1  0
 17 18  2  0
 17 36  1  0
 18 19  1  0
 18 37  1  0
 19 20  1  0
 19 38  1  0
 19 39  1  0
 20 40  1  1
 21 22  1  0
 21 41  1  0
 21 42  1  0
 22 43  1  1
M  END
>  <i_m_ct_stereo_status>  (262) 
1

>  <s_m_source_file>  (262) 
/var/tmp/pbs.5076255.sched01/tmppxgjifq_/8475v0iq0b.sdf

>  <i_m_source_file_index>  (262) 
28

>  <i_lp_mmshare_version>  (262) 
48012

>  <i_f3d_flags>  (262) 
0

>  <s_epik_input>  (262) 
W0NIMl0xW0NIMl1OKFtDSDNdKVtDQEBIXTJbQ0gyXWMoYzNbQ0BdMTI0KVtjSF1bY0hdYyhbT0hdKWMzT1tDQEhdNVtDQEBIXTRbQ0gyXVtDSF09W0NIXVtDQEBIXTVbT0hd

>  <s_epik_cmdline>  (262) 
J2VwaWtfcHl0aG9uJywgJy1waHQnLCAnMi4wJywgJy1waCcsICc3LjAnLCAnLXRuJywgJzgnLCAnLW1hJywgJzIwMCcsICctaW1hZScsICc8aW5maWxlLm1hZT4nLCAnLW9tYWUnLCAnPG91dGZpbGUubWFlPic=

>  <r_lp_tautomer_probability>  (262) 
1

>  <r_epik_Ionization_Penalty>  (262) 
2.54377

>  <r_epik_Ionization_Penalty_Charging>  (262) 
0

>  <r_epik_Ionization_Penalty_Neutral>  (262) 
2.54377

>  <r_epik_State_Penalty>  (262) 
2.71156

>  <r_epik_Charging_Adjusted_Penalty>  (262) 
2.71156

>  <i_epik_Tot_Q>  (262) 
0

>  <i_epik_Tot_abs_Q>  (262) 
0

>  <s_lp_Force_Field>  (262) 
OPLS3e

>  <r_lp_Energy>  (262) 
40.2151

>  <b_lp_Chiralities_Consistent>  (262) 
1

>  <s_lp_Variant>  (262) 
72:0-2

>  <s_i_glide_gridfile>  (262) 
pfpi4k_grid

>  <i_i_glide_lignum>  (262) 
28

>  <i_i_glide_rotatable_bonds>  (262) 
2

>  <r_i_docking_score>  (262) 
-3.67563

>  <r_i_glide_ligand_efficiency>  (262) 
-0.167074

>  <r_i_glide_ligand_efficiency_sa>  (262) 
-0.468149

>  <r_i_glide_ligand_efficiency_ln>  (262) 
-0.898459

>  <r_i_glide_gscore>  (262) 
-3.67563

>  <r_i_glide_lipo>  (262) 
-0.645396

>  <r_i_glide_hbond>  (262) 
-0.124602

>  <r_i_glide_metal>  (262) 
-0

>  <r_i_glide_rewards>  (262) 
-1.36797

>  <r_i_glide_evdw>  (262) 
-14.7788

>  <r_i_glide_ecoul>  (262) 
-5.32483

>  <r_i_glide_erotb>  (262) 
0

>  <r_i_glide_esite>  (262) 
0

>  <r_i_glide_emodel>  (262) 
-21.5837

>  <r_i_glide_energy>  (262) 
-20.1037

>  <r_i_glide_einternal>  (262) 
0.939668

>  <r_i_glide_intrahb_reward>  (262) 
-0

>  <i_i_glide_confnum>  (262) 
2

>  <i_i_glide_posenum>  (262) 
29

>  <r_i_glide_eff_state_penalty>  (262) 
0

>  <ligand_id>  (262) 
72

>  <original_smiles>  (262) 
CN1CCC23c4c(ccc(O)c4OC4C(O)C=CCC42)CC13

>  <smiles>  (262) 
[H]Oc1c([H])c([H])c2c3c1OC1([H])C([H])(O[H])C([H])=C([H])C([H])([H])C1([H])C31C([H])([H])C([H])([H])N(C([H])([H])[H])C1([H])C2([H])[H]

$$$$
72:1:2
     RDKit          3D

 43 47  0  0  1  0  0  0  0  0999 V2000
    8.9878   -2.3054    0.2703 C   0  0  0  0  0  0  0  0  0  0  0  0
    7.7185   -2.3279   -0.4420 N   0  0  0  0  0  0  0  0  0  0  0  0
    7.6863   -3.3821   -1.4340 C   0  0  0  0  0  0  0  0  0  0  0  0
    6.1703   -3.5130   -1.7635 C   0  0  0  0  0  0  0  0  0  0  0  0
    5.4187   -3.0707   -0.5086 C   0  0  2  0  0  0  0  0  0  0  0  0
    4.7719   -4.2237    0.2200 C   0  0  0  0  0  0  0  0  0  0  0  0
    5.5245   -4.7177    1.2712 C   0  0  0  0  0  0  0  0  0  0  0  0
    5.0279   -5.7415    2.0866 C   0  0  0  0  0  0  0  0  0  0  0  0
    3.7489   -6.2602    1.7702 C   0  0  0  0  0  0  0  0  0  0  0  0
    2.9691   -5.6794    0.7416 C   0  0  0  0  0  0  0  0  0  0  0  0
    1.6925   -6.1256    0.5393 O   0  0  0  0  0  0  0  0  0  0  0  0
    3.4516   -4.6312   -0.0554 C   0  0  0  0  0  0  0  0  0  0  0  0
    2.6587   -3.9976   -0.9694 O   0  0  0  0  0  0  0  0  0  0  0  0
    3.1020   -2.7630   -1.5200 C   0  0  2  0  0  0  0  0  0  0  0  0
    3.2330   -2.8206   -3.0699 C   0  0  1  0  0  0  0  0  0  0  0  0
    1.9460   -2.8983   -3.6475 O   0  0  0  0  0  0  0  0  0  0  0  0
    3.8333   -1.5454   -3.6149 C   0  0  0  0  0  0  0  0  0  0  0  0
    4.4403   -0.6192   -2.8520 C   0  0  0  0  0  0  0  0  0  0  0  0
    4.7396   -0.7314   -1.3762 C   0  0  0  0  0  0  0  0  0  0  0  0
    4.2917   -2.0634   -0.7621 C   0  0  2  0  0  0  0  0  0  0  0  0
    6.7232   -3.8253    1.3863 C   0  0  0  0  0  0  0  0  0  0  0  0
    6.5679   -2.6317    0.4178 C   0  0  1  0  0  0  0  0  0  0  0  0
    9.8020   -2.1723   -0.4123 H   0  0  0  0  0  0  0  0  0  0  0  0
    9.2487   -3.2394    0.7656 H   0  0  0  0  0  0  0  0  0  0  0  0
    9.0054   -1.4813    0.9817 H   0  0  0  0  0  0  0  0  0  0  0  0
    8.3105   -3.1373   -2.2914 H   0  0  0  0  0  0  0  0  0  0  0  0
    8.1637   -4.2280   -0.9424 H   0  0  0  0  0  0  0  0  0  0  0  0
    6.0020   -2.8250   -2.5879 H   0  0  0  0  0  0  0  0  0  0  0  0
    5.7626   -4.4666   -2.1111 H   0  0  0  0  0  0  0  0  0  0  0  0
    5.5604   -6.0881    2.9656 H   0  0  0  0  0  0  0  0  0  0  0  0
    3.3258   -7.0504    2.3563 H   0  0  0  0  0  0  0  0  0  0  0  0
    1.5860   -6.9924    0.8897 H   0  0  0  0  0  0  0  0  0  0  0  0
    2.2229   -2.1733   -1.3209 H   0  0  0  0  0  0  0  0  0  0  0  0
    3.8509   -3.6601   -3.3890 H   0  0  0  0  0  0  0  0  0  0  0  0
    1.3615   -2.3849   -3.1035 H   0  0  0  0  0  0  0  0  0  0  0  0
    3.6532   -1.3573   -4.6700 H   0  0  0  0  0  0  0  0  0  0  0  0
    4.7009    0.3339   -3.2713 H   0  0  0  0  0  0  0  0  0  0  0  0
    5.8133   -0.5699   -1.2275 H   0  0  0  0  0  0  0  0  0  0  0  0
    4.2187    0.0655   -0.8753 H   0  0  0  0  0  0  0  0  0  0  0  0
    3.9170   -1.7954    0.2289 H   0  0  0  0  0  0  0  0  0  0  0  0
    6.5984   -3.4150    2.3851 H   0  0  0  0  0  0  0  0  0  0  0  0
    7.6260   -4.4306    1.2456 H   0  0  0  0  0  0  0  0  0  0  0  0
    6.2970   -1.7482    0.9933 H   0  0  0  0  0  0  0  0  0  0  0  0
  1  2  1  0
  1 23  1  0
  1 24  1  0
  1 25  1  0
  2 22  1  0
  2  3  1  0
  3  4  1  0
  3 26  1  0
  3 27  1  0
  5  4  1  6
  4 28  1  0
  4 29  1  0
  5 20  1  0
  5 22  1  0
  5  6  1  0
  6 12  1  0
  6  7  2  0
  7  8  1  0
  7 21  1  0
  8  9  2  0
  8 30  1  0
  9 10  1  0
  9 31  1  0
 10 11  1  0
 10 12  2  0
 11 32  1  0
 12 13  1  0
 13 14  1  0
 14 20  1  0
 14 15  1  0
 14 33  1  6
 15 16  1  0
 15 17  1  0
 15 34  1  1
 16 35  1  0
 17 18  2  0
 17 36  1  0
 18 19  1  0
 18 37  1  0
 19 20  1  0
 19 38  1  0
 19 39  1  0
 20 40  1  1
 21 22  1  0
 21 41  1  0
 21 42  1  0
 22 43  1  1
M  END
>  <i_m_ct_stereo_status>  (263) 
1

>  <s_m_source_file>  (263) 
/var/tmp/pbs.5076255.sched01/tmppxgjifq_/8475v0iq0b.sdf

>  <i_m_source_file_index>  (263) 
28

>  <i_lp_mmshare_version>  (263) 
48012

>  <i_f3d_flags>  (263) 
0

>  <s_epik_input>  (263) 
W0NIMl0xW0NIMl1OKFtDSDNdKVtDQEBIXTJbQ0gyXWMoYzNbQ0BdMTI0KVtjSF1bY0hdYyhbT0hdKWMzT1tDQEhdNVtDQEBIXTRbQ0gyXVtDSF09W0NIXVtDQEBIXTVbT0hd

>  <s_epik_cmdline>  (263) 
J2VwaWtfcHl0aG9uJywgJy1waHQnLCAnMi4wJywgJy1waCcsICc3LjAnLCAnLXRuJywgJzgnLCAnLW1hJywgJzIwMCcsICctaW1hZScsICc8aW5maWxlLm1hZT4nLCAnLW9tYWUnLCAnPG91dGZpbGUubWFlPic=

>  <r_lp_tautomer_probability>  (263) 
1

>  <r_epik_Ionization_Penalty>  (263) 
2.54377

>  <r_epik_Ionization_Penalty_Charging>  (263) 
0

>  <r_epik_Ionization_Penalty_Neutral>  (263) 
2.54377

>  <r_epik_State_Penalty>  (263) 
2.71156

>  <r_epik_Charging_Adjusted_Penalty>  (263) 
2.71156

>  <i_epik_Tot_Q>  (263) 
0

>  <i_epik_Tot_abs_Q>  (263) 
0

>  <s_lp_Force_Field>  (263) 
OPLS3e

>  <r_lp_Energy>  (263) 
40.2151

>  <b_lp_Chiralities_Consistent>  (263) 
1

>  <s_lp_Variant>  (263) 
72:0-2

>  <s_i_glide_gridfile>  (263) 
pfpi4k_grid

>  <i_i_glide_lignum>  (263) 
28

>  <i_i_glide_rotatable_bonds>  (263) 
2

>  <r_i_docking_score>  (263) 
-3.44695

>  <r_i_glide_ligand_efficiency>  (263) 
-0.156679

>  <r_i_glide_ligand_efficiency_sa>  (263) 
-0.439022

>  <r_i_glide_ligand_efficiency_ln>  (263) 
-0.84256

>  <r_i_glide_gscore>  (263) 
-3.44695

>  <r_i_glide_lipo>  (263) 
-0.854758

>  <r_i_glide_hbond>  (263) 
-0.129045

>  <r_i_glide_metal>  (263) 
-0

>  <r_i_glide_rewards>  (263) 
-1.36797

>  <r_i_glide_evdw>  (263) 
-17.6068

>  <r_i_glide_ecoul>  (263) 
-1.43224

>  <r_i_glide_erotb>  (263) 
0

>  <r_i_glide_esite>  (263) 
0

>  <r_i_glide_emodel>  (263) 
-20.2788

>  <r_i_glide_energy>  (263) 
-19.039

>  <r_i_glide_einternal>  (263) 
0.246569

>  <r_i_glide_intrahb_reward>  (263) 
-0

>  <i_i_glide_confnum>  (263) 
2

>  <i_i_glide_posenum>  (263) 
16

>  <r_i_glide_eff_state_penalty>  (263) 
0

>  <ligand_id>  (263) 
72

>  <original_smiles>  (263) 
CN1CCC23c4c(ccc(O)c4OC4C(O)C=CCC42)CC13

>  <smiles>  (263) 
[H]Oc1c([H])c([H])c2c3c1OC1([H])C([H])(O[H])C([H])=C([H])C([H])([H])C1([H])C31C([H])([H])C([H])([H])N(C([H])([H])[H])C1([H])C2([H])[H]

$$$$
73:1:0
     RDKit          3D

 30 33  0  0  1  0  0  0  0  0999 V2000
    2.9758   -3.7979    2.4448 C   0  0  0  0  0  0  0  0  0  0  0  0
    2.6217   -3.0485    1.3432 C   0  0  0  0  0  0  0  0  0  0  0  0
    2.7802   -3.8700    0.2340 N   0  0  0  0  0  0  0  0  0  0  0  0
    2.5164   -3.5309   -1.1440 C   0  0  0  0  0  0  0  0  0  0  0  0
    3.7516   -2.9501   -1.8555 C   0  0  2  0  0  0  0  0  0  0  0  0
    4.1587   -1.5245   -1.3772 C   0  0  0  0  0  0  0  0  0  0  0  0
    4.2914   -0.7526   -2.6981 C   0  0  1  0  0  0  0  0  0  0  0  0
    4.8537   -1.8580   -3.5844 C   0  0  0  0  0  0  0  0  0  0  0  0
    3.6510   -2.7752   -3.3938 C   0  0  2  0  0  0  0  0  0  0  0  0
    2.4822   -1.8745   -3.7682 C   0  0  2  0  0  0  0  0  0  0  0  0
    2.5284   -0.6817   -4.7200 C   0  0  0  0  0  0  0  0  0  0  0  0
    2.9069   -0.5186   -3.2811 C   0  0  2  0  0  0  0  0  0  0  0  0
    3.2082   -5.0491    0.7169 C   0  0  0  0  0  0  0  0  0  0  0  0
    3.3362   -5.0798    2.0370 N   0  0  0  0  0  0  0  0  0  0  0  0
    2.9934   -3.5158    3.4904 H   0  0  0  0  0  0  0  0  0  0  0  0
    2.2720   -2.0237    1.2564 H   0  0  0  0  0  0  0  0  0  0  0  0
    2.1304   -4.4123   -1.6343 H   0  0  0  0  0  0  0  0  0  0  0  0
    1.6955   -2.8319   -1.1901 H   0  0  0  0  0  0  0  0  0  0  0  0
    4.5855   -3.6285   -1.6658 H   0  0  0  0  0  0  0  0  0  0  0  0
    3.4259   -1.0565   -0.7164 H   0  0  0  0  0  0  0  0  0  0  0  0
    5.1148   -1.5580   -0.8517 H   0  0  0  0  0  0  0  0  0  0  0  0
    4.8837    0.1572   -2.6552 H   0  0  0  0  0  0  0  0  0  0  0  0
    4.9923   -1.4941   -4.5991 H   0  0  0  0  0  0  0  0  0  0  0  0
    5.7809   -2.3008   -3.2152 H   0  0  0  0  0  0  0  0  0  0  0  0
    3.6465   -3.7071   -3.9620 H   0  0  0  0  0  0  0  0  0  0  0  0
    1.5047   -2.2604   -3.4838 H   0  0  0  0  0  0  0  0  0  0  0  0
    3.2960   -0.6438   -5.4937 H   0  0  0  0  0  0  0  0  0  0  0  0
    1.5774   -0.2730   -5.0620 H   0  0  0  0  0  0  0  0  0  0  0  0
    2.2114    0.0648   -2.7007 H   0  0  0  0  0  0  0  0  0  0  0  0
    3.4128   -5.8995    0.0865 H   0  0  0  0  0  0  0  0  0  0  0  0
  1 14  1  0
  1  2  2  0
  1 15  1  0
  2  3  1  0
  2 16  1  0
  3  4  1  0
  3 13  1  0
  4  5  1  0
  4 17  1  0
  4 18  1  0
  5  9  1  0
  5  6  1  0
  5 19  1  6
  6  7  1  0
  6 20  1  0
  6 21  1  0
  7 12  1  0
  7  8  1  0
  7 22  1  1
  8  9  1  0
  8 23  1  0
  8 24  1  0
  9 10  1  0
  9 25  1  6
 10 12  1  0
 10 11  1  0
 10 26  1  1
 11 12  1  0
 11 27  1  0
 11 28  1  0
 12 29  1  1
 13 14  2  0
 13 30  1  0
M  END
>  <i_m_ct_stereo_status>  (264) 
1

>  <s_m_source_file>  (264) 
/var/tmp/pbs.5076255.sched01/tmppxgjifq_/8475v0iq0b.sdf

>  <i_m_source_file_index>  (264) 
30

>  <i_lp_mmshare_version>  (264) 
48012

>  <i_f3d_flags>  (264) 
0

>  <s_epik_input>  (264) 
W2NIXTFuW2NIXVtjSF1uMVtDSDJdW0NASF0oW0NIMl0yKVtDQEhdKFtDSDJdMylbQ0BIXShbQ0gyXTQpW0NASF00W0NAQEhdMjM=

>  <s_epik_cmdline>  (264) 
J2VwaWtfcHl0aG9uJywgJy1waHQnLCAnMi4wJywgJy1waCcsICc3LjAnLCAnLXRuJywgJzgnLCAnLW1hJywgJzIwMCcsICctaW1hZScsICc8aW5maWxlLm1hZT4nLCAnLW9tYWUnLCAnPG91dGZpbGUubWFlPic=

>  <r_lp_tautomer_probability>  (264) 
1

>  <r_epik_Ionization_Penalty>  (264) 
1.17017

>  <r_epik_Ionization_Penalty_Charging>  (264) 
1.17017

>  <r_epik_Ionization_Penalty_Neutral>  (264) 
1.40504e-13

>  <r_epik_State_Penalty>  (264) 
1.23318

>  <r_epik_Charging_Adjusted_Penalty>  (264) 
2.40335

>  <i_epik_Tot_Q>  (264) 
0

>  <i_epik_Tot_abs_Q>  (264) 
0

>  <s_lp_Force_Field>  (264) 
OPLS3e

>  <r_lp_Energy>  (264) 
37.0606

>  <b_lp_Chiralities_Consistent>  (264) 
1

>  <s_lp_Variant>  (264) 
73:0-2

>  <s_i_glide_gridfile>  (264) 
pfpi4k_grid

>  <i_i_glide_lignum>  (264) 
30

>  <i_i_glide_rotatable_bonds>  (264) 
2

>  <r_i_docking_score>  (264) 
-2.54641

>  <r_i_glide_ligand_efficiency>  (264) 
-0.181887

>  <r_i_glide_ligand_efficiency_sa>  (264) 
-0.438373

>  <r_i_glide_ligand_efficiency_ln>  (264) 
-0.699746

>  <r_i_glide_gscore>  (264) 
-2.54641

>  <r_i_glide_lipo>  (264) 
-0.522665

>  <r_i_glide_hbond>  (264) 
0

>  <r_i_glide_metal>  (264) 
-0

>  <r_i_glide_rewards>  (264) 
-2.12544

>  <r_i_glide_evdw>  (264) 
-10.9199

>  <r_i_glide_ecoul>  (264) 
-1.43338

>  <r_i_glide_erotb>  (264) 
0.902859

>  <r_i_glide_esite>  (264) 
-0.0401668

>  <r_i_glide_emodel>  (264) 
-14.896

>  <r_i_glide_energy>  (264) 
-12.3533

>  <r_i_glide_einternal>  (264) 
0.258438

>  <r_i_glide_intrahb_reward>  (264) 
-0

>  <i_i_glide_confnum>  (264) 
5

>  <i_i_glide_posenum>  (264) 
29

>  <r_i_glide_eff_state_penalty>  (264) 
0

>  <ligand_id>  (264) 
73

>  <original_smiles>  (264) 
c1cn(CC2CC3CC2C2CC32)cn1

>  <smiles>  (264) 
[H]c1nc([H])n(C([H])([H])C2([H])C([H])([H])C3([H])C([H])([H])C2([H])C2([H])C([H])([H])C32[H])c1[H]

$$$$
73:1:1
     RDKit          3D

 30 33  0  0  1  0  0  0  0  0999 V2000
    3.0039   -6.2024    1.2884 C   0  0  0  0  0  0  0  0  0  0  0  0
    2.8466   -5.1245    0.4488 C   0  0  0  0  0  0  0  0  0  0  0  0
    3.4515   -4.0347    1.0672 N   0  0  0  0  0  0  0  0  0  0  0  0
    3.5718   -2.6780    0.5497 C   0  0  0  0  0  0  0  0  0  0  0  0
    4.5789   -2.5879   -0.6178 C   0  0  2  0  0  0  0  0  0  0  0  0
    4.7687   -1.1686   -1.2194 C   0  0  0  0  0  0  0  0  0  0  0  0
    4.5932   -1.4170   -2.7352 C   0  0  1  0  0  0  0  0  0  0  0  0
    5.2479   -2.7930   -2.8618 C   0  0  0  0  0  0  0  0  0  0  0  0
    4.2651   -3.4322   -1.8809 C   0  0  2  0  0  0  0  0  0  0  0  0
    2.8917   -3.0462   -2.4444 C   0  0  2  0  0  0  0  0  0  0  0  0
    2.5786   -2.7775   -3.9034 C   0  0  0  0  0  0  0  0  0  0  0  0
    3.1198   -1.6776   -3.0108 C   0  0  2  0  0  0  0  0  0  0  0  0
    3.9012   -4.5044    2.2394 C   0  0  0  0  0  0  0  0  0  0  0  0
    3.6680   -5.7969    2.4422 N   0  0  0  0  0  0  0  0  0  0  0  0
    2.6949   -7.2256    1.1424 H   0  0  0  0  0  0  0  0  0  0  0  0
    2.3980   -5.0687   -0.5351 H   0  0  0  0  0  0  0  0  0  0  0  0
    2.5833   -2.3299    0.2501 H   0  0  0  0  0  0  0  0  0  0  0  0
    3.8884   -2.0220    1.3585 H   0  0  0  0  0  0  0  0  0  0  0  0
    5.5458   -2.9150   -0.2320 H   0  0  0  0  0  0  0  0  0  0  0  0
    4.0614   -0.4381   -0.8255 H   0  0  0  0  0  0  0  0  0  0  0  0
    5.7721   -0.7988   -1.0051 H   0  0  0  0  0  0  0  0  0  0  0  0
    4.9965   -0.6426   -3.3833 H   0  0  0  0  0  0  0  0  0  0  0  0
    5.2048   -3.2272   -3.8588 H   0  0  0  0  0  0  0  0  0  0  0  0
    6.2861   -2.8222   -2.5202 H   0  0  0  0  0  0  0  0  0  0  0  0
    4.3936   -4.5079   -1.7567 H   0  0  0  0  0  0  0  0  0  0  0  0
    2.0297   -3.1886   -1.7972 H   0  0  0  0  0  0  0  0  0  0  0  0
    3.2157   -3.2106   -4.6703 H   0  0  0  0  0  0  0  0  0  0  0  0
    1.5232   -2.7206   -4.1663 H   0  0  0  0  0  0  0  0  0  0  0  0
    2.4310   -0.8921   -2.7073 H   0  0  0  0  0  0  0  0  0  0  0  0
    4.4177   -3.8892    2.9585 H   0  0  0  0  0  0  0  0  0  0  0  0
  1 14  1  0
  1  2  2  0
  1 15  1  0
  2  3  1  0
  2 16  1  0
  3  4  1  0
  3 13  1  0
  4  5  1  0
  4 17  1  0
  4 18  1  0
  5  9  1  0
  5  6  1  0
  5 19  1  1
  6  7  1  0
  6 20  1  0
  6 21  1  0
  7 12  1  0
  7  8  1  0
  7 22  1  6
  8  9  1  0
  8 23  1  0
  8 24  1  0
  9 10  1  0
  9 25  1  1
 10 12  1  0
 10 11  1  0
 10 26  1  1
 11 12  1  0
 11 27  1  0
 11 28  1  0
 12 29  1  1
 13 14  2  0
 13 30  1  0
M  END
>  <i_m_ct_stereo_status>  (265) 
1

>  <s_m_source_file>  (265) 
/var/tmp/pbs.5076255.sched01/tmppxgjifq_/8475v0iq0b.sdf

>  <i_m_source_file_index>  (265) 
30

>  <i_lp_mmshare_version>  (265) 
48012

>  <i_f3d_flags>  (265) 
0

>  <s_epik_input>  (265) 
W2NIXTFuW2NIXVtjSF1uMVtDSDJdW0NASF0oW0NIMl0yKVtDQEhdKFtDSDJdMylbQ0BIXShbQ0gyXTQpW0NASF00W0NAQEhdMjM=

>  <s_epik_cmdline>  (265) 
J2VwaWtfcHl0aG9uJywgJy1waHQnLCAnMi4wJywgJy1waCcsICc3LjAnLCAnLXRuJywgJzgnLCAnLW1hJywgJzIwMCcsICctaW1hZScsICc8aW5maWxlLm1hZT4nLCAnLW9tYWUnLCAnPG91dGZpbGUubWFlPic=

>  <r_lp_tautomer_probability>  (265) 
1

>  <r_epik_Ionization_Penalty>  (265) 
1.17017

>  <r_epik_Ionization_Penalty_Charging>  (265) 
1.17017

>  <r_epik_Ionization_Penalty_Neutral>  (265) 
1.40504e-13

>  <r_epik_State_Penalty>  (265) 
1.23318

>  <r_epik_Charging_Adjusted_Penalty>  (265) 
2.40335

>  <i_epik_Tot_Q>  (265) 
0

>  <i_epik_Tot_abs_Q>  (265) 
0

>  <s_lp_Force_Field>  (265) 
OPLS3e

>  <r_lp_Energy>  (265) 
37.0606

>  <b_lp_Chiralities_Consistent>  (265) 
1

>  <s_lp_Variant>  (265) 
73:0-2

>  <s_i_glide_gridfile>  (265) 
pfpi4k_grid

>  <i_i_glide_lignum>  (265) 
30

>  <i_i_glide_rotatable_bonds>  (265) 
2

>  <r_i_docking_score>  (265) 
-2.50687

>  <r_i_glide_ligand_efficiency>  (265) 
-0.179062

>  <r_i_glide_ligand_efficiency_sa>  (265) 
-0.431565

>  <r_i_glide_ligand_efficiency_ln>  (265) 
-0.688879

>  <r_i_glide_gscore>  (265) 
-2.50687

>  <r_i_glide_lipo>  (265) 
-0.327814

>  <r_i_glide_hbond>  (265) 
0

>  <r_i_glide_metal>  (265) 
-0

>  <r_i_glide_rewards>  (265) 
-2.12821

>  <r_i_glide_evdw>  (265) 
-16.8348

>  <r_i_glide_ecoul>  (265) 
-0.742714

>  <r_i_glide_erotb>  (265) 
0.902859

>  <r_i_glide_esite>  (265) 
-0.000563229

>  <r_i_glide_emodel>  (265) 
-19.9512

>  <r_i_glide_energy>  (265) 
-17.5775

>  <r_i_glide_einternal>  (265) 
0.445772

>  <r_i_glide_intrahb_reward>  (265) 
-0

>  <i_i_glide_confnum>  (265) 
5

>  <i_i_glide_posenum>  (265) 
23

>  <r_i_glide_eff_state_penalty>  (265) 
0

>  <ligand_id>  (265) 
73

>  <original_smiles>  (265) 
c1cn(CC2CC3CC2C2CC32)cn1

>  <smiles>  (265) 
[H]c1nc([H])n(C([H])([H])C2([H])C([H])([H])C3([H])C([H])([H])C2([H])C2([H])C([H])([H])C32[H])c1[H]

$$$$
75:0:0
     RDKit          3D

 32 34  0  0  1  0  0  0  0  0999 V2000
    4.3849   -7.5761    0.5246 C   0  0  0  0  0  0  0  0  0  0  0  0
    3.4461   -6.4362    0.9590 C   0  0  0  0  0  0  0  0  0  0  0  0
    4.1863   -5.2377    1.4384 N   0  0  0  0  0  0  0  0  0  0  0  0
    4.7740   -5.2975    2.6620 C   0  0  0  0  0  0  0  0  0  0  0  0
    4.7228   -6.2860    3.3952 O   0  0  0  0  0  0  0  0  0  0  0  0
    5.5919   -4.1034    3.1538 C   0  0  0  0  0  0  0  0  0  0  0  0
    5.0356   -2.7743    2.6275 C   0  0  0  0  0  0  0  0  0  0  0  0
    4.7771   -2.8750    1.1850 N   0  0  0  0  0  0  0  0  0  0  0  0
    4.2653   -4.0748    0.6200 C   0  0  0  0  0  0  0  0  0  0  0  0
    3.8366   -4.1679   -0.6028 N   0  0  0  0  0  0  0  0  0  0  0  0
    3.7393   -3.0760   -1.4799 C   0  0  0  0  0  0  0  0  0  0  0  0
    2.9684   -3.2392   -2.6505 C   0  0  0  0  0  0  0  0  0  0  0  0
    2.8354   -2.2090   -3.5898 C   0  0  0  0  0  0  0  0  0  0  0  0
    3.4497   -0.9671   -3.3686 C   0  0  0  0  0  0  0  0  0  0  0  0
    4.2222   -0.7862   -2.2067 C   0  0  0  0  0  0  0  0  0  0  0  0
    4.3640   -1.8314   -1.2775 C   0  0  0  0  0  0  0  0  0  0  0  0
    5.3677   -1.6166    0.1628 S   0  0  0  0  0  0  0  0  0  0  0  0
    5.0357   -0.3318    0.7995 O   0  0  0  0  0  0  0  0  0  0  0  0
    6.7560   -1.9298   -0.1991 O   0  0  0  0  0  0  0  0  0  0  0  0
    3.8257   -8.4643    0.2352 H   0  0  0  0  0  0  0  0  0  0  0  0
    5.0559   -7.8898    1.3227 H   0  0  0  0  0  0  0  0  0  0  0  0
    4.9955   -7.2646   -0.3207 H   0  0  0  0  0  0  0  0  0  0  0  0
    2.7462   -6.2304    0.1468 H   0  0  0  0  0  0  0  0  0  0  0  0
    2.8043   -6.7984    1.7595 H   0  0  0  0  0  0  0  0  0  0  0  0
    5.6082   -4.1005    4.2464 H   0  0  0  0  0  0  0  0  0  0  0  0
    6.6067   -4.2636    2.7949 H   0  0  0  0  0  0  0  0  0  0  0  0
    4.1049   -2.5103    3.1396 H   0  0  0  0  0  0  0  0  0  0  0  0
    5.7521   -1.9728    2.8262 H   0  0  0  0  0  0  0  0  0  0  0  0
    2.4575   -4.1675   -2.8471 H   0  0  0  0  0  0  0  0  0  0  0  0
    2.2339   -2.3800   -4.4628 H   0  0  0  0  0  0  0  0  0  0  0  0
    3.3196   -0.1585   -4.0753 H   0  0  0  0  0  0  0  0  0  0  0  0
    4.7041    0.1478   -2.0176 H   0  0  0  0  0  0  0  0  0  0  0  0
  1  2  1  0
  1 20  1  0
  1 21  1  0
  1 22  1  0
  2  3  1  0
  2 23  1  0
  2 24  1  0
  3  9  1  0
  3  4  1  0
  4  5  2  0
  4  6  1  0
  6  7  1  0
  6 25  1  0
  6 26  1  0
  7  8  1  0
  7 27  1  0
  7 28  1  0
  8 17  1  0
  8  9  1  0
  9 10  2  0
 10 11  1  0
 11 16  2  0
 11 12  1  0
 12 13  2  0
 12 29  1  0
 13 14  1  0
 13 30  1  0
 14 15  2  0
 14 31  1  0
 15 16  1  0
 15 32  1  0
 16 17  1  0
 17 18  2  0
 17 19  2  0
M  END
>  <i_m_ct_stereo_status>  (266) 
1

>  <s_m_source_file>  (266) 
/var/tmp/pbs.5076255.sched01/tmppxgjifq_/8475v0iq0b.sdf

>  <i_m_source_file_index>  (266) 
32

>  <i_lp_mmshare_version>  (266) 
48012

>  <i_f3d_flags>  (266) 
0

>  <s_epik_input>  (266) 
W0NIMl0xW0NIMl1DKD1PKU4oW0NIMl1bQ0gzXSlDKE4xMik9TmMzYyhTMig9Tyk9TylbY0hdW2NIXVtjSF1bY0hdMw==

>  <s_epik_cmdline>  (266) 
J2VwaWtfcHl0aG9uJywgJy1waHQnLCAnMi4wJywgJy1waCcsICc3LjAnLCAnLXRuJywgJzgnLCAnLW1hJywgJzIwMCcsICctaW1hZScsICc8aW5maWxlLm1hZT4nLCAnLW9tYWUnLCAnPG91dGZpbGUubWFlPic=

>  <r_lp_tautomer_probability>  (266) 
1

>  <r_epik_Ionization_Penalty>  (266) 
2.61591e-09

>  <r_epik_Ionization_Penalty_Charging>  (266) 
0

>  <r_epik_Ionization_Penalty_Neutral>  (266) 
2.61591e-09

>  <r_epik_State_Penalty>  (266) 
-0

>  <r_epik_Charging_Adjusted_Penalty>  (266) 
0

>  <i_epik_Tot_Q>  (266) 
0

>  <i_epik_Tot_abs_Q>  (266) 
0

>  <s_epik_Chemistry_Notes>  (266) 
This compound has an imine and may undergo hydrolysis.

>  <s_lp_Force_Field>  (266) 
OPLS3e

>  <r_lp_Energy>  (266) 
29.9026

>  <b_lp_Chiralities_Consistent>  (266) 
1

>  <s_lp_Variant>  (266) 
75:0-1

>  <s_i_glide_gridfile>  (266) 
pfpi4k_grid

>  <i_i_glide_lignum>  (266) 
32

>  <i_i_glide_rotatable_bonds>  (266) 
1

>  <r_i_docking_score>  (266) 
-3.47913

>  <r_i_glide_ligand_efficiency>  (266) 
-0.183112

>  <r_i_glide_ligand_efficiency_sa>  (266) 
-0.488617

>  <r_i_glide_ligand_efficiency_ln>  (266) 
-0.882034

>  <r_i_glide_gscore>  (266) 
-3.47913

>  <r_i_glide_lipo>  (266) 
-0.626014

>  <r_i_glide_hbond>  (266) 
0

>  <r_i_glide_metal>  (266) 
-0

>  <r_i_glide_rewards>  (266) 
-1.60829

>  <r_i_glide_evdw>  (266) 
-20.3324

>  <r_i_glide_ecoul>  (266) 
-1.25984

>  <r_i_glide_erotb>  (266) 
0

>  <r_i_glide_esite>  (266) 
-0.0392331

>  <r_i_glide_emodel>  (266) 
-26.3265

>  <r_i_glide_energy>  (266) 
-21.5923

>  <r_i_glide_einternal>  (266) 
0.431141

>  <r_i_glide_intrahb_reward>  (266) 
-0

>  <i_i_glide_confnum>  (266) 
1

>  <i_i_glide_posenum>  (266) 
2

>  <r_i_glide_eff_state_penalty>  (266) 
0

>  <ligand_id>  (266) 
75

>  <original_smiles>  (266) 
CCN1C(=O)CCN2C1=Nc1ccccc1S2(=O)=O

>  <smiles>  (266) 
[H]c1c([H])c([H])c2c(c1[H])N=C1N(C([H])([H])C([H])([H])[H])C(=O)C([H])([H])C([H])([H])N1S2(=O)=O

$$$$
75:0:1
     RDKit          3D

 32 34  0  0  1  0  0  0  0  0999 V2000
    4.0876   -7.1541    0.8201 C   0  0  0  0  0  0  0  0  0  0  0  0
    2.9913   -6.0866    0.9957 C   0  0  0  0  0  0  0  0  0  0  0  0
    3.5241   -4.8045    1.5284 N   0  0  0  0  0  0  0  0  0  0  0  0
    3.7978   -4.7282    2.8599 C   0  0  0  0  0  0  0  0  0  0  0  0
    3.6147   -5.6669    3.6391 O   0  0  0  0  0  0  0  0  0  0  0  0
    4.3969   -3.4397    3.4283 C   0  0  0  0  0  0  0  0  0  0  0  0
    3.9212   -2.2044    2.6540 C   0  0  0  0  0  0  0  0  0  0  0  0
    4.0402   -2.4385    1.2095 N   0  0  0  0  0  0  0  0  0  0  0  0
    3.7498   -3.7078    0.6518 C   0  0  0  0  0  0  0  0  0  0  0  0
    3.6498   -3.9300   -0.6262 N   0  0  0  0  0  0  0  0  0  0  0  0
    3.7258   -2.9179   -1.5942 C   0  0  0  0  0  0  0  0  0  0  0  0
    3.2978   -3.2359   -2.8983 C   0  0  0  0  0  0  0  0  0  0  0  0
    3.3437   -2.2896   -3.9275 C   0  0  0  0  0  0  0  0  0  0  0  0
    3.8102   -0.9907   -3.6849 C   0  0  0  0  0  0  0  0  0  0  0  0
    4.2507   -0.6554   -2.3933 C   0  0  0  0  0  0  0  0  0  0  0  0
    4.2133   -1.6161   -1.3627 C   0  0  0  0  0  0  0  0  0  0  0  0
    4.8075   -1.2234    0.2559 S   0  0  0  0  0  0  0  0  0  0  0  0
    4.2650    0.0816    0.6730 O   0  0  0  0  0  0  0  0  0  0  0  0
    6.2561   -1.4732    0.2730 O   0  0  0  0  0  0  0  0  0  0  0  0
    3.6690   -8.1014    0.4813 H   0  0  0  0  0  0  0  0  0  0  0  0
    4.6086   -7.3667    1.7557 H   0  0  0  0  0  0  0  0  0  0  0  0
    4.8332   -6.8425    0.0870 H   0  0  0  0  0  0  0  0  0  0  0  0
    2.4492   -5.9706    0.0526 H   0  0  0  0  0  0  0  0  0  0  0  0
    2.2319   -6.4771    1.6719 H   0  0  0  0  0  0  0  0  0  0  0  0
    4.1227   -3.3522    4.4793 H   0  0  0  0  0  0  0  0  0  0  0  0
    5.4823   -3.5290    3.3790 H   0  0  0  0  0  0  0  0  0  0  0  0
    2.8803   -1.9657    2.8899 H   0  0  0  0  0  0  0  0  0  0  0  0
    4.5231   -1.3403    2.9382 H   0  0  0  0  0  0  0  0  0  0  0  0
    2.9159   -4.2154   -3.1328 H   0  0  0  0  0  0  0  0  0  0  0  0
    3.0129   -2.5757   -4.9100 H   0  0  0  0  0  0  0  0  0  0  0  0
    3.8302   -0.2551   -4.4793 H   0  0  0  0  0  0  0  0  0  0  0  0
    4.6148    0.3356   -2.2065 H   0  0  0  0  0  0  0  0  0  0  0  0
  1  2  1  0
  1 20  1  0
  1 21  1  0
  1 22  1  0
  2  3  1  0
  2 23  1  0
  2 24  1  0
  3  9  1  0
  3  4  1  0
  4  5  2  0
  4  6  1  0
  6  7  1  0
  6 25  1  0
  6 26  1  0
  7  8  1  0
  7 27  1  0
  7 28  1  0
  8 17  1  0
  8  9  1  0
  9 10  2  0
 10 11  1  0
 11 16  2  0
 11 12  1  0
 12 13  2  0
 12 29  1  0
 13 14  1  0
 13 30  1  0
 14 15  2  0
 14 31  1  0
 15 16  1  0
 15 32  1  0
 16 17  1  0
 17 18  2  0
 17 19  2  0
M  END
>  <i_m_ct_stereo_status>  (267) 
1

>  <s_m_source_file>  (267) 
/var/tmp/pbs.5076255.sched01/tmppxgjifq_/8475v0iq0b.sdf

>  <i_m_source_file_index>  (267) 
32

>  <i_lp_mmshare_version>  (267) 
48012

>  <i_f3d_flags>  (267) 
0

>  <s_epik_input>  (267) 
W0NIMl0xW0NIMl1DKD1PKU4oW0NIMl1bQ0gzXSlDKE4xMik9TmMzYyhTMig9Tyk9TylbY0hdW2NIXVtjSF1bY0hdMw==

>  <s_epik_cmdline>  (267) 
J2VwaWtfcHl0aG9uJywgJy1waHQnLCAnMi4wJywgJy1waCcsICc3LjAnLCAnLXRuJywgJzgnLCAnLW1hJywgJzIwMCcsICctaW1hZScsICc8aW5maWxlLm1hZT4nLCAnLW9tYWUnLCAnPG91dGZpbGUubWFlPic=

>  <r_lp_tautomer_probability>  (267) 
1

>  <r_epik_Ionization_Penalty>  (267) 
2.61591e-09

>  <r_epik_Ionization_Penalty_Charging>  (267) 
0

>  <r_epik_Ionization_Penalty_Neutral>  (267) 
2.61591e-09

>  <r_epik_State_Penalty>  (267) 
-0

>  <r_epik_Charging_Adjusted_Penalty>  (267) 
0

>  <i_epik_Tot_Q>  (267) 
0

>  <i_epik_Tot_abs_Q>  (267) 
0

>  <s_epik_Chemistry_Notes>  (267) 
This compound has an imine and may undergo hydrolysis.

>  <s_lp_Force_Field>  (267) 
OPLS3e

>  <r_lp_Energy>  (267) 
29.9026

>  <b_lp_Chiralities_Consistent>  (267) 
1

>  <s_lp_Variant>  (267) 
75:0-1

>  <s_i_glide_gridfile>  (267) 
pfpi4k_grid

>  <i_i_glide_lignum>  (267) 
32

>  <i_i_glide_rotatable_bonds>  (267) 
1

>  <r_i_docking_score>  (267) 
-3.19195

>  <r_i_glide_ligand_efficiency>  (267) 
-0.167998

>  <r_i_glide_ligand_efficiency_sa>  (267) 
-0.448285

>  <r_i_glide_ligand_efficiency_ln>  (267) 
-0.809229

>  <r_i_glide_gscore>  (267) 
-3.19195

>  <r_i_glide_lipo>  (267) 
-0.500285

>  <r_i_glide_hbond>  (267) 
0

>  <r_i_glide_metal>  (267) 
-0

>  <r_i_glide_rewards>  (267) 
-1.54314

>  <r_i_glide_evdw>  (267) 
-21.4827

>  <r_i_glide_ecoul>  (267) 
-0.479275

>  <r_i_glide_erotb>  (267) 
0

>  <r_i_glide_esite>  (267) 
-0.00250457

>  <r_i_glide_emodel>  (267) 
-26.4435

>  <r_i_glide_energy>  (267) 
-21.962

>  <r_i_glide_einternal>  (267) 
0.184951

>  <r_i_glide_intrahb_reward>  (267) 
-0

>  <i_i_glide_confnum>  (267) 
2

>  <i_i_glide_posenum>  (267) 
13

>  <r_i_glide_eff_state_penalty>  (267) 
0

>  <ligand_id>  (267) 
75

>  <original_smiles>  (267) 
CCN1C(=O)CCN2C1=Nc1ccccc1S2(=O)=O

>  <smiles>  (267) 
[H]c1c([H])c([H])c2c(c1[H])N=C1N(C([H])([H])C([H])([H])[H])C(=O)C([H])([H])C([H])([H])N1S2(=O)=O

$$$$
75:0:2
     RDKit          3D

 32 34  0  0  1  0  0  0  0  0999 V2000
    3.4414   -0.3701    0.9024 C   0  0  0  0  0  0  0  0  0  0  0  0
    3.6624   -0.2178    2.4155 C   0  0  0  0  0  0  0  0  0  0  0  0
    2.6697   -0.9870    3.2149 N   0  0  0  0  0  0  0  0  0  0  0  0
    2.9073   -2.3104    3.4196 C   0  0  0  0  0  0  0  0  0  0  0  0
    3.8822   -2.9036    2.9568 O   0  0  0  0  0  0  0  0  0  0  0  0
    1.9523   -3.1141    4.3076 C   0  0  0  0  0  0  0  0  0  0  0  0
    0.5197   -2.5804    4.2277 C   0  0  0  0  0  0  0  0  0  0  0  0
    0.5025   -1.1198    4.3515 N   0  0  0  0  0  0  0  0  0  0  0  0
    1.5294   -0.3303    3.7644 C   0  0  0  0  0  0  0  0  0  0  0  0
    1.4830    0.9666    3.6850 N   0  0  0  0  0  0  0  0  0  0  0  0
    0.3796    1.7314    4.0976 C   0  0  0  0  0  0  0  0  0  0  0  0
    0.3422    3.0799    3.6830 C   0  0  0  0  0  0  0  0  0  0  0  0
   -0.7338    3.9139    4.0398 C   0  0  0  0  0  0  0  0  0  0  0  0
   -1.7961    3.4096    4.8149 C   0  0  0  0  0  0  0  0  0  0  0  0
   -1.7719    2.0703    5.2506 C   0  0  0  0  0  0  0  0  0  0  0  0
   -0.6817    1.2509    4.8964 C   0  0  0  0  0  0  0  0  0  0  0  0
   -0.6072   -0.4186    5.4710 S   0  0  0  0  0  0  0  0  0  0  0  0
   -1.9200   -1.0573    5.2771 O   0  0  0  0  0  0  0  0  0  0  0  0
    0.0221   -0.4294    6.8003 O   0  0  0  0  0  0  0  0  0  0  0  0
    4.2029    0.1742    0.3440 H   0  0  0  0  0  0  0  0  0  0  0  0
    2.4660    0.0154    0.6032 H   0  0  0  0  0  0  0  0  0  0  0  0
    3.4930   -1.4129    0.5864 H   0  0  0  0  0  0  0  0  0  0  0  0
    4.6728   -0.5572    2.6484 H   0  0  0  0  0  0  0  0  0  0  0  0
    3.7032    0.8419    2.6701 H   0  0  0  0  0  0  0  0  0  0  0  0
    1.9803   -4.1604    3.9991 H   0  0  0  0  0  0  0  0  0  0  0  0
    2.3230   -3.0625    5.3312 H   0  0  0  0  0  0  0  0  0  0  0  0
    0.0667   -2.8490    3.2772 H   0  0  0  0  0  0  0  0  0  0  0  0
   -0.0897   -3.0341    5.0109 H   0  0  0  0  0  0  0  0  0  0  0  0
    1.1422    3.4774    3.0730 H   0  0  0  0  0  0  0  0  0  0  0  0
   -0.7354    4.9372    3.7037 H   0  0  0  0  0  0  0  0  0  0  0  0
   -2.6221    4.0492    5.0863 H   0  0  0  0  0  0  0  0  0  0  0  0
   -2.5756    1.6820    5.8559 H   0  0  0  0  0  0  0  0  0  0  0  0
  1  2  1  0
  1 20  1  0
  1 21  1  0
  1 22  1  0
  2  3  1  0
  2 23  1  0
  2 24  1  0
  3  9  1  0
  3  4  1  0
  4  5  2  0
  4  6  1  0
  6  7  1  0
  6 25  1  0
  6 26  1  0
  7  8  1  0
  7 27  1  0
  7 28  1  0
  8 17  1  0
  8  9  1  0
  9 10  2  0
 10 11  1  0
 11 16  2  0
 11 12  1  0
 12 13  2  0
 12 29  1  0
 13 14  1  0
 13 30  1  0
 14 15  2  0
 14 31  1  0
 15 16  1  0
 15 32  1  0
 16 17  1  0
 17 18  2  0
 17 19  2  0
M  END
>  <i_m_ct_stereo_status>  (268) 
1

>  <s_m_source_file>  (268) 
/var/tmp/pbs.5076255.sched01/tmppxgjifq_/8475v0iq0b.sdf

>  <i_m_source_file_index>  (268) 
32

>  <i_lp_mmshare_version>  (268) 
48012

>  <i_f3d_flags>  (268) 
0

>  <s_epik_input>  (268) 
W0NIMl0xW0NIMl1DKD1PKU4oW0NIMl1bQ0gzXSlDKE4xMik9TmMzYyhTMig9Tyk9TylbY0hdW2NIXVtjSF1bY0hdMw==

>  <s_epik_cmdline>  (268) 
J2VwaWtfcHl0aG9uJywgJy1waHQnLCAnMi4wJywgJy1waCcsICc3LjAnLCAnLXRuJywgJzgnLCAnLW1hJywgJzIwMCcsICctaW1hZScsICc8aW5maWxlLm1hZT4nLCAnLW9tYWUnLCAnPG91dGZpbGUubWFlPic=

>  <r_lp_tautomer_probability>  (268) 
1

>  <r_epik_Ionization_Penalty>  (268) 
2.61591e-09

>  <r_epik_Ionization_Penalty_Charging>  (268) 
0

>  <r_epik_Ionization_Penalty_Neutral>  (268) 
2.61591e-09

>  <r_epik_State_Penalty>  (268) 
-0

>  <r_epik_Charging_Adjusted_Penalty>  (268) 
0

>  <i_epik_Tot_Q>  (268) 
0

>  <i_epik_Tot_abs_Q>  (268) 
0

>  <s_epik_Chemistry_Notes>  (268) 
This compound has an imine and may undergo hydrolysis.

>  <s_lp_Force_Field>  (268) 
OPLS3e

>  <r_lp_Energy>  (268) 
29.9026

>  <b_lp_Chiralities_Consistent>  (268) 
1

>  <s_lp_Variant>  (268) 
75:0-1

>  <s_i_glide_gridfile>  (268) 
pfpi4k_grid

>  <i_i_glide_lignum>  (268) 
32

>  <i_i_glide_rotatable_bonds>  (268) 
1

>  <r_i_docking_score>  (268) 
-3.14032

>  <r_i_glide_ligand_efficiency>  (268) 
-0.16528

>  <r_i_glide_ligand_efficiency_sa>  (268) 
-0.441033

>  <r_i_glide_ligand_efficiency_ln>  (268) 
-0.796138

>  <r_i_glide_gscore>  (268) 
-3.14032

>  <r_i_glide_lipo>  (268) 
-0.0693202

>  <r_i_glide_hbond>  (268) 
0

>  <r_i_glide_metal>  (268) 
-0

>  <r_i_glide_rewards>  (268) 
-1.50466

>  <r_i_glide_evdw>  (268) 
-19.1712

>  <r_i_glide_ecoul>  (268) 
-3.15734

>  <r_i_glide_erotb>  (268) 
0

>  <r_i_glide_esite>  (268) 
-0.134175

>  <r_i_glide_emodel>  (268) 
-26.7236

>  <r_i_glide_energy>  (268) 
-22.3285

>  <r_i_glide_einternal>  (268) 
0.30323

>  <r_i_glide_intrahb_reward>  (268) 
-0

>  <i_i_glide_confnum>  (268) 
2

>  <i_i_glide_posenum>  (268) 
3

>  <r_i_glide_eff_state_penalty>  (268) 
0

>  <ligand_id>  (268) 
75

>  <original_smiles>  (268) 
CCN1C(=O)CCN2C1=Nc1ccccc1S2(=O)=O

>  <smiles>  (268) 
[H]c1c([H])c([H])c2c(c1[H])N=C1N(C([H])([H])C([H])([H])[H])C(=O)C([H])([H])C([H])([H])N1S2(=O)=O

$$$$
77:0:0
     RDKit          3D

 54 57  0  0  1  0  0  0  0  0999 V2000
    6.2213   -8.6264    5.5409 C   0  0  0  0  0  0  0  0  0  0  0  0
    6.5239   -7.7527    4.7466 C   0  0  0  0  0  0  0  0  0  0  0  0
    6.8979   -6.6900    3.7861 C   0  0  1  0  0  0  0  0  0  0  0  0
    6.2476   -5.4918    4.1528 O   0  0  0  0  0  0  0  0  0  0  0  0
    8.3957   -6.3522    3.8350 C   0  0  0  0  0  0  0  0  0  0  0  0
    8.7392   -5.7348    2.4669 C   0  0  0  0  0  0  0  0  0  0  0  0
    7.5531   -5.9928    1.5057 C   0  0  2  0  0  0  0  0  0  0  0  0
    6.8745   -4.6644    1.0480 C   0  0  1  0  0  0  0  0  0  0  0  0
    7.8347   -3.9613    0.0598 C   0  0  0  0  0  0  0  0  0  0  0  0
    7.2127   -2.8064   -0.6702 C   0  0  0  0  0  0  0  0  0  0  0  0
    5.9032   -2.5190   -0.6908 C   0  0  0  0  0  0  0  0  0  0  0  0
    5.4124   -1.2541   -1.3929 C   0  0  0  0  0  0  0  0  0  0  0  0
    4.2673   -1.5395   -2.3440 C   0  0  0  0  0  0  0  0  0  0  0  0
    4.2178   -1.0623   -3.4742 O   0  0  0  0  0  0  0  0  0  0  0  0
    3.1586   -2.3947   -1.7828 C   0  0  0  0  0  0  0  0  0  0  0  0
    3.7308   -3.6503   -1.1194 C   0  0  0  0  0  0  0  0  0  0  0  0
    4.8326   -3.4154   -0.0320 C   0  0  2  0  0  0  0  0  0  0  0  0
    4.2664   -2.6118    1.1674 C   0  0  0  0  0  0  0  0  0  0  0  0
    5.4339   -4.8107    0.4582 C   0  0  2  0  0  0  0  0  0  0  0  0
    4.5625   -5.6194    1.4886 C   0  0  1  0  0  0  0  0  0  0  0  0
    3.0978   -5.8931    1.0904 C   0  0  0  0  0  0  0  0  0  0  0  0
    5.1957   -6.9933    1.7832 C   0  0  0  0  0  0  0  0  0  0  0  0
    6.6625   -7.0028    2.2707 C   0  0  2  0  0  0  0  0  0  0  0  0
    7.1849   -8.4300    1.9421 C   0  0  0  0  0  0  0  0  0  0  0  0
    5.9416   -9.3863    6.2387 H   0  0  0  0  0  0  0  0  0  0  0  0
    5.6052   -5.3012    3.4874 H   0  0  0  0  0  0  0  0  0  0  0  0
    8.6573   -5.6972    4.6668 H   0  0  0  0  0  0  0  0  0  0  0  0
    8.9882   -7.2595    3.9643 H   0  0  0  0  0  0  0  0  0  0  0  0
    8.9484   -4.6715    2.5692 H   0  0  0  0  0  0  0  0  0  0  0  0
    9.6615   -6.1737    2.0909 H   0  0  0  0  0  0  0  0  0  0  0  0
    7.9403   -6.4864    0.6101 H   0  0  0  0  0  0  0  0  0  0  0  0
    6.7774   -4.0152    1.9179 H   0  0  0  0  0  0  0  0  0  0  0  0
    8.7130   -3.5855    0.5868 H   0  0  0  0  0  0  0  0  0  0  0  0
    8.2134   -4.6412   -0.6986 H   0  0  0  0  0  0  0  0  0  0  0  0
    7.9263   -2.1835   -1.1892 H   0  0  0  0  0  0  0  0  0  0  0  0
    5.0901   -0.5206   -0.6554 H   0  0  0  0  0  0  0  0  0  0  0  0
    6.2055   -0.8143   -1.9811 H   0  0  0  0  0  0  0  0  0  0  0  0
    2.6352   -1.7978   -1.0409 H   0  0  0  0  0  0  0  0  0  0  0  0
    2.4369   -2.6418   -2.5612 H   0  0  0  0  0  0  0  0  0  0  0  0
    2.8725   -4.1956   -0.7474 H   0  0  0  0  0  0  0  0  0  0  0  0
    4.1552   -4.2615   -1.9168 H   0  0  0  0  0  0  0  0  0  0  0  0
    3.4306   -3.1061    1.6555 H   0  0  0  0  0  0  0  0  0  0  0  0
    3.9008   -1.6316    0.8678 H   0  0  0  0  0  0  0  0  0  0  0  0
    5.0376   -2.4423    1.9198 H   0  0  0  0  0  0  0  0  0  0  0  0
    5.5311   -5.4402   -0.4265 H   0  0  0  0  0  0  0  0  0  0  0  0
    4.5061   -5.0526    2.4134 H   0  0  0  0  0  0  0  0  0  0  0  0
    3.0308   -6.2965    0.0823 H   0  0  0  0  0  0  0  0  0  0  0  0
    2.4785   -5.0019    1.1576 H   0  0  0  0  0  0  0  0  0  0  0  0
    2.6330   -6.6133    1.7652 H   0  0  0  0  0  0  0  0  0  0  0  0
    4.5919   -7.5298    2.5130 H   0  0  0  0  0  0  0  0  0  0  0  0
    5.1256   -7.5836    0.8647 H   0  0  0  0  0  0  0  0  0  0  0  0
    7.1663   -8.6315    0.8719 H   0  0  0  0  0  0  0  0  0  0  0  0
    6.5955   -9.2186    2.4133 H   0  0  0  0  0  0  0  0  0  0  0  0
    8.2177   -8.5630    2.2607 H   0  0  0  0  0  0  0  0  0  0  0  0
  1  2  3  0
  1 25  1  0
  3  2  1  1
  3 23  1  0
  3  4  1  0
  3  5  1  0
  4 26  1  0
  5  6  1  0
  5 27  1  0
  5 28  1  0
  6  7  1  0
  6 29  1  0
  6 30  1  0
  7 23  1  0
  7  8  1  0
  7 31  1  6
  8 19  1  0
  8  9  1  0
  8 32  1  1
  9 10  1  0
  9 33  1  0
  9 34  1  0
 10 11  2  0
 10 35  1  0
 11 17  1  0
 11 12  1  0
 12 13  1  0
 12 36  1  0
 12 37  1  0
 13 14  2  0
 13 15  1  0
 15 16  1  0
 15 38  1  0
 15 39  1  0
 16 17  1  0
 16 40  1  0
 16 41  1  0
 17 18  1  1
 17 19  1  0
 18 42  1  0
 18 43  1  0
 18 44  1  0
 19 20  1  0
 19 45  1  6
 20 21  1  0
 20 22  1  0
 20 46  1  1
 21 47  1  0
 21 48  1  0
 21 49  1  0
 22 23  1  0
 22 50  1  0
 22 51  1  0
 23 24  1  1
 24 52  1  0
 24 53  1  0
 24 54  1  0
M  END
>  <i_m_ct_stereo_status>  (269) 
1

>  <s_m_source_file>  (269) 
/var/tmp/pbs.5076255.sched01/tmppxgjifq_/8475v0iq0b.sdf

>  <i_m_source_file_index>  (269) 
34

>  <i_lp_mmshare_version>  (269) 
48012

>  <i_f3d_flags>  (269) 
0

>  <s_epik_input>  (269) 
W0NIXSNDW0NAQF0oW09IXSkoW0NIMl1bQ0gyXTEpW0NAQF0oW0NIM10pKFtDSDJdW0NAQEhdKFtDQEhdMjMpW0NIM10pW0NASF0xW0NASF0yW0NIMl1bQ0hdPUMoW0NAXTM0W0NIM10pW0NIMl1DKD1PKVtDSDJdW0NIMl00

>  <s_epik_cmdline>  (269) 
J2VwaWtfcHl0aG9uJywgJy1waHQnLCAnMi4wJywgJy1waCcsICc3LjAnLCAnLXRuJywgJzgnLCAnLW1hJywgJzIwMCcsICctaW1hZScsICc8aW5maWxlLm1hZT4nLCAnLW9tYWUnLCAnPG91dGZpbGUubWFlPic=

>  <r_lp_tautomer_probability>  (269) 
1

>  <r_epik_Ionization_Penalty>  (269) 
2.01801e-07

>  <r_epik_Ionization_Penalty_Charging>  (269) 
0

>  <r_epik_Ionization_Penalty_Neutral>  (269) 
2.01801e-07

>  <r_epik_State_Penalty>  (269) 
-0

>  <r_epik_Charging_Adjusted_Penalty>  (269) 
0

>  <i_epik_Tot_Q>  (269) 
0

>  <i_epik_Tot_abs_Q>  (269) 
0

>  <s_lp_Force_Field>  (269) 
OPLS3e

>  <r_lp_Energy>  (269) 
53.3024

>  <b_lp_Chiralities_Consistent>  (269) 
1

>  <s_lp_Variant>  (269) 
77:0-1

>  <s_i_glide_gridfile>  (269) 
pfpi4k_grid

>  <i_i_glide_lignum>  (269) 
34

>  <i_i_glide_rotatable_bonds>  (269) 
2

>  <r_i_docking_score>  (269) 
-3.19938

>  <r_i_glide_ligand_efficiency>  (269) 
-0.133307

>  <r_i_glide_ligand_efficiency_sa>  (269) 
-0.384525

>  <r_i_glide_ligand_efficiency_ln>  (269) 
-0.765758

>  <r_i_glide_gscore>  (269) 
-3.19938

>  <r_i_glide_lipo>  (269) 
-0.676145

>  <r_i_glide_hbond>  (269) 
0

>  <r_i_glide_metal>  (269) 
-0

>  <r_i_glide_rewards>  (269) 
-1.18314

>  <r_i_glide_evdw>  (269) 
-25.5183

>  <r_i_glide_ecoul>  (269) 
-1.38849

>  <r_i_glide_erotb>  (269) 
0.175966

>  <r_i_glide_esite>  (269) 
-0.0318662

>  <r_i_glide_emodel>  (269) 
-31.4525

>  <r_i_glide_energy>  (269) 
-26.9068

>  <r_i_glide_einternal>  (269) 
1.14026

>  <r_i_glide_intrahb_reward>  (269) 
-0

>  <i_i_glide_confnum>  (269) 
1

>  <i_i_glide_posenum>  (269) 
11

>  <r_i_glide_eff_state_penalty>  (269) 
0

>  <ligand_id>  (269) 
77

>  <original_smiles>  (269) 
C#CC1(O)CCC2C3CC=C4CC(=O)CCC4(C)C3C(C)CC21C

>  <smiles>  (269) 
[H]C#CC1(O[H])C([H])([H])C([H])([H])C2([H])C3([H])C([H])([H])C([H])=C4C([H])([H])C(=O)C([H])([H])C([H])([H])C4(C([H])([H])[H])C3([H])C([H])(C([H])([H])[H])C([H])([H])C12C([H])([H])[H]

$$$$
77:0:1
     RDKit          3D

 54 57  0  0  1  0  0  0  0  0999 V2000
    4.0212   -0.7510   -2.9368 C   0  0  0  0  0  0  0  0  0  0  0  0
    4.0153   -1.4512   -1.9338 C   0  0  0  0  0  0  0  0  0  0  0  0
    3.9851   -2.3127   -0.7301 C   0  0  1  0  0  0  0  0  0  0  0  0
    2.6414   -2.6702   -0.4545 O   0  0  0  0  0  0  0  0  0  0  0  0
    4.7479   -3.6355   -0.9347 C   0  0  0  0  0  0  0  0  0  0  0  0
    5.1440   -4.1288    0.4673 C   0  0  0  0  0  0  0  0  0  0  0  0
    4.9353   -2.9561    1.4614 C   0  0  2  0  0  0  0  0  0  0  0  0
    3.8536   -3.2859    2.5391 C   0  0  1  0  0  0  0  0  0  0  0  0
    4.4773   -4.2976    3.5267 C   0  0  0  0  0  0  0  0  0  0  0  0
    3.6417   -4.5456    4.7493 C   0  0  0  0  0  0  0  0  0  0  0  0
    2.6066   -3.7856    5.1392 C   0  0  0  0  0  0  0  0  0  0  0  0
    1.7976   -4.2085    6.3608 C   0  0  0  0  0  0  0  0  0  0  0  0
    1.5892   -3.0473    7.3197 C   0  0  0  0  0  0  0  0  0  0  0  0
    1.6962   -3.1773    8.5362 O   0  0  0  0  0  0  0  0  0  0  0  0
    1.1501   -1.7369    6.6952 C   0  0  0  0  0  0  0  0  0  0  0  0
    2.0469   -1.3830    5.4985 C   0  0  0  0  0  0  0  0  0  0  0  0
    2.1825   -2.4934    4.4021 C   0  0  2  0  0  0  0  0  0  0  0  0
    0.8087   -2.7934    3.7577 C   0  0  0  0  0  0  0  0  0  0  0  0
    3.2419   -2.0582    3.2882 C   0  0  2  0  0  0  0  0  0  0  0  0
    2.7423   -1.0288    2.2114 C   0  0  1  0  0  0  0  0  0  0  0  0
    2.1096    0.2735    2.7429 C   0  0  0  0  0  0  0  0  0  0  0  0
    3.8977   -0.6029    1.2828 C   0  0  0  0  0  0  0  0  0  0  0  0
    4.6712   -1.7290    0.5560 C   0  0  2  0  0  0  0  0  0  0  0  0
    6.0594   -1.1152    0.1990 C   0  0  0  0  0  0  0  0  0  0  0  0
    3.9868   -0.1335   -3.8028 H   0  0  0  0  0  0  0  0  0  0  0  0
    2.0481   -1.9553   -0.7068 H   0  0  0  0  0  0  0  0  0  0  0  0
    4.1698   -4.3808   -1.4842 H   0  0  0  0  0  0  0  0  0  0  0  0
    5.6559   -3.4780   -1.5185 H   0  0  0  0  0  0  0  0  0  0  0  0
    4.5393   -4.9983    0.7299 H   0  0  0  0  0  0  0  0  0  0  0  0
    6.1825   -4.4627    0.4656 H   0  0  0  0  0  0  0  0  0  0  0  0
    5.8732   -2.7807    1.9935 H   0  0  0  0  0  0  0  0  0  0  0  0
    3.0245   -3.7821    2.0337 H   0  0  0  0  0  0  0  0  0  0  0  0
    4.6180   -5.2598    3.0327 H   0  0  0  0  0  0  0  0  0  0  0  0
    5.4619   -3.9739    3.8638 H   0  0  0  0  0  0  0  0  0  0  0  0
    3.9070   -5.4225    5.3252 H   0  0  0  0  0  0  0  0  0  0  0  0
    0.8210   -4.5752    6.0463 H   0  0  0  0  0  0  0  0  0  0  0  0
    2.2954   -5.0217    6.8908 H   0  0  0  0  0  0  0  0  0  0  0  0
    0.1096   -1.8348    6.3880 H   0  0  0  0  0  0  0  0  0  0  0  0
    1.1775   -0.9467    7.4471 H   0  0  0  0  0  0  0  0  0  0  0  0
    1.6567   -0.4506    5.1107 H   0  0  0  0  0  0  0  0  0  0  0  0
    3.0371   -1.1440    5.8872 H   0  0  0  0  0  0  0  0  0  0  0  0
    0.3596   -1.9244    3.2832 H   0  0  0  0  0  0  0  0  0  0  0  0
    0.0779   -3.1567    4.4790 H   0  0  0  0  0  0  0  0  0  0  0  0
    0.9041   -3.5700    2.9971 H   0  0  0  0  0  0  0  0  0  0  0  0
    4.0706   -1.5871    3.8136 H   0  0  0  0  0  0  0  0  0  0  0  0
    1.9711   -1.5031    1.6066 H   0  0  0  0  0  0  0  0  0  0  0  0
    2.7409    0.7468    3.4949 H   0  0  0  0  0  0  0  0  0  0  0  0
    1.1173    0.1149    3.1576 H   0  0  0  0  0  0  0  0  0  0  0  0
    1.9628    1.0011    1.9430 H   0  0  0  0  0  0  0  0  0  0  0  0
    3.5290    0.0985    0.5349 H   0  0  0  0  0  0  0  0  0  0  0  0
    4.5987   -0.0261    1.8916 H   0  0  0  0  0  0  0  0  0  0  0  0
    6.5998   -0.7970    1.0910 H   0  0  0  0  0  0  0  0  0  0  0  0
    5.9500   -0.2304   -0.4241 H   0  0  0  0  0  0  0  0  0  0  0  0
    6.7104   -1.8123   -0.3314 H   0  0  0  0  0  0  0  0  0  0  0  0
  1  2  3  0
  1 25  1  0
  3  2  1  6
  3 23  1  0
  3  4  1  0
  3  5  1  0
  4 26  1  0
  5  6  1  0
  5 27  1  0
  5 28  1  0
  6  7  1  0
  6 29  1  0
  6 30  1  0
  7 23  1  0
  7  8  1  0
  7 31  1  1
  8 19  1  0
  8  9  1  0
  8 32  1  6
  9 10  1  0
  9 33  1  0
  9 34  1  0
 10 11  2  0
 10 35  1  0
 11 17  1  0
 11 12  1  0
 12 13  1  0
 12 36  1  0
 12 37  1  0
 13 14  2  0
 13 15  1  0
 15 16  1  0
 15 38  1  0
 15 39  1  0
 16 17  1  0
 16 40  1  0
 16 41  1  0
 17 18  1  6
 17 19  1  0
 18 42  1  0
 18 43  1  0
 18 44  1  0
 19 20  1  0
 19 45  1  1
 20 21  1  0
 20 22  1  0
 20 46  1  6
 21 47  1  0
 21 48  1  0
 21 49  1  0
 22 23  1  0
 22 50  1  0
 22 51  1  0
 23 24  1  6
 24 52  1  0
 24 53  1  0
 24 54  1  0
M  END
>  <i_m_ct_stereo_status>  (270) 
1

>  <s_m_source_file>  (270) 
/var/tmp/pbs.5076255.sched01/tmppxgjifq_/8475v0iq0b.sdf

>  <i_m_source_file_index>  (270) 
34

>  <i_lp_mmshare_version>  (270) 
48012

>  <i_f3d_flags>  (270) 
0

>  <s_epik_input>  (270) 
W0NIXSNDW0NAQF0oW09IXSkoW0NIMl1bQ0gyXTEpW0NAQF0oW0NIM10pKFtDSDJdW0NAQEhdKFtDQEhdMjMpW0NIM10pW0NASF0xW0NASF0yW0NIMl1bQ0hdPUMoW0NAXTM0W0NIM10pW0NIMl1DKD1PKVtDSDJdW0NIMl00

>  <s_epik_cmdline>  (270) 
J2VwaWtfcHl0aG9uJywgJy1waHQnLCAnMi4wJywgJy1waCcsICc3LjAnLCAnLXRuJywgJzgnLCAnLW1hJywgJzIwMCcsICctaW1hZScsICc8aW5maWxlLm1hZT4nLCAnLW9tYWUnLCAnPG91dGZpbGUubWFlPic=

>  <r_lp_tautomer_probability>  (270) 
1

>  <r_epik_Ionization_Penalty>  (270) 
2.01801e-07

>  <r_epik_Ionization_Penalty_Charging>  (270) 
0

>  <r_epik_Ionization_Penalty_Neutral>  (270) 
2.01801e-07

>  <r_epik_State_Penalty>  (270) 
-0

>  <r_epik_Charging_Adjusted_Penalty>  (270) 
0

>  <i_epik_Tot_Q>  (270) 
0

>  <i_epik_Tot_abs_Q>  (270) 
0

>  <s_lp_Force_Field>  (270) 
OPLS3e

>  <r_lp_Energy>  (270) 
53.3024

>  <b_lp_Chiralities_Consistent>  (270) 
1

>  <s_lp_Variant>  (270) 
77:0-1

>  <s_i_glide_gridfile>  (270) 
pfpi4k_grid

>  <i_i_glide_lignum>  (270) 
34

>  <i_i_glide_rotatable_bonds>  (270) 
2

>  <r_i_docking_score>  (270) 
-3.19282

>  <r_i_glide_ligand_efficiency>  (270) 
-0.133034

>  <r_i_glide_ligand_efficiency_sa>  (270) 
-0.383737

>  <r_i_glide_ligand_efficiency_ln>  (270) 
-0.764188

>  <r_i_glide_gscore>  (270) 
-3.19282

>  <r_i_glide_lipo>  (270) 
-0.346537

>  <r_i_glide_hbond>  (270) 
-0.16

>  <r_i_glide_metal>  (270) 
-0

>  <r_i_glide_rewards>  (270) 
-1.18314

>  <r_i_glide_evdw>  (270) 
-20.6338

>  <r_i_glide_ecoul>  (270) 
-4.30798

>  <r_i_glide_erotb>  (270) 
0.175966

>  <r_i_glide_esite>  (270) 
-0.00121569

>  <r_i_glide_emodel>  (270) 
-29.117

>  <r_i_glide_energy>  (270) 
-24.9418

>  <r_i_glide_einternal>  (270) 
1.98725

>  <r_i_glide_intrahb_reward>  (270) 
-0

>  <i_i_glide_confnum>  (270) 
2

>  <i_i_glide_posenum>  (270) 
36

>  <r_i_glide_eff_state_penalty>  (270) 
0

>  <ligand_id>  (270) 
77

>  <original_smiles>  (270) 
C#CC1(O)CCC2C3CC=C4CC(=O)CCC4(C)C3C(C)CC21C

>  <smiles>  (270) 
[H]C#CC1(O[H])C([H])([H])C([H])([H])C2([H])C3([H])C([H])([H])C([H])=C4C([H])([H])C(=O)C([H])([H])C([H])([H])C4(C([H])([H])[H])C3([H])C([H])(C([H])([H])[H])C([H])([H])C12C([H])([H])[H]

$$$$
77:0:2
     RDKit          3D

 54 57  0  0  1  0  0  0  0  0999 V2000
    2.3795   -0.7510    7.5811 C   0  0  0  0  0  0  0  0  0  0  0  0
    2.6012   -1.4915    6.6363 C   0  0  0  0  0  0  0  0  0  0  0  0
    2.8744   -2.4011    5.5003 C   0  0  1  0  0  0  0  0  0  0  0  0
    4.2251   -2.2488    5.1165 O   0  0  0  0  0  0  0  0  0  0  0  0
    2.7364   -3.8806    5.8839 C   0  0  0  0  0  0  0  0  0  0  0  0
    2.4707   -4.6370    4.5713 C   0  0  0  0  0  0  0  0  0  0  0  0
    2.1096   -3.5938    3.4814 C   0  0  2  0  0  0  0  0  0  0  0  0
    3.1503   -3.5857    2.3148 C   0  0  1  0  0  0  0  0  0  0  0  0
    2.9197   -4.8655    1.4805 C   0  0  0  0  0  0  0  0  0  0  0  0
    3.6932   -4.8903    0.1922 C   0  0  0  0  0  0  0  0  0  0  0  0
    4.2942   -3.8289   -0.3618 C   0  0  0  0  0  0  0  0  0  0  0  0
    5.1091   -4.0203   -1.6397 C   0  0  0  0  0  0  0  0  0  0  0  0
    4.7526   -2.9956   -2.7038 C   0  0  0  0  0  0  0  0  0  0  0  0
    4.6040   -3.2974   -3.8896 O   0  0  0  0  0  0  0  0  0  0  0  0
    4.6781   -1.5601   -2.2235 C   0  0  0  0  0  0  0  0  0  0  0  0
    3.8175   -1.4642   -0.9543 C   0  0  0  0  0  0  0  0  0  0  0  0
    4.2240   -2.4039    0.2295 C   0  0  2  0  0  0  0  0  0  0  0  0
    5.6478   -2.0626    0.7399 C   0  0  0  0  0  0  0  0  0  0  0  0
    3.1581   -2.3043    1.4169 C   0  0  2  0  0  0  0  0  0  0  0  0
    3.2745   -1.0508    2.3548 C   0  0  1  0  0  0  0  0  0  0  0  0
    3.2783    0.3261    1.6640 C   0  0  0  0  0  0  0  0  0  0  0  0
    2.1197   -1.0192    3.3773 C   0  0  0  0  0  0  0  0  0  0  0  0
    1.9182   -2.2720    4.2643 C   0  0  2  0  0  0  0  0  0  0  0  0
    0.4305   -2.2117    4.7354 C   0  0  0  0  0  0  0  0  0  0  0  0
    2.2006   -0.0953    8.4043 H   0  0  0  0  0  0  0  0  0  0  0  0
    4.2385   -1.9153    4.2308 H   0  0  0  0  0  0  0  0  0  0  0  0
    3.6120   -4.2651    6.4132 H   0  0  0  0  0  0  0  0  0  0  0  0
    1.8882   -4.0258    6.5525 H   0  0  0  0  0  0  0  0  0  0  0  0
    3.3540   -5.2197    4.3049 H   0  0  0  0  0  0  0  0  0  0  0  0
    1.6590   -5.3514    4.7158 H   0  0  0  0  0  0  0  0  0  0  0  0
    1.1458   -3.8636    3.0474 H   0  0  0  0  0  0  0  0  0  0  0  0
    4.1459   -3.6577    2.7555 H   0  0  0  0  0  0  0  0  0  0  0  0
    3.2200   -5.7431    2.0539 H   0  0  0  0  0  0  0  0  0  0  0  0
    1.8672   -4.9986    1.2327 H   0  0  0  0  0  0  0  0  0  0  0  0
    3.7627   -5.8542   -0.2942 H   0  0  0  0  0  0  0  0  0  0  0  0
    6.1685   -3.9259   -1.4101 H   0  0  0  0  0  0  0  0  0  0  0  0
    4.9619   -5.0205   -2.0426 H   0  0  0  0  0  0  0  0  0  0  0  0
    5.6890   -1.2074   -2.0268 H   0  0  0  0  0  0  0  0  0  0  0  0
    4.2742   -0.9270   -3.0142 H   0  0  0  0  0  0  0  0  0  0  0  0
    3.8250   -0.4212   -0.6749 H   0  0  0  0  0  0  0  0  0  0  0  0
    2.7931   -1.6880   -1.2513 H   0  0  0  0  0  0  0  0  0  0  0  0
    5.7374   -1.0387    1.0941 H   0  0  0  0  0  0  0  0  0  0  0  0
    6.4021   -2.1827   -0.0359 H   0  0  0  0  0  0  0  0  0  0  0  0
    5.9356   -2.7232    1.5592 H   0  0  0  0  0  0  0  0  0  0  0  0
    2.1744   -2.2578    0.9510 H   0  0  0  0  0  0  0  0  0  0  0  0
    4.2185   -1.1068    2.8921 H   0  0  0  0  0  0  0  0  0  0  0  0
    2.4548    0.4204    0.9553 H   0  0  0  0  0  0  0  0  0  0  0  0
    4.2145    0.5315    1.1495 H   0  0  0  0  0  0  0  0  0  0  0  0
    3.1780    1.1373    2.3863 H   0  0  0  0  0  0  0  0  0  0  0  0
    2.2235   -0.1486    4.0256 H   0  0  0  0  0  0  0  0  0  0  0  0
    1.2044   -0.8393    2.8077 H   0  0  0  0  0  0  0  0  0  0  0  0
   -0.2530   -2.2441    3.8868 H   0  0  0  0  0  0  0  0  0  0  0  0
    0.2058   -1.2890    5.2753 H   0  0  0  0  0  0  0  0  0  0  0  0
    0.1593   -3.0462    5.3845 H   0  0  0  0  0  0  0  0  0  0  0  0
  1  2  3  0
  1 25  1  0
  3  2  1  1
  3 23  1  0
  3  4  1  0
  3  5  1  0
  4 26  1  0
  5  6  1  0
  5 27  1  0
  5 28  1  0
  6  7  1  0
  6 29  1  0
  6 30  1  0
  7 23  1  0
  7  8  1  0
  7 31  1  6
  8 19  1  0
  8  9  1  0
  8 32  1  1
  9 10  1  0
  9 33  1  0
  9 34  1  0
 10 11  2  0
 10 35  1  0
 11 17  1  0
 11 12  1  0
 12 13  1  0
 12 36  1  0
 12 37  1  0
 13 14  2  0
 13 15  1  0
 15 16  1  0
 15 38  1  0
 15 39  1  0
 16 17  1  0
 16 40  1  0
 16 41  1  0
 17 18  1  1
 17 19  1  0
 18 42  1  0
 18 43  1  0
 18 44  1  0
 19 20  1  0
 19 45  1  6
 20 21  1  0
 20 22  1  0
 20 46  1  1
 21 47  1  0
 21 48  1  0
 21 49  1  0
 22 23  1  0
 22 50  1  0
 22 51  1  0
 23 24  1  1
 24 52  1  0
 24 53  1  0
 24 54  1  0
M  END
>  <i_m_ct_stereo_status>  (271) 
1

>  <s_m_source_file>  (271) 
/var/tmp/pbs.5076255.sched01/tmppxgjifq_/8475v0iq0b.sdf

>  <i_m_source_file_index>  (271) 
34

>  <i_lp_mmshare_version>  (271) 
48012

>  <i_f3d_flags>  (271) 
0

>  <s_epik_input>  (271) 
W0NIXSNDW0NAQF0oW09IXSkoW0NIMl1bQ0gyXTEpW0NAQF0oW0NIM10pKFtDSDJdW0NAQEhdKFtDQEhdMjMpW0NIM10pW0NASF0xW0NASF0yW0NIMl1bQ0hdPUMoW0NAXTM0W0NIM10pW0NIMl1DKD1PKVtDSDJdW0NIMl00

>  <s_epik_cmdline>  (271) 
J2VwaWtfcHl0aG9uJywgJy1waHQnLCAnMi4wJywgJy1waCcsICc3LjAnLCAnLXRuJywgJzgnLCAnLW1hJywgJzIwMCcsICctaW1hZScsICc8aW5maWxlLm1hZT4nLCAnLW9tYWUnLCAnPG91dGZpbGUubWFlPic=

>  <r_lp_tautomer_probability>  (271) 
1

>  <r_epik_Ionization_Penalty>  (271) 
2.01801e-07

>  <r_epik_Ionization_Penalty_Charging>  (271) 
0

>  <r_epik_Ionization_Penalty_Neutral>  (271) 
2.01801e-07

>  <r_epik_State_Penalty>  (271) 
-0

>  <r_epik_Charging_Adjusted_Penalty>  (271) 
0

>  <i_epik_Tot_Q>  (271) 
0

>  <i_epik_Tot_abs_Q>  (271) 
0

>  <s_lp_Force_Field>  (271) 
OPLS3e

>  <r_lp_Energy>  (271) 
53.3024

>  <b_lp_Chiralities_Consistent>  (271) 
1

>  <s_lp_Variant>  (271) 
77:0-1

>  <s_i_glide_gridfile>  (271) 
pfpi4k_grid

>  <i_i_glide_lignum>  (271) 
34

>  <i_i_glide_rotatable_bonds>  (271) 
2

>  <r_i_docking_score>  (271) 
-2.93581

>  <r_i_glide_ligand_efficiency>  (271) 
-0.122325

>  <r_i_glide_ligand_efficiency_sa>  (271) 
-0.352848

>  <r_i_glide_ligand_efficiency_ln>  (271) 
-0.702674

>  <r_i_glide_gscore>  (271) 
-2.93581

>  <r_i_glide_lipo>  (271) 
-0.179053

>  <r_i_glide_hbond>  (271) 
-0.000167987

>  <r_i_glide_metal>  (271) 
-0

>  <r_i_glide_rewards>  (271) 
-1.34377

>  <r_i_glide_evdw>  (271) 
-24.6319

>  <r_i_glide_ecoul>  (271) 
-2.38125

>  <r_i_glide_erotb>  (271) 
0.175966

>  <r_i_glide_esite>  (271) 
0

>  <r_i_glide_emodel>  (271) 
-31.2292

>  <r_i_glide_energy>  (271) 
-27.0132

>  <r_i_glide_einternal>  (271) 
1.09141

>  <r_i_glide_intrahb_reward>  (271) 
-0

>  <i_i_glide_confnum>  (271) 
2

>  <i_i_glide_posenum>  (271) 
2

>  <r_i_glide_eff_state_penalty>  (271) 
0

>  <ligand_id>  (271) 
77

>  <original_smiles>  (271) 
C#CC1(O)CCC2C3CC=C4CC(=O)CCC4(C)C3C(C)CC21C

>  <smiles>  (271) 
[H]C#CC1(O[H])C([H])([H])C([H])([H])C2([H])C3([H])C([H])([H])C([H])=C4C([H])([H])C(=O)C([H])([H])C([H])([H])C4(C([H])([H])[H])C3([H])C([H])(C([H])([H])[H])C([H])([H])C12C([H])([H])[H]

$$$$
78:0:0
     RDKit          3D

 66 72  0  0  1  0  0  0  0  0999 V2000
   -0.5009   -1.2074    4.1257 C   0  0  0  0  0  0  0  0  0  0  0  0
    0.6275   -0.6320    4.9731 C   0  0  2  0  0  0  0  0  0  0  0  0
    1.5220    0.3379    4.2011 C   0  0  0  0  0  0  0  0  0  0  0  0
    2.6895   -0.4800    3.6295 C   0  0  2  0  0  0  0  0  0  0  0  0
    2.4350   -0.9711    2.1611 C   0  0  1  0  0  0  0  0  0  0  0  0
    3.3868   -0.4981    0.9345 C   0  0  2  0  0  0  0  0  0  0  0  0
    3.4084   -1.3942   -0.2032 O   0  0  0  0  0  0  0  0  0  0  0  0
    3.5213   -2.8198    0.0315 C   0  0  1  0  0  0  0  0  0  0  0  0
    2.4712   -3.4537   -0.8832 C   0  0  0  0  0  0  0  0  0  0  0  0
    2.8996   -3.2114   -2.3601 C   0  0  1  0  0  0  0  0  0  0  0  0
    2.6270   -1.8734   -2.7264 O   0  0  0  0  0  0  0  0  0  0  0  0
    4.3972   -3.5070   -2.6957 C   0  0  0  0  0  0  0  0  0  0  0  0
    5.4392   -3.2376   -1.5642 C   0  0  1  0  0  0  0  0  0  0  0  0
    5.8479   -1.9157   -1.7922 O   0  0  0  0  0  0  0  0  0  0  0  0
    4.8754   -3.6067   -0.1358 C   0  0  2  0  0  0  0  0  0  0  0  0
    4.7620   -5.1637   -0.1898 C   0  0  0  0  0  0  0  0  0  0  0  0
    5.6458   -3.3425    1.2567 C   0  0  2  0  0  0  0  0  0  0  0  0
    7.0226   -3.2192    0.9898 O   0  0  0  0  0  0  0  0  0  0  0  0
    5.4128   -4.3494    2.5536 C   0  0  0  0  0  0  0  0  0  0  0  0
    4.2552   -4.0818    3.7384 C   0  0  0  0  0  0  0  0  0  0  0  0
    2.9710   -3.0269    3.6973 C   0  0  2  0  0  0  0  0  0  0  0  0
    2.4772   -2.4881    2.3294 C   0  0  2  0  0  0  0  0  0  0  0  0
    3.5576   -2.9161    1.5107 C   0  0  2  0  0  0  0  0  0  0  0  0
    4.9655   -2.1287    1.8315 C   0  0  1  0  0  0  0  0  0  0  0  0
    5.6863   -1.6856    3.1478 C   0  0  0  0  0  0  0  0  0  0  0  0
    4.8378   -0.6839    1.2599 C   0  0  1  0  0  0  0  0  0  0  0  0
    5.7776   -0.2567    0.3052 O   0  0  0  0  0  0  0  0  0  0  0  0
    2.8416   -1.7375    4.5845 C   0  0  1  0  0  0  0  0  0  0  0  0
    3.9010   -1.6139    5.5036 O   0  0  0  0  0  0  0  0  0  0  0  0
    1.5771   -1.7203    5.4859 C   0  0  0  0  0  0  0  0  0  0  0  0
   -0.1060   -1.8017    3.3049 H   0  0  0  0  0  0  0  0  0  0  0  0
   -1.1155   -0.4160    3.6986 H   0  0  0  0  0  0  0  0  0  0  0  0
   -1.1508   -1.8523    4.7164 H   0  0  0  0  0  0  0  0  0  0  0  0
    0.1637   -0.1139    5.8147 H   0  0  0  0  0  0  0  0  0  0  0  0
    0.9898    0.9228    3.4489 H   0  0  0  0  0  0  0  0  0  0  0  0
    1.9274    1.0505    4.9191 H   0  0  0  0  0  0  0  0  0  0  0  0
    3.5471    0.1889    3.6561 H   0  0  0  0  0  0  0  0  0  0  0  0
    1.4176   -0.7151    1.8674 H   0  0  0  0  0  0  0  0  0  0  0  0
    3.1794    0.5286    0.6516 H   0  0  0  0  0  0  0  0  0  0  0  0
    2.3637   -4.5185   -0.6899 H   0  0  0  0  0  0  0  0  0  0  0  0
    1.4836   -3.0595   -0.7087 H   0  0  0  0  0  0  0  0  0  0  0  0
    2.2567   -3.8224   -2.9941 H   0  0  0  0  0  0  0  0  0  0  0  0
    1.9549   -1.5286   -2.1328 H   0  0  0  0  0  0  0  0  0  0  0  0
    4.4943   -4.5545   -2.9762 H   0  0  0  0  0  0  0  0  0  0  0  0
    4.6680   -2.9957   -3.6194 H   0  0  0  0  0  0  0  0  0  0  0  0
    6.3237   -3.8484   -1.7670 H   0  0  0  0  0  0  0  0  0  0  0  0
    5.1304   -1.3551   -1.5039 H   0  0  0  0  0  0  0  0  0  0  0  0
    5.7402   -5.6316   -0.1009 H   0  0  0  0  0  0  0  0  0  0  0  0
    4.3528   -5.5396   -1.1069 H   0  0  0  0  0  0  0  0  0  0  0  0
    4.1146   -5.6153    0.5554 H   0  0  0  0  0  0  0  0  0  0  0  0
    7.4706   -3.0284    1.8007 H   0  0  0  0  0  0  0  0  0  0  0  0
    5.3425   -5.3872    2.2467 H   0  0  0  0  0  0  0  0  0  0  0  0
    6.3519   -4.4127    3.0873 H   0  0  0  0  0  0  0  0  0  0  0  0
    3.7886   -5.0614    3.8460 H   0  0  0  0  0  0  0  0  0  0  0  0
    4.7556   -3.9808    4.7016 H   0  0  0  0  0  0  0  0  0  0  0  0
    2.1667   -3.6770    4.0382 H   0  0  0  0  0  0  0  0  0  0  0  0
    1.5341   -2.9564    2.0433 H   0  0  0  0  0  0  0  0  0  0  0  0
    3.3700   -3.9881    1.5885 H   0  0  0  0  0  0  0  0  0  0  0  0
    5.2939   -0.8598    3.7158 H   0  0  0  0  0  0  0  0  0  0  0  0
    6.6098   -1.2540    2.7958 H   0  0  0  0  0  0  0  0  0  0  0  0
    5.9737   -2.4100    3.8853 H   0  0  0  0  0  0  0  0  0  0  0  0
    4.9829    0.1200    1.9816 H   0  0  0  0  0  0  0  0  0  0  0  0
    5.5190    0.6087   -0.0171 H   0  0  0  0  0  0  0  0  0  0  0  0
    4.7134   -1.5676    5.0185 H   0  0  0  0  0  0  0  0  0  0  0  0
    1.8489   -1.4558    6.5086 H   0  0  0  0  0  0  0  0  0  0  0  0
    1.0852   -2.6878    5.5721 H   0  0  0  0  0  0  0  0  0  0  0  0
  1  2  1  0
  1 31  1  0
  1 32  1  0
  1 33  1  0
  2 30  1  0
  2  3  1  0
  2 34  1  1
  3  4  1  0
  3 35  1  0
  3 36  1  0
  4 28  1  0
  4  5  1  0
  4 37  1  6
  5 22  1  0
  5  6  1  0
  5 38  1  6
  6 26  1  0
  6  7  1  0
  6 39  1  6
  7  8  1  0
  8 15  1  0
  8 23  1  0
  8  9  1  6
  9 10  1  0
  9 40  1  0
  9 41  1  0
 10 11  1  0
 10 12  1  0
 10 42  1  6
 11 43  1  0
 12 13  1  0
 12 44  1  0
 12 45  1  0
 13 14  1  0
 13 15  1  0
 13 46  1  6
 14 47  1  0
 15 16  1  6
 15 17  1  0
 16 48  1  0
 16 49  1  0
 16 50  1  0
 17 24  1  0
 17 18  1  6
 17 19  1  0
 18 51  1  0
 19 20  1  0
 19 52  1  0
 19 53  1  0
 20 21  1  0
 20 54  1  0
 20 55  1  0
 21 22  1  0
 21 28  1  0
 21 56  1  1
 22 23  1  0
 22 57  1  6
 23 24  1  0
 23 58  1  6
 24 25  1  1
 24 26  1  0
 25 59  1  0
 25 60  1  0
 25 61  1  0
 26 27  1  0
 26 62  1  1
 27 63  1  0
 28 29  1  1
 28 30  1  0
 29 64  1  0
 30 65  1  0
 30 66  1  0
M  END
>  <i_m_ct_stereo_status>  (272) 
1

>  <s_m_source_file>  (272) 
/var/tmp/pbs.5076255.sched01/tmppxgjifq_/8475v0iq0b.sdf

>  <i_m_source_file_index>  (272) 
35

>  <i_lp_mmshare_version>  (272) 
48012

>  <i_f3d_flags>  (272) 
2

>  <s_epik_input>  (272) 
W0NIM11bQ0BIXShbQ0gyXTEpW0NIMl1bQ0BAXShbT0hdKShbQ0BASF0yW0NIMl1bQ0gyXTMpW0NASF0xW0NASF0oW0NASF0oTzQpW0NAQEhdNVtPSF0pW0NASF0yW0NIXTZbQ0BAXTUoW0NIM10pW0NAXTMoW09IXSlbQ0BdKFtDQEBdNDY3KShbQ0gzXSlbQ0BIXShbT0hdKVtDSDJdW0NAQEhdKFtDSDJdNylbT0hd

>  <s_epik_cmdline>  (272) 
J2VwaWtfcHl0aG9uJywgJy1waHQnLCAnMi4wJywgJy1waCcsICc3LjAnLCAnLXRuJywgJzgnLCAnLW1hJywgJzIwMCcsICctaW1hZScsICc8aW5maWxlLm1hZT4nLCAnLW9tYWUnLCAnPG91dGZpbGUubWFlPic=

>  <r_lp_tautomer_probability>  (272) 
1

>  <r_epik_Ionization_Penalty>  (272) 
3.64633e-06

>  <r_epik_Ionization_Penalty_Charging>  (272) 
0

>  <r_epik_Ionization_Penalty_Neutral>  (272) 
3.64633e-06

>  <r_epik_State_Penalty>  (272) 
-0

>  <r_epik_Charging_Adjusted_Penalty>  (272) 
0

>  <i_epik_Tot_Q>  (272) 
0

>  <i_epik_Tot_abs_Q>  (272) 
0

>  <s_lp_Force_Field>  (272) 
OPLS3e

>  <r_lp_Energy>  (272) 
238.123

>  <b_lp_Chiralities_Consistent>  (272) 
0

>  <s_lp_Variant>  (272) 
78:0-1

>  <s_i_glide_gridfile>  (272) 
pfpi4k_grid

>  <i_i_glide_lignum>  (272) 
35

>  <i_i_glide_rotatable_bonds>  (272) 
5

>  <r_i_docking_score>  (272) 
-3.79246

>  <r_i_glide_ligand_efficiency>  (272) 
-0.126415

>  <r_i_glide_ligand_efficiency_sa>  (272) 
-0.392802

>  <r_i_glide_ligand_efficiency_ln>  (272) 
-0.861688

>  <r_i_glide_gscore>  (272) 
-3.79246

>  <r_i_glide_lipo>  (272) 
-0.454839

>  <r_i_glide_hbond>  (272) 
0

>  <r_i_glide_metal>  (272) 
-0

>  <r_i_glide_rewards>  (272) 
-1.04178

>  <r_i_glide_evdw>  (272) 
-19.4901

>  <r_i_glide_ecoul>  (272) 
-8.80889

>  <r_i_glide_erotb>  (272) 
0

>  <r_i_glide_esite>  (272) 
0

>  <r_i_glide_emodel>  (272) 
-41.0703

>  <r_i_glide_energy>  (272) 
-28.299

>  <r_i_glide_einternal>  (272) 
1.66196

>  <r_i_glide_intrahb_reward>  (272) 
-0.5

>  <i_i_glide_confnum>  (272) 
1

>  <i_i_glide_posenum>  (272) 
10

>  <r_i_glide_eff_state_penalty>  (272) 
0

>  <ligand_id>  (272) 
78

>  <original_smiles>  (272) 
CC1CC2C3C4OC56CC(O)CC(O)C5(C)C5(O)CCC(C3C6C5(C)C4O)C2(O)C1

>  <smiles>  (272) 
[H]OC1([H])C([H])([H])C([H])(O[H])C2(C([H])([H])[H])C3(OC4([H])C([H])(O[H])C5(C([H])([H])[H])C3([H])C3([H])C4([H])C4([H])C([H])([H])C([H])(C([H])([H])[H])C([H])([H])C4(O[H])C3([H])C([H])([H])C([H])([H])C52O[H])C1([H])[H]

$$$$
78:0:1
     RDKit          3D

 66 72  0  0  1  0  0  0  0  0999 V2000
    3.9488   -1.1993    0.6557 C   0  0  0  0  0  0  0  0  0  0  0  0
    5.2071   -1.9209    0.1467 C   0  0  2  0  0  0  0  0  0  0  0  0
    4.9160   -3.2172   -0.6183 C   0  0  0  0  0  0  0  0  0  0  0  0
    4.9656   -4.3654    0.4047 C   0  0  2  0  0  0  0  0  0  0  0  0
    3.5612   -4.6992    1.0133 C   0  0  1  0  0  0  0  0  0  0  0  0
    2.8812   -6.1552    0.8157 C   0  0  2  0  0  0  0  0  0  0  0  0
    1.8708   -6.4430    1.8095 O   0  0  0  0  0  0  0  0  0  0  0  0
    2.2166   -6.2631    3.2129 C   0  0  1  0  0  0  0  0  0  0  0  0
    0.9505   -5.6137    3.7867 C   0  0  0  0  0  0  0  0  0  0  0  0
   -0.1905   -6.6789    3.8016 C   0  0  1  0  0  0  0  0  0  0  0  0
   -0.7553   -6.8173    2.5082 O   0  0  0  0  0  0  0  0  0  0  0  0
    0.2046   -8.0950    4.3319 C   0  0  0  0  0  0  0  0  0  0  0  0
    1.6774   -8.5741    4.0789 C   0  0  1  0  0  0  0  0  0  0  0  0
    1.6910   -9.2624    2.8515 O   0  0  0  0  0  0  0  0  0  0  0  0
    2.7111   -7.3986    4.1968 C   0  0  2  0  0  0  0  0  0  0  0  0
    2.6420   -7.0503    5.7282 C   0  0  0  0  0  0  0  0  0  0  0  0
    4.2985   -7.5369    3.8911 C   0  0  2  0  0  0  0  0  0  0  0  0
    4.6966   -8.8914    3.9713 O   0  0  0  0  0  0  0  0  0  0  0  0
    5.3979   -6.5971    4.7004 C   0  0  0  0  0  0  0  0  0  0  0  0
    5.9021   -5.0951    4.1529 C   0  0  0  0  0  0  0  0  0  0  0  0
    5.2524   -4.1538    2.9405 C   0  0  2  0  0  0  0  0  0  0  0  0
    3.7921   -4.4048    2.4962 C   0  0  2  0  0  0  0  0  0  0  0  0
    3.5725   -5.6509    3.1529 C   0  0  2  0  0  0  0  0  0  0  0  0
    4.4887   -6.8913    2.5486 C   0  0  1  0  0  0  0  0  0  0  0  0
    6.0163   -7.0904    2.1012 C   0  0  0  0  0  0  0  0  0  0  0  0
    3.8444   -7.2756    1.1851 C   0  0  1  0  0  0  0  0  0  0  0  0
    3.4328   -8.6124    1.0356 O   0  0  0  0  0  0  0  0  0  0  0  0
    5.9309   -3.8693    1.5549 C   0  0  1  0  0  0  0  0  0  0  0  0
    7.2205   -4.4359    1.4439 O   0  0  0  0  0  0  0  0  0  0  0  0
    6.1544   -2.3513    1.2747 C   0  0  0  0  0  0  0  0  0  0  0  0
    3.4020   -1.7968    1.3815 H   0  0  0  0  0  0  0  0  0  0  0  0
    3.2716   -0.9729   -0.1686 H   0  0  0  0  0  0  0  0  0  0  0  0
    4.2113   -0.2565    1.1360 H   0  0  0  0  0  0  0  0  0  0  0  0
    5.7258   -1.2225   -0.5139 H   0  0  0  0  0  0  0  0  0  0  0  0
    3.9851   -3.1792   -1.1872 H   0  0  0  0  0  0  0  0  0  0  0  0
    5.7167   -3.3689   -1.3433 H   0  0  0  0  0  0  0  0  0  0  0  0
    5.3578   -5.2289   -0.1266 H   0  0  0  0  0  0  0  0  0  0  0  0
    2.8364   -3.9676    0.6518 H   0  0  0  0  0  0  0  0  0  0  0  0
    2.4761   -6.2519   -0.1919 H   0  0  0  0  0  0  0  0  0  0  0  0
    1.1181   -5.2254    4.7896 H   0  0  0  0  0  0  0  0  0  0  0  0
    0.6586   -4.7441    3.1973 H   0  0  0  0  0  0  0  0  0  0  0  0
   -0.9943   -6.2952    4.4307 H   0  0  0  0  0  0  0  0  0  0  0  0
   -0.2068   -7.4243    2.0241 H   0  0  0  0  0  0  0  0  0  0  0  0
    0.0235   -8.0957    5.4035 H   0  0  0  0  0  0  0  0  0  0  0  0
   -0.5077   -8.8432    3.9764 H   0  0  0  0  0  0  0  0  0  0  0  0
    1.9191   -9.3304    4.8290 H   0  0  0  0  0  0  0  0  0  0  0  0
    1.1591  -10.0437    2.9415 H   0  0  0  0  0  0  0  0  0  0  0  0
    3.1771   -7.8045    6.3052 H   0  0  0  0  0  0  0  0  0  0  0  0
    1.6431   -7.0088    6.1487 H   0  0  0  0  0  0  0  0  0  0  0  0
    3.0615   -6.0848    5.9951 H   0  0  0  0  0  0  0  0  0  0  0  0
    4.1496   -9.4024    3.3896 H   0  0  0  0  0  0  0  0  0  0  0  0
    5.1265   -6.5040    5.7487 H   0  0  0  0  0  0  0  0  0  0  0  0
    6.3041   -7.1965    4.7997 H   0  0  0  0  0  0  0  0  0  0  0  0
    5.8161   -4.4699    5.0448 H   0  0  0  0  0  0  0  0  0  0  0  0
    6.9816   -5.1325    4.0152 H   0  0  0  0  0  0  0  0  0  0  0  0
    5.2124   -3.1838    3.4362 H   0  0  0  0  0  0  0  0  0  0  0  0
    3.1096   -3.6348    2.8673 H   0  0  0  0  0  0  0  0  0  0  0  0
    3.5909   -5.2685    4.1775 H   0  0  0  0  0  0  0  0  0  0  0  0
    6.2954   -6.6376    1.1578 H   0  0  0  0  0  0  0  0  0  0  0  0
    6.1638   -8.1534    1.9045 H   0  0  0  0  0  0  0  0  0  0  0  0
    6.8450   -6.8680    2.7614 H   0  0  0  0  0  0  0  0  0  0  0  0
    4.5330   -7.2238    0.3417 H   0  0  0  0  0  0  0  0  0  0  0  0
    2.7222   -8.7919    1.6588 H   0  0  0  0  0  0  0  0  0  0  0  0
    7.1606   -5.3558    1.6512 H   0  0  0  0  0  0  0  0  0  0  0  0
    7.1758   -2.1752    0.9309 H   0  0  0  0  0  0  0  0  0  0  0  0
    6.0495   -1.7151    2.1526 H   0  0  0  0  0  0  0  0  0  0  0  0
  1  2  1  0
  1 31  1  0
  1 32  1  0
  1 33  1  0
  2 30  1  0
  2  3  1  0
  2 34  1  6
  3  4  1  0
  3 35  1  0
  3 36  1  0
  4 28  1  0
  4  5  1  0
  4 37  1  6
  5 22  1  0
  5  6  1  0
  5 38  1  6
  6 26  1  0
  6  7  1  0
  6 39  1  6
  7  8  1  0
  8 15  1  0
  8 23  1  0
  8  9  1  1
  9 10  1  0
  9 40  1  0
  9 41  1  0
 10 11  1  0
 10 12  1  0
 10 42  1  1
 11 43  1  0
 12 13  1  0
 12 44  1  0
 12 45  1  0
 13 14  1  0
 13 15  1  0
 13 46  1  1
 14 47  1  0
 15 16  1  1
 15 17  1  0
 16 48  1  0
 16 49  1  0
 16 50  1  0
 17 24  1  0
 17 18  1  6
 17 19  1  0
 18 51  1  0
 19 20  1  0
 19 52  1  0
 19 53  1  0
 20 21  1  0
 20 54  1  0
 20 55  1  0
 21 22  1  0
 21 28  1  0
 21 56  1  1
 22 23  1  0
 22 57  1  1
 23 24  1  0
 23 58  1  1
 24 25  1  6
 24 26  1  0
 25 59  1  0
 25 60  1  0
 25 61  1  0
 26 27  1  0
 26 62  1  6
 27 63  1  0
 28 29  1  1
 28 30  1  0
 29 64  1  0
 30 65  1  0
 30 66  1  0
M  END
>  <i_m_ct_stereo_status>  (273) 
1

>  <s_m_source_file>  (273) 
/var/tmp/pbs.5076255.sched01/tmppxgjifq_/8475v0iq0b.sdf

>  <i_m_source_file_index>  (273) 
35

>  <i_lp_mmshare_version>  (273) 
48012

>  <i_f3d_flags>  (273) 
2

>  <s_epik_input>  (273) 
W0NIM11bQ0BIXShbQ0gyXTEpW0NIMl1bQ0BAXShbT0hdKShbQ0BASF0yW0NIMl1bQ0gyXTMpW0NASF0xW0NASF0oW0NASF0oTzQpW0NAQEhdNVtPSF0pW0NASF0yW0NIXTZbQ0BAXTUoW0NIM10pW0NAXTMoW09IXSlbQ0BdKFtDQEBdNDY3KShbQ0gzXSlbQ0BIXShbT0hdKVtDSDJdW0NAQEhdKFtDSDJdNylbT0hd

>  <s_epik_cmdline>  (273) 
J2VwaWtfcHl0aG9uJywgJy1waHQnLCAnMi4wJywgJy1waCcsICc3LjAnLCAnLXRuJywgJzgnLCAnLW1hJywgJzIwMCcsICctaW1hZScsICc8aW5maWxlLm1hZT4nLCAnLW9tYWUnLCAnPG91dGZpbGUubWFlPic=

>  <r_lp_tautomer_probability>  (273) 
1

>  <r_epik_Ionization_Penalty>  (273) 
3.64633e-06

>  <r_epik_Ionization_Penalty_Charging>  (273) 
0

>  <r_epik_Ionization_Penalty_Neutral>  (273) 
3.64633e-06

>  <r_epik_State_Penalty>  (273) 
-0

>  <r_epik_Charging_Adjusted_Penalty>  (273) 
0

>  <i_epik_Tot_Q>  (273) 
0

>  <i_epik_Tot_abs_Q>  (273) 
0

>  <s_lp_Force_Field>  (273) 
OPLS3e

>  <r_lp_Energy>  (273) 
238.123

>  <b_lp_Chiralities_Consistent>  (273) 
0

>  <s_lp_Variant>  (273) 
78:0-1

>  <s_i_glide_gridfile>  (273) 
pfpi4k_grid

>  <i_i_glide_lignum>  (273) 
35

>  <i_i_glide_rotatable_bonds>  (273) 
5

>  <r_i_docking_score>  (273) 
-3.59592

>  <r_i_glide_ligand_efficiency>  (273) 
-0.119864

>  <r_i_glide_ligand_efficiency_sa>  (273) 
-0.372445

>  <r_i_glide_ligand_efficiency_ln>  (273) 
-0.817032

>  <r_i_glide_gscore>  (273) 
-3.59592

>  <r_i_glide_lipo>  (273) 
-0.444664

>  <r_i_glide_hbond>  (273) 
0

>  <r_i_glide_metal>  (273) 
-0

>  <r_i_glide_rewards>  (273) 
-1.04178

>  <r_i_glide_evdw>  (273) 
-22.9889

>  <r_i_glide_ecoul>  (273) 
-6.40021

>  <r_i_glide_erotb>  (273) 
0

>  <r_i_glide_esite>  (273) 
0

>  <r_i_glide_emodel>  (273) 
-42.3038

>  <r_i_glide_energy>  (273) 
-29.3891

>  <r_i_glide_einternal>  (273) 
0.878729

>  <r_i_glide_intrahb_reward>  (273) 
-0.5

>  <i_i_glide_confnum>  (273) 
2

>  <i_i_glide_posenum>  (273) 
32

>  <r_i_glide_eff_state_penalty>  (273) 
0

>  <ligand_id>  (273) 
78

>  <original_smiles>  (273) 
CC1CC2C3C4OC56CC(O)CC(O)C5(C)C5(O)CCC(C3C6C5(C)C4O)C2(O)C1

>  <smiles>  (273) 
[H]OC1([H])C([H])([H])C([H])(O[H])C2(C([H])([H])[H])C3(OC4([H])C([H])(O[H])C5(C([H])([H])[H])C3([H])C3([H])C4([H])C4([H])C([H])([H])C([H])(C([H])([H])[H])C([H])([H])C4(O[H])C3([H])C([H])([H])C([H])([H])C52O[H])C1([H])[H]

$$$$
78:0:2
     RDKit          3D

 66 72  0  0  1  0  0  0  0  0999 V2000
   -1.3461   -8.2381    2.0902 C   0  0  0  0  0  0  0  0  0  0  0  0
   -0.7401   -8.8157    3.3679 C   0  0  2  0  0  0  0  0  0  0  0  0
   -0.3099   -7.7587    4.3853 C   0  0  0  0  0  0  0  0  0  0  0  0
    1.1750   -7.4681    4.1165 C   0  0  2  0  0  0  0  0  0  0  0  0
    1.3795   -6.2617    3.1392 C   0  0  1  0  0  0  0  0  0  0  0  0
    2.1493   -4.9197    3.6086 C   0  0  2  0  0  0  0  0  0  0  0  0
    2.6821   -4.1545    2.4996 O   0  0  0  0  0  0  0  0  0  0  0  0
    3.4744   -4.8408    1.4927 C   0  0  1  0  0  0  0  0  0  0  0  0
    2.9612   -4.2285    0.1765 C   0  0  0  0  0  0  0  0  0  0  0  0
    3.4402   -2.7448    0.0991 C   0  0  1  0  0  0  0  0  0  0  0  0
    2.6122   -1.8893    0.8702 O   0  0  0  0  0  0  0  0  0  0  0  0
    4.9379   -2.4997    0.4743 C   0  0  0  0  0  0  0  0  0  0  0  0
    5.5702   -3.4276    1.5666 C   0  0  1  0  0  0  0  0  0  0  0  0
    5.3693   -2.7736    2.7937 O   0  0  0  0  0  0  0  0  0  0  0  0
    5.0508   -4.9056    1.4595 C   0  0  2  0  0  0  0  0  0  0  0  0
    5.6740   -5.3700    0.0946 C   0  0  0  0  0  0  0  0  0  0  0  0
    5.4281   -6.1054    2.4885 C   0  0  2  0  0  0  0  0  0  0  0  0
    6.6049   -5.7907    3.2039 O   0  0  0  0  0  0  0  0  0  0  0  0
    5.5179   -7.6826    1.9631 C   0  0  0  0  0  0  0  0  0  0  0  0
    4.2089   -8.7363    1.9706 C   0  0  0  0  0  0  0  0  0  0  0  0
    2.5959   -8.3808    2.1898 C   0  0  2  0  0  0  0  0  0  0  0  0
    2.1084   -6.9298    1.9722 C   0  0  2  0  0  0  0  0  0  0  0  0
    3.3689   -6.2688    1.9062 C   0  0  2  0  0  0  0  0  0  0  0  0
    4.2031   -6.2790    3.3391 C   0  0  1  0  0  0  0  0  0  0  0  0
    4.5357   -7.3653    4.4719 C   0  0  0  0  0  0  0  0  0  0  0  0
    3.4717   -5.2510    4.2669 C   0  0  1  0  0  0  0  0  0  0  0  0
    4.1872   -4.1645    4.8056 O   0  0  0  0  0  0  0  0  0  0  0  0
    1.7592   -8.7828    3.4507 C   0  0  1  0  0  0  0  0  0  0  0  0
    2.5119   -9.5678    4.3513 O   0  0  0  0  0  0  0  0  0  0  0  0
    0.5147   -9.6569    3.1155 C   0  0  0  0  0  0  0  0  0  0  0  0
   -0.6256   -7.6476    1.5252 H   0  0  0  0  0  0  0  0  0  0  0  0
   -2.2006   -7.6055    2.3336 H   0  0  0  0  0  0  0  0  0  0  0  0
   -1.6976   -9.0416    1.4428 H   0  0  0  0  0  0  0  0  0  0  0  0
   -1.5131   -9.4496    3.8035 H   0  0  0  0  0  0  0  0  0  0  0  0
   -0.9417   -6.8656    4.3840 H   0  0  0  0  0  0  0  0  0  0  0  0
   -0.4011   -8.1945    5.3806 H   0  0  0  0  0  0  0  0  0  0  0  0
    1.6248   -7.2536    5.0839 H   0  0  0  0  0  0  0  0  0  0  0  0
    0.4101   -5.9348    2.7665 H   0  0  0  0  0  0  0  0  0  0  0  0
    1.5273   -4.2950    4.2491 H   0  0  0  0  0  0  0  0  0  0  0  0
    3.3192   -4.7781   -0.6873 H   0  0  0  0  0  0  0  0  0  0  0  0
    1.8753   -4.2876    0.1142 H   0  0  0  0  0  0  0  0  0  0  0  0
    3.3022   -2.3996   -0.9281 H   0  0  0  0  0  0  0  0  0  0  0  0
    1.9586   -1.4860    0.2902 H   0  0  0  0  0  0  0  0  0  0  0  0
    5.5195   -2.5953   -0.4385 H   0  0  0  0  0  0  0  0  0  0  0  0
    5.0866   -1.4493    0.7406 H   0  0  0  0  0  0  0  0  0  0  0  0
    6.6531   -3.4318    1.4250 H   0  0  0  0  0  0  0  0  0  0  0  0
    4.4473   -2.8362    3.0140 H   0  0  0  0  0  0  0  0  0  0  0  0
    6.7352   -5.5804    0.2241 H   0  0  0  0  0  0  0  0  0  0  0  0
    5.6100   -4.6537   -0.7140 H   0  0  0  0  0  0  0  0  0  0  0  0
    5.2199   -6.2575   -0.3321 H   0  0  0  0  0  0  0  0  0  0  0  0
    6.8012   -6.5178    3.7775 H   0  0  0  0  0  0  0  0  0  0  0  0
    5.9817   -7.7405    0.9853 H   0  0  0  0  0  0  0  0  0  0  0  0
    6.2842   -8.1769    2.5575 H   0  0  0  0  0  0  0  0  0  0  0  0
    4.2379   -9.1782    0.9739 H   0  0  0  0  0  0  0  0  0  0  0  0
    4.4494   -9.5997    2.5916 H   0  0  0  0  0  0  0  0  0  0  0  0
    2.1473   -8.9405    1.3697 H   0  0  0  0  0  0  0  0  0  0  0  0
    1.5578   -6.8221    1.0344 H   0  0  0  0  0  0  0  0  0  0  0  0
    3.6969   -6.7105    0.9619 H   0  0  0  0  0  0  0  0  0  0  0  0
    3.7080   -7.6305    5.1146 H   0  0  0  0  0  0  0  0  0  0  0  0
    5.2530   -6.9240    5.1664 H   0  0  0  0  0  0  0  0  0  0  0  0
    4.9828   -8.3225    4.2423 H   0  0  0  0  0  0  0  0  0  0  0  0
    3.1332   -5.6924    5.2017 H   0  0  0  0  0  0  0  0  0  0  0  0
    4.9606   -4.5013    5.2358 H   0  0  0  0  0  0  0  0  0  0  0  0
    1.9306   -9.9372    5.0024 H   0  0  0  0  0  0  0  0  0  0  0  0
    0.4610  -10.5215    3.7783 H   0  0  0  0  0  0  0  0  0  0  0  0
    0.5197  -10.0817    2.1140 H   0  0  0  0  0  0  0  0  0  0  0  0
  1  2  1  0
  1 31  1  0
  1 32  1  0
  1 33  1  0
  2 30  1  0
  2  3  1  0
  2 34  1  1
  3  4  1  0
  3 35  1  0
  3 36  1  0
  4 28  1  0
  4  5  1  0
  4 37  1  1
  5 22  1  0
  5  6  1  0
  5 38  1  6
  6 26  1  0
  6  7  1  0
  6 39  1  1
  7  8  1  0
  8 15  1  0
  8 23  1  0
  8  9  1  6
  9 10  1  0
  9 40  1  0
  9 41  1  0
 10 11  1  0
 10 12  1  0
 10 42  1  6
 11 43  1  0
 12 13  1  0
 12 44  1  0
 12 45  1  0
 13 14  1  0
 13 15  1  0
 13 46  1  6
 14 47  1  0
 15 16  1  6
 15 17  1  0
 16 48  1  0
 16 49  1  0
 16 50  1  0
 17 24  1  0
 17 18  1  1
 17 19  1  0
 18 51  1  0
 19 20  1  0
 19 52  1  0
 19 53  1  0
 20 21  1  0
 20 54  1  0
 20 55  1  0
 21 22  1  0
 21 28  1  0
 21 56  1  6
 22 23  1  0
 22 57  1  6
 23 24  1  0
 23 58  1  6
 24 25  1  1
 24 26  1  0
 25 59  1  0
 25 60  1  0
 25 61  1  0
 26 27  1  0
 26 62  1  1
 27 63  1  0
 28 29  1  1
 28 30  1  0
 29 64  1  0
 30 65  1  0
 30 66  1  0
M  END
>  <i_m_ct_stereo_status>  (274) 
1

>  <s_m_source_file>  (274) 
/var/tmp/pbs.5076255.sched01/tmppxgjifq_/8475v0iq0b.sdf

>  <i_m_source_file_index>  (274) 
35

>  <i_lp_mmshare_version>  (274) 
48012

>  <i_f3d_flags>  (274) 
2

>  <s_epik_input>  (274) 
W0NIM11bQ0BIXShbQ0gyXTEpW0NIMl1bQ0BAXShbT0hdKShbQ0BASF0yW0NIMl1bQ0gyXTMpW0NASF0xW0NASF0oW0NASF0oTzQpW0NAQEhdNVtPSF0pW0NASF0yW0NIXTZbQ0BAXTUoW0NIM10pW0NAXTMoW09IXSlbQ0BdKFtDQEBdNDY3KShbQ0gzXSlbQ0BIXShbT0hdKVtDSDJdW0NAQEhdKFtDSDJdNylbT0hd

>  <s_epik_cmdline>  (274) 
J2VwaWtfcHl0aG9uJywgJy1waHQnLCAnMi4wJywgJy1waCcsICc3LjAnLCAnLXRuJywgJzgnLCAnLW1hJywgJzIwMCcsICctaW1hZScsICc8aW5maWxlLm1hZT4nLCAnLW9tYWUnLCAnPG91dGZpbGUubWFlPic=

>  <r_lp_tautomer_probability>  (274) 
1

>  <r_epik_Ionization_Penalty>  (274) 
3.64633e-06

>  <r_epik_Ionization_Penalty_Charging>  (274) 
0

>  <r_epik_Ionization_Penalty_Neutral>  (274) 
3.64633e-06

>  <r_epik_State_Penalty>  (274) 
-0

>  <r_epik_Charging_Adjusted_Penalty>  (274) 
0

>  <i_epik_Tot_Q>  (274) 
0

>  <i_epik_Tot_abs_Q>  (274) 
0

>  <s_lp_Force_Field>  (274) 
OPLS3e

>  <r_lp_Energy>  (274) 
238.123

>  <b_lp_Chiralities_Consistent>  (274) 
0

>  <s_lp_Variant>  (274) 
78:0-1

>  <s_i_glide_gridfile>  (274) 
pfpi4k_grid

>  <i_i_glide_lignum>  (274) 
35

>  <i_i_glide_rotatable_bonds>  (274) 
5

>  <r_i_docking_score>  (274) 
-3.27912

>  <r_i_glide_ligand_efficiency>  (274) 
-0.109304

>  <r_i_glide_ligand_efficiency_sa>  (274) 
-0.339633

>  <r_i_glide_ligand_efficiency_ln>  (274) 
-0.745053

>  <r_i_glide_gscore>  (274) 
-3.27912

>  <r_i_glide_lipo>  (274) 
-0.271658

>  <r_i_glide_hbond>  (274) 
0

>  <r_i_glide_metal>  (274) 
-0

>  <r_i_glide_rewards>  (274) 
-1.04178

>  <r_i_glide_evdw>  (274) 
-27.4162

>  <r_i_glide_ecoul>  (274) 
-3.96586

>  <r_i_glide_erotb>  (274) 
0

>  <r_i_glide_esite>  (274) 
0

>  <r_i_glide_emodel>  (274) 
-43.0093

>  <r_i_glide_energy>  (274) 
-31.382

>  <r_i_glide_einternal>  (274) 
1.71658

>  <r_i_glide_intrahb_reward>  (274) 
-0.5

>  <i_i_glide_confnum>  (274) 
2

>  <i_i_glide_posenum>  (274) 
16

>  <r_i_glide_eff_state_penalty>  (274) 
0

>  <ligand_id>  (274) 
78

>  <original_smiles>  (274) 
CC1CC2C3C4OC56CC(O)CC(O)C5(C)C5(O)CCC(C3C6C5(C)C4O)C2(O)C1

>  <smiles>  (274) 
[H]OC1([H])C([H])([H])C([H])(O[H])C2(C([H])([H])[H])C3(OC4([H])C([H])(O[H])C5(C([H])([H])[H])C3([H])C3([H])C4([H])C4([H])C([H])([H])C([H])(C([H])([H])[H])C([H])([H])C4(O[H])C3([H])C([H])([H])C([H])([H])C52O[H])C1([H])[H]

$$$$
79:0:0
     RDKit          3D

 51 57  0  0  1  0  0  0  0  0999 V2000
    2.2607   -3.0584   -2.6159 C   0  0  0  0  0  0  0  0  0  0  0  0
    3.2249   -3.2768   -1.4722 C   0  0  0  0  0  0  0  0  0  0  0  0
    4.4169   -2.7191   -1.3011 C   0  0  0  0  0  0  0  0  0  0  0  0
    5.0552   -3.1577   -0.0069 C   0  0  1  0  0  0  0  0  0  0  0  0
    4.9557   -1.9923    1.0105 C   0  0  0  0  0  0  0  0  0  0  0  0
    5.2981   -2.4110    2.4445 C   0  0  0  0  0  0  0  0  0  0  0  0
    4.4540   -3.6208    2.8526 C   0  0  2  0  0  0  0  0  0  0  0  0
    4.9189   -4.8023    3.7133 C   0  0  2  0  0  0  0  0  0  0  0  0
    5.6429   -5.1988    2.4293 C   0  0  0  0  0  0  0  0  0  0  0  0
    4.2519   -4.7975    1.8778 C   0  0  2  0  0  0  0  0  0  0  0  0
    4.2222   -4.4384    0.3665 C   0  0  2  0  0  0  0  0  0  0  0  0
    4.8085   -5.5246   -0.3213 O   0  0  0  0  0  0  0  0  0  0  0  0
    2.8633   -4.1800   -0.3212 C   0  0  0  0  0  0  0  0  0  0  0  0
    3.1922   -5.7721    2.5132 C   0  0  1  0  0  0  0  0  0  0  0  0
    1.7206   -5.3229    2.4474 C   0  0  0  0  0  0  0  0  0  0  0  0
    1.1248   -5.8563    1.2740 O   0  0  0  0  0  0  0  0  0  0  0  0
    0.8687   -7.2327    1.2707 C   0  0  2  0  0  0  0  0  0  0  0  0
   -0.3125   -7.5238    1.9770 O   0  0  0  0  0  0  0  0  0  0  0  0
   -0.0081   -8.2229    3.1181 C   0  0  0  0  0  0  0  0  0  0  0  0
    1.2826   -8.4944    3.2187 C   0  0  0  0  0  0  0  0  0  0  0  0
    1.9959   -8.0492    1.9782 C   0  0  2  0  0  0  0  0  0  0  0  0
    3.3205   -7.2633    2.1224 C   0  0  2  0  0  0  0  0  0  0  0  0
    4.1650   -7.8724    3.0908 O   0  0  0  0  0  0  0  0  0  0  0  0
    4.0834   -7.1602    4.3171 C   0  0  0  0  0  0  0  0  0  0  0  0
    3.7280   -5.7226    3.9459 C   0  0  1  0  0  0  0  0  0  0  0  0
    1.3233   -2.6690   -2.2272 H   0  0  0  0  0  0  0  0  0  0  0  0
    2.0405   -3.9928   -3.1237 H   0  0  0  0  0  0  0  0  0  0  0  0
    2.6409   -2.3410   -3.3459 H   0  0  0  0  0  0  0  0  0  0  0  0
    4.8866   -2.0227   -1.9797 H   0  0  0  0  0  0  0  0  0  0  0  0
    6.1052   -3.3973   -0.1746 H   0  0  0  0  0  0  0  0  0  0  0  0
    5.6110   -1.1721    0.7149 H   0  0  0  0  0  0  0  0  0  0  0  0
    3.9440   -1.5810    0.9958 H   0  0  0  0  0  0  0  0  0  0  0  0
    6.3714   -2.5857    2.5157 H   0  0  0  0  0  0  0  0  0  0  0  0
    5.0963   -1.5863    3.1276 H   0  0  0  0  0  0  0  0  0  0  0  0
    3.4846   -3.2817    3.2035 H   0  0  0  0  0  0  0  0  0  0  0  0
    5.5549   -4.5574    4.5645 H   0  0  0  0  0  0  0  0  0  0  0  0
    6.5013   -4.6064    2.1095 H   0  0  0  0  0  0  0  0  0  0  0  0
    5.8652   -6.2615    2.3413 H   0  0  0  0  0  0  0  0  0  0  0  0
    4.4950   -5.5056   -1.2172 H   0  0  0  0  0  0  0  0  0  0  0  0
    2.1955   -3.6162    0.3187 H   0  0  0  0  0  0  0  0  0  0  0  0
    2.3775   -5.0862   -0.6737 H   0  0  0  0  0  0  0  0  0  0  0  0
    1.1583   -5.6272    3.3333 H   0  0  0  0  0  0  0  0  0  0  0  0
    1.6427   -4.2373    2.4112 H   0  0  0  0  0  0  0  0  0  0  0  0
    0.7442   -7.5364    0.2319 H   0  0  0  0  0  0  0  0  0  0  0  0
   -0.8279   -8.4537    3.7813 H   0  0  0  0  0  0  0  0  0  0  0  0
    1.7624   -9.0271    4.0254 H   0  0  0  0  0  0  0  0  0  0  0  0
    2.1858   -8.9659    1.4084 H   0  0  0  0  0  0  0  0  0  0  0  0
    3.8248   -7.3391    1.1613 H   0  0  0  0  0  0  0  0  0  0  0  0
    3.2983   -7.5873    4.9377 H   0  0  0  0  0  0  0  0  0  0  0  0
    5.0203   -7.2261    4.8707 H   0  0  0  0  0  0  0  0  0  0  0  0
    3.0331   -5.2864    4.6660 H   0  0  0  0  0  0  0  0  0  0  0  0
  1  2  1  0
  1 26  1  0
  1 27  1  0
  1 28  1  0
  2 13  1  0
  2  3  2  0
  3  4  1  0
  3 29  1  0
  4 11  1  0
  4  5  1  0
  4 30  1  6
  5  6  1  0
  5 31  1  0
  5 32  1  0
  6  7  1  0
  6 33  1  0
  6 34  1  0
  7 10  1  0
  7  8  1  0
  7 35  1  1
  8 25  1  0
  8  9  1  0
  8 36  1  1
 10  9  1  6
  9 37  1  0
  9 38  1  0
 10 11  1  0
 10 14  1  0
 11 12  1  6
 11 13  1  0
 12 39  1  0
 13 40  1  0
 13 41  1  0
 14 22  1  0
 14 25  1  0
 14 15  1  1
 15 16  1  0
 15 42  1  0
 15 43  1  0
 16 17  1  0
 17 21  1  0
 17 18  1  0
 17 44  1  6
 18 19  1  0
 19 20  2  0
 19 45  1  0
 20 21  1  0
 20 46  1  0
 21 22  1  0
 21 47  1  6
 22 23  1  0
 22 48  1  6
 23 24  1  0
 24 25  1  0
 24 49  1  0
 24 50  1  0
 25 51  1  1
M  END
>  <i_m_ct_stereo_status>  (275) 
1

>  <s_m_source_file>  (275) 
/var/tmp/pbs.5076255.sched01/tmppxgjifq_/8475v0iq0b.sdf

>  <i_m_source_file_index>  (275) 
36

>  <i_lp_mmshare_version>  (275) 
48012

>  <i_f3d_flags>  (275) 
0

>  <s_epik_input>  (275) 
W0NIM11DKD1bQ0hdMSlbQ0gyXVtDQEBdMihbT0hdKVtDQEBIXTFbQ0gyXVtDSDJdW0NAQEhdM1tDQEhdKFtDSDJdNClbQ0BASF01W0NIMl1PW0NASF0oW0NAXTU2W0NAQF0yMzQpW0NAQEhdN1tDQEhdKE9bQ0gyXTYpT1tDSF09W0NIXTc=

>  <s_epik_cmdline>  (275) 
J2VwaWtfcHl0aG9uJywgJy1waHQnLCAnMi4wJywgJy1waCcsICc3LjAnLCAnLXRuJywgJzgnLCAnLW1hJywgJzIwMCcsICctaW1hZScsICc8aW5maWxlLm1hZT4nLCAnLW9tYWUnLCAnPG91dGZpbGUubWFlPic=

>  <r_lp_tautomer_probability>  (275) 
1

>  <r_epik_Ionization_Penalty>  (275) 
3.83898e-07

>  <r_epik_Ionization_Penalty_Charging>  (275) 
0

>  <r_epik_Ionization_Penalty_Neutral>  (275) 
3.83898e-07

>  <r_epik_State_Penalty>  (275) 
-0

>  <r_epik_Charging_Adjusted_Penalty>  (275) 
0

>  <i_epik_Tot_Q>  (275) 
0

>  <i_epik_Tot_abs_Q>  (275) 
0

>  <s_epik_Chemistry_Notes>  (275) 
This compound contains an acetal/aminal-like group ( X-CH(R)-Y where X, Y are N, S, or O) that may be acid/base labile, releasing an aldehyde.

>  <s_lp_Force_Field>  (275) 
OPLS3e

>  <r_lp_Energy>  (275) 
51.1799

>  <b_lp_Chiralities_Consistent>  (275) 
1

>  <s_lp_Variant>  (275) 
79:0-1

>  <s_i_glide_gridfile>  (275) 
pfpi4k_grid

>  <i_i_glide_lignum>  (275) 
36

>  <i_i_glide_rotatable_bonds>  (275) 
1

>  <r_i_docking_score>  (275) 
-3.89799

>  <r_i_glide_ligand_efficiency>  (275) 
-0.15592

>  <r_i_glide_ligand_efficiency_sa>  (275) 
-0.455912

>  <r_i_glide_ligand_efficiency_ln>  (275) 
-0.923941

>  <r_i_glide_gscore>  (275) 
-3.89799

>  <r_i_glide_lipo>  (275) 
-0.405942

>  <r_i_glide_hbond>  (275) 
-0.373477

>  <r_i_glide_metal>  (275) 
-0

>  <r_i_glide_rewards>  (275) 
-1.07435

>  <r_i_glide_evdw>  (275) 
-22.9097

>  <r_i_glide_ecoul>  (275) 
-5.54346

>  <r_i_glide_erotb>  (275) 
0

>  <r_i_glide_esite>  (275) 
-0.0672179

>  <r_i_glide_emodel>  (275) 
-35.0088

>  <r_i_glide_energy>  (275) 
-28.4532

>  <r_i_glide_einternal>  (275) 
0.585018

>  <r_i_glide_intrahb_reward>  (275) 
-0

>  <i_i_glide_confnum>  (275) 
2

>  <i_i_glide_posenum>  (275) 
16

>  <r_i_glide_eff_state_penalty>  (275) 
0

>  <ligand_id>  (275) 
79

>  <original_smiles>  (275) 
CC1=CC2CCC3C4CC3(C2(O)C1)C12COC3OC=CC3C1OCC42

>  <smiles>  (275) 
[H]OC12C([H])([H])C(C([H])([H])[H])=C([H])C1([H])C([H])([H])C([H])([H])C1([H])C3([H])C([H])([H])C12C12C([H])([H])OC4([H])OC([H])=C([H])C4([H])C1([H])OC([H])([H])C32[H]

$$$$
79:0:1
     RDKit          3D

 51 57  0  0  1  0  0  0  0  0999 V2000
    2.2520   -3.0711   -3.0493 C   0  0  0  0  0  0  0  0  0  0  0  0
    3.2483   -2.9578   -1.9247 C   0  0  0  0  0  0  0  0  0  0  0  0
    4.3181   -2.1615   -1.8760 C   0  0  0  0  0  0  0  0  0  0  0  0
    5.0287   -2.2767   -0.5516 C   0  0  1  0  0  0  0  0  0  0  0  0
    4.7182   -1.0128    0.2910 C   0  0  0  0  0  0  0  0  0  0  0  0
    5.1459   -1.1316    1.7597 C   0  0  0  0  0  0  0  0  0  0  0  0
    4.5338   -2.3993    2.3605 C   0  0  2  0  0  0  0  0  0  0  0  0
    5.2194   -3.3341    3.3610 C   0  0  2  0  0  0  0  0  0  0  0  0
    5.9902   -3.7821    2.1160 C   0  0  0  0  0  0  0  0  0  0  0  0
    4.5487   -3.7278    1.5745 C   0  0  2  0  0  0  0  0  0  0  0  0
    4.4516   -3.6158    0.0321 C   0  0  2  0  0  0  0  0  0  0  0  0
    5.2340   -4.6636   -0.5134 O   0  0  0  0  0  0  0  0  0  0  0  0
    3.0687   -3.7254   -0.6438 C   0  0  0  0  0  0  0  0  0  0  0  0
    3.7081   -4.7798    2.3869 C   0  0  1  0  0  0  0  0  0  0  0  0
    2.1805   -4.6318    2.3055 C   0  0  0  0  0  0  0  0  0  0  0  0
    1.6954   -5.4589    1.2521 O   0  0  0  0  0  0  0  0  0  0  0  0
    1.7025   -6.8348    1.4665 C   0  0  2  0  0  0  0  0  0  0  0  0
    0.6055   -7.2171    2.2526 O   0  0  0  0  0  0  0  0  0  0  0  0
    1.0420   -7.6615    3.4672 C   0  0  0  0  0  0  0  0  0  0  0  0
    2.3633   -7.6682    3.5635 C   0  0  0  0  0  0  0  0  0  0  0  0
    2.9686   -7.3001    2.2447 C   0  0  2  0  0  0  0  0  0  0  0  0
    4.1197   -6.2595    2.2231 C   0  0  2  0  0  0  0  0  0  0  0  0
    5.0704   -6.5442    3.2490 O   0  0  0  0  0  0  0  0  0  0  0  0
    4.8574   -5.6780    4.3526 C   0  0  0  0  0  0  0  0  0  0  0  0
    4.2300   -4.4119    3.7755 C   0  0  1  0  0  0  0  0  0  0  0  0
    1.2569   -2.8388   -2.6660 H   0  0  0  0  0  0  0  0  0  0  0  0
    2.2301   -4.0983   -3.4118 H   0  0  0  0  0  0  0  0  0  0  0  0
    2.4770   -2.4163   -3.8906 H   0  0  0  0  0  0  0  0  0  0  0  0
    4.6362   -1.4940   -2.6599 H   0  0  0  0  0  0  0  0  0  0  0  0
    6.1066   -2.3362   -0.7123 H   0  0  0  0  0  0  0  0  0  0  0  0
    5.1994   -0.1394   -0.1431 H   0  0  0  0  0  0  0  0  0  0  0  0
    3.6456   -0.8054    0.2536 H   0  0  0  0  0  0  0  0  0  0  0  0
    6.2367   -1.0788    1.8517 H   0  0  0  0  0  0  0  0  0  0  0  0
    4.7844   -0.2665    2.3157 H   0  0  0  0  0  0  0  0  0  0  0  0
    3.5202   -2.1898    2.6934 H   0  0  0  0  0  0  0  0  0  0  0  0
    5.8052   -2.8490    4.1442 H   0  0  0  0  0  0  0  0  0  0  0  0
    6.7173   -3.0955    1.6812 H   0  0  0  0  0  0  0  0  0  0  0  0
    6.4150   -4.7843    2.1877 H   0  0  0  0  0  0  0  0  0  0  0  0
    4.9528   -4.8085   -1.4022 H   0  0  0  0  0  0  0  0  0  0  0  0
    2.3006   -3.2111   -0.0735 H   0  0  0  0  0  0  0  0  0  0  0  0
    2.7676   -4.7557   -0.7997 H   0  0  0  0  0  0  0  0  0  0  0  0
    1.6900   -4.8931    3.2448 H   0  0  0  0  0  0  0  0  0  0  0  0
    1.8931   -3.6002    2.1043 H   0  0  0  0  0  0  0  0  0  0  0  0
    1.6162   -7.3167    0.4950 H   0  0  0  0  0  0  0  0  0  0  0  0
    0.2794   -7.9359    4.1862 H   0  0  0  0  0  0  0  0  0  0  0  0
    2.9408   -7.9702    4.4309 H   0  0  0  0  0  0  0  0  0  0  0  0
    3.3298   -8.2346    1.8153 H   0  0  0  0  0  0  0  0  0  0  0  0
    4.6255   -6.3842    1.2693 H   0  0  0  0  0  0  0  0  0  0  0  0
    4.1726   -6.1446    5.0577 H   0  0  0  0  0  0  0  0  0  0  0  0
    5.7912   -5.4793    4.8780 H   0  0  0  0  0  0  0  0  0  0  0  0
    3.4729   -4.0049    4.4479 H   0  0  0  0  0  0  0  0  0  0  0  0
  1  2  1  0
  1 26  1  0
  1 27  1  0
  1 28  1  0
  2 13  1  0
  2  3  2  0
  3  4  1  0
  3 29  1  0
  4 11  1  0
  4  5  1  0
  4 30  1  6
  5  6  1  0
  5 31  1  0
  5 32  1  0
  6  7  1  0
  6 33  1  0
  6 34  1  0
  7 10  1  0
  7  8  1  0
  7 35  1  1
  8 25  1  0
  8  9  1  0
  8 36  1  1
 10  9  1  6
  9 37  1  0
  9 38  1  0
 10 11  1  0
 10 14  1  0
 11 12  1  6
 11 13  1  0
 12 39  1  0
 13 40  1  0
 13 41  1  0
 14 22  1  0
 14 25  1  0
 14 15  1  1
 15 16  1  0
 15 42  1  0
 15 43  1  0
 16 17  1  0
 17 21  1  0
 17 18  1  0
 17 44  1  6
 18 19  1  0
 19 20  2  0
 19 45  1  0
 20 21  1  0
 20 46  1  0
 21 22  1  0
 21 47  1  6
 22 23  1  0
 22 48  1  6
 23 24  1  0
 24 25  1  0
 24 49  1  0
 24 50  1  0
 25 51  1  1
M  END
>  <i_m_ct_stereo_status>  (276) 
1

>  <s_m_source_file>  (276) 
/var/tmp/pbs.5076255.sched01/tmppxgjifq_/8475v0iq0b.sdf

>  <i_m_source_file_index>  (276) 
36

>  <i_lp_mmshare_version>  (276) 
48012

>  <i_f3d_flags>  (276) 
0

>  <s_epik_input>  (276) 
W0NIM11DKD1bQ0hdMSlbQ0gyXVtDQEBdMihbT0hdKVtDQEBIXTFbQ0gyXVtDSDJdW0NAQEhdM1tDQEhdKFtDSDJdNClbQ0BASF01W0NIMl1PW0NASF0oW0NAXTU2W0NAQF0yMzQpW0NAQEhdN1tDQEhdKE9bQ0gyXTYpT1tDSF09W0NIXTc=

>  <s_epik_cmdline>  (276) 
J2VwaWtfcHl0aG9uJywgJy1waHQnLCAnMi4wJywgJy1waCcsICc3LjAnLCAnLXRuJywgJzgnLCAnLW1hJywgJzIwMCcsICctaW1hZScsICc8aW5maWxlLm1hZT4nLCAnLW9tYWUnLCAnPG91dGZpbGUubWFlPic=

>  <r_lp_tautomer_probability>  (276) 
1

>  <r_epik_Ionization_Penalty>  (276) 
3.83898e-07

>  <r_epik_Ionization_Penalty_Charging>  (276) 
0

>  <r_epik_Ionization_Penalty_Neutral>  (276) 
3.83898e-07

>  <r_epik_State_Penalty>  (276) 
-0

>  <r_epik_Charging_Adjusted_Penalty>  (276) 
0

>  <i_epik_Tot_Q>  (276) 
0

>  <i_epik_Tot_abs_Q>  (276) 
0

>  <s_epik_Chemistry_Notes>  (276) 
This compound contains an acetal/aminal-like group ( X-CH(R)-Y where X, Y are N, S, or O) that may be acid/base labile, releasing an aldehyde.

>  <s_lp_Force_Field>  (276) 
OPLS3e

>  <r_lp_Energy>  (276) 
51.1799

>  <b_lp_Chiralities_Consistent>  (276) 
1

>  <s_lp_Variant>  (276) 
79:0-1

>  <s_i_glide_gridfile>  (276) 
pfpi4k_grid

>  <i_i_glide_lignum>  (276) 
36

>  <i_i_glide_rotatable_bonds>  (276) 
1

>  <r_i_docking_score>  (276) 
-3.27753

>  <r_i_glide_ligand_efficiency>  (276) 
-0.131101

>  <r_i_glide_ligand_efficiency_sa>  (276) 
-0.383342

>  <r_i_glide_ligand_efficiency_ln>  (276) 
-0.776873

>  <r_i_glide_gscore>  (276) 
-3.27753

>  <r_i_glide_lipo>  (276) 
-0.492042

>  <r_i_glide_hbond>  (276) 
-0.103496

>  <r_i_glide_metal>  (276) 
-0

>  <r_i_glide_rewards>  (276) 
-1.07435

>  <r_i_glide_evdw>  (276) 
-21.8764

>  <r_i_glide_ecoul>  (276) 
-3.16515

>  <r_i_glide_erotb>  (276) 
0

>  <r_i_glide_esite>  (276) 
-0.0390504

>  <r_i_glide_emodel>  (276) 
-30.5554

>  <r_i_glide_energy>  (276) 
-25.0416

>  <r_i_glide_einternal>  (276) 
0.489053

>  <r_i_glide_intrahb_reward>  (276) 
-0

>  <i_i_glide_confnum>  (276) 
1

>  <i_i_glide_posenum>  (276) 
17

>  <r_i_glide_eff_state_penalty>  (276) 
0

>  <ligand_id>  (276) 
79

>  <original_smiles>  (276) 
CC1=CC2CCC3C4CC3(C2(O)C1)C12COC3OC=CC3C1OCC42

>  <smiles>  (276) 
[H]OC12C([H])([H])C(C([H])([H])[H])=C([H])C1([H])C([H])([H])C([H])([H])C1([H])C3([H])C([H])([H])C12C12C([H])([H])OC4([H])OC([H])=C([H])C4([H])C1([H])OC([H])([H])C32[H]

$$$$
79:0:2
     RDKit          3D

 51 57  0  0  1  0  0  0  0  0999 V2000
    2.4152   -3.0356   -2.8625 C   0  0  0  0  0  0  0  0  0  0  0  0
    3.4041   -3.0583   -1.7188 C   0  0  0  0  0  0  0  0  0  0  0  0
    4.5521   -2.3863   -1.6162 C   0  0  0  0  0  0  0  0  0  0  0  0
    5.2181   -2.6229   -0.2815 C   0  0  1  0  0  0  0  0  0  0  0  0
    5.0352   -1.3625    0.6025 C   0  0  0  0  0  0  0  0  0  0  0  0
    5.4067   -1.5906    2.0752 C   0  0  0  0  0  0  0  0  0  0  0  0
    4.6433   -2.8049    2.6181 C   0  0  2  0  0  0  0  0  0  0  0  0
    5.1988   -3.8446    3.6004 C   0  0  2  0  0  0  0  0  0  0  0  0
    5.9460   -4.3383    2.3610 C   0  0  0  0  0  0  0  0  0  0  0  0
    4.5345   -4.0976    1.7817 C   0  0  2  0  0  0  0  0  0  0  0  0
    4.4877   -3.9139    0.2371 C   0  0  2  0  0  0  0  0  0  0  0  0
    5.1908   -5.0025   -0.3329 O   0  0  0  0  0  0  0  0  0  0  0  0
    3.1159   -3.8523   -0.4741 C   0  0  0  0  0  0  0  0  0  0  0  0
    3.5593   -5.0759    2.5321 C   0  0  1  0  0  0  0  0  0  0  0  0
    2.0584   -4.7554    2.4252 C   0  0  0  0  0  0  0  0  0  0  0  0
    1.5183   -5.4775    1.3250 O   0  0  0  0  0  0  0  0  0  0  0  0
    1.3747   -6.8597    1.4795 C   0  0  2  0  0  0  0  0  0  0  0  0
    0.2163   -7.1517    2.2185 O   0  0  0  0  0  0  0  0  0  0  0  0
    0.5711   -7.6836    3.4262 C   0  0  0  0  0  0  0  0  0  0  0  0
    1.8788   -7.8412    3.5557 C   0  0  0  0  0  0  0  0  0  0  0  0
    2.5590   -7.4916    2.2690 C   0  0  2  0  0  0  0  0  0  0  0  0
    3.8137   -6.5860    2.3156 C   0  0  2  0  0  0  0  0  0  0  0  0
    4.7002   -7.0128    3.3443 O   0  0  0  0  0  0  0  0  0  0  0  0
    4.5592   -6.1733    4.4804 C   0  0  0  0  0  0  0  0  0  0  0  0
    4.0873   -4.8224    3.9469 C   0  0  1  0  0  0  0  0  0  0  0  0
    1.4514   -2.6781   -2.4987 H   0  0  0  0  0  0  0  0  0  0  0  0
    2.2612   -4.0356   -3.2658 H   0  0  0  0  0  0  0  0  0  0  0  0
    2.7442   -2.3841   -3.6728 H   0  0  0  0  0  0  0  0  0  0  0  0
    4.9674   -1.7368   -2.3687 H   0  0  0  0  0  0  0  0  0  0  0  0
    6.2861   -2.8015   -0.4208 H   0  0  0  0  0  0  0  0  0  0  0  0
    5.6203   -0.5286    0.2107 H   0  0  0  0  0  0  0  0  0  0  0  0
    3.9929   -1.0385    0.5518 H   0  0  0  0  0  0  0  0  0  0  0  0
    6.4911   -1.6680    2.1847 H   0  0  0  0  0  0  0  0  0  0  0  0
    5.1325   -0.7118    2.6576 H   0  0  0  0  0  0  0  0  0  0  0  0
    3.6503   -2.4949    2.9358 H   0  0  0  0  0  0  0  0  0  0  0  0
    5.8139   -3.4571    4.4135 H   0  0  0  0  0  0  0  0  0  0  0  0
    6.7570   -3.7242    1.9672 H   0  0  0  0  0  0  0  0  0  0  0  0
    6.2600   -5.3826    2.3985 H   0  0  0  0  0  0  0  0  0  0  0  0
    4.6366   -5.7631   -0.2958 H   0  0  0  0  0  0  0  0  0  0  0  0
    2.3878   -3.2844    0.1000 H   0  0  0  0  0  0  0  0  0  0  0  0
    2.7184   -4.8343   -0.7169 H   0  0  0  0  0  0  0  0  0  0  0  0
    1.5205   -4.9959    3.3427 H   0  0  0  0  0  0  0  0  0  0  0  0
    1.8960   -3.6899    2.2637 H   0  0  0  0  0  0  0  0  0  0  0  0
    1.2796   -7.2986    0.4842 H   0  0  0  0  0  0  0  0  0  0  0  0
   -0.2333   -7.8963    4.1155 H   0  0  0  0  0  0  0  0  0  0  0  0
    2.3953   -8.2379    4.4172 H   0  0  0  0  0  0  0  0  0  0  0  0
    2.8233   -8.4438    1.8072 H   0  0  0  0  0  0  0  0  0  0  0  0
    4.3260   -6.7314    1.3681 H   0  0  0  0  0  0  0  0  0  0  0  0
    3.8116   -6.5897    5.1523 H   0  0  0  0  0  0  0  0  0  0  0  0
    5.4973   -6.1011    5.0309 H   0  0  0  0  0  0  0  0  0  0  0  0
    3.3639   -4.3608    4.6200 H   0  0  0  0  0  0  0  0  0  0  0  0
  1  2  1  0
  1 26  1  0
  1 27  1  0
  1 28  1  0
  2 13  1  0
  2  3  2  0
  3  4  1  0
  3 29  1  0
  4 11  1  0
  4  5  1  0
  4 30  1  6
  5  6  1  0
  5 31  1  0
  5 32  1  0
  6  7  1  0
  6 33  1  0
  6 34  1  0
  7 10  1  0
  7  8  1  0
  7 35  1  1
  8 25  1  0
  8  9  1  0
  8 36  1  1
 10  9  1  6
  9 37  1  0
  9 38  1  0
 10 11  1  0
 10 14  1  0
 11 12  1  6
 11 13  1  0
 12 39  1  0
 13 40  1  0
 13 41  1  0
 14 22  1  0
 14 25  1  0
 14 15  1  1
 15 16  1  0
 15 42  1  0
 15 43  1  0
 16 17  1  0
 17 21  1  0
 17 18  1  0
 17 44  1  6
 18 19  1  0
 19 20  2  0
 19 45  1  0
 20 21  1  0
 20 46  1  0
 21 22  1  0
 21 47  1  6
 22 23  1  0
 22 48  1  6
 23 24  1  0
 24 25  1  0
 24 49  1  0
 24 50  1  0
 25 51  1  1
M  END
>  <i_m_ct_stereo_status>  (277) 
1

>  <s_m_source_file>  (277) 
/var/tmp/pbs.5076255.sched01/tmppxgjifq_/8475v0iq0b.sdf

>  <i_m_source_file_index>  (277) 
36

>  <i_lp_mmshare_version>  (277) 
48012

>  <i_f3d_flags>  (277) 
0

>  <s_epik_input>  (277) 
W0NIM11DKD1bQ0hdMSlbQ0gyXVtDQEBdMihbT0hdKVtDQEBIXTFbQ0gyXVtDSDJdW0NAQEhdM1tDQEhdKFtDSDJdNClbQ0BASF01W0NIMl1PW0NASF0oW0NAXTU2W0NAQF0yMzQpW0NAQEhdN1tDQEhdKE9bQ0gyXTYpT1tDSF09W0NIXTc=

>  <s_epik_cmdline>  (277) 
J2VwaWtfcHl0aG9uJywgJy1waHQnLCAnMi4wJywgJy1waCcsICc3LjAnLCAnLXRuJywgJzgnLCAnLW1hJywgJzIwMCcsICctaW1hZScsICc8aW5maWxlLm1hZT4nLCAnLW9tYWUnLCAnPG91dGZpbGUubWFlPic=

>  <r_lp_tautomer_probability>  (277) 
1

>  <r_epik_Ionization_Penalty>  (277) 
3.83898e-07

>  <r_epik_Ionization_Penalty_Charging>  (277) 
0

>  <r_epik_Ionization_Penalty_Neutral>  (277) 
3.83898e-07

>  <r_epik_State_Penalty>  (277) 
-0

>  <r_epik_Charging_Adjusted_Penalty>  (277) 
0

>  <i_epik_Tot_Q>  (277) 
0

>  <i_epik_Tot_abs_Q>  (277) 
0

>  <s_epik_Chemistry_Notes>  (277) 
This compound contains an acetal/aminal-like group ( X-CH(R)-Y where X, Y are N, S, or O) that may be acid/base labile, releasing an aldehyde.

>  <s_lp_Force_Field>  (277) 
OPLS3e

>  <r_lp_Energy>  (277) 
51.1799

>  <b_lp_Chiralities_Consistent>  (277) 
1

>  <s_lp_Variant>  (277) 
79:0-1

>  <s_i_glide_gridfile>  (277) 
pfpi4k_grid

>  <i_i_glide_lignum>  (277) 
36

>  <i_i_glide_rotatable_bonds>  (277) 
1

>  <r_i_docking_score>  (277) 
-3.16043

>  <r_i_glide_ligand_efficiency>  (277) 
-0.126417

>  <r_i_glide_ligand_efficiency_sa>  (277) 
-0.369647

>  <r_i_glide_ligand_efficiency_ln>  (277) 
-0.749118

>  <r_i_glide_gscore>  (277) 
-3.16043

>  <r_i_glide_lipo>  (277) 
-0.394794

>  <r_i_glide_hbond>  (277) 
-0.108474

>  <r_i_glide_metal>  (277) 
-0

>  <r_i_glide_rewards>  (277) 
-1.07435

>  <r_i_glide_evdw>  (277) 
-22.4993

>  <r_i_glide_ecoul>  (277) 
-2.70154

>  <r_i_glide_erotb>  (277) 
0

>  <r_i_glide_esite>  (277) 
-0.052622

>  <r_i_glide_emodel>  (277) 
-30.6989

>  <r_i_glide_energy>  (277) 
-25.2008

>  <r_i_glide_einternal>  (277) 
0.210772

>  <r_i_glide_intrahb_reward>  (277) 
-0

>  <i_i_glide_confnum>  (277) 
2

>  <i_i_glide_posenum>  (277) 
35

>  <r_i_glide_eff_state_penalty>  (277) 
0

>  <ligand_id>  (277) 
79

>  <original_smiles>  (277) 
CC1=CC2CCC3C4CC3(C2(O)C1)C12COC3OC=CC3C1OCC42

>  <smiles>  (277) 
[H]OC12C([H])([H])C(C([H])([H])[H])=C([H])C1([H])C([H])([H])C([H])([H])C1([H])C3([H])C([H])([H])C12C12C([H])([H])OC4([H])OC([H])=C([H])C4([H])C1([H])OC([H])([H])C32[H]

$$$$
80:0:0
     RDKit          3D

 27 30  0  0  1  0  0  0  0  0999 V2000
    5.6616   -5.9091    1.2794 O   0  0  0  0  0  0  0  0  0  0  0  0
    4.5919   -5.3246    0.6539 C   0  0  0  0  0  0  0  0  0  0  0  0
    4.7189   -4.2423   -0.1813 C   0  0  0  0  0  0  0  0  0  0  0  0
    3.5486   -3.7018   -0.7805 C   0  0  0  0  0  0  0  0  0  0  0  0
    3.6386   -2.5666   -1.7046 C   0  0  0  0  0  0  0  0  0  0  0  0
    4.4924   -1.4939   -1.7655 C   0  0  0  0  0  0  0  0  0  0  0  0
    4.0983   -0.7184   -2.8932 C   0  0  0  0  0  0  0  0  0  0  0  0
    3.0542   -1.3875   -3.4615 C   0  0  0  0  0  0  0  0  0  0  0  0
    2.7608   -2.5123   -2.7516 O   0  0  0  0  0  0  0  0  0  0  0  0
    2.3231   -4.1892   -0.5688 N   0  0  0  0  0  0  0  0  0  0  0  0
    2.2176   -5.2579    0.2407 C   0  0  0  0  0  0  0  0  0  0  0  0
    1.1246   -5.9293    0.6168 N   0  0  0  0  0  0  0  0  0  0  0  0
    1.6443   -6.8688    1.4572 C   0  0  0  0  0  0  0  0  0  0  0  0
    0.7884   -7.8458    2.1334 C   0  0  0  0  0  0  0  0  0  0  0  0
    1.0639   -8.9579    2.8851 C   0  0  0  0  0  0  0  0  0  0  0  0
   -0.1857   -9.5176    3.2753 C   0  0  0  0  0  0  0  0  0  0  0  0
   -1.1436   -8.7103    2.7345 C   0  0  0  0  0  0  0  0  0  0  0  0
   -0.5721   -7.6837    2.0383 O   0  0  0  0  0  0  0  0  0  0  0  0
    2.9577   -6.8705    1.6514 N   0  0  0  0  0  0  0  0  0  0  0  0
    3.3431   -5.8267    0.8651 N   0  0  0  0  0  0  0  0  0  0  0  0
    5.6956   -3.8314   -0.3905 H   0  0  0  0  0  0  0  0  0  0  0  0
    5.2865   -1.2867   -1.0627 H   0  0  0  0  0  0  0  0  0  0  0  0
    4.5074    0.2215   -3.2365 H   0  0  0  0  0  0  0  0  0  0  0  0
    2.4184   -1.1942   -4.3138 H   0  0  0  0  0  0  0  0  0  0  0  0
    2.0510   -9.3302    3.1194 H   0  0  0  0  0  0  0  0  0  0  0  0
   -0.3702  -10.4022    3.8695 H   0  0  0  0  0  0  0  0  0  0  0  0
   -2.2247   -8.7327    2.7496 H   0  0  0  0  0  0  0  0  0  0  0  0
  1  2  1  0
  2 20  1  0
  2  3  2  0
  3  4  1  0
  3 21  1  0
  4  5  1  0
  4 10  2  0
  5  9  1  0
  5  6  2  0
  6  7  1  0
  6 22  1  0
  7  8  2  0
  7 23  1  0
  8  9  1  0
  8 24  1  0
 10 11  1  0
 11 20  1  0
 11 12  2  0
 12 13  1  0
 13 14  1  0
 13 19  2  0
 14 18  1  0
 14 15  2  0
 15 16  1  0
 15 25  1  0
 16 17  2  0
 16 26  1  0
 17 18  1  0
 17 27  1  0
 19 20  1  0
M  CHG  1   1  -1
M  END
>  <i_m_ct_stereo_status>  (278) 
1

>  <s_m_source_file>  (278) 
/var/tmp/pbs.5076255.sched01/tmppxgjifq_/8475v0iq0b.sdf

>  <i_m_source_file_index>  (278) 
37

>  <i_lp_mmshare_version>  (278) 
48012

>  <i_f3d_flags>  (278) 
0

>  <s_epik_input>  (278) 
bzFbY0hdW2NIXVtjSF1jMS1jKG4yKVtjSF1jKD1PKW4oYzIzKVtuSF1jKG4zKS1jNFtjSF1bY0hdW2NIXW80

>  <s_epik_cmdline>  (278) 
J2VwaWtfcHl0aG9uJywgJy1waHQnLCAnMi4wJywgJy1waCcsICc3LjAnLCAnLXRuJywgJzgnLCAnLW1hJywgJzIwMCcsICctaW1hZScsICc8aW5maWxlLm1hZT4nLCAnLW9tYWUnLCAnPG91dGZpbGUubWFlPic=

>  <r_epik_Ionization_Penalty>  (278) 
0.043046

>  <r_epik_Ionization_Penalty_Charging>  (278) 
1.39846e-12

>  <r_epik_Ionization_Penalty_Neutral>  (278) 
0.043046

>  <r_epik_State_Penalty>  (278) 
0.0363931

>  <r_epik_Charging_Adjusted_Penalty>  (278) 
0.0363931

>  <i_epik_Tot_Q>  (278) 
-1

>  <i_epik_Tot_abs_Q>  (278) 
1

>  <s_lp_Force_Field>  (278) 
OPLS3e

>  <r_lp_Energy>  (278) 
13.802

>  <b_lp_Chiralities_Consistent>  (278) 
1

>  <s_lp_Variant>  (278) 
80:0-1

>  <s_i_glide_gridfile>  (278) 
pfpi4k_grid

>  <i_i_glide_lignum>  (278) 
37

>  <i_i_glide_rotatable_bonds>  (278) 
2

>  <r_i_docking_score>  (278) 
-3.45865

>  <r_i_glide_ligand_efficiency>  (278) 
-0.172933

>  <r_i_glide_ligand_efficiency_sa>  (278) 
-0.469411

>  <r_i_glide_ligand_efficiency_ln>  (278) 
-0.865586

>  <r_i_glide_gscore>  (278) 
-3.45865

>  <r_i_glide_lipo>  (278) 
-0.372111

>  <r_i_glide_hbond>  (278) 
-0.16

>  <r_i_glide_metal>  (278) 
-0

>  <r_i_glide_rewards>  (278) 
-1.58714

>  <r_i_glide_evdw>  (278) 
-25.1416

>  <r_i_glide_ecoul>  (278) 
-3.14265

>  <r_i_glide_erotb>  (278) 
0.499346

>  <r_i_glide_esite>  (278) 
-0.110272

>  <r_i_glide_emodel>  (278) 
-35.0177

>  <r_i_glide_energy>  (278) 
-28.2842

>  <r_i_glide_einternal>  (278) 
1.3941

>  <r_i_glide_intrahb_reward>  (278) 
-0

>  <i_i_glide_confnum>  (278) 
3

>  <i_i_glide_posenum>  (278) 
2

>  <r_i_glide_eff_state_penalty>  (278) 
0

>  <ligand_id>  (278) 
80

>  <original_smiles>  (278) 
O=c1cc(-c2ccco2)nc2nc(-c3ccco3)[nH]n12

>  <smiles>  (278) 
[H]c1oc(-c2nc3nc(-c4oc([H])c([H])c4[H])c([H])c([O-])n3n2)c([H])c1[H]

$$$$
80:0:1
     RDKit          3D

 27 30  0  0  1  0  0  0  0  0999 V2000
    5.6274   -5.4109    1.4805 O   0  0  0  0  0  0  0  0  0  0  0  0
    4.5461   -4.9994    0.7502 C   0  0  0  0  0  0  0  0  0  0  0  0
    4.6071   -3.9682   -0.1544 C   0  0  0  0  0  0  0  0  0  0  0  0
    3.4268   -3.6106   -0.8573 C   0  0  0  0  0  0  0  0  0  0  0  0
    3.4469   -2.5437   -1.8600 C   0  0  0  0  0  0  0  0  0  0  0  0
    2.7154   -2.3037   -2.9978 C   0  0  0  0  0  0  0  0  0  0  0  0
    3.2121   -1.0884   -3.5537 C   0  0  0  0  0  0  0  0  0  0  0  0
    4.2151   -0.6791   -2.7222 C   0  0  0  0  0  0  0  0  0  0  0  0
    4.3921   -1.5698   -1.7083 O   0  0  0  0  0  0  0  0  0  0  0  0
    2.2520   -4.2222   -0.6790 N   0  0  0  0  0  0  0  0  0  0  0  0
    2.2139   -5.2373    0.2014 C   0  0  0  0  0  0  0  0  0  0  0  0
    1.1794   -5.9967    0.5732 N   0  0  0  0  0  0  0  0  0  0  0  0
    1.7439   -6.8093    1.5126 C   0  0  0  0  0  0  0  0  0  0  0  0
    0.9491   -7.8163    2.2263 C   0  0  0  0  0  0  0  0  0  0  0  0
   -0.3648   -8.2103    2.1577 C   0  0  0  0  0  0  0  0  0  0  0  0
   -0.5376   -9.2614    3.1048 C   0  0  0  0  0  0  0  0  0  0  0  0
    0.6813   -9.4348    3.6956 C   0  0  0  0  0  0  0  0  0  0  0  0
    1.5931   -8.5682    3.1717 O   0  0  0  0  0  0  0  0  0  0  0  0
    3.0340   -6.6460    1.7777 N   0  0  0  0  0  0  0  0  0  0  0  0
    3.3519   -5.6270    0.9305 N   0  0  0  0  0  0  0  0  0  0  0  0
    5.5437   -3.4622   -0.3372 H   0  0  0  0  0  0  0  0  0  0  0  0
    1.9107   -2.9216   -3.3732 H   0  0  0  0  0  0  0  0  0  0  0  0
    2.8696   -0.5559   -4.4312 H   0  0  0  0  0  0  0  0  0  0  0  0
    4.8629    0.1839   -2.7041 H   0  0  0  0  0  0  0  0  0  0  0  0
   -1.1080   -7.8103    1.4841 H   0  0  0  0  0  0  0  0  0  0  0  0
   -1.4287   -9.8344    3.3242 H   0  0  0  0  0  0  0  0  0  0  0  0
    1.0511  -10.1020    4.4627 H   0  0  0  0  0  0  0  0  0  0  0  0
  1  2  1  0
  2 20  1  0
  2  3  2  0
  3  4  1  0
  3 21  1  0
  4  5  1  0
  4 10  2  0
  5  9  1  0
  5  6  2  0
  6  7  1  0
  6 22  1  0
  7  8  2  0
  7 23  1  0
  8  9  1  0
  8 24  1  0
 10 11  1  0
 11 20  1  0
 11 12  2  0
 12 13  1  0
 13 14  1  0
 13 19  2  0
 14 18  1  0
 14 15  2  0
 15 16  1  0
 15 25  1  0
 16 17  2  0
 16 26  1  0
 17 18  1  0
 17 27  1  0
 19 20  1  0
M  CHG  1   1  -1
M  END
>  <i_m_ct_stereo_status>  (279) 
1

>  <s_m_source_file>  (279) 
/var/tmp/pbs.5076255.sched01/tmppxgjifq_/8475v0iq0b.sdf

>  <i_m_source_file_index>  (279) 
37

>  <i_lp_mmshare_version>  (279) 
48012

>  <i_f3d_flags>  (279) 
0

>  <s_epik_input>  (279) 
bzFbY0hdW2NIXVtjSF1jMS1jKG4yKVtjSF1jKD1PKW4oYzIzKVtuSF1jKG4zKS1jNFtjSF1bY0hdW2NIXW80

>  <s_epik_cmdline>  (279) 
J2VwaWtfcHl0aG9uJywgJy1waHQnLCAnMi4wJywgJy1waCcsICc3LjAnLCAnLXRuJywgJzgnLCAnLW1hJywgJzIwMCcsICctaW1hZScsICc8aW5maWxlLm1hZT4nLCAnLW9tYWUnLCAnPG91dGZpbGUubWFlPic=

>  <r_epik_Ionization_Penalty>  (279) 
0.043046

>  <r_epik_Ionization_Penalty_Charging>  (279) 
1.39846e-12

>  <r_epik_Ionization_Penalty_Neutral>  (279) 
0.043046

>  <r_epik_State_Penalty>  (279) 
0.0363931

>  <r_epik_Charging_Adjusted_Penalty>  (279) 
0.0363931

>  <i_epik_Tot_Q>  (279) 
-1

>  <i_epik_Tot_abs_Q>  (279) 
1

>  <s_lp_Force_Field>  (279) 
OPLS3e

>  <r_lp_Energy>  (279) 
13.802

>  <b_lp_Chiralities_Consistent>  (279) 
1

>  <s_lp_Variant>  (279) 
80:0-1

>  <s_i_glide_gridfile>  (279) 
pfpi4k_grid

>  <i_i_glide_lignum>  (279) 
37

>  <i_i_glide_rotatable_bonds>  (279) 
2

>  <r_i_docking_score>  (279) 
-3.42165

>  <r_i_glide_ligand_efficiency>  (279) 
-0.171082

>  <r_i_glide_ligand_efficiency_sa>  (279) 
-0.464389

>  <r_i_glide_ligand_efficiency_ln>  (279) 
-0.856325

>  <r_i_glide_gscore>  (279) 
-3.42165

>  <r_i_glide_lipo>  (279) 
-0.39711

>  <r_i_glide_hbond>  (279) 
-0.16

>  <r_i_glide_metal>  (279) 
-0

>  <r_i_glide_rewards>  (279) 
-1.58714

>  <r_i_glide_evdw>  (279) 
-23.7805

>  <r_i_glide_ecoul>  (279) 
-3.19475

>  <r_i_glide_erotb>  (279) 
0.499346

>  <r_i_glide_esite>  (279) 
-0.108507

>  <r_i_glide_emodel>  (279) 
-33.604

>  <r_i_glide_energy>  (279) 
-26.9752

>  <r_i_glide_einternal>  (279) 
1.33127

>  <r_i_glide_intrahb_reward>  (279) 
-0

>  <i_i_glide_confnum>  (279) 
6

>  <i_i_glide_posenum>  (279) 
12

>  <r_i_glide_eff_state_penalty>  (279) 
0

>  <ligand_id>  (279) 
80

>  <original_smiles>  (279) 
O=c1cc(-c2ccco2)nc2nc(-c3ccco3)[nH]n12

>  <smiles>  (279) 
[H]c1oc(-c2nc3nc(-c4oc([H])c([H])c4[H])c([H])c([O-])n3n2)c([H])c1[H]

$$$$
80:0:2
     RDKit          3D

 27 30  0  0  1  0  0  0  0  0999 V2000
    5.6819   -6.0099    1.2949 O   0  0  0  0  0  0  0  0  0  0  0  0
    4.6166   -5.3990    0.6901 C   0  0  0  0  0  0  0  0  0  0  0  0
    4.7526   -4.3024   -0.1253 C   0  0  0  0  0  0  0  0  0  0  0  0
    3.5870   -3.7446   -0.7123 C   0  0  0  0  0  0  0  0  0  0  0  0
    3.6859   -2.6012   -1.6228 C   0  0  0  0  0  0  0  0  0  0  0  0
    2.9524   -2.2021   -2.7091 C   0  0  0  0  0  0  0  0  0  0  0  0
    3.5402   -0.9927   -3.1815 C   0  0  0  0  0  0  0  0  0  0  0  0
    4.6037   -0.7541   -2.3613 C   0  0  0  0  0  0  0  0  0  0  0  0
    4.7274   -1.7381   -1.4299 O   0  0  0  0  0  0  0  0  0  0  0  0
    2.3565   -4.2180   -0.5006 N   0  0  0  0  0  0  0  0  0  0  0  0
    2.2411   -5.2961    0.2958 C   0  0  0  0  0  0  0  0  0  0  0  0
    1.1427   -5.9563    0.6724 N   0  0  0  0  0  0  0  0  0  0  0  0
    1.6605   -6.9196    1.4888 C   0  0  0  0  0  0  0  0  0  0  0  0
    0.8009   -7.8986    2.1564 C   0  0  0  0  0  0  0  0  0  0  0  0
    1.0722   -9.0285    2.8839 C   0  0  0  0  0  0  0  0  0  0  0  0
   -0.1829   -9.5795    3.2732 C   0  0  0  0  0  0  0  0  0  0  0  0
   -1.1340   -8.7502    2.7572 C   0  0  0  0  0  0  0  0  0  0  0  0
   -0.5563   -7.7183    2.0757 O   0  0  0  0  0  0  0  0  0  0  0  0
    2.9730   -6.9465    1.6681 N   0  0  0  0  0  0  0  0  0  0  0  0
    3.3638   -5.8905    0.9005 N   0  0  0  0  0  0  0  0  0  0  0  0
    5.7336   -3.9003   -0.3321 H   0  0  0  0  0  0  0  0  0  0  0  0
    2.0814   -2.7087   -3.1011 H   0  0  0  0  0  0  0  0  0  0  0  0
    3.2248   -0.3577   -3.9994 H   0  0  0  0  0  0  0  0  0  0  0  0
    5.3298    0.0422   -2.3117 H   0  0  0  0  0  0  0  0  0  0  0  0
    2.0564   -9.4184    3.1031 H   0  0  0  0  0  0  0  0  0  0  0  0
   -0.3712  -10.4726    3.8516 H   0  0  0  0  0  0  0  0  0  0  0  0
   -2.2140   -8.7568    2.7807 H   0  0  0  0  0  0  0  0  0  0  0  0
  1  2  1  0
  2 20  1  0
  2  3  2  0
  3  4  1  0
  3 21  1  0
  4  5  1  0
  4 10  2  0
  5  9  1  0
  5  6  2  0
  6  7  1  0
  6 22  1  0
  7  8  2  0
  7 23  1  0
  8  9  1  0
  8 24  1  0
 10 11  1  0
 11 20  1  0
 11 12  2  0
 12 13  1  0
 13 14  1  0
 13 19  2  0
 14 18  1  0
 14 15  2  0
 15 16  1  0
 15 25  1  0
 16 17  2  0
 16 26  1  0
 17 18  1  0
 17 27  1  0
 19 20  1  0
M  CHG  1   1  -1
M  END
>  <i_m_ct_stereo_status>  (280) 
1

>  <s_m_source_file>  (280) 
/var/tmp/pbs.5076255.sched01/tmppxgjifq_/8475v0iq0b.sdf

>  <i_m_source_file_index>  (280) 
37

>  <i_lp_mmshare_version>  (280) 
48012

>  <i_f3d_flags>  (280) 
0

>  <s_epik_input>  (280) 
bzFbY0hdW2NIXVtjSF1jMS1jKG4yKVtjSF1jKD1PKW4oYzIzKVtuSF1jKG4zKS1jNFtjSF1bY0hdW2NIXW80

>  <s_epik_cmdline>  (280) 
J2VwaWtfcHl0aG9uJywgJy1waHQnLCAnMi4wJywgJy1waCcsICc3LjAnLCAnLXRuJywgJzgnLCAnLW1hJywgJzIwMCcsICctaW1hZScsICc8aW5maWxlLm1hZT4nLCAnLW9tYWUnLCAnPG91dGZpbGUubWFlPic=

>  <r_epik_Ionization_Penalty>  (280) 
0.043046

>  <r_epik_Ionization_Penalty_Charging>  (280) 
1.39846e-12

>  <r_epik_Ionization_Penalty_Neutral>  (280) 
0.043046

>  <r_epik_State_Penalty>  (280) 
0.0363931

>  <r_epik_Charging_Adjusted_Penalty>  (280) 
0.0363931

>  <i_epik_Tot_Q>  (280) 
-1

>  <i_epik_Tot_abs_Q>  (280) 
1

>  <s_lp_Force_Field>  (280) 
OPLS3e

>  <r_lp_Energy>  (280) 
13.802

>  <b_lp_Chiralities_Consistent>  (280) 
1

>  <s_lp_Variant>  (280) 
80:0-1

>  <s_i_glide_gridfile>  (280) 
pfpi4k_grid

>  <i_i_glide_lignum>  (280) 
37

>  <i_i_glide_rotatable_bonds>  (280) 
2

>  <r_i_docking_score>  (280) 
-3.32404

>  <r_i_glide_ligand_efficiency>  (280) 
-0.166202

>  <r_i_glide_ligand_efficiency_sa>  (280) 
-0.451141

>  <r_i_glide_ligand_efficiency_ln>  (280) 
-0.831897

>  <r_i_glide_gscore>  (280) 
-3.32404

>  <r_i_glide_lipo>  (280) 
-0.172689

>  <r_i_glide_hbond>  (280) 
-0.16

>  <r_i_glide_metal>  (280) 
-0

>  <r_i_glide_rewards>  (280) 
-1.5917

>  <r_i_glide_evdw>  (280) 
-24.6717

>  <r_i_glide_ecoul>  (280) 
-3.7391

>  <r_i_glide_erotb>  (280) 
0.499346

>  <r_i_glide_esite>  (280) 
-0.104552

>  <r_i_glide_emodel>  (280) 
-34.6794

>  <r_i_glide_energy>  (280) 
-28.4108

>  <r_i_glide_einternal>  (280) 
1.62717

>  <r_i_glide_intrahb_reward>  (280) 
-0

>  <i_i_glide_confnum>  (280) 
3

>  <i_i_glide_posenum>  (280) 
40

>  <r_i_glide_eff_state_penalty>  (280) 
0

>  <ligand_id>  (280) 
80

>  <original_smiles>  (280) 
O=c1cc(-c2ccco2)nc2nc(-c3ccco3)[nH]n12

>  <smiles>  (280) 
[H]c1oc(-c2nc3nc(-c4oc([H])c([H])c4[H])c([H])c([O-])n3n2)c([H])c1[H]

$$$$
80:1:0
     RDKit          3D

 28 31  0  0  1  0  0  0  0  0999 V2000
    4.8260    0.2558    4.1534 O   0  0  0  0  0  0  0  0  0  0  0  0
    4.1989    0.0020    3.1235 C   0  0  0  0  0  0  0  0  0  0  0  0
    4.7507   -0.7048    1.9852 C   0  0  0  0  0  0  0  0  0  0  0  0
    3.9557   -0.9224    0.9045 C   0  0  0  0  0  0  0  0  0  0  0  0
    4.4951   -1.6087   -0.2238 C   0  0  0  0  0  0  0  0  0  0  0  0
    3.8180   -1.9751   -1.3557 C   0  0  0  0  0  0  0  0  0  0  0  0
    4.7979   -2.6451   -2.1551 C   0  0  0  0  0  0  0  0  0  0  0  0
    5.9633   -2.6288   -1.4441 C   0  0  0  0  0  0  0  0  0  0  0  0
    5.7985   -1.9935   -0.2572 O   0  0  0  0  0  0  0  0  0  0  0  0
    2.6342   -0.4560    0.9153 N   0  0  0  0  0  0  0  0  0  0  0  0
    2.0911    0.2384    2.0025 C   0  0  0  0  0  0  0  0  0  0  0  0
    0.8466    0.7048    2.1129 N   0  0  0  0  0  0  0  0  0  0  0  0
    0.9611    1.2568    3.3654 C   0  0  0  0  0  0  0  0  0  0  0  0
   -0.1674    1.9306    4.0058 C   0  0  0  0  0  0  0  0  0  0  0  0
   -1.4273    2.2257    3.5850 C   0  0  0  0  0  0  0  0  0  0  0  0
   -2.0641    2.8961    4.6747 C   0  0  0  0  0  0  0  0  0  0  0  0
   -1.1427    2.9567    5.6735 C   0  0  0  0  0  0  0  0  0  0  0  0
    0.0221    2.3749    5.2868 O   0  0  0  0  0  0  0  0  0  0  0  0
    2.1145    1.1436    4.0263 N   0  0  0  0  0  0  0  0  0  0  0  0
    2.8390    0.4731    3.1014 N   0  0  0  0  0  0  0  0  0  0  0  0
    5.7765   -1.0365    2.0293 H   0  0  0  0  0  0  0  0  0  0  0  0
    2.7765   -1.8081   -1.5956 H   0  0  0  0  0  0  0  0  0  0  0  0
    4.6759   -3.0993   -3.1320 H   0  0  0  0  0  0  0  0  0  0  0  0
    6.9612   -3.0099   -1.6159 H   0  0  0  0  0  0  0  0  0  0  0  0
   -1.8296    1.9843    2.6067 H   0  0  0  0  0  0  0  0  0  0  0  0
   -3.0715    3.2822    4.7152 H   0  0  0  0  0  0  0  0  0  0  0  0
   -1.1293    3.3541    6.6762 H   0  0  0  0  0  0  0  0  0  0  0  0
    1.9816   -0.6565    0.1437 H   0  0  0  0  0  0  0  0  0  0  0  0
  1  2  2  0
  2 20  1  0
  2  3  1  0
  3  4  2  0
  3 21  1  0
  4  5  1  0
  4 10  1  0
  5  9  1  0
  5  6  2  0
  6  7  1  0
  6 22  1  0
  7  8  2  0
  7 23  1  0
  8  9  1  0
  8 24  1  0
 10 11  1  0
 10 28  1  0
 11 20  1  0
 11 12  2  0
 12 13  1  0
 13 14  1  0
 13 19  2  0
 14 18  1  0
 14 15  2  0
 15 16  1  0
 15 25  1  0
 16 17  2  0
 16 26  1  0
 17 18  1  0
 17 27  1  0
 19 20  1  0
M  END
>  <i_m_ct_stereo_status>  (281) 
1

>  <s_m_source_file>  (281) 
/var/tmp/pbs.5076255.sched01/tmppxgjifq_/8475v0iq0b.sdf

>  <i_m_source_file_index>  (281) 
38

>  <i_lp_mmshare_version>  (281) 
48012

>  <i_f3d_flags>  (281) 
0

>  <s_epik_input>  (281) 
bzFbY0hdW2NIXVtjSF1jMS1jKG4yKVtjSF1jKD1PKW4oYzIzKVtuSF1jKG4zKS1jNFtjSF1bY0hdW2NIXW80

>  <s_epik_cmdline>  (281) 
J2VwaWtfcHl0aG9uJywgJy1waHQnLCAnMi4wJywgJy1waCcsICc3LjAnLCAnLXRuJywgJzgnLCAnLW1hJywgJzIwMCcsICctaW1hZScsICc8aW5maWxlLm1hZT4nLCAnLW9tYWUnLCAnPG91dGZpbGUubWFlPic=

>  <r_epik_Ionization_Penalty>  (281) 
1.57499

>  <r_epik_Ionization_Penalty_Charging>  (281) 
1.57499

>  <r_epik_Ionization_Penalty_Neutral>  (281) 
1.24907e-06

>  <r_epik_State_Penalty>  (281) 
1.67111

>  <r_epik_Charging_Adjusted_Penalty>  (281) 
3.2461

>  <i_epik_Tot_Q>  (281) 
0

>  <i_epik_Tot_abs_Q>  (281) 
0

>  <s_lp_Force_Field>  (281) 
OPLS3e

>  <r_lp_Energy>  (281) 
15.7245

>  <b_lp_Chiralities_Consistent>  (281) 
1

>  <s_lp_Variant>  (281) 
80:0-2

>  <s_i_glide_gridfile>  (281) 
pfpi4k_grid

>  <i_i_glide_lignum>  (281) 
38

>  <i_i_glide_rotatable_bonds>  (281) 
2

>  <r_i_docking_score>  (281) 
-3.47339

>  <r_i_glide_ligand_efficiency>  (281) 
-0.17367

>  <r_i_glide_ligand_efficiency_sa>  (281) 
-0.471412

>  <r_i_glide_ligand_efficiency_ln>  (281) 
-0.869276

>  <r_i_glide_gscore>  (281) 
-3.47339

>  <r_i_glide_lipo>  (281) 
-0.180317

>  <r_i_glide_hbond>  (281) 
-0.16

>  <r_i_glide_metal>  (281) 
-0

>  <r_i_glide_rewards>  (281) 
-1.58746

>  <r_i_glide_evdw>  (281) 
-22.6336

>  <r_i_glide_ecoul>  (281) 
-5.20302

>  <r_i_glide_erotb>  (281) 
0.496108

>  <r_i_glide_esite>  (281) 
-0.129593

>  <r_i_glide_emodel>  (281) 
-34.4225

>  <r_i_glide_energy>  (281) 
-27.8367

>  <r_i_glide_einternal>  (281) 
0.0487989

>  <r_i_glide_intrahb_reward>  (281) 
-0

>  <i_i_glide_confnum>  (281) 
5

>  <i_i_glide_posenum>  (281) 
9

>  <r_i_glide_eff_state_penalty>  (281) 
0

>  <ligand_id>  (281) 
80

>  <original_smiles>  (281) 
O=c1cc(-c2ccco2)nc2nc(-c3ccco3)[nH]n12

>  <smiles>  (281) 
[H]c1oc(-c2nc3n([H])c(-c4oc([H])c([H])c4[H])c([H])c(=O)n3n2)c([H])c1[H]

$$$$
80:1:1
     RDKit          3D

 28 31  0  0  1  0  0  0  0  0999 V2000
    5.1564    0.1612    4.5227 O   0  0  0  0  0  0  0  0  0  0  0  0
    4.2443    0.1507    3.6935 C   0  0  0  0  0  0  0  0  0  0  0  0
    2.9228    0.7073    3.9130 C   0  0  0  0  0  0  0  0  0  0  0  0
    2.0197    0.6522    2.9055 C   0  0  0  0  0  0  0  0  0  0  0  0
    0.6980    1.1379    3.1310 C   0  0  0  0  0  0  0  0  0  0  0  0
   -0.2476    1.3859    2.1808 C   0  0  0  0  0  0  0  0  0  0  0  0
   -1.3626    1.8990    2.9133 C   0  0  0  0  0  0  0  0  0  0  0  0
   -0.9980    1.9124    4.2266 C   0  0  0  0  0  0  0  0  0  0  0  0
    0.2721    1.4565    4.3830 O   0  0  0  0  0  0  0  0  0  0  0  0
    2.3659    0.0464    1.6913 N   0  0  0  0  0  0  0  0  0  0  0  0
    3.6378   -0.4957    1.4644 C   0  0  0  0  0  0  0  0  0  0  0  0
    4.0693   -1.0817    0.3480 N   0  0  0  0  0  0  0  0  0  0  0  0
    5.3494   -1.3630    0.7686 C   0  0  0  0  0  0  0  0  0  0  0  0
    6.3089   -2.0338   -0.1009 C   0  0  0  0  0  0  0  0  0  0  0  0
    7.6389   -2.3151    0.0404 C   0  0  0  0  0  0  0  0  0  0  0  0
    8.0267   -2.9962   -1.1490 C   0  0  0  0  0  0  0  0  0  0  0  0
    6.9116   -3.0572   -1.9189 C   0  0  0  0  0  0  0  0  0  0  0  0
    5.8549   -2.4638   -1.3104 O   0  0  0  0  0  0  0  0  0  0  0  0
    5.7256   -1.0142    1.9941 N   0  0  0  0  0  0  0  0  0  0  0  0
    4.5722   -0.4476    2.4281 N   0  0  0  0  0  0  0  0  0  0  0  0
    2.6934    1.1446    4.8738 H   0  0  0  0  0  0  0  0  0  0  0  0
   -0.1678    1.2590    1.1083 H   0  0  0  0  0  0  0  0  0  0  0  0
   -2.3245    2.2262    2.5326 H   0  0  0  0  0  0  0  0  0  0  0  0
   -1.4822    2.2095    5.1470 H   0  0  0  0  0  0  0  0  0  0  0  0
    8.2566   -2.0562    0.8759 H   0  0  0  0  0  0  0  0  0  0  0  0
    9.0045   -3.3709   -1.4124 H   0  0  0  0  0  0  0  0  0  0  0  0
    6.6985   -3.4569   -2.8987 H   0  0  0  0  0  0  0  0  0  0  0  0
    1.6865   -0.0486    0.9449 H   0  0  0  0  0  0  0  0  0  0  0  0
  1  2  2  0
  2 20  1  0
  2  3  1  0
  3  4  2  0
  3 21  1  0
  4  5  1  0
  4 10  1  0
  5  9  1  0
  5  6  2  0
  6  7  1  0
  6 22  1  0
  7  8  2  0
  7 23  1  0
  8  9  1  0
  8 24  1  0
 10 11  1  0
 10 28  1  0
 11 20  1  0
 11 12  2  0
 12 13  1  0
 13 14  1  0
 13 19  2  0
 14 18  1  0
 14 15  2  0
 15 16  1  0
 15 25  1  0
 16 17  2  0
 16 26  1  0
 17 18  1  0
 17 27  1  0
 19 20  1  0
M  END
>  <i_m_ct_stereo_status>  (282) 
1

>  <s_m_source_file>  (282) 
/var/tmp/pbs.5076255.sched01/tmppxgjifq_/8475v0iq0b.sdf

>  <i_m_source_file_index>  (282) 
38

>  <i_lp_mmshare_version>  (282) 
48012

>  <i_f3d_flags>  (282) 
0

>  <s_epik_input>  (282) 
bzFbY0hdW2NIXVtjSF1jMS1jKG4yKVtjSF1jKD1PKW4oYzIzKVtuSF1jKG4zKS1jNFtjSF1bY0hdW2NIXW80

>  <s_epik_cmdline>  (282) 
J2VwaWtfcHl0aG9uJywgJy1waHQnLCAnMi4wJywgJy1waCcsICc3LjAnLCAnLXRuJywgJzgnLCAnLW1hJywgJzIwMCcsICctaW1hZScsICc8aW5maWxlLm1hZT4nLCAnLW9tYWUnLCAnPG91dGZpbGUubWFlPic=

>  <r_epik_Ionization_Penalty>  (282) 
1.57499

>  <r_epik_Ionization_Penalty_Charging>  (282) 
1.57499

>  <r_epik_Ionization_Penalty_Neutral>  (282) 
1.24907e-06

>  <r_epik_State_Penalty>  (282) 
1.67111

>  <r_epik_Charging_Adjusted_Penalty>  (282) 
3.2461

>  <i_epik_Tot_Q>  (282) 
0

>  <i_epik_Tot_abs_Q>  (282) 
0

>  <s_lp_Force_Field>  (282) 
OPLS3e

>  <r_lp_Energy>  (282) 
15.7245

>  <b_lp_Chiralities_Consistent>  (282) 
1

>  <s_lp_Variant>  (282) 
80:0-2

>  <s_i_glide_gridfile>  (282) 
pfpi4k_grid

>  <i_i_glide_lignum>  (282) 
38

>  <i_i_glide_rotatable_bonds>  (282) 
2

>  <r_i_docking_score>  (282) 
-3.25547

>  <r_i_glide_ligand_efficiency>  (282) 
-0.162774

>  <r_i_glide_ligand_efficiency_sa>  (282) 
-0.441836

>  <r_i_glide_ligand_efficiency_ln>  (282) 
-0.814738

>  <r_i_glide_gscore>  (282) 
-3.25547

>  <r_i_glide_lipo>  (282) 
-0.0578698

>  <r_i_glide_hbond>  (282) 
-0.101558

>  <r_i_glide_metal>  (282) 
-0

>  <r_i_glide_rewards>  (282) 
-1.83386

>  <r_i_glide_evdw>  (282) 
-26.4429

>  <r_i_glide_ecoul>  (282) 
-2.57814

>  <r_i_glide_erotb>  (282) 
0.496108

>  <r_i_glide_esite>  (282) 
-0.0494238

>  <r_i_glide_emodel>  (282) 
-35.0737

>  <r_i_glide_energy>  (282) 
-29.0211

>  <r_i_glide_einternal>  (282) 
0.32345

>  <r_i_glide_intrahb_reward>  (282) 
-0

>  <i_i_glide_confnum>  (282) 
5

>  <i_i_glide_posenum>  (282) 
1

>  <r_i_glide_eff_state_penalty>  (282) 
0

>  <ligand_id>  (282) 
80

>  <original_smiles>  (282) 
O=c1cc(-c2ccco2)nc2nc(-c3ccco3)[nH]n12

>  <smiles>  (282) 
[H]c1oc(-c2nc3n([H])c(-c4oc([H])c([H])c4[H])c([H])c(=O)n3n2)c([H])c1[H]

$$$$
80:1:2
     RDKit          3D

 28 31  0  0  1  0  0  0  0  0999 V2000
    4.9836    0.3086    4.6228 O   0  0  0  0  0  0  0  0  0  0  0  0
    4.0874    0.2999    3.7763 C   0  0  0  0  0  0  0  0  0  0  0  0
    2.7642    0.8569    3.9691 C   0  0  0  0  0  0  0  0  0  0  0  0
    1.8771    0.7978    2.9447 C   0  0  0  0  0  0  0  0  0  0  0  0
    0.5569    1.2981    3.1435 C   0  0  0  0  0  0  0  0  0  0  0  0
   -0.3887    1.4999    2.1801 C   0  0  0  0  0  0  0  0  0  0  0  0
   -1.5029    2.0508    2.8863 C   0  0  0  0  0  0  0  0  0  0  0  0
   -1.1408    2.1217    4.1973 C   0  0  0  0  0  0  0  0  0  0  0  0
    0.1268    1.6717    4.3780 O   0  0  0  0  0  0  0  0  0  0  0  0
    2.2475    0.1876    1.7414 N   0  0  0  0  0  0  0  0  0  0  0  0
    3.5200   -0.3579    1.5404 C   0  0  0  0  0  0  0  0  0  0  0  0
    3.9710   -0.9545    0.4332 N   0  0  0  0  0  0  0  0  0  0  0  0
    5.2442   -1.2256    0.8748 C   0  0  0  0  0  0  0  0  0  0  0  0
    6.2144   -1.8999    0.0128 C   0  0  0  0  0  0  0  0  0  0  0  0
    6.1055   -2.5094   -1.1972 C   0  0  0  0  0  0  0  0  0  0  0  0
    7.4140   -2.9832   -1.5158 C   0  0  0  0  0  0  0  0  0  0  0  0
    8.2160   -2.6306   -0.4790 C   0  0  0  0  0  0  0  0  0  0  0  0
    7.5043   -1.9646    0.4682 O   0  0  0  0  0  0  0  0  0  0  0  0
    5.5981   -0.8729    2.1071 N   0  0  0  0  0  0  0  0  0  0  0  0
    4.4397   -0.3058    2.5195 N   0  0  0  0  0  0  0  0  0  0  0  0
    2.5211    1.3008    4.9235 H   0  0  0  0  0  0  0  0  0  0  0  0
   -0.3143    1.3224    1.1163 H   0  0  0  0  0  0  0  0  0  0  0  0
   -2.4662    2.3525    2.4890 H   0  0  0  0  0  0  0  0  0  0  0  0
   -1.6283    2.4579    5.1035 H   0  0  0  0  0  0  0  0  0  0  0  0
    5.1911   -2.6077   -1.7718 H   0  0  0  0  0  0  0  0  0  0  0  0
    7.7299   -3.5178   -2.3959 H   0  0  0  0  0  0  0  0  0  0  0  0
    9.2690   -2.7381   -0.2642 H   0  0  0  0  0  0  0  0  0  0  0  0
    1.5824    0.0978    0.9803 H   0  0  0  0  0  0  0  0  0  0  0  0
  1  2  2  0
  2 20  1  0
  2  3  1  0
  3  4  2  0
  3 21  1  0
  4  5  1  0
  4 10  1  0
  5  9  1  0
  5  6  2  0
  6  7  1  0
  6 22  1  0
  7  8  2  0
  7 23  1  0
  8  9  1  0
  8 24  1  0
 10 11  1  0
 10 28  1  0
 11 20  1  0
 11 12  2  0
 12 13  1  0
 13 14  1  0
 13 19  2  0
 14 18  1  0
 14 15  2  0
 15 16  1  0
 15 25  1  0
 16 17  2  0
 16 26  1  0
 17 18  1  0
 17 27  1  0
 19 20  1  0
M  END
>  <i_m_ct_stereo_status>  (283) 
1

>  <s_m_source_file>  (283) 
/var/tmp/pbs.5076255.sched01/tmppxgjifq_/8475v0iq0b.sdf

>  <i_m_source_file_index>  (283) 
38

>  <i_lp_mmshare_version>  (283) 
48012

>  <i_f3d_flags>  (283) 
0

>  <s_epik_input>  (283) 
bzFbY0hdW2NIXVtjSF1jMS1jKG4yKVtjSF1jKD1PKW4oYzIzKVtuSF1jKG4zKS1jNFtjSF1bY0hdW2NIXW80

>  <s_epik_cmdline>  (283) 
J2VwaWtfcHl0aG9uJywgJy1waHQnLCAnMi4wJywgJy1waCcsICc3LjAnLCAnLXRuJywgJzgnLCAnLW1hJywgJzIwMCcsICctaW1hZScsICc8aW5maWxlLm1hZT4nLCAnLW9tYWUnLCAnPG91dGZpbGUubWFlPic=

>  <r_epik_Ionization_Penalty>  (283) 
1.57499

>  <r_epik_Ionization_Penalty_Charging>  (283) 
1.57499

>  <r_epik_Ionization_Penalty_Neutral>  (283) 
1.24907e-06

>  <r_epik_State_Penalty>  (283) 
1.67111

>  <r_epik_Charging_Adjusted_Penalty>  (283) 
3.2461

>  <i_epik_Tot_Q>  (283) 
0

>  <i_epik_Tot_abs_Q>  (283) 
0

>  <s_lp_Force_Field>  (283) 
OPLS3e

>  <r_lp_Energy>  (283) 
15.7245

>  <b_lp_Chiralities_Consistent>  (283) 
1

>  <s_lp_Variant>  (283) 
80:0-2

>  <s_i_glide_gridfile>  (283) 
pfpi4k_grid

>  <i_i_glide_lignum>  (283) 
38

>  <i_i_glide_rotatable_bonds>  (283) 
2

>  <r_i_docking_score>  (283) 
-3.1775

>  <r_i_glide_ligand_efficiency>  (283) 
-0.158875

>  <r_i_glide_ligand_efficiency_sa>  (283) 
-0.431253

>  <r_i_glide_ligand_efficiency_ln>  (283) 
-0.795224

>  <r_i_glide_gscore>  (283) 
-3.1775

>  <r_i_glide_lipo>  (283) 
0

>  <r_i_glide_hbond>  (283) 
-0.0824028

>  <r_i_glide_metal>  (283) 
-0

>  <r_i_glide_rewards>  (283) 
-1.8226

>  <r_i_glide_evdw>  (283) 
-25.9042

>  <r_i_glide_ecoul>  (283) 
-2.79831

>  <r_i_glide_erotb>  (283) 
0.496108

>  <r_i_glide_esite>  (283) 
-0.0536522

>  <r_i_glide_emodel>  (283) 
-34.5747

>  <r_i_glide_energy>  (283) 
-28.7026

>  <r_i_glide_einternal>  (283) 
0.344545

>  <r_i_glide_intrahb_reward>  (283) 
-0

>  <i_i_glide_confnum>  (283) 
6

>  <i_i_glide_posenum>  (283) 
19

>  <r_i_glide_eff_state_penalty>  (283) 
0

>  <ligand_id>  (283) 
80

>  <original_smiles>  (283) 
O=c1cc(-c2ccco2)nc2nc(-c3ccco3)[nH]n12

>  <smiles>  (283) 
[H]c1oc(-c2nc3n([H])c(-c4oc([H])c([H])c4[H])c([H])c(=O)n3n2)c([H])c1[H]

$$$$
81:0:0
     RDKit          3D

 15 17  0  0  1  0  0  0  0  0999 V2000
    2.9530   -3.0461   -3.8655 C   0  0  0  0  0  0  0  0  0  0  0  0
    2.7851   -2.3177   -2.7151 C   0  0  0  0  0  0  0  0  0  0  0  0
    4.0559   -2.3467   -2.1627 N   0  0  0  0  0  0  0  0  0  0  0  0
    4.9014   -3.0295   -2.9443 C   0  0  0  0  0  0  0  0  0  0  0  0
    4.2769   -3.4827   -4.0241 N   0  0  0  0  0  0  0  0  0  0  0  0
    6.2132   -3.1948   -2.6367 N   0  0  0  0  0  0  0  0  0  0  0  0
    6.6781   -2.6575   -1.4992 N   0  0  0  0  0  0  0  0  0  0  0  0
    5.8011   -1.9747   -0.7195 C   0  0  0  0  0  0  0  0  0  0  0  0
    6.0670   -1.3574    0.4218 N   0  0  0  0  0  0  0  0  0  0  0  0
    4.8329   -0.8456    0.7471 C   0  0  0  0  0  0  0  0  0  0  0  0
    3.8360   -1.0890   -0.1132 N   0  0  0  0  0  0  0  0  0  0  0  0
    4.5065   -1.8071   -1.0264 N   0  0  0  0  0  0  0  0  0  0  0  0
    2.2194   -3.2931   -4.6159 H   0  0  0  0  0  0  0  0  0  0  0  0
    1.9139   -1.8335   -2.3099 H   0  0  0  0  0  0  0  0  0  0  0  0
    4.6898   -0.2813    1.6575 H   0  0  0  0  0  0  0  0  0  0  0  0
  1  5  1  0
  1  2  2  0
  1 13  1  0
  2  3  1  0
  2 14  1  0
  3 12  1  0
  3  4  1  0
  4  5  2  0
  4  6  1  0
  6  7  2  0
  7  8  1  0
  8 12  1  0
  8  9  2  0
  9 10  1  0
 10 11  2  0
 10 15  1  0
 11 12  1  0
M  END
>  <i_m_ct_stereo_status>  (284) 
1

>  <s_m_source_file>  (284) 
/var/tmp/pbs.5076255.sched01/tmppxgjifq_/8475v0iq0b.sdf

>  <i_m_source_file_index>  (284) 
39

>  <i_lp_mmshare_version>  (284) 
48012

>  <i_f3d_flags>  (284) 
0

>  <s_epik_input>  (284) 
W2NIXTFbY0hdbmMobjEyKW5uYzNuMm5bY0hdbjM=

>  <s_epik_cmdline>  (284) 
J2VwaWtfcHl0aG9uJywgJy1waHQnLCAnMi4wJywgJy1waCcsICc3LjAnLCAnLXRuJywgJzgnLCAnLW1hJywgJzIwMCcsICctaW1hZScsICc8aW5maWxlLm1hZT4nLCAnLW9tYWUnLCAnPG91dGZpbGUubWFlPic=

>  <r_lp_tautomer_probability>  (284) 
1

>  <r_epik_Ionization_Penalty>  (284) 
6.74744e-10

>  <r_epik_Ionization_Penalty_Charging>  (284) 
6.74085e-10

>  <r_epik_Ionization_Penalty_Neutral>  (284) 
6.58975e-13

>  <r_epik_State_Penalty>  (284) 
-0

>  <r_epik_Charging_Adjusted_Penalty>  (284) 
6.74085e-10

>  <i_epik_Tot_Q>  (284) 
0

>  <i_epik_Tot_abs_Q>  (284) 
0

>  <s_lp_Force_Field>  (284) 
OPLS3e

>  <r_lp_Energy>  (284) 
19.7825

>  <b_lp_Chiralities_Consistent>  (284) 
1

>  <s_lp_Variant>  (284) 
81:0-1

>  <s_i_glide_gridfile>  (284) 
pfpi4k_grid

>  <i_i_glide_lignum>  (284) 
39

>  <i_i_glide_rotatable_bonds>  (284) 
0

>  <r_i_docking_score>  (284) 
-4.26443

>  <r_i_glide_ligand_efficiency>  (284) 
-0.355369

>  <r_i_glide_ligand_efficiency_sa>  (284) 
-0.813593

>  <r_i_glide_ligand_efficiency_ln>  (284) 
-1.22369

>  <r_i_glide_gscore>  (284) 
-4.26443

>  <r_i_glide_lipo>  (284) 
-0.13301

>  <r_i_glide_hbond>  (284) 
-0.0361129

>  <r_i_glide_metal>  (284) 
-0

>  <r_i_glide_rewards>  (284) 
-2.62778

>  <r_i_glide_evdw>  (284) 
-22.0619

>  <r_i_glide_ecoul>  (284) 
-1.7275

>  <r_i_glide_erotb>  (284) 
0

>  <r_i_glide_esite>  (284) 
-0.105315

>  <r_i_glide_emodel>  (284) 
-30.2967

>  <r_i_glide_energy>  (284) 
-23.7894

>  <r_i_glide_einternal>  (284) 
0

>  <r_i_glide_intrahb_reward>  (284) 
-0

>  <i_i_glide_confnum>  (284) 
2

>  <i_i_glide_posenum>  (284) 
1

>  <r_i_glide_eff_state_penalty>  (284) 
0

>  <ligand_id>  (284) 
81

>  <original_smiles>  (284) 
c1cn2c(n1)nnc1ncnn12

>  <smiles>  (284) 
[H]c1nc2nnc3nc([H])c([H])n3n2n1

$$$$
81:0:1
     RDKit          3D

 15 17  0  0  1  0  0  0  0  0999 V2000
   -1.5477   -8.2539    3.2360 C   0  0  0  0  0  0  0  0  0  0  0  0
   -0.5327   -9.1853    3.2742 C   0  0  0  0  0  0  0  0  0  0  0  0
    0.4805   -8.5075    2.6120 N   0  0  0  0  0  0  0  0  0  0  0  0
    0.0897   -7.2879    2.2225 C   0  0  0  0  0  0  0  0  0  0  0  0
   -1.1656   -7.0645    2.5849 N   0  0  0  0  0  0  0  0  0  0  0  0
    0.9054   -6.4294    1.5600 N   0  0  0  0  0  0  0  0  0  0  0  0
    2.1551   -6.8228    1.2903 N   0  0  0  0  0  0  0  0  0  0  0  0
    2.5347   -8.0630    1.6923 C   0  0  0  0  0  0  0  0  0  0  0  0
    3.7162   -8.6349    1.5201 N   0  0  0  0  0  0  0  0  0  0  0  0
    3.5131   -9.8519    2.1259 C   0  0  0  0  0  0  0  0  0  0  0  0
    2.3047  -10.0701    2.6606 N   0  0  0  0  0  0  0  0  0  0  0  0
    1.7237   -8.9069    2.3486 N   0  0  0  0  0  0  0  0  0  0  0  0
   -2.5456   -8.3283    3.6367 H   0  0  0  0  0  0  0  0  0  0  0  0
   -0.4555  -10.1860    3.6877 H   0  0  0  0  0  0  0  0  0  0  0  0
    4.2981  -10.5995    2.1535 H   0  0  0  0  0  0  0  0  0  0  0  0
  1  5  1  0
  1  2  2  0
  1 13  1  0
  2  3  1  0
  2 14  1  0
  3 12  1  0
  3  4  1  0
  4  5  2  0
  4  6  1  0
  6  7  2  0
  7  8  1  0
  8 12  1  0
  8  9  2  0
  9 10  1  0
 10 11  2  0
 10 15  1  0
 11 12  1  0
M  END
>  <i_m_ct_stereo_status>  (285) 
1

>  <s_m_source_file>  (285) 
/var/tmp/pbs.5076255.sched01/tmppxgjifq_/8475v0iq0b.sdf

>  <i_m_source_file_index>  (285) 
39

>  <i_lp_mmshare_version>  (285) 
48012

>  <i_f3d_flags>  (285) 
0

>  <s_epik_input>  (285) 
W2NIXTFbY0hdbmMobjEyKW5uYzNuMm5bY0hdbjM=

>  <s_epik_cmdline>  (285) 
J2VwaWtfcHl0aG9uJywgJy1waHQnLCAnMi4wJywgJy1waCcsICc3LjAnLCAnLXRuJywgJzgnLCAnLW1hJywgJzIwMCcsICctaW1hZScsICc8aW5maWxlLm1hZT4nLCAnLW9tYWUnLCAnPG91dGZpbGUubWFlPic=

>  <r_lp_tautomer_probability>  (285) 
1

>  <r_epik_Ionization_Penalty>  (285) 
6.74744e-10

>  <r_epik_Ionization_Penalty_Charging>  (285) 
6.74085e-10

>  <r_epik_Ionization_Penalty_Neutral>  (285) 
6.58975e-13

>  <r_epik_State_Penalty>  (285) 
-0

>  <r_epik_Charging_Adjusted_Penalty>  (285) 
6.74085e-10

>  <i_epik_Tot_Q>  (285) 
0

>  <i_epik_Tot_abs_Q>  (285) 
0

>  <s_lp_Force_Field>  (285) 
OPLS3e

>  <r_lp_Energy>  (285) 
19.7825

>  <b_lp_Chiralities_Consistent>  (285) 
1

>  <s_lp_Variant>  (285) 
81:0-1

>  <s_i_glide_gridfile>  (285) 
pfpi4k_grid

>  <i_i_glide_lignum>  (285) 
39

>  <i_i_glide_rotatable_bonds>  (285) 
0

>  <r_i_docking_score>  (285) 
-4.20549

>  <r_i_glide_ligand_efficiency>  (285) 
-0.350458

>  <r_i_glide_ligand_efficiency_sa>  (285) 
-0.802348

>  <r_i_glide_ligand_efficiency_ln>  (285) 
-1.20677

>  <r_i_glide_gscore>  (285) 
-4.20549

>  <r_i_glide_lipo>  (285) 
0

>  <r_i_glide_hbond>  (285) 
-0.16

>  <r_i_glide_metal>  (285) 
-0

>  <r_i_glide_rewards>  (285) 
-2.26924

>  <r_i_glide_evdw>  (285) 
-17.9409

>  <r_i_glide_ecoul>  (285) 
-3.93262

>  <r_i_glide_erotb>  (285) 
0

>  <r_i_glide_esite>  (285) 
-0.289314

>  <r_i_glide_emodel>  (285) 
-28.3146

>  <r_i_glide_energy>  (285) 
-21.8735

>  <r_i_glide_einternal>  (285) 
0

>  <r_i_glide_intrahb_reward>  (285) 
-0

>  <i_i_glide_confnum>  (285) 
2

>  <i_i_glide_posenum>  (285) 
28

>  <r_i_glide_eff_state_penalty>  (285) 
0

>  <ligand_id>  (285) 
81

>  <original_smiles>  (285) 
c1cn2c(n1)nnc1ncnn12

>  <smiles>  (285) 
[H]c1nc2nnc3nc([H])c([H])n3n2n1

$$$$
81:0:2
     RDKit          3D

 15 17  0  0  1  0  0  0  0  0999 V2000
    3.0811   -2.6699   -3.6940 C   0  0  0  0  0  0  0  0  0  0  0  0
    2.5691   -3.0535   -2.4723 C   0  0  0  0  0  0  0  0  0  0  0  0
    3.4351   -2.4303   -1.5965 N   0  0  0  0  0  0  0  0  0  0  0  0
    4.3784   -1.7388   -2.2499 C   0  0  0  0  0  0  0  0  0  0  0  0
    4.2138   -1.8408   -3.5632 N   0  0  0  0  0  0  0  0  0  0  0  0
    5.3596   -1.0635   -1.5979 N   0  0  0  0  0  0  0  0  0  0  0  0
    5.3620   -1.0610   -0.2545 N   0  0  0  0  0  0  0  0  0  0  0  0
    4.3940   -1.7652    0.3850 C   0  0  0  0  0  0  0  0  0  0  0  0
    4.2281   -1.9011    1.6924 N   0  0  0  0  0  0  0  0  0  0  0  0
    3.1296   -2.7259    1.7346 C   0  0  0  0  0  0  0  0  0  0  0  0
    2.6233   -3.1256    0.5620 N   0  0  0  0  0  0  0  0  0  0  0  0
    3.4474   -2.4582   -0.2597 N   0  0  0  0  0  0  0  0  0  0  0  0
    2.7454   -2.9286   -4.6818 H   0  0  0  0  0  0  0  0  0  0  0  0
    1.7420   -3.6898   -2.1846 H   0  0  0  0  0  0  0  0  0  0  0  0
    2.7192   -3.0448    2.6785 H   0  0  0  0  0  0  0  0  0  0  0  0
  1  5  1  0
  1  2  2  0
  1 13  1  0
  2  3  1  0
  2 14  1  0
  3 12  1  0
  3  4  1  0
  4  5  2  0
  4  6  1  0
  6  7  2  0
  7  8  1  0
  8 12  1  0
  8  9  2  0
  9 10  1  0
 10 11  2  0
 10 15  1  0
 11 12  1  0
M  END
>  <i_m_ct_stereo_status>  (286) 
1

>  <s_m_source_file>  (286) 
/var/tmp/pbs.5076255.sched01/tmppxgjifq_/8475v0iq0b.sdf

>  <i_m_source_file_index>  (286) 
39

>  <i_lp_mmshare_version>  (286) 
48012

>  <i_f3d_flags>  (286) 
0

>  <s_epik_input>  (286) 
W2NIXTFbY0hdbmMobjEyKW5uYzNuMm5bY0hdbjM=

>  <s_epik_cmdline>  (286) 
J2VwaWtfcHl0aG9uJywgJy1waHQnLCAnMi4wJywgJy1waCcsICc3LjAnLCAnLXRuJywgJzgnLCAnLW1hJywgJzIwMCcsICctaW1hZScsICc8aW5maWxlLm1hZT4nLCAnLW9tYWUnLCAnPG91dGZpbGUubWFlPic=

>  <r_lp_tautomer_probability>  (286) 
1

>  <r_epik_Ionization_Penalty>  (286) 
6.74744e-10

>  <r_epik_Ionization_Penalty_Charging>  (286) 
6.74085e-10

>  <r_epik_Ionization_Penalty_Neutral>  (286) 
6.58975e-13

>  <r_epik_State_Penalty>  (286) 
-0

>  <r_epik_Charging_Adjusted_Penalty>  (286) 
6.74085e-10

>  <i_epik_Tot_Q>  (286) 
0

>  <i_epik_Tot_abs_Q>  (286) 
0

>  <s_lp_Force_Field>  (286) 
OPLS3e

>  <r_lp_Energy>  (286) 
19.7825

>  <b_lp_Chiralities_Consistent>  (286) 
1

>  <s_lp_Variant>  (286) 
81:0-1

>  <s_i_glide_gridfile>  (286) 
pfpi4k_grid

>  <i_i_glide_lignum>  (286) 
39

>  <i_i_glide_rotatable_bonds>  (286) 
0

>  <r_i_docking_score>  (286) 
-4.03613

>  <r_i_glide_ligand_efficiency>  (286) 
-0.336344

>  <r_i_glide_ligand_efficiency_sa>  (286) 
-0.770035

>  <r_i_glide_ligand_efficiency_ln>  (286) 
-1.15817

>  <r_i_glide_gscore>  (286) 
-4.03613

>  <r_i_glide_lipo>  (286) 
-0.228368

>  <r_i_glide_hbond>  (286) 
0

>  <r_i_glide_metal>  (286) 
-0

>  <r_i_glide_rewards>  (286) 
-2.25

>  <r_i_glide_evdw>  (286) 
-19.3587

>  <r_i_glide_ecoul>  (286) 
-2.55037

>  <r_i_glide_erotb>  (286) 
0

>  <r_i_glide_esite>  (286) 
-0.207265

>  <r_i_glide_emodel>  (286) 
-28.0783

>  <r_i_glide_energy>  (286) 
-21.9091

>  <r_i_glide_einternal>  (286) 
0

>  <r_i_glide_intrahb_reward>  (286) 
-0

>  <i_i_glide_confnum>  (286) 
2

>  <i_i_glide_posenum>  (286) 
34

>  <r_i_glide_eff_state_penalty>  (286) 
0

>  <ligand_id>  (286) 
81

>  <original_smiles>  (286) 
c1cn2c(n1)nnc1ncnn12

>  <smiles>  (286) 
[H]c1nc2nnc3nc([H])c([H])n3n2n1

$$$$
82:0:0
     RDKit          3D

 93 99  0  0  1  0  0  0  0  0999 V2000
    7.8033   -6.4792    2.9811 C   0  0  0  0  0  0  0  0  0  0  0  0
    6.3738   -6.9944    3.1772 C   0  0  0  0  0  0  0  0  0  0  0  0
    5.5764   -7.3390    2.1458 C   0  0  0  0  0  0  0  0  0  0  0  0
    5.6577   -6.4866    0.9002 C   0  0  0  0  0  0  0  0  0  0  0  0
    5.0032   -5.1363    1.2893 C   0  0  1  0  0  0  0  0  0  0  0  0
    4.6262   -4.3550    0.0138 C   0  0  0  0  0  0  0  0  0  0  0  0
    3.7913   -5.3270    2.2828 C   0  0  1  0  0  0  0  0  0  0  0  0
    3.1537   -6.7397    2.1847 C   0  0  0  0  0  0  0  0  0  0  0  0
    4.1714   -7.9025    2.3563 C   0  0  1  0  0  0  0  0  0  0  0  0
    3.8767   -9.0305    1.3388 C   0  0  0  0  0  0  0  0  0  0  0  0
    4.0906   -8.5547    3.7466 C   0  0  0  0  0  0  0  0  0  0  0  0
    4.4883   -7.6050    4.8649 C   0  0  0  0  0  0  0  0  0  0  0  0
    5.7361   -6.7217    4.5549 C   0  0  1  0  0  0  0  0  0  0  0  0
    6.7958   -7.0640    5.6413 C   0  0  0  0  0  0  0  0  0  0  0  0
    5.2826   -5.1893    4.5503 C   0  0  2  0  0  0  0  0  0  0  0  0
    5.2067   -4.6676    6.0046 C   0  0  0  0  0  0  0  0  0  0  0  0
    4.6660   -3.2484    6.0670 C   0  0  0  0  0  0  0  0  0  0  0  0
    3.2021   -3.1351    5.5611 C   0  0  2  0  0  0  0  0  0  0  0  0
    2.2909   -3.7481    6.6721 C   0  0  0  0  0  0  0  0  0  0  0  0
    3.0137   -4.0137    4.3079 C   0  0  0  0  0  0  0  0  0  0  0  0
    3.9795   -4.8132    3.7481 C   0  0  0  0  0  0  0  0  0  0  0  0
    1.5659   -3.9495    3.8020 C   0  0  0  0  0  0  0  0  0  0  0  0
    1.0947   -2.5339    3.6542 C   0  0  0  0  0  0  0  0  0  0  0  0
    1.6350   -1.4639    4.2593 C   0  0  0  0  0  0  0  0  0  0  0  0
    1.2338   -0.0728    3.7290 C   0  0  1  0  0  0  0  0  0  0  0  0
    0.4203    0.7993    4.7166 C   0  0  0  0  0  0  0  0  0  0  0  0
   -0.0465    2.1386    4.0993 C   0  0  0  0  0  0  0  0  0  0  0  0
   -1.0157    1.9208    2.9112 C   0  0  0  0  0  0  0  0  0  0  0  0
   -0.7891    2.9625    5.1695 C   0  0  0  0  0  0  0  0  0  0  0  0
    1.2216    2.9005    3.6622 C   0  0  0  0  0  0  0  0  0  0  0  0
    2.0824    2.1070    2.6651 C   0  0  0  0  0  0  0  0  0  0  0  0
    2.4531    0.6572    3.0977 C   0  0  2  0  0  0  0  0  0  0  0  0
    2.8965   -0.0787    1.8079 C   0  0  0  0  0  0  0  0  0  0  0  0
    3.6152    0.6486    4.1176 C   0  0  0  0  0  0  0  0  0  0  0  0
    3.9840   -0.7652    4.6402 C   0  0  0  0  0  0  0  0  0  0  0  0
    2.8120   -1.5898    5.2657 C   0  0  2  0  0  0  0  0  0  0  0  0
    2.4553   -0.9169    6.6205 C   0  0  0  0  0  0  0  0  0  0  0  0
    8.4927   -7.1005    3.5471 H   0  0  0  0  0  0  0  0  0  0  0  0
    7.9291   -5.4558    3.3275 H   0  0  0  0  0  0  0  0  0  0  0  0
    8.1570   -6.5269    1.9550 H   0  0  0  0  0  0  0  0  0  0  0  0
    6.6655   -6.3349    0.5229 H   0  0  0  0  0  0  0  0  0  0  0  0
    5.1051   -6.9551    0.0874 H   0  0  0  0  0  0  0  0  0  0  0  0
    5.7566   -4.5312    1.7966 H   0  0  0  0  0  0  0  0  0  0  0  0
    3.8570   -4.8684   -0.5676 H   0  0  0  0  0  0  0  0  0  0  0  0
    5.4927   -4.2319   -0.6365 H   0  0  0  0  0  0  0  0  0  0  0  0
    4.2531   -3.3571    0.2492 H   0  0  0  0  0  0  0  0  0  0  0  0
    3.0630   -4.6545    1.8418 H   0  0  0  0  0  0  0  0  0  0  0  0
    2.3261   -6.8435    2.8870 H   0  0  0  0  0  0  0  0  0  0  0  0
    2.6930   -6.8095    1.1949 H   0  0  0  0  0  0  0  0  0  0  0  0
    2.9183   -9.5091    1.5484 H   0  0  0  0  0  0  0  0  0  0  0  0
    4.6445   -9.8068    1.3682 H   0  0  0  0  0  0  0  0  0  0  0  0
    3.8253   -8.6707    0.3135 H   0  0  0  0  0  0  0  0  0  0  0  0
    3.0933   -8.9537    3.9351 H   0  0  0  0  0  0  0  0  0  0  0  0
    4.7652   -9.4111    3.7742 H   0  0  0  0  0  0  0  0  0  0  0  0
    3.6278   -6.9893    5.1221 H   0  0  0  0  0  0  0  0  0  0  0  0
    4.6489   -8.2046    5.7604 H   0  0  0  0  0  0  0  0  0  0  0  0
    6.3829   -7.0286    6.6495 H   0  0  0  0  0  0  0  0  0  0  0  0
    7.6513   -6.3887    5.6244 H   0  0  0  0  0  0  0  0  0  0  0  0
    7.1750   -8.0775    5.4969 H   0  0  0  0  0  0  0  0  0  0  0  0
    6.0636   -4.6019    4.0764 H   0  0  0  0  0  0  0  0  0  0  0  0
    4.6044   -5.3303    6.6273 H   0  0  0  0  0  0  0  0  0  0  0  0
    6.2042   -4.6548    6.4462 H   0  0  0  0  0  0  0  0  0  0  0  0
    4.7548   -2.8615    7.0816 H   0  0  0  0  0  0  0  0  0  0  0  0
    5.3612   -2.6712    5.4634 H   0  0  0  0  0  0  0  0  0  0  0  0
    2.5643   -3.4149    7.6725 H   0  0  0  0  0  0  0  0  0  0  0  0
    2.3552   -4.8359    6.6857 H   0  0  0  0  0  0  0  0  0  0  0  0
    1.2395   -3.4959    6.5318 H   0  0  0  0  0  0  0  0  0  0  0  0
    1.3709   -4.4800    2.8781 H   0  0  0  0  0  0  0  0  0  0  0  0
    0.9113   -4.4376    4.5240 H   0  0  0  0  0  0  0  0  0  0  0  0
    0.3090   -2.3995    2.9295 H   0  0  0  0  0  0  0  0  0  0  0  0
    0.5493   -0.2653    2.9045 H   0  0  0  0  0  0  0  0  0  0  0  0
   -0.4328    0.2397    5.1015 H   0  0  0  0  0  0  0  0  0  0  0  0
    1.0232    1.0575    5.5797 H   0  0  0  0  0  0  0  0  0  0  0  0
   -1.4087    2.8695    2.5366 H   0  0  0  0  0  0  0  0  0  0  0  0
   -1.8614    1.3023    3.2121 H   0  0  0  0  0  0  0  0  0  0  0  0
   -0.5465    1.4268    2.0588 H   0  0  0  0  0  0  0  0  0  0  0  0
   -1.1136    3.9253    4.7722 H   0  0  0  0  0  0  0  0  0  0  0  0
   -0.1518    3.1613    6.0327 H   0  0  0  0  0  0  0  0  0  0  0  0
   -1.6765    2.4368    5.5263 H   0  0  0  0  0  0  0  0  0  0  0  0
    0.9512    3.8604    3.2187 H   0  0  0  0  0  0  0  0  0  0  0  0
    1.8248    3.1406    4.5350 H   0  0  0  0  0  0  0  0  0  0  0  0
    1.5567    2.0856    1.7099 H   0  0  0  0  0  0  0  0  0  0  0  0
    2.9922    2.6730    2.4719 H   0  0  0  0  0  0  0  0  0  0  0  0
    3.7738    0.3930    1.3617 H   0  0  0  0  0  0  0  0  0  0  0  0
    2.1042   -0.0659    1.0574 H   0  0  0  0  0  0  0  0  0  0  0  0
    3.1378   -1.1277    1.9831 H   0  0  0  0  0  0  0  0  0  0  0  0
    4.5046    1.0949    3.6742 H   0  0  0  0  0  0  0  0  0  0  0  0
    3.3678    1.3030    4.9522 H   0  0  0  0  0  0  0  0  0  0  0  0
    4.4239   -1.3367    3.8227 H   0  0  0  0  0  0  0  0  0  0  0  0
    4.7749   -0.6225    5.3764 H   0  0  0  0  0  0  0  0  0  0  0  0
    3.1128   -1.2433    7.4254 H   0  0  0  0  0  0  0  0  0  0  0  0
    1.4293   -1.1293    6.9207 H   0  0  0  0  0  0  0  0  0  0  0  0
    2.5717    0.1609    6.6115 H   0  0  0  0  0  0  0  0  0  0  0  0
  1  2  1  0
  1 38  1  0
  1 39  1  0
  1 40  1  0
  2 13  1  0
  2  3  2  0
  3  9  1  0
  3  4  1  0
  4  5  1  0
  4 41  1  0
  4 42  1  0
  5  6  1  0
  5  7  1  0
  5 43  1  1
  6 44  1  0
  6 45  1  0
  6 46  1  0
  7 21  1  0
  7  8  1  0
  7 47  1  6
  8  9  1  0
  8 48  1  0
  8 49  1  0
  9 10  1  6
  9 11  1  0
 10 50  1  0
 10 51  1  0
 10 52  1  0
 11 12  1  0
 11 53  1  0
 11 54  1  0
 12 13  1  0
 12 55  1  0
 12 56  1  0
 13 14  1  1
 13 15  1  0
 14 57  1  0
 14 58  1  0
 14 59  1  0
 15 21  1  0
 15 16  1  0
 15 60  1  6
 16 17  1  0
 16 61  1  0
 16 62  1  0
 17 18  1  0
 17 63  1  0
 17 64  1  0
 18 36  1  0
 18 19  1  1
 18 20  1  0
 19 65  1  0
 19 66  1  0
 19 67  1  0
 20 21  2  0
 20 22  1  0
 22 23  1  0
 22 68  1  0
 22 69  1  0
 23 24  2  0
 23 70  1  0
 24 36  1  0
 24 25  1  0
 25 32  1  0
 25 26  1  0
 25 71  1  6
 26 27  1  0
 26 72  1  0
 26 73  1  0
 27 28  1  0
 27 29  1  0
 27 30  1  0
 28 74  1  0
 28 75  1  0
 28 76  1  0
 29 77  1  0
 29 78  1  0
 29 79  1  0
 30 31  1  0
 30 80  1  0
 30 81  1  0
 31 32  1  0
 31 82  1  0
 31 83  1  0
 32 33  1  6
 32 34  1  0
 33 84  1  0
 33 85  1  0
 33 86  1  0
 34 35  1  0
 34 87  1  0
 34 88  1  0
 35 36  1  0
 35 89  1  0
 35 90  1  0
 36 37  1  1
 37 91  1  0
 37 92  1  0
 37 93  1  0
M  END
>  <i_m_ct_stereo_status>  (287) 
1

>  <s_m_source_file>  (287) 
/var/tmp/pbs.5076255.sched01/tmppxgjifq_/8475v0iq0b.sdf

>  <i_m_source_file_index>  (287) 
40

>  <i_lp_mmshare_version>  (287) 
48012

>  <i_f3d_flags>  (287) 
0

>  <s_epik_input>  (287) 
W0NIM11bQ0BAXTEyQzM9QyhbQ0gzXSlbQ0BdKFtDSDNdKShbQ0gyXVtDSDJdMilbQ0BIXTRDKFtDQEhdKFtDSDJdMSlbQ0BASF0oW0NIMl0zKVtDSDNdKT1DNVtDQEBdKFtDSDNdKShbQ0gyXVtDSDJdNClbQ0BdNihbQ0gzXSlDKD1bQ0hdW0NIMl01KVtDQEBIXTdbQ0BdKFtDSDNdKShbQ0gyXVtDSDJdNilbQ0gyXVtDSDJdQyhbQ0gyXTcpKFtDSDNdKVtDSDNd

>  <s_epik_cmdline>  (287) 
J2VwaWtfcHl0aG9uJywgJy1waHQnLCAnMi4wJywgJy1waCcsICc3LjAnLCAnLXRuJywgJzgnLCAnLW1hJywgJzIwMCcsICctaW1hZScsICc8aW5maWxlLm1hZT4nLCAnLW9tYWUnLCAnPG91dGZpbGUubWFlPic=

>  <r_lp_tautomer_probability>  (287) 
1

>  <r_epik_Ionization_Penalty>  (287) 
0

>  <r_epik_Ionization_Penalty_Charging>  (287) 
0

>  <r_epik_Ionization_Penalty_Neutral>  (287) 
0

>  <r_epik_State_Penalty>  (287) 
-0

>  <r_epik_Charging_Adjusted_Penalty>  (287) 
0

>  <i_epik_Tot_Q>  (287) 
0

>  <i_epik_Tot_abs_Q>  (287) 
0

>  <s_lp_Force_Field>  (287) 
OPLS3e

>  <r_lp_Energy>  (287) 
134.534

>  <b_lp_Chiralities_Consistent>  (287) 
1

>  <s_lp_Variant>  (287) 
82:0-1

>  <s_i_glide_gridfile>  (287) 
pfpi4k_grid

>  <i_i_glide_lignum>  (287) 
40

>  <i_i_glide_rotatable_bonds>  (287) 
0

>  <r_i_docking_score>  (287) 
-1.95663

>  <r_i_glide_ligand_efficiency>  (287) 
-0.0528819

>  <r_i_glide_ligand_efficiency_sa>  (287) 
-0.176214

>  <r_i_glide_ligand_efficiency_ln>  (287) 
-0.424348

>  <r_i_glide_gscore>  (287) 
-1.95663

>  <r_i_glide_lipo>  (287) 
-0.256377

>  <r_i_glide_hbond>  (287) 
0

>  <r_i_glide_metal>  (287) 
-0

>  <r_i_glide_rewards>  (287) 
0

>  <r_i_glide_evdw>  (287) 
-29.9947

>  <r_i_glide_ecoul>  (287) 
-1.33679

>  <r_i_glide_erotb>  (287) 
0

>  <r_i_glide_esite>  (287) 
0

>  <r_i_glide_emodel>  (287) 
-34.7171

>  <r_i_glide_energy>  (287) 
-31.3315

>  <r_i_glide_einternal>  (287) 
0

>  <r_i_glide_intrahb_reward>  (287) 
-0

>  <i_i_glide_confnum>  (287) 
2

>  <i_i_glide_posenum>  (287) 
1

>  <r_i_glide_eff_state_penalty>  (287) 
0

>  <ligand_id>  (287) 
82

>  <original_smiles>  (287) 
CC1=C2CC(C)C3CC2(C)CCC1(C)C1CCC2(C)C(=C31)CC=C1C3CC(C)(C)CCC3(C)CCC12C

>  <smiles>  (287) 
[H]C1=C2C3([H])C([H])([H])C(C([H])([H])[H])(C([H])([H])[H])C([H])([H])C([H])([H])C3(C([H])([H])[H])C([H])([H])C([H])([H])C2(C([H])([H])[H])C2(C([H])([H])[H])C(=C3C4([H])C([H])([H])C5(C([H])([H])[H])C(=C(C([H])([H])[H])C(C([H])([H])[H])(C([H])([H])C5([H])[H])C3([H])C([H])([H])C2([H])[H])C([H])([H])C4([H])C([H])([H])[H])C1([H])[H]

$$$$
82:0:1
     RDKit          3D

 93 99  0  0  1  0  0  0  0  0999 V2000
    7.1630   -6.1183    2.1546 C   0  0  0  0  0  0  0  0  0  0  0  0
    5.8723   -6.6608    2.7813 C   0  0  0  0  0  0  0  0  0  0  0  0
    4.8380   -7.1165    2.0441 C   0  0  0  0  0  0  0  0  0  0  0  0
    4.5310   -6.3751    0.7631 C   0  0  0  0  0  0  0  0  0  0  0  0
    3.9394   -5.0139    1.2225 C   0  0  1  0  0  0  0  0  0  0  0  0
    3.1805   -4.3483    0.0576 C   0  0  0  0  0  0  0  0  0  0  0  0
    3.0648   -5.1476    2.5299 C   0  0  1  0  0  0  0  0  0  0  0  0
    2.4948   -6.5787    2.7224 C   0  0  0  0  0  0  0  0  0  0  0  0
    3.5760   -7.6951    2.6851 C   0  0  1  0  0  0  0  0  0  0  0  0
    3.0623   -8.9127    1.8796 C   0  0  0  0  0  0  0  0  0  0  0  0
    3.9185   -8.2258    4.0876 C   0  0  0  0  0  0  0  0  0  0  0  0
    4.5649   -7.1728    4.9737 C   0  0  0  0  0  0  0  0  0  0  0  0
    5.6310   -6.2867    4.2584 C   0  0  1  0  0  0  0  0  0  0  0  0
    6.9676   -6.5052    5.0250 C   0  0  0  0  0  0  0  0  0  0  0  0
    5.1187   -4.7726    4.2673 C   0  0  2  0  0  0  0  0  0  0  0  0
    5.4246   -4.1309    5.6417 C   0  0  0  0  0  0  0  0  0  0  0  0
    4.8533   -2.7262    5.7467 C   0  0  0  0  0  0  0  0  0  0  0  0
    3.3023   -2.6962    5.6662 C   0  0  2  0  0  0  0  0  0  0  0  0
    2.7697   -3.2340    7.0323 C   0  0  0  0  0  0  0  0  0  0  0  0
    2.8160   -3.6842    4.5860 C   0  0  0  0  0  0  0  0  0  0  0  0
    3.6270   -4.5031    3.8390 C   0  0  0  0  0  0  0  0  0  0  0  0
    1.2827   -3.7026    4.5034 C   0  0  0  0  0  0  0  0  0  0  0  0
    0.7176   -2.3186    4.3847 C   0  0  0  0  0  0  0  0  0  0  0  0
    1.3513   -1.1874    4.7360 C   0  0  0  0  0  0  0  0  0  0  0  0
    0.7514    0.1434    4.2410 C   0  0  1  0  0  0  0  0  0  0  0  0
    0.2037    1.0758    5.3494 C   0  0  0  0  0  0  0  0  0  0  0  0
   -0.4819    2.3455    4.7897 C   0  0  0  0  0  0  0  0  0  0  0  0
   -1.7334    2.0038    3.9443 C   0  0  0  0  0  0  0  0  0  0  0  0
   -0.9355    3.2383    5.9609 C   0  0  0  0  0  0  0  0  0  0  0  0
    0.5755    3.0986    3.9550 C   0  0  0  0  0  0  0  0  0  0  0  0
    1.1639    2.2423    2.8215 C   0  0  0  0  0  0  0  0  0  0  0  0
    1.7111    0.8478    3.2422 C   0  0  2  0  0  0  0  0  0  0  0  0
    1.8151    0.0162    1.9423 C   0  0  0  0  0  0  0  0  0  0  0  0
    3.1099    0.9580    3.8861 C   0  0  0  0  0  0  0  0  0  0  0  0
    3.6788   -0.3950    4.3882 C   0  0  0  0  0  0  0  0  0  0  0  0
    2.7681   -1.1937    5.3775 C   0  0  2  0  0  0  0  0  0  0  0  0
    2.7721   -0.4156    6.7232 C   0  0  0  0  0  0  0  0  0  0  0  0
    8.0119   -6.6766    2.5483 H   0  0  0  0  0  0  0  0  0  0  0  0
    7.3232   -5.0649    2.3703 H   0  0  0  0  0  0  0  0  0  0  0  0
    7.2173   -6.2521    1.0767 H   0  0  0  0  0  0  0  0  0  0  0  0
    5.3853   -6.2299    0.1085 H   0  0  0  0  0  0  0  0  0  0  0  0
    3.8111   -6.9309    0.1677 H   0  0  0  0  0  0  0  0  0  0  0  0
    4.7730   -4.3477    1.4503 H   0  0  0  0  0  0  0  0  0  0  0  0
    2.3089   -4.9315   -0.2466 H   0  0  0  0  0  0  0  0  0  0  0  0
    3.8236   -4.2589   -0.8189 H   0  0  0  0  0  0  0  0  0  0  0  0
    2.8402   -3.3430    0.3124 H   0  0  0  0  0  0  0  0  0  0  0  0
    2.2109   -4.5334    2.2647 H   0  0  0  0  0  0  0  0  0  0  0  0
    1.9033   -6.6428    3.6361 H   0  0  0  0  0  0  0  0  0  0  0  0
    1.7793   -6.7459    1.9121 H   0  0  0  0  0  0  0  0  0  0  0  0
    2.2287   -9.3958    2.3920 H   0  0  0  0  0  0  0  0  0  0  0  0
    3.8464   -9.6614    1.7464 H   0  0  0  0  0  0  0  0  0  0  0  0
    2.7021   -8.6440    0.8875 H   0  0  0  0  0  0  0  0  0  0  0  0
    3.0348   -8.6323    4.5801 H   0  0  0  0  0  0  0  0  0  0  0  0
    4.6156   -9.0586    3.9892 H   0  0  0  0  0  0  0  0  0  0  0  0
    3.7813   -6.5604    5.4169 H   0  0  0  0  0  0  0  0  0  0  0  0
    4.9990   -7.6879    5.8301 H   0  0  0  0  0  0  0  0  0  0  0  0
    6.8511   -6.3941    6.1031 H   0  0  0  0  0  0  0  0  0  0  0  0
    7.7507   -5.8120    4.7173 H   0  0  0  0  0  0  0  0  0  0  0  0
    7.3414   -7.5170    4.8568 H   0  0  0  0  0  0  0  0  0  0  0  0
    5.7056   -4.2044    3.5506 H   0  0  0  0  0  0  0  0  0  0  0  0
    5.0540   -4.7534    6.4568 H   0  0  0  0  0  0  0  0  0  0  0  0
    6.5040   -4.0535    5.7817 H   0  0  0  0  0  0  0  0  0  0  0  0
    5.2029   -2.2510    6.6626 H   0  0  0  0  0  0  0  0  0  0  0  0
    5.3240   -2.1855    4.9299 H   0  0  0  0  0  0  0  0  0  0  0  0
    3.2950   -2.8084    7.8867 H   0  0  0  0  0  0  0  0  0  0  0  0
    2.8898   -4.3146    7.1097 H   0  0  0  0  0  0  0  0  0  0  0  0
    1.7099   -3.0226    7.1765 H   0  0  0  0  0  0  0  0  0  0  0  0
    0.8639   -4.3185    3.7167 H   0  0  0  0  0  0  0  0  0  0  0  0
    0.8818   -4.1409    5.4171 H   0  0  0  0  0  0  0  0  0  0  0  0
   -0.2451   -2.2713    3.9024 H   0  0  0  0  0  0  0  0  0  0  0  0
   -0.1246   -0.1361    3.6581 H   0  0  0  0  0  0  0  0  0  0  0  0
   -0.4781    0.5295    6.0012 H   0  0  0  0  0  0  0  0  0  0  0  0
    1.0111    1.4230    5.9838 H   0  0  0  0  0  0  0  0  0  0  0  0
   -2.2649    2.9046    3.6279 H   0  0  0  0  0  0  0  0  0  0  0  0
   -2.4304    1.3842    4.5095 H   0  0  0  0  0  0  0  0  0  0  0  0
   -1.4926    1.4509    3.0351 H   0  0  0  0  0  0  0  0  0  0  0  0
   -1.4057    4.1541    5.6001 H   0  0  0  0  0  0  0  0  0  0  0  0
   -0.0928    3.5270    6.5912 H   0  0  0  0  0  0  0  0  0  0  0  0
   -1.6603    2.7218    6.5922 H   0  0  0  0  0  0  0  0  0  0  0  0
    0.1493    4.0088    3.5303 H   0  0  0  0  0  0  0  0  0  0  0  0
    1.3856    3.4295    4.6015 H   0  0  0  0  0  0  0  0  0  0  0  0
    0.3952    2.1220    2.0578 H   0  0  0  0  0  0  0  0  0  0  0  0
    1.9487    2.8128    2.3267 H   0  0  0  0  0  0  0  0  0  0  0  0
    2.5072    0.4703    1.2309 H   0  0  0  0  0  0  0  0  0  0  0  0
    0.8453   -0.0509    1.4470 H   0  0  0  0  0  0  0  0  0  0  0  0
    2.1459   -1.0083    2.1170 H   0  0  0  0  0  0  0  0  0  0  0  0
    3.8107    1.3800    3.1661 H   0  0  0  0  0  0  0  0  0  0  0  0
    3.0772    1.6781    4.7029 H   0  0  0  0  0  0  0  0  0  0  0  0
    3.9011   -1.0222    3.5251 H   0  0  0  0  0  0  0  0  0  0  0  0
    4.6355   -0.1684    4.8585 H   0  0  0  0  0  0  0  0  0  0  0  0
    3.6437   -0.6536    7.3315 H   0  0  0  0  0  0  0  0  0  0  0  0
    1.8831   -0.6276    7.3172 H   0  0  0  0  0  0  0  0  0  0  0  0
    2.8286    0.6600    6.6006 H   0  0  0  0  0  0  0  0  0  0  0  0
  1  2  1  0
  1 38  1  0
  1 39  1  0
  1 40  1  0
  2 13  1  0
  2  3  2  0
  3  9  1  0
  3  4  1  0
  4  5  1  0
  4 41  1  0
  4 42  1  0
  5  6  1  0
  5  7  1  0
  5 43  1  1
  6 44  1  0
  6 45  1  0
  6 46  1  0
  7 21  1  0
  7  8  1  0
  7 47  1  6
  8  9  1  0
  8 48  1  0
  8 49  1  0
  9 10  1  6
  9 11  1  0
 10 50  1  0
 10 51  1  0
 10 52  1  0
 11 12  1  0
 11 53  1  0
 11 54  1  0
 12 13  1  0
 12 55  1  0
 12 56  1  0
 13 14  1  1
 13 15  1  0
 14 57  1  0
 14 58  1  0
 14 59  1  0
 15 21  1  0
 15 16  1  0
 15 60  1  6
 16 17  1  0
 16 61  1  0
 16 62  1  0
 17 18  1  0
 17 63  1  0
 17 64  1  0
 18 36  1  0
 18 19  1  1
 18 20  1  0
 19 65  1  0
 19 66  1  0
 19 67  1  0
 20 21  2  0
 20 22  1  0
 22 23  1  0
 22 68  1  0
 22 69  1  0
 23 24  2  0
 23 70  1  0
 24 36  1  0
 24 25  1  0
 25 32  1  0
 25 26  1  0
 25 71  1  6
 26 27  1  0
 26 72  1  0
 26 73  1  0
 27 28  1  0
 27 29  1  0
 27 30  1  0
 28 74  1  0
 28 75  1  0
 28 76  1  0
 29 77  1  0
 29 78  1  0
 29 79  1  0
 30 31  1  0
 30 80  1  0
 30 81  1  0
 31 32  1  0
 31 82  1  0
 31 83  1  0
 32 33  1  6
 32 34  1  0
 33 84  1  0
 33 85  1  0
 33 86  1  0
 34 35  1  0
 34 87  1  0
 34 88  1  0
 35 36  1  0
 35 89  1  0
 35 90  1  0
 36 37  1  1
 37 91  1  0
 37 92  1  0
 37 93  1  0
M  END
>  <i_m_ct_stereo_status>  (288) 
1

>  <s_m_source_file>  (288) 
/var/tmp/pbs.5076255.sched01/tmppxgjifq_/8475v0iq0b.sdf

>  <i_m_source_file_index>  (288) 
40

>  <i_lp_mmshare_version>  (288) 
48012

>  <i_f3d_flags>  (288) 
0

>  <s_epik_input>  (288) 
W0NIM11bQ0BAXTEyQzM9QyhbQ0gzXSlbQ0BdKFtDSDNdKShbQ0gyXVtDSDJdMilbQ0BIXTRDKFtDQEhdKFtDSDJdMSlbQ0BASF0oW0NIMl0zKVtDSDNdKT1DNVtDQEBdKFtDSDNdKShbQ0gyXVtDSDJdNClbQ0BdNihbQ0gzXSlDKD1bQ0hdW0NIMl01KVtDQEBIXTdbQ0BdKFtDSDNdKShbQ0gyXVtDSDJdNilbQ0gyXVtDSDJdQyhbQ0gyXTcpKFtDSDNdKVtDSDNd

>  <s_epik_cmdline>  (288) 
J2VwaWtfcHl0aG9uJywgJy1waHQnLCAnMi4wJywgJy1waCcsICc3LjAnLCAnLXRuJywgJzgnLCAnLW1hJywgJzIwMCcsICctaW1hZScsICc8aW5maWxlLm1hZT4nLCAnLW9tYWUnLCAnPG91dGZpbGUubWFlPic=

>  <r_lp_tautomer_probability>  (288) 
1

>  <r_epik_Ionization_Penalty>  (288) 
0

>  <r_epik_Ionization_Penalty_Charging>  (288) 
0

>  <r_epik_Ionization_Penalty_Neutral>  (288) 
0

>  <r_epik_State_Penalty>  (288) 
-0

>  <r_epik_Charging_Adjusted_Penalty>  (288) 
0

>  <i_epik_Tot_Q>  (288) 
0

>  <i_epik_Tot_abs_Q>  (288) 
0

>  <s_lp_Force_Field>  (288) 
OPLS3e

>  <r_lp_Energy>  (288) 
134.534

>  <b_lp_Chiralities_Consistent>  (288) 
1

>  <s_lp_Variant>  (288) 
82:0-1

>  <s_i_glide_gridfile>  (288) 
pfpi4k_grid

>  <i_i_glide_lignum>  (288) 
40

>  <i_i_glide_rotatable_bonds>  (288) 
0

>  <r_i_docking_score>  (288) 
-1.90965

>  <r_i_glide_ligand_efficiency>  (288) 
-0.0516121

>  <r_i_glide_ligand_efficiency_sa>  (288) 
-0.171983

>  <r_i_glide_ligand_efficiency_ln>  (288) 
-0.414158

>  <r_i_glide_gscore>  (288) 
-1.90965

>  <r_i_glide_lipo>  (288) 
-0.280976

>  <r_i_glide_hbond>  (288) 
0

>  <r_i_glide_metal>  (288) 
-0

>  <r_i_glide_rewards>  (288) 
0

>  <r_i_glide_evdw>  (288) 
-29.8805

>  <r_i_glide_ecoul>  (288) 
-0.897642

>  <r_i_glide_erotb>  (288) 
0

>  <r_i_glide_esite>  (288) 
0

>  <r_i_glide_emodel>  (288) 
-34.0864

>  <r_i_glide_energy>  (288) 
-30.7782

>  <r_i_glide_einternal>  (288) 
0

>  <r_i_glide_intrahb_reward>  (288) 
-0

>  <i_i_glide_confnum>  (288) 
2

>  <i_i_glide_posenum>  (288) 
21

>  <r_i_glide_eff_state_penalty>  (288) 
0

>  <ligand_id>  (288) 
82

>  <original_smiles>  (288) 
CC1=C2CC(C)C3CC2(C)CCC1(C)C1CCC2(C)C(=C31)CC=C1C3CC(C)(C)CCC3(C)CCC12C

>  <smiles>  (288) 
[H]C1=C2C3([H])C([H])([H])C(C([H])([H])[H])(C([H])([H])[H])C([H])([H])C([H])([H])C3(C([H])([H])[H])C([H])([H])C([H])([H])C2(C([H])([H])[H])C2(C([H])([H])[H])C(=C3C4([H])C([H])([H])C5(C([H])([H])[H])C(=C(C([H])([H])[H])C(C([H])([H])[H])(C([H])([H])C5([H])[H])C3([H])C([H])([H])C2([H])[H])C([H])([H])C4([H])C([H])([H])[H])C1([H])[H]

$$$$
82:0:2
     RDKit          3D

 93 99  0  0  1  0  0  0  0  0999 V2000
    2.2281    1.1565    7.1870 C   0  0  0  0  0  0  0  0  0  0  0  0
    2.3895    0.9660    5.6743 C   0  0  0  0  0  0  0  0  0  0  0  0
    1.3600    1.0811    4.8091 C   0  0  0  0  0  0  0  0  0  0  0  0
    0.0180    0.5574    5.2642 C   0  0  0  0  0  0  0  0  0  0  0  0
    0.1797   -0.9864    5.2710 C   0  0  1  0  0  0  0  0  0  0  0  0
   -1.2078   -1.6516    5.2817 C   0  0  0  0  0  0  0  0  0  0  0  0
    1.1040   -1.5040    4.0993 C   0  0  1  0  0  0  0  0  0  0  0  0
    1.1586   -0.5191    2.9015 C   0  0  0  0  0  0  0  0  0  0  0  0
    1.5470    0.9290    3.3002 C   0  0  1  0  0  0  0  0  0  0  0  0
    0.6705    1.9453    2.5371 C   0  0  0  0  0  0  0  0  0  0  0  0
    3.0014    1.2611    2.9366 C   0  0  0  0  0  0  0  0  0  0  0  0
    4.0053    0.4243    3.7108 C   0  0  0  0  0  0  0  0  0  0  0  0
    3.6701    0.2373    5.2202 C   0  0  1  0  0  0  0  0  0  0  0  0
    4.8648    0.8436    6.0121 C   0  0  0  0  0  0  0  0  0  0  0  0
    3.4291   -1.3179    5.4929 C   0  0  2  0  0  0  0  0  0  0  0  0
    4.7939   -2.0307    5.6479 C   0  0  0  0  0  0  0  0  0  0  0  0
    4.6302   -3.5350    5.7905 C   0  0  0  0  0  0  0  0  0  0  0  0
    4.0109   -4.2002    4.5316 C   0  0  2  0  0  0  0  0  0  0  0  0
    5.1251   -4.2248    3.4384 C   0  0  0  0  0  0  0  0  0  0  0  0
    2.8760   -3.3145    3.9790 C   0  0  0  0  0  0  0  0  0  0  0  0
    2.4963   -2.0993    4.4938 C   0  0  0  0  0  0  0  0  0  0  0  0
    2.2672   -3.9271    2.7119 C   0  0  0  0  0  0  0  0  0  0  0  0
    1.8941   -5.3652    2.9151 C   0  0  0  0  0  0  0  0  0  0  0  0
    2.3897   -6.1693    3.8694 C   0  0  0  0  0  0  0  0  0  0  0  0
    1.6568   -7.4991    4.1274 C   0  0  1  0  0  0  0  0  0  0  0  0
    2.4626   -8.7754    3.7819 C   0  0  0  0  0  0  0  0  0  0  0  0
    1.6401  -10.0724    3.9565 C   0  0  0  0  0  0  0  0  0  0  0  0
    0.4338  -10.1174    2.9910 C   0  0  0  0  0  0  0  0  0  0  0  0
    2.5353  -11.2900    3.6545 C   0  0  0  0  0  0  0  0  0  0  0  0
    1.1874  -10.1285    5.4295 C   0  0  0  0  0  0  0  0  0  0  0  0
    0.3666   -8.8996    5.8546 C   0  0  0  0  0  0  0  0  0  0  0  0
    1.0157   -7.5170    5.5441 C   0  0  2  0  0  0  0  0  0  0  0  0
   -0.1254   -6.4706    5.6134 C   0  0  0  0  0  0  0  0  0  0  0  0
    2.1018   -7.1553    6.5821 C   0  0  0  0  0  0  0  0  0  0  0  0
    2.8370   -5.8201    6.2849 C   0  0  0  0  0  0  0  0  0  0  0  0
    3.4848   -5.6949    4.8669 C   0  0  2  0  0  0  0  0  0  0  0  0
    4.7099   -6.6517    4.8404 C   0  0  0  0  0  0  0  0  0  0  0  0
    2.9194    1.9292    7.5219 H   0  0  0  0  0  0  0  0  0  0  0  0
    2.4385    0.2491    7.7487 H   0  0  0  0  0  0  0  0  0  0  0  0
    1.2445    1.5141    7.4818 H   0  0  0  0  0  0  0  0  0  0  0  0
   -0.3008    0.9216    6.2366 H   0  0  0  0  0  0  0  0  0  0  0  0
   -0.7630    0.8624    4.5710 H   0  0  0  0  0  0  0  0  0  0  0  0
    0.6533   -1.2718    6.2115 H   0  0  0  0  0  0  0  0  0  0  0  0
   -1.7608   -1.4463    4.3619 H   0  0  0  0  0  0  0  0  0  0  0  0
   -1.8129   -1.2815    6.1037 H   0  0  0  0  0  0  0  0  0  0  0  0
   -1.1259   -2.7337    5.3905 H   0  0  0  0  0  0  0  0  0  0  0  0
    0.5261   -2.3497    3.7437 H   0  0  0  0  0  0  0  0  0  0  0  0
    1.8067   -0.8940    2.1088 H   0  0  0  0  0  0  0  0  0  0  0  0
    0.1612   -0.5058    2.4551 H   0  0  0  0  0  0  0  0  0  0  0  0
    0.8802    1.9193    1.4666 H   0  0  0  0  0  0  0  0  0  0  0  0
    0.8545    2.9655    2.8806 H   0  0  0  0  0  0  0  0  0  0  0  0
   -0.3981    1.7556    2.6450 H   0  0  0  0  0  0  0  0  0  0  0  0
    3.1709    1.1523    1.8654 H   0  0  0  0  0  0  0  0  0  0  0  0
    3.1877    2.3117    3.1631 H   0  0  0  0  0  0  0  0  0  0  0  0
    4.1218   -0.5351    3.2095 H   0  0  0  0  0  0  0  0  0  0  0  0
    4.9816    0.8936    3.5971 H   0  0  0  0  0  0  0  0  0  0  0  0
    5.8286    0.4802    5.6547 H   0  0  0  0  0  0  0  0  0  0  0  0
    4.8191    0.6227    7.0787 H   0  0  0  0  0  0  0  0  0  0  0  0
    4.8839    1.9297    5.9026 H   0  0  0  0  0  0  0  0  0  0  0  0
    2.9378   -1.4294    6.4563 H   0  0  0  0  0  0  0  0  0  0  0  0
    5.4512   -1.7987    4.8099 H   0  0  0  0  0  0  0  0  0  0  0  0
    5.2994   -1.6718    6.5454 H   0  0  0  0  0  0  0  0  0  0  0  0
    5.5879   -3.9913    6.0380 H   0  0  0  0  0  0  0  0  0  0  0  0
    4.0050   -3.6523    6.6716 H   0  0  0  0  0  0  0  0  0  0  0  0
    6.0849   -4.5606    3.8287 H   0  0  0  0  0  0  0  0  0  0  0  0
    5.2951   -3.2337    3.0168 H   0  0  0  0  0  0  0  0  0  0  0  0
    4.8793   -4.8850    2.6062 H   0  0  0  0  0  0  0  0  0  0  0  0
    1.4175   -3.3927    2.3077 H   0  0  0  0  0  0  0  0  0  0  0  0
    3.0008   -3.8916    1.9067 H   0  0  0  0  0  0  0  0  0  0  0  0
    1.1124   -5.7233    2.2655 H   0  0  0  0  0  0  0  0  0  0  0  0
    0.8223   -7.5063    3.4284 H   0  0  0  0  0  0  0  0  0  0  0  0
    2.8586   -8.7126    2.7676 H   0  0  0  0  0  0  0  0  0  0  0  0
    3.3222   -8.8731    4.4342 H   0  0  0  0  0  0  0  0  0  0  0  0
   -0.0889  -11.0672    3.0655 H   0  0  0  0  0  0  0  0  0  0  0  0
    0.7577   -9.9926    1.9576 H   0  0  0  0  0  0  0  0  0  0  0  0
   -0.3115   -9.3487    3.1945 H   0  0  0  0  0  0  0  0  0  0  0  0
    1.9913  -12.2268    3.7920 H   0  0  0  0  0  0  0  0  0  0  0  0
    3.4047  -11.3202    4.3120 H   0  0  0  0  0  0  0  0  0  0  0  0
    2.8985  -11.2710    2.6247 H   0  0  0  0  0  0  0  0  0  0  0  0
    0.6070  -11.0346    5.6140 H   0  0  0  0  0  0  0  0  0  0  0  0
    2.0583  -10.2137    6.0764 H   0  0  0  0  0  0  0  0  0  0  0  0
   -0.6095   -8.9682    5.3744 H   0  0  0  0  0  0  0  0  0  0  0  0
    0.1578   -8.9772    6.9203 H   0  0  0  0  0  0  0  0  0  0  0  0
   -0.5631   -6.4281    6.6120 H   0  0  0  0  0  0  0  0  0  0  0  0
   -0.9253   -6.7199    4.9146 H   0  0  0  0  0  0  0  0  0  0  0  0
    0.2085   -5.4635    5.3624 H   0  0  0  0  0  0  0  0  0  0  0  0
    1.6558   -7.0964    7.5758 H   0  0  0  0  0  0  0  0  0  0  0  0
    2.8232   -7.9690    6.6481 H   0  0  0  0  0  0  0  0  0  0  0  0
    2.1386   -4.9963    6.4282 H   0  0  0  0  0  0  0  0  0  0  0  0
    3.6029   -5.7125    7.0536 H   0  0  0  0  0  0  0  0  0  0  0  0
    5.5951   -6.1967    5.2828 H   0  0  0  0  0  0  0  0  0  0  0  0
    4.9650   -6.9575    3.8254 H   0  0  0  0  0  0  0  0  0  0  0  0
    4.5657   -7.5551    5.4215 H   0  0  0  0  0  0  0  0  0  0  0  0
  1  2  1  0
  1 38  1  0
  1 39  1  0
  1 40  1  0
  2 13  1  0
  2  3  2  0
  3  9  1  0
  3  4  1  0
  4  5  1  0
  4 41  1  0
  4 42  1  0
  5  6  1  0
  5  7  1  0
  5 43  1  1
  6 44  1  0
  6 45  1  0
  6 46  1  0
  7 21  1  0
  7  8  1  0
  7 47  1  6
  8  9  1  0
  8 48  1  0
  8 49  1  0
  9 10  1  6
  9 11  1  0
 10 50  1  0
 10 51  1  0
 10 52  1  0
 11 12  1  0
 11 53  1  0
 11 54  1  0
 12 13  1  0
 12 55  1  0
 12 56  1  0
 13 14  1  1
 13 15  1  0
 14 57  1  0
 14 58  1  0
 14 59  1  0
 15 21  1  0
 15 16  1  0
 15 60  1  1
 16 17  1  0
 16 61  1  0
 16 62  1  0
 17 18  1  0
 17 63  1  0
 17 64  1  0
 18 36  1  0
 18 19  1  6
 18 20  1  0
 19 65  1  0
 19 66  1  0
 19 67  1  0
 20 21  2  0
 20 22  1  0
 22 23  1  0
 22 68  1  0
 22 69  1  0
 23 24  2  0
 23 70  1  0
 24 36  1  0
 24 25  1  0
 25 32  1  0
 25 26  1  0
 25 71  1  6
 26 27  1  0
 26 72  1  0
 26 73  1  0
 27 28  1  0
 27 29  1  0
 27 30  1  0
 28 74  1  0
 28 75  1  0
 28 76  1  0
 29 77  1  0
 29 78  1  0
 29 79  1  0
 30 31  1  0
 30 80  1  0
 30 81  1  0
 31 32  1  0
 31 82  1  0
 31 83  1  0
 32 33  1  6
 32 34  1  0
 33 84  1  0
 33 85  1  0
 33 86  1  0
 34 35  1  0
 34 87  1  0
 34 88  1  0
 35 36  1  0
 35 89  1  0
 35 90  1  0
 36 37  1  1
 37 91  1  0
 37 92  1  0
 37 93  1  0
M  END
>  <i_m_ct_stereo_status>  (289) 
1

>  <s_m_source_file>  (289) 
/var/tmp/pbs.5076255.sched01/tmppxgjifq_/8475v0iq0b.sdf

>  <i_m_source_file_index>  (289) 
40

>  <i_lp_mmshare_version>  (289) 
48012

>  <i_f3d_flags>  (289) 
0

>  <s_epik_input>  (289) 
W0NIM11bQ0BAXTEyQzM9QyhbQ0gzXSlbQ0BdKFtDSDNdKShbQ0gyXVtDSDJdMilbQ0BIXTRDKFtDQEhdKFtDSDJdMSlbQ0BASF0oW0NIMl0zKVtDSDNdKT1DNVtDQEBdKFtDSDNdKShbQ0gyXVtDSDJdNClbQ0BdNihbQ0gzXSlDKD1bQ0hdW0NIMl01KVtDQEBIXTdbQ0BdKFtDSDNdKShbQ0gyXVtDSDJdNilbQ0gyXVtDSDJdQyhbQ0gyXTcpKFtDSDNdKVtDSDNd

>  <s_epik_cmdline>  (289) 
J2VwaWtfcHl0aG9uJywgJy1waHQnLCAnMi4wJywgJy1waCcsICc3LjAnLCAnLXRuJywgJzgnLCAnLW1hJywgJzIwMCcsICctaW1hZScsICc8aW5maWxlLm1hZT4nLCAnLW9tYWUnLCAnPG91dGZpbGUubWFlPic=

>  <r_lp_tautomer_probability>  (289) 
1

>  <r_epik_Ionization_Penalty>  (289) 
0

>  <r_epik_Ionization_Penalty_Charging>  (289) 
0

>  <r_epik_Ionization_Penalty_Neutral>  (289) 
0

>  <r_epik_State_Penalty>  (289) 
-0

>  <r_epik_Charging_Adjusted_Penalty>  (289) 
0

>  <i_epik_Tot_Q>  (289) 
0

>  <i_epik_Tot_abs_Q>  (289) 
0

>  <s_lp_Force_Field>  (289) 
OPLS3e

>  <r_lp_Energy>  (289) 
134.534

>  <b_lp_Chiralities_Consistent>  (289) 
1

>  <s_lp_Variant>  (289) 
82:0-1

>  <s_i_glide_gridfile>  (289) 
pfpi4k_grid

>  <i_i_glide_lignum>  (289) 
40

>  <i_i_glide_rotatable_bonds>  (289) 
0

>  <r_i_docking_score>  (289) 
-1.56089

>  <r_i_glide_ligand_efficiency>  (289) 
-0.0421863

>  <r_i_glide_ligand_efficiency_sa>  (289) 
-0.140574

>  <r_i_glide_ligand_efficiency_ln>  (289) 
-0.338521

>  <r_i_glide_gscore>  (289) 
-1.56089

>  <r_i_glide_lipo>  (289) 
-0.0831248

>  <r_i_glide_hbond>  (289) 
0

>  <r_i_glide_metal>  (289) 
-0

>  <r_i_glide_rewards>  (289) 
0

>  <r_i_glide_evdw>  (289) 
-29.1643

>  <r_i_glide_ecoul>  (289) 
-0.130357

>  <r_i_glide_erotb>  (289) 
0

>  <r_i_glide_esite>  (289) 
0

>  <r_i_glide_emodel>  (289) 
-31.9311

>  <r_i_glide_energy>  (289) 
-29.2947

>  <r_i_glide_einternal>  (289) 
0

>  <r_i_glide_intrahb_reward>  (289) 
-0

>  <i_i_glide_confnum>  (289) 
2

>  <i_i_glide_posenum>  (289) 
31

>  <r_i_glide_eff_state_penalty>  (289) 
0

>  <ligand_id>  (289) 
82

>  <original_smiles>  (289) 
CC1=C2CC(C)C3CC2(C)CCC1(C)C1CCC2(C)C(=C31)CC=C1C3CC(C)(C)CCC3(C)CCC12C

>  <smiles>  (289) 
[H]C1=C2C3([H])C([H])([H])C(C([H])([H])[H])(C([H])([H])[H])C([H])([H])C([H])([H])C3(C([H])([H])[H])C([H])([H])C([H])([H])C2(C([H])([H])[H])C2(C([H])([H])[H])C(=C3C4([H])C([H])([H])C5(C([H])([H])[H])C(=C(C([H])([H])[H])C(C([H])([H])[H])(C([H])([H])C5([H])[H])C3([H])C([H])([H])C2([H])[H])C([H])([H])C4([H])C([H])([H])[H])C1([H])[H]

$$$$
83:0:0
     RDKit          3D

 89 95  0  0  1  0  0  0  0  0999 V2000
    6.1415   -1.3955    0.0804 C   0  0  0  0  0  0  0  0  0  0  0  0
    5.8963   -2.0770    1.4315 C   0  0  2  0  0  0  0  0  0  0  0  0
    5.4322   -3.5261    1.2651 C   0  0  0  0  0  0  0  0  0  0  0  0
    3.9583   -3.6410    0.8279 C   0  0  1  0  0  0  0  0  0  0  0  0
    3.4970   -5.1126    0.5643 C   0  0  0  0  0  0  0  0  0  0  0  0
    4.5353   -5.9346   -0.2343 C   0  0  0  0  0  0  0  0  0  0  0  0
    3.0837   -5.8947    1.8165 C   0  0  0  0  0  0  0  0  0  0  0  0
    2.3220   -5.0433   -0.2253 O   0  0  0  0  0  0  0  0  0  0  0  0
    3.0907   -2.8972    1.8740 C   0  0  0  0  0  0  0  0  0  0  0  0
    3.4778   -1.4049    2.0762 C   0  0  2  0  0  0  0  0  0  0  0  0
    4.9743   -1.2558    2.3201 C   0  0  0  0  0  0  0  0  0  0  0  0
    5.4676   -0.4093    3.2331 C   0  0  0  0  0  0  0  0  0  0  0  0
    4.6171    0.5011    4.0814 C   0  0  0  0  0  0  0  0  0  0  0  0
    3.1961    0.7216    3.4992 C   0  0  1  0  0  0  0  0  0  0  0  0
    2.5930   -0.6630    3.1516 C   0  0  2  0  0  0  0  0  0  0  0  0
    2.4599   -1.5199    4.4376 C   0  0  0  0  0  0  0  0  0  0  0  0
    1.2271   -0.3852    2.5257 C   0  0  0  0  0  0  0  0  0  0  0  0
    0.2678    0.2480    3.5217 C   0  0  0  0  0  0  0  0  0  0  0  0
    0.6988    1.6162    4.1108 C   0  0  2  0  0  0  0  0  0  0  0  0
    2.2809    1.7977    4.2724 C   0  0  2  0  0  0  0  0  0  0  0  0
    2.6194    3.1579    3.5809 C   0  0  0  0  0  0  0  0  0  0  0  0
    2.7563    1.9511    5.7481 C   0  0  0  0  0  0  0  0  0  0  0  0
    2.3426    3.1280    6.4225 O   0  0  0  0  0  0  0  0  0  0  0  0
    1.0400    3.2246    6.9647 C   0  0  1  0  0  0  0  0  0  0  0  0
   -0.0446    3.4248    5.9031 C   0  0  2  0  0  0  0  0  0  0  0  0
   -1.2189    3.9844    6.5507 O   0  0  0  0  0  0  0  0  0  0  0  0
   -1.6798    3.5481    7.8639 C   0  0  0  0  0  0  0  0  0  0  0  0
   -1.9012    4.8757    8.6299 C   0  0  0  0  0  0  0  0  0  0  0  0
   -3.0401    2.8265    7.7862 C   0  0  0  0  0  0  0  0  0  0  0  0
   -0.5974    2.7211    8.6190 C   0  0  1  0  0  0  0  0  0  0  0  0
   -0.9289    1.6539    9.6360 C   0  0  0  0  0  0  0  0  0  0  0  0
    0.4132    0.9440    9.7180 C   0  0  0  0  0  0  0  0  0  0  0  0
    0.7115    0.1893   10.6456 O   0  0  0  0  0  0  0  0  0  0  0  0
    1.1599    1.2862    8.6491 O   0  0  0  0  0  0  0  0  0  0  0  0
    0.4159    2.0309    7.6938 C   0  0  2  0  0  0  0  0  0  0  0  0
   -0.1006    1.1079    6.5451 C   0  0  1  0  0  0  0  0  0  0  0  0
   -1.2387    0.3213    6.8246 O   0  0  0  0  0  0  0  0  0  0  0  0
   -0.2982    2.0182    5.2923 C   0  0  2  0  0  0  0  0  0  0  0  0
   -1.7377    1.9819    4.6866 C   0  0  0  0  0  0  0  0  0  0  0  0
    6.6203   -0.4283    0.2388 H   0  0  0  0  0  0  0  0  0  0  0  0
    5.2154   -1.2279   -0.4730 H   0  0  0  0  0  0  0  0  0  0  0  0
    6.8052   -1.9990   -0.5443 H   0  0  0  0  0  0  0  0  0  0  0  0
    6.8689   -2.1299    1.9156 H   0  0  0  0  0  0  0  0  0  0  0  0
    6.1055   -3.9797    0.5400 H   0  0  0  0  0  0  0  0  0  0  0  0
    5.5658   -4.0560    2.2072 H   0  0  0  0  0  0  0  0  0  0  0  0
    3.8648   -3.1054   -0.1192 H   0  0  0  0  0  0  0  0  0  0  0  0
    5.4828   -6.0807    0.2830 H   0  0  0  0  0  0  0  0  0  0  0  0
    4.7427   -5.4574   -1.1906 H   0  0  0  0  0  0  0  0  0  0  0  0
    4.1724   -6.9403   -0.4396 H   0  0  0  0  0  0  0  0  0  0  0  0
    3.8868   -5.9251    2.5512 H   0  0  0  0  0  0  0  0  0  0  0  0
    2.8242   -6.9208    1.5572 H   0  0  0  0  0  0  0  0  0  0  0  0
    2.2011   -5.4584    2.2842 H   0  0  0  0  0  0  0  0  0  0  0  0
    2.5606   -5.2271   -1.1368 H   0  0  0  0  0  0  0  0  0  0  0  0
    2.0424   -2.9991    1.6001 H   0  0  0  0  0  0  0  0  0  0  0  0
    3.2176   -3.4080    2.8275 H   0  0  0  0  0  0  0  0  0  0  0  0
    3.3222   -0.9084    1.1166 H   0  0  0  0  0  0  0  0  0  0  0  0
    6.5336   -0.3086    3.3602 H   0  0  0  0  0  0  0  0  0  0  0  0
    4.6138    0.0923    5.0931 H   0  0  0  0  0  0  0  0  0  0  0  0
    5.1347    1.4468    4.1170 H   0  0  0  0  0  0  0  0  0  0  0  0
    3.3664    1.1528    2.5106 H   0  0  0  0  0  0  0  0  0  0  0  0
    2.0810   -0.9378    5.2758 H   0  0  0  0  0  0  0  0  0  0  0  0
    3.4224   -1.9251    4.7553 H   0  0  0  0  0  0  0  0  0  0  0  0
    1.7773   -2.3589    4.2916 H   0  0  0  0  0  0  0  0  0  0  0  0
    1.3417    0.2843    1.6701 H   0  0  0  0  0  0  0  0  0  0  0  0
    0.7809   -1.2934    2.1252 H   0  0  0  0  0  0  0  0  0  0  0  0
   -0.6495    0.3897    2.9512 H   0  0  0  0  0  0  0  0  0  0  0  0
    0.0264   -0.4632    4.3072 H   0  0  0  0  0  0  0  0  0  0  0  0
    0.4281    2.3079    3.3106 H   0  0  0  0  0  0  0  0  0  0  0  0
    2.1037    4.0157    4.0218 H   0  0  0  0  0  0  0  0  0  0  0  0
    2.3385    3.1442    2.5179 H   0  0  0  0  0  0  0  0  0  0  0  0
    3.6903    3.3768    3.6217 H   0  0  0  0  0  0  0  0  0  0  0  0
    2.6584    1.0542    6.3439 H   0  0  0  0  0  0  0  0  0  0  0  0
    3.8230    2.1452    5.7417 H   0  0  0  0  0  0  0  0  0  0  0  0
    1.0899    4.1149    7.5927 H   0  0  0  0  0  0  0  0  0  0  0  0
    0.2689    4.1265    5.1323 H   0  0  0  0  0  0  0  0  0  0  0  0
   -2.2305    4.7135    9.6573 H   0  0  0  0  0  0  0  0  0  0  0  0
   -2.6684    5.4988    8.1631 H   0  0  0  0  0  0  0  0  0  0  0  0
   -0.9871    5.4745    8.6682 H   0  0  0  0  0  0  0  0  0  0  0  0
   -3.5143    2.7648    8.7647 H   0  0  0  0  0  0  0  0  0  0  0  0
   -2.9866    1.8234    7.3967 H   0  0  0  0  0  0  0  0  0  0  0  0
   -3.7322    3.3269    7.1183 H   0  0  0  0  0  0  0  0  0  0  0  0
   -0.0407    3.4479    9.2206 H   0  0  0  0  0  0  0  0  0  0  0  0
   -1.2460    2.0511   10.6053 H   0  0  0  0  0  0  0  0  0  0  0  0
   -1.6756    0.9751    9.2423 H   0  0  0  0  0  0  0  0  0  0  0  0
    0.6513    0.3549    6.3416 H   0  0  0  0  0  0  0  0  0  0  0  0
   -1.4221   -0.1603    6.0349 H   0  0  0  0  0  0  0  0  0  0  0  0
   -2.4946    2.4584    5.2958 H   0  0  0  0  0  0  0  0  0  0  0  0
   -2.1093    0.9717    4.5069 H   0  0  0  0  0  0  0  0  0  0  0  0
   -1.7704    2.5053    3.7284 H   0  0  0  0  0  0  0  0  0  0  0  0
  1  2  1  0
  1 40  1  0
  1 41  1  0
  1 42  1  0
  2 11  1  0
  2  3  1  0
  2 43  1  1
  3  4  1  0
  3 44  1  0
  3 45  1  0
  4  5  1  0
  4  9  1  0
  4 46  1  6
  5  6  1  0
  5  7  1  0
  5  8  1  0
  6 47  1  0
  6 48  1  0
  6 49  1  0
  7 50  1  0
  7 51  1  0
  7 52  1  0
  8 53  1  0
  9 10  1  0
  9 54  1  0
  9 55  1  0
 10 15  1  0
 10 11  1  0
 10 56  1  6
 11 12  2  0
 12 13  1  0
 12 57  1  0
 13 14  1  0
 13 58  1  0
 13 59  1  0
 14 20  1  0
 14 15  1  0
 14 60  1  6
 15 16  1  1
 15 17  1  0
 16 61  1  0
 16 62  1  0
 16 63  1  0
 17 18  1  0
 17 64  1  0
 17 65  1  0
 18 19  1  0
 18 66  1  0
 18 67  1  0
 19 38  1  0
 19 20  1  0
 19 68  1  6
 20 21  1  6
 20 22  1  0
 21 69  1  0
 21 70  1  0
 21 71  1  0
 22 23  1  0
 22 72  1  0
 22 73  1  0
 23 24  1  0
 24 35  1  0
 24 25  1  0
 24 74  1  1
 25 38  1  0
 25 26  1  0
 25 75  1  6
 26 27  1  0
 27 28  1  0
 27 29  1  0
 27 30  1  0
 28 76  1  0
 28 77  1  0
 28 78  1  0
 29 79  1  0
 29 80  1  0
 29 81  1  0
 30 35  1  0
 30 31  1  0
 30 82  1  1
 31 32  1  0
 31 83  1  0
 31 84  1  0
 32 33  2  0
 32 34  1  0
 35 34  1  1
 35 36  1  0
 36 37  1  0
 36 38  1  0
 36 85  1  6
 37 86  1  0
 38 39  1  6
 39 87  1  0
 39 88  1  0
 39 89  1  0
M  END
>  <i_m_ct_stereo_status>  (290) 
1

>  <s_m_source_file>  (290) 
/var/tmp/pbs.5076255.sched01/tmppxgjifq_/8475v0iq0b.sdf

>  <i_m_source_file_index>  (290) 
41

>  <i_lp_mmshare_version>  (290) 
48012

>  <i_f3d_flags>  (290) 
0

>  <s_epik_input>  (290) 
W0NIM11DKFtDSDNdKShbT0hdKVtDQEBIXShbQ0gyXTEpW0NIMl1bQ0BASF0oW0NIM10pQyg9W0NIXVtDSDJdMilbQ0BASF0xW0NAXShbQ0gzXSkoW0NIMl1bQ0gyXTMpW0NASF0yW0NAXShbQ0gzXSkoW0NIMl1PNClbQ0BASF0zW0NAQF0oW0NIM10pKFtDQEBIXTVbT0hdKVtDQEhdKFtDQEhdNFtDQF01NjcpT0MoW0NIM10pKFtDSDNdKVtDQEhdNltDSDJdQyg9TylPNw==

>  <s_epik_cmdline>  (290) 
J2VwaWtfcHl0aG9uJywgJy1waHQnLCAnMi4wJywgJy1waCcsICc3LjAnLCAnLXRuJywgJzgnLCAnLW1hJywgJzIwMCcsICctaW1hZScsICc8aW5maWxlLm1hZT4nLCAnLW9tYWUnLCAnPG91dGZpbGUubWFlPic=

>  <r_lp_tautomer_probability>  (290) 
1

>  <r_epik_Ionization_Penalty>  (290) 
1.53282e-06

>  <r_epik_Ionization_Penalty_Charging>  (290) 
0

>  <r_epik_Ionization_Penalty_Neutral>  (290) 
1.53282e-06

>  <r_epik_State_Penalty>  (290) 
-0

>  <r_epik_Charging_Adjusted_Penalty>  (290) 
0

>  <i_epik_Tot_Q>  (290) 
0

>  <i_epik_Tot_abs_Q>  (290) 
0

>  <s_epik_Chemistry_Notes>  (290) 
This compound has an ester and may undergo hydrolysis at high or low pH.

>  <s_lp_Force_Field>  (290) 
OPLS3e

>  <r_lp_Energy>  (290) 
107.654

>  <b_lp_Chiralities_Consistent>  (290) 
1

>  <s_lp_Variant>  (290) 
83:0-1

>  <s_i_glide_gridfile>  (290) 
pfpi4k_grid

>  <i_i_glide_lignum>  (290) 
41

>  <i_i_glide_rotatable_bonds>  (290) 
3

>  <r_i_docking_score>  (290) 
-3.58336

>  <r_i_glide_ligand_efficiency>  (290) 
-0.0918809

>  <r_i_glide_ligand_efficiency_sa>  (290) 
-0.311588

>  <r_i_glide_ligand_efficiency_ln>  (290) 
-0.768373

>  <r_i_glide_gscore>  (290) 
-3.58336

>  <r_i_glide_lipo>  (290) 
-0.630763

>  <r_i_glide_hbond>  (290) 
-0.32

>  <r_i_glide_metal>  (290) 
-0

>  <r_i_glide_rewards>  (290) 
0

>  <r_i_glide_evdw>  (290) 
-29.2754

>  <r_i_glide_ecoul>  (290) 
-8.15903

>  <r_i_glide_erotb>  (290) 
0.0702311

>  <r_i_glide_esite>  (290) 
-0.0152014

>  <r_i_glide_emodel>  (290) 
-44.1346

>  <r_i_glide_energy>  (290) 
-37.4344

>  <r_i_glide_einternal>  (290) 
3.09434

>  <r_i_glide_intrahb_reward>  (290) 
-0

>  <i_i_glide_confnum>  (290) 
1

>  <i_i_glide_posenum>  (290) 
2

>  <r_i_glide_eff_state_penalty>  (290) 
0

>  <ligand_id>  (290) 
83

>  <original_smiles>  (290) 
CC1CC(C(C)(C)O)CC2C1=CCC1C2(C)CCC2C1(C)COC1C3OC(C)(C)C4CC(=O)OC14C(O)C32C

>  <smiles>  (290) 
[H]OC1([H])C23OC(=O)C([H])([H])C2([H])C(C([H])([H])[H])(C([H])([H])[H])OC2([H])C3([H])OC([H])([H])C3(C([H])([H])[H])C([H])(C([H])([H])C([H])([H])C4(C([H])([H])[H])C5([H])C(=C([H])C([H])([H])C43[H])C([H])(C([H])([H])[H])C([H])([H])C([H])(C(O[H])(C([H])([H])[H])C([H])([H])[H])C5([H])[H])C21C([H])([H])[H]

$$$$
83:0:1
     RDKit          3D

 89 95  0  0  1  0  0  0  0  0999 V2000
    6.6880   -4.2984    0.5444 C   0  0  0  0  0  0  0  0  0  0  0  0
    5.1628   -4.4440    0.6593 C   0  0  2  0  0  0  0  0  0  0  0  0
    4.4757   -4.4125   -0.7208 C   0  0  0  0  0  0  0  0  0  0  0  0
    4.3966   -3.0011   -1.3353 C   0  0  1  0  0  0  0  0  0  0  0  0
    3.8218   -2.9718   -2.7873 C   0  0  0  0  0  0  0  0  0  0  0  0
    3.7546   -1.5450   -3.3728 C   0  0  0  0  0  0  0  0  0  0  0  0
    4.6416   -3.8498   -3.7540 C   0  0  0  0  0  0  0  0  0  0  0  0
    2.4995   -3.4442   -2.8151 O   0  0  0  0  0  0  0  0  0  0  0  0
    3.6464   -2.0964   -0.3317 C   0  0  0  0  0  0  0  0  0  0  0  0
    4.3137   -2.0306    1.0731 C   0  0  2  0  0  0  0  0  0  0  0  0
    4.5952   -3.4192    1.6225 C   0  0  0  0  0  0  0  0  0  0  0  0
    4.4141   -3.7153    2.9281 C   0  0  0  0  0  0  0  0  0  0  0  0
    4.0027   -2.7058    3.9736 C   0  0  0  0  0  0  0  0  0  0  0  0
    4.1624   -1.2326    3.5178 C   0  0  1  0  0  0  0  0  0  0  0  0
    3.5568   -1.1094    2.0977 C   0  0  2  0  0  0  0  0  0  0  0  0
    2.0458   -1.3782    2.1192 C   0  0  0  0  0  0  0  0  0  0  0  0
    3.7882    0.3176    1.6780 C   0  0  0  0  0  0  0  0  0  0  0  0
    3.0080    1.3032    2.5415 C   0  0  0  0  0  0  0  0  0  0  0  0
    3.3894    1.3234    4.0434 C   0  0  2  0  0  0  0  0  0  0  0  0
    3.7946   -0.1067    4.6158 C   0  0  2  0  0  0  0  0  0  0  0  0
    5.1321    0.0853    5.3998 C   0  0  0  0  0  0  0  0  0  0  0  0
    2.7703   -0.6581    5.6477 C   0  0  0  0  0  0  0  0  0  0  0  0
    2.6926    0.0457    6.8838 O   0  0  0  0  0  0  0  0  0  0  0  0
    1.9621    1.2594    6.9909 C   0  0  1  0  0  0  0  0  0  0  0  0
    2.6510    2.4492    6.3268 C   0  0  2  0  0  0  0  0  0  0  0  0
    2.0970    3.6712    6.8929 O   0  0  0  0  0  0  0  0  0  0  0  0
    0.6735    3.8438    7.1642 C   0  0  0  0  0  0  0  0  0  0  0  0
    0.6492    4.3770    8.6115 C   0  0  0  0  0  0  0  0  0  0  0  0
    0.0390    4.9326    6.2811 C   0  0  0  0  0  0  0  0  0  0  0  0
   -0.0932    2.4926    7.0996 C   0  0  1  0  0  0  0  0  0  0  0  0
   -1.5441    2.3657    6.6866 C   0  0  0  0  0  0  0  0  0  0  0  0
   -1.5471    0.8777    6.4178 C   0  0  0  0  0  0  0  0  0  0  0  0
   -2.5641    0.2212    6.3839 O   0  0  0  0  0  0  0  0  0  0  0  0
   -0.3243    0.3920    6.3523 O   0  0  0  0  0  0  0  0  0  0  0  0
    0.6248    1.4215    6.2779 C   0  0  2  0  0  0  0  0  0  0  0  0
    0.9500    1.7061    4.7855 C   0  0  1  0  0  0  0  0  0  0  0  0
   -0.0025    2.4994    4.1086 O   0  0  0  0  0  0  0  0  0  0  0  0
    2.3846    2.2960    4.7990 C   0  0  2  0  0  0  0  0  0  0  0  0
    2.4926    3.7038    4.1338 C   0  0  0  0  0  0  0  0  0  0  0  0
    7.1667   -4.4620    1.5126 H   0  0  0  0  0  0  0  0  0  0  0  0
    6.9834   -3.3138    0.1785 H   0  0  0  0  0  0  0  0  0  0  0  0
    7.0936   -5.0451   -0.1365 H   0  0  0  0  0  0  0  0  0  0  0  0
    4.9739   -5.4290    1.0863 H   0  0  0  0  0  0  0  0  0  0  0  0
    4.9975   -5.1119   -1.3743 H   0  0  0  0  0  0  0  0  0  0  0  0
    3.4662   -4.7991   -0.5894 H   0  0  0  0  0  0  0  0  0  0  0  0
    5.4111   -2.6228   -1.4197 H   0  0  0  0  0  0  0  0  0  0  0  0
    4.7291   -1.0544   -3.3396 H   0  0  0  0  0  0  0  0  0  0  0  0
    3.0375   -0.9146   -2.8460 H   0  0  0  0  0  0  0  0  0  0  0  0
    3.4253   -1.5673   -4.4124 H   0  0  0  0  0  0  0  0  0  0  0  0
    5.6857   -3.5389   -3.7809 H   0  0  0  0  0  0  0  0  0  0  0  0
    4.2368   -3.7708   -4.7591 H   0  0  0  0  0  0  0  0  0  0  0  0
    4.6547   -4.9106   -3.5118 H   0  0  0  0  0  0  0  0  0  0  0  0
    2.5233   -4.4013   -2.7025 H   0  0  0  0  0  0  0  0  0  0  0  0
    3.5581   -1.0906   -0.7392 H   0  0  0  0  0  0  0  0  0  0  0  0
    2.6333   -2.4783   -0.2292 H   0  0  0  0  0  0  0  0  0  0  0  0
    5.3107   -1.6221    0.9114 H   0  0  0  0  0  0  0  0  0  0  0  0
    4.6033   -4.7137    3.2948 H   0  0  0  0  0  0  0  0  0  0  0  0
    2.9667   -2.9388    4.2213 H   0  0  0  0  0  0  0  0  0  0  0  0
    4.6089   -2.8946    4.8592 H   0  0  0  0  0  0  0  0  0  0  0  0
    5.2352   -1.1240    3.3410 H   0  0  0  0  0  0  0  0  0  0  0  0
    1.5555   -0.9086    2.9648 H   0  0  0  0  0  0  0  0  0  0  0  0
    1.8122   -2.4415    2.1169 H   0  0  0  0  0  0  0  0  0  0  0  0
    1.5984   -0.9072    1.2541 H   0  0  0  0  0  0  0  0  0  0  0  0
    4.8600    0.4620    1.7826 H   0  0  0  0  0  0  0  0  0  0  0  0
    3.5992    0.5106    0.6175 H   0  0  0  0  0  0  0  0  0  0  0  0
    3.3111    2.2540    2.1597 H   0  0  0  0  0  0  0  0  0  0  0  0
    1.9191    1.2632    2.3389 H   0  0  0  0  0  0  0  0  0  0  0  0
    4.3272    1.8958    4.0725 H   0  0  0  0  0  0  0  0  0  0  0  0
    5.0618    0.7980    6.2326 H   0  0  0  0  0  0  0  0  0  0  0  0
    5.9254    0.4656    4.7436 H   0  0  0  0  0  0  0  0  0  0  0  0
    5.5076   -0.8555    5.8148 H   0  0  0  0  0  0  0  0  0  0  0  0
    1.8096   -0.9122    5.2165 H   0  0  0  0  0  0  0  0  0  0  0  0
    3.1526   -1.5984    6.0244 H   0  0  0  0  0  0  0  0  0  0  0  0
    1.8705    1.4271    8.0715 H   0  0  0  0  0  0  0  0  0  0  0  0
    3.7151    2.4495    6.5377 H   0  0  0  0  0  0  0  0  0  0  0  0
   -0.3664    4.5583    8.9797 H   0  0  0  0  0  0  0  0  0  0  0  0
    1.1921    5.3204    8.6763 H   0  0  0  0  0  0  0  0  0  0  0  0
    1.1325    3.6833    9.3018 H   0  0  0  0  0  0  0  0  0  0  0  0
   -0.9490    5.2225    6.6474 H   0  0  0  0  0  0  0  0  0  0  0  0
   -0.0916    4.6298    5.2501 H   0  0  0  0  0  0  0  0  0  0  0  0
    0.6649    5.8231    6.2787 H   0  0  0  0  0  0  0  0  0  0  0  0
   -0.1121    2.1373    8.1375 H   0  0  0  0  0  0  0  0  0  0  0  0
   -2.2444    2.6298    7.4914 H   0  0  0  0  0  0  0  0  0  0  0  0
   -1.8201    2.9173    5.7837 H   0  0  0  0  0  0  0  0  0  0  0  0
    0.9317    0.7679    4.2457 H   0  0  0  0  0  0  0  0  0  0  0  0
    0.2476    2.5896    3.1949 H   0  0  0  0  0  0  0  0  0  0  0  0
    2.0316    4.5051    4.6986 H   0  0  0  0  0  0  0  0  0  0  0  0
    2.0316    3.7543    3.1459 H   0  0  0  0  0  0  0  0  0  0  0  0
    3.5338    4.0042    4.0228 H   0  0  0  0  0  0  0  0  0  0  0  0
  1  2  1  0
  1 40  1  0
  1 41  1  0
  1 42  1  0
  2 11  1  0
  2  3  1  0
  2 43  1  1
  3  4  1  0
  3 44  1  0
  3 45  1  0
  4  5  1  0
  4  9  1  0
  4 46  1  6
  5  6  1  0
  5  7  1  0
  5  8  1  0
  6 47  1  0
  6 48  1  0
  6 49  1  0
  7 50  1  0
  7 51  1  0
  7 52  1  0
  8 53  1  0
  9 10  1  0
  9 54  1  0
  9 55  1  0
 10 15  1  0
 10 11  1  0
 10 56  1  6
 11 12  2  0
 12 13  1  0
 12 57  1  0
 13 14  1  0
 13 58  1  0
 13 59  1  0
 14 20  1  0
 14 15  1  0
 14 60  1  6
 15 16  1  1
 15 17  1  0
 16 61  1  0
 16 62  1  0
 16 63  1  0
 17 18  1  0
 17 64  1  0
 17 65  1  0
 18 19  1  0
 18 66  1  0
 18 67  1  0
 19 38  1  0
 19 20  1  0
 19 68  1  6
 20 21  1  1
 20 22  1  0
 21 69  1  0
 21 70  1  0
 21 71  1  0
 22 23  1  0
 22 72  1  0
 22 73  1  0
 23 24  1  0
 24 35  1  0
 24 25  1  0
 24 74  1  1
 25 38  1  0
 25 26  1  0
 25 75  1  6
 26 27  1  0
 27 28  1  0
 27 29  1  0
 27 30  1  0
 28 76  1  0
 28 77  1  0
 28 78  1  0
 29 79  1  0
 29 80  1  0
 29 81  1  0
 30 35  1  0
 30 31  1  0
 30 82  1  1
 31 32  1  0
 31 83  1  0
 31 84  1  0
 32 33  2  0
 32 34  1  0
 35 34  1  6
 35 36  1  0
 36 37  1  0
 36 38  1  0
 36 85  1  6
 37 86  1  0
 38 39  1  6
 39 87  1  0
 39 88  1  0
 39 89  1  0
M  END
>  <i_m_ct_stereo_status>  (291) 
1

>  <s_m_source_file>  (291) 
/var/tmp/pbs.5076255.sched01/tmppxgjifq_/8475v0iq0b.sdf

>  <i_m_source_file_index>  (291) 
41

>  <i_lp_mmshare_version>  (291) 
48012

>  <i_f3d_flags>  (291) 
0

>  <s_epik_input>  (291) 
W0NIM11DKFtDSDNdKShbT0hdKVtDQEBIXShbQ0gyXTEpW0NIMl1bQ0BASF0oW0NIM10pQyg9W0NIXVtDSDJdMilbQ0BASF0xW0NAXShbQ0gzXSkoW0NIMl1bQ0gyXTMpW0NASF0yW0NAXShbQ0gzXSkoW0NIMl1PNClbQ0BASF0zW0NAQF0oW0NIM10pKFtDQEBIXTVbT0hdKVtDQEhdKFtDQEhdNFtDQF01NjcpT0MoW0NIM10pKFtDSDNdKVtDQEhdNltDSDJdQyg9TylPNw==

>  <s_epik_cmdline>  (291) 
J2VwaWtfcHl0aG9uJywgJy1waHQnLCAnMi4wJywgJy1waCcsICc3LjAnLCAnLXRuJywgJzgnLCAnLW1hJywgJzIwMCcsICctaW1hZScsICc8aW5maWxlLm1hZT4nLCAnLW9tYWUnLCAnPG91dGZpbGUubWFlPic=

>  <r_lp_tautomer_probability>  (291) 
1

>  <r_epik_Ionization_Penalty>  (291) 
1.53282e-06

>  <r_epik_Ionization_Penalty_Charging>  (291) 
0

>  <r_epik_Ionization_Penalty_Neutral>  (291) 
1.53282e-06

>  <r_epik_State_Penalty>  (291) 
-0

>  <r_epik_Charging_Adjusted_Penalty>  (291) 
0

>  <i_epik_Tot_Q>  (291) 
0

>  <i_epik_Tot_abs_Q>  (291) 
0

>  <s_epik_Chemistry_Notes>  (291) 
This compound has an ester and may undergo hydrolysis at high or low pH.

>  <s_lp_Force_Field>  (291) 
OPLS3e

>  <r_lp_Energy>  (291) 
107.654

>  <b_lp_Chiralities_Consistent>  (291) 
1

>  <s_lp_Variant>  (291) 
83:0-1

>  <s_i_glide_gridfile>  (291) 
pfpi4k_grid

>  <i_i_glide_lignum>  (291) 
41

>  <i_i_glide_rotatable_bonds>  (291) 
3

>  <r_i_docking_score>  (291) 
-3.53397

>  <r_i_glide_ligand_efficiency>  (291) 
-0.0906145

>  <r_i_glide_ligand_efficiency_sa>  (291) 
-0.307293

>  <r_i_glide_ligand_efficiency_ln>  (291) 
-0.757783

>  <r_i_glide_gscore>  (291) 
-3.53397

>  <r_i_glide_lipo>  (291) 
-0.437546

>  <r_i_glide_hbond>  (291) 
-0.48

>  <r_i_glide_metal>  (291) 
-0

>  <r_i_glide_rewards>  (291) 
0

>  <r_i_glide_evdw>  (291) 
-29.4927

>  <r_i_glide_ecoul>  (291) 
-7.65906

>  <r_i_glide_erotb>  (291) 
0.0702311

>  <r_i_glide_esite>  (291) 
-0.0631552

>  <r_i_glide_emodel>  (291) 
-44.5931

>  <r_i_glide_energy>  (291) 
-37.1518

>  <r_i_glide_einternal>  (291) 
0.604117

>  <r_i_glide_intrahb_reward>  (291) 
-0

>  <i_i_glide_confnum>  (291) 
4

>  <i_i_glide_posenum>  (291) 
4

>  <r_i_glide_eff_state_penalty>  (291) 
0

>  <ligand_id>  (291) 
83

>  <original_smiles>  (291) 
CC1CC(C(C)(C)O)CC2C1=CCC1C2(C)CCC2C1(C)COC1C3OC(C)(C)C4CC(=O)OC14C(O)C32C

>  <smiles>  (291) 
[H]OC1([H])C23OC(=O)C([H])([H])C2([H])C(C([H])([H])[H])(C([H])([H])[H])OC2([H])C3([H])OC([H])([H])C3(C([H])([H])[H])C([H])(C([H])([H])C([H])([H])C4(C([H])([H])[H])C5([H])C(=C([H])C([H])([H])C43[H])C([H])(C([H])([H])[H])C([H])([H])C([H])(C(O[H])(C([H])([H])[H])C([H])([H])[H])C5([H])[H])C21C([H])([H])[H]

$$$$
83:0:2
     RDKit          3D

 89 95  0  0  1  0  0  0  0  0999 V2000
    3.4822    1.7715    7.0478 C   0  0  0  0  0  0  0  0  0  0  0  0
    3.8697    1.3237    5.6274 C   0  0  2  0  0  0  0  0  0  0  0  0
    3.1459    2.1459    4.5470 C   0  0  0  0  0  0  0  0  0  0  0  0
    1.6594    1.7605    4.3806 C   0  0  1  0  0  0  0  0  0  0  0  0
    0.8745    2.6731    3.3798 C   0  0  0  0  0  0  0  0  0  0  0  0
   -0.6119    2.2904    3.2808 C   0  0  0  0  0  0  0  0  0  0  0  0
    0.9740    4.1654    3.7491 C   0  0  0  0  0  0  0  0  0  0  0  0
    1.4110    2.5448    2.0797 O   0  0  0  0  0  0  0  0  0  0  0  0
    1.6038    0.2536    4.0381 C   0  0  0  0  0  0  0  0  0  0  0  0
    2.2584   -0.6563    5.1193 C   0  0  2  0  0  0  0  0  0  0  0  0
    3.6705   -0.1783    5.4548 C   0  0  0  0  0  0  0  0  0  0  0  0
    4.6829   -1.0391    5.6587 C   0  0  0  0  0  0  0  0  0  0  0  0
    4.5343   -2.5442    5.6541 C   0  0  0  0  0  0  0  0  0  0  0  0
    3.0578   -3.0239    5.7687 C   0  0  1  0  0  0  0  0  0  0  0  0
    2.1727   -2.1980    4.7917 C   0  0  2  0  0  0  0  0  0  0  0  0
    2.5841   -2.4586    3.3201 C   0  0  0  0  0  0  0  0  0  0  0  0
    0.7363   -2.6585    5.0493 C   0  0  0  0  0  0  0  0  0  0  0  0
    0.5346   -4.1115    4.6591 C   0  0  0  0  0  0  0  0  0  0  0  0
    1.3983   -5.1546    5.4021 C   0  0  2  0  0  0  0  0  0  0  0  0
    2.8438   -4.6206    5.8480 C   0  0  2  0  0  0  0  0  0  0  0  0
    2.9739   -4.9413    7.3700 C   0  0  0  0  0  0  0  0  0  0  0  0
    4.0167   -5.3647    5.1458 C   0  0  0  0  0  0  0  0  0  0  0  0
    4.1771   -6.7335    5.4765 O   0  0  0  0  0  0  0  0  0  0  0  0
    3.3650   -7.7342    4.8822 C   0  0  1  0  0  0  0  0  0  0  0  0
    1.9388   -7.7438    5.4231 C   0  0  2  0  0  0  0  0  0  0  0  0
    1.3543   -9.0471    5.1330 O   0  0  0  0  0  0  0  0  0  0  0  0
    1.5707   -9.7591    3.8800 C   0  0  0  0  0  0  0  0  0  0  0  0
    1.9666  -11.1746    4.3657 C   0  0  0  0  0  0  0  0  0  0  0  0
    0.2550   -9.9162    3.0892 C   0  0  0  0  0  0  0  0  0  0  0  0
    2.7308   -9.1319    3.0513 C   0  0  1  0  0  0  0  0  0  0  0  0
    2.8222   -9.1828    1.5305 C   0  0  0  0  0  0  0  0  0  0  0  0
    3.9340   -8.1561    1.3298 C   0  0  0  0  0  0  0  0  0  0  0  0
    4.6143   -8.0885    0.3128 O   0  0  0  0  0  0  0  0  0  0  0  0
    4.0538   -7.3955    2.4372 O   0  0  0  0  0  0  0  0  0  0  0  0
    3.0303   -7.6665    3.3860 C   0  0  2  0  0  0  0  0  0  0  0  0
    1.8683   -6.6264    3.2864 C   0  0  1  0  0  0  0  0  0  0  0  0
    0.9550   -6.8101    2.2128 O   0  0  0  0  0  0  0  0  0  0  0  0
    1.2080   -6.5788    4.6997 C   0  0  2  0  0  0  0  0  0  0  0  0
   -0.3254   -6.8829    4.6957 C   0  0  0  0  0  0  0  0  0  0  0  0
    4.1090    1.2717    7.7898 H   0  0  0  0  0  0  0  0  0  0  0  0
    2.4403    1.5405    7.2836 H   0  0  0  0  0  0  0  0  0  0  0  0
    3.6230    2.8466    7.1712 H   0  0  0  0  0  0  0  0  0  0  0  0
    4.9355    1.5267    5.5162 H   0  0  0  0  0  0  0  0  0  0  0  0
    3.2589    3.1987    4.7912 H   0  0  0  0  0  0  0  0  0  0  0  0
    3.6615    1.9995    3.5980 H   0  0  0  0  0  0  0  0  0  0  0  0
    1.1714    1.8944    5.3468 H   0  0  0  0  0  0  0  0  0  0  0  0
   -1.0882    2.2944    4.2611 H   0  0  0  0  0  0  0  0  0  0  0  0
   -0.7643    1.3069    2.8331 H   0  0  0  0  0  0  0  0  0  0  0  0
   -1.1560    2.9963    2.6498 H   0  0  0  0  0  0  0  0  0  0  0  0
    0.6491    4.3421    4.7752 H   0  0  0  0  0  0  0  0  0  0  0  0
    0.3436    4.7756    3.1000 H   0  0  0  0  0  0  0  0  0  0  0  0
    1.9855    4.5572    3.6395 H   0  0  0  0  0  0  0  0  0  0  0  0
    0.9445    3.1763    1.5181 H   0  0  0  0  0  0  0  0  0  0  0  0
    0.5740   -0.0527    3.8943 H   0  0  0  0  0  0  0  0  0  0  0  0
    2.1004    0.1081    3.0763 H   0  0  0  0  0  0  0  0  0  0  0  0
    1.7094   -0.4871    6.0451 H   0  0  0  0  0  0  0  0  0  0  0  0
    5.6714   -0.6715    5.8900 H   0  0  0  0  0  0  0  0  0  0  0  0
    5.0052   -2.8908    4.7341 H   0  0  0  0  0  0  0  0  0  0  0  0
    5.1194   -2.9245    6.4933 H   0  0  0  0  0  0  0  0  0  0  0  0
    2.7379   -2.6454    6.7426 H   0  0  0  0  0  0  0  0  0  0  0  0
    2.7728   -3.5133    3.1304 H   0  0  0  0  0  0  0  0  0  0  0  0
    3.4989   -1.9231    3.0588 H   0  0  0  0  0  0  0  0  0  0  0  0
    1.8017   -2.1432    2.6245 H   0  0  0  0  0  0  0  0  0  0  0  0
    0.4870   -2.5372    6.1029 H   0  0  0  0  0  0  0  0  0  0  0  0
    0.0135   -2.0517    4.5069 H   0  0  0  0  0  0  0  0  0  0  0  0
   -0.5096   -4.3098    4.8928 H   0  0  0  0  0  0  0  0  0  0  0  0
    0.6288   -4.2240    3.5801 H   0  0  0  0  0  0  0  0  0  0  0  0
    0.8581   -5.2735    6.3445 H   0  0  0  0  0  0  0  0  0  0  0  0
    2.8934   -6.0085    7.5883 H   0  0  0  0  0  0  0  0  0  0  0  0
    2.1813   -4.4425    7.9388 H   0  0  0  0  0  0  0  0  0  0  0  0
    3.9290   -4.5929    7.7751 H   0  0  0  0  0  0  0  0  0  0  0  0
    4.1027   -5.1702    4.0812 H   0  0  0  0  0  0  0  0  0  0  0  0
    4.9457   -4.9857    5.5552 H   0  0  0  0  0  0  0  0  0  0  0  0
    3.8675   -8.6643    5.1595 H   0  0  0  0  0  0  0  0  0  0  0  0
    1.9144   -7.6124    6.5024 H   0  0  0  0  0  0  0  0  0  0  0  0
    2.1676  -11.8496    3.5323 H   0  0  0  0  0  0  0  0  0  0  0  0
    1.1697  -11.6260    4.9636 H   0  0  0  0  0  0  0  0  0  0  0  0
    2.8580  -11.1566    4.9978 H   0  0  0  0  0  0  0  0  0  0  0  0
    0.3604  -10.6486    2.2900 H   0  0  0  0  0  0  0  0  0  0  0  0
   -0.0979   -9.0012    2.6335 H   0  0  0  0  0  0  0  0  0  0  0  0
   -0.5414  -10.2685    3.7437 H   0  0  0  0  0  0  0  0  0  0  0  0
    3.6110   -9.7116    3.3430 H   0  0  0  0  0  0  0  0  0  0  0  0
    3.1159  -10.1651    1.1604 H   0  0  0  0  0  0  0  0  0  0  0  0
    1.9063   -8.8606    1.0313 H   0  0  0  0  0  0  0  0  0  0  0  0
    2.3073   -5.6570    3.0622 H   0  0  0  0  0  0  0  0  0  0  0  0
    0.6833   -7.7145    2.1936 H   0  0  0  0  0  0  0  0  0  0  0  0
   -0.5881   -7.9146    4.4862 H   0  0  0  0  0  0  0  0  0  0  0  0
   -0.8712   -6.2934    3.9596 H   0  0  0  0  0  0  0  0  0  0  0  0
   -0.7633   -6.6735    5.6704 H   0  0  0  0  0  0  0  0  0  0  0  0
  1  2  1  0
  1 40  1  0
  1 41  1  0
  1 42  1  0
  2 11  1  0
  2  3  1  0
  2 43  1  6
  3  4  1  0
  3 44  1  0
  3 45  1  0
  4  5  1  0
  4  9  1  0
  4 46  1  1
  5  6  1  0
  5  7  1  0
  5  8  1  0
  6 47  1  0
  6 48  1  0
  6 49  1  0
  7 50  1  0
  7 51  1  0
  7 52  1  0
  8 53  1  0
  9 10  1  0
  9 54  1  0
  9 55  1  0
 10 15  1  0
 10 11  1  0
 10 56  1  1
 11 12  2  0
 12 13  1  0
 12 57  1  0
 13 14  1  0
 13 58  1  0
 13 59  1  0
 14 20  1  0
 14 15  1  0
 14 60  1  1
 15 16  1  6
 15 17  1  0
 16 61  1  0
 16 62  1  0
 16 63  1  0
 17 18  1  0
 17 64  1  0
 17 65  1  0
 18 19  1  0
 18 66  1  0
 18 67  1  0
 19 38  1  0
 19 20  1  0
 19 68  1  1
 20 21  1  1
 20 22  1  0
 21 69  1  0
 21 70  1  0
 21 71  1  0
 22 23  1  0
 22 72  1  0
 22 73  1  0
 23 24  1  0
 24 35  1  0
 24 25  1  0
 24 74  1  6
 25 38  1  0
 25 26  1  0
 25 75  1  1
 26 27  1  0
 27 28  1  0
 27 29  1  0
 27 30  1  0
 28 76  1  0
 28 77  1  0
 28 78  1  0
 29 79  1  0
 29 80  1  0
 29 81  1  0
 30 35  1  0
 30 31  1  0
 30 82  1  1
 31 32  1  0
 31 83  1  0
 31 84  1  0
 32 33  2  0
 32 34  1  0
 35 34  1  6
 35 36  1  0
 36 37  1  0
 36 38  1  0
 36 85  1  6
 37 86  1  0
 38 39  1  6
 39 87  1  0
 39 88  1  0
 39 89  1  0
M  END
>  <i_m_ct_stereo_status>  (292) 
1

>  <s_m_source_file>  (292) 
/var/tmp/pbs.5076255.sched01/tmppxgjifq_/8475v0iq0b.sdf

>  <i_m_source_file_index>  (292) 
41

>  <i_lp_mmshare_version>  (292) 
48012

>  <i_f3d_flags>  (292) 
0

>  <s_epik_input>  (292) 
W0NIM11DKFtDSDNdKShbT0hdKVtDQEBIXShbQ0gyXTEpW0NIMl1bQ0BASF0oW0NIM10pQyg9W0NIXVtDSDJdMilbQ0BASF0xW0NAXShbQ0gzXSkoW0NIMl1bQ0gyXTMpW0NASF0yW0NAXShbQ0gzXSkoW0NIMl1PNClbQ0BASF0zW0NAQF0oW0NIM10pKFtDQEBIXTVbT0hdKVtDQEhdKFtDQEhdNFtDQF01NjcpT0MoW0NIM10pKFtDSDNdKVtDQEhdNltDSDJdQyg9TylPNw==

>  <s_epik_cmdline>  (292) 
J2VwaWtfcHl0aG9uJywgJy1waHQnLCAnMi4wJywgJy1waCcsICc3LjAnLCAnLXRuJywgJzgnLCAnLW1hJywgJzIwMCcsICctaW1hZScsICc8aW5maWxlLm1hZT4nLCAnLW9tYWUnLCAnPG91dGZpbGUubWFlPic=

>  <r_lp_tautomer_probability>  (292) 
1

>  <r_epik_Ionization_Penalty>  (292) 
1.53282e-06

>  <r_epik_Ionization_Penalty_Charging>  (292) 
0

>  <r_epik_Ionization_Penalty_Neutral>  (292) 
1.53282e-06

>  <r_epik_State_Penalty>  (292) 
-0

>  <r_epik_Charging_Adjusted_Penalty>  (292) 
0

>  <i_epik_Tot_Q>  (292) 
0

>  <i_epik_Tot_abs_Q>  (292) 
0

>  <s_epik_Chemistry_Notes>  (292) 
This compound has an ester and may undergo hydrolysis at high or low pH.

>  <s_lp_Force_Field>  (292) 
OPLS3e

>  <r_lp_Energy>  (292) 
107.654

>  <b_lp_Chiralities_Consistent>  (292) 
1

>  <s_lp_Variant>  (292) 
83:0-1

>  <s_i_glide_gridfile>  (292) 
pfpi4k_grid

>  <i_i_glide_lignum>  (292) 
41

>  <i_i_glide_rotatable_bonds>  (292) 
3

>  <r_i_docking_score>  (292) 
-2.61269

>  <r_i_glide_ligand_efficiency>  (292) 
-0.0669921

>  <r_i_glide_ligand_efficiency_sa>  (292) 
-0.227184

>  <r_i_glide_ligand_efficiency_ln>  (292) 
-0.560235

>  <r_i_glide_gscore>  (292) 
-2.61269

>  <r_i_glide_lipo>  (292) 
-0.0245693

>  <r_i_glide_hbond>  (292) 
-0.16

>  <r_i_glide_metal>  (292) 
-0

>  <r_i_glide_rewards>  (292) 
0

>  <r_i_glide_evdw>  (292) 
-30.1492

>  <r_i_glide_ecoul>  (292) 
-6.54454

>  <r_i_glide_erotb>  (292) 
0.0702311

>  <r_i_glide_esite>  (292) 
-0.00921105

>  <r_i_glide_emodel>  (292) 
-42.7826

>  <r_i_glide_energy>  (292) 
-36.6938

>  <r_i_glide_einternal>  (292) 
0.247741

>  <r_i_glide_intrahb_reward>  (292) 
-0

>  <i_i_glide_confnum>  (292) 
2

>  <i_i_glide_posenum>  (292) 
28

>  <r_i_glide_eff_state_penalty>  (292) 
0

>  <ligand_id>  (292) 
83

>  <original_smiles>  (292) 
CC1CC(C(C)(C)O)CC2C1=CCC1C2(C)CCC2C1(C)COC1C3OC(C)(C)C4CC(=O)OC14C(O)C32C

>  <smiles>  (292) 
[H]OC1([H])C23OC(=O)C([H])([H])C2([H])C(C([H])([H])[H])(C([H])([H])[H])OC2([H])C3([H])OC([H])([H])C3(C([H])([H])[H])C([H])(C([H])([H])C([H])([H])C4(C([H])([H])[H])C5([H])C(=C([H])C([H])([H])C43[H])C([H])(C([H])([H])[H])C([H])([H])C([H])(C(O[H])(C([H])([H])[H])C([H])([H])[H])C5([H])[H])C21C([H])([H])[H]

$$$$
84:0:0
     RDKit          3D

 43 47  0  0  1  0  0  0  0  0999 V2000
    7.8939   -1.8967    0.3017 C   0  0  0  0  0  0  0  0  0  0  0  0
    6.7430   -2.3255   -0.4243 O   0  0  0  0  0  0  0  0  0  0  0  0
    5.6771   -2.9250    0.3423 C   0  0  1  0  0  0  0  0  0  0  0  0
    6.2819   -4.3211    0.7439 C   0  0  0  0  0  0  0  0  0  0  0  0
    5.3006   -5.5229    0.6460 C   0  0  0  0  0  0  0  0  0  0  0  0
    3.9445   -5.0534    1.1579 C   0  0  2  0  0  0  0  0  0  0  0  0
    2.8680   -6.1197    1.2427 C   0  0  0  0  0  0  0  0  0  0  0  0
    1.8858   -6.0405    2.1637 C   0  0  0  0  0  0  0  0  0  0  0  0
    1.7791   -4.9047    3.1848 C   0  0  0  0  0  0  0  0  0  0  0  0
    3.0755   -4.0478    3.3526 C   0  0  2  0  0  0  0  0  0  0  0  0
    2.9290   -2.5374    3.0627 C   0  0  0  0  0  0  0  0  0  0  0  0
    4.0303   -1.6506    2.4214 C   0  0  1  0  0  0  0  0  0  0  0  0
    5.4502   -1.6703    2.6379 O   0  0  0  0  0  0  0  0  0  0  0  0
    5.0257   -1.8212    1.2545 C   0  0  1  0  0  0  0  0  0  0  0  0
    4.6732   -0.7736    0.2178 C   0  0  0  0  0  0  0  0  0  0  0  0
    4.0263   -1.6541   -0.8740 C   0  0  1  0  0  0  0  0  0  0  0  0
    4.5912   -1.0552   -2.6854 Br  0  0  0  0  0  0  0  0  0  0  0  0
    4.4994   -3.1071   -0.5974 C   0  0  2  0  0  0  0  0  0  0  0  0
    3.4241   -3.9753    0.1328 C   0  0  0  0  0  0  0  0  0  0  0  0
    4.2356   -4.6658    2.6365 C   0  0  0  0  0  0  0  0  0  0  0  0
    8.6303   -1.5024   -0.3990 H   0  0  0  0  0  0  0  0  0  0  0  0
    8.3825   -2.7118    0.8372 H   0  0  0  0  0  0  0  0  0  0  0  0
    7.6594   -1.0992    1.0091 H   0  0  0  0  0  0  0  0  0  0  0  0
    7.0760   -4.5636    0.0339 H   0  0  0  0  0  0  0  0  0  0  0  0
    6.8036   -4.2828    1.6997 H   0  0  0  0  0  0  0  0  0  0  0  0
    5.2097   -5.8597   -0.3874 H   0  0  0  0  0  0  0  0  0  0  0  0
    5.6813   -6.3765    1.2122 H   0  0  0  0  0  0  0  0  0  0  0  0
    2.9192   -6.9447    0.5495 H   0  0  0  0  0  0  0  0  0  0  0  0
    1.1182   -6.7995    2.2040 H   0  0  0  0  0  0  0  0  0  0  0  0
    0.9228   -4.2814    2.9290 H   0  0  0  0  0  0  0  0  0  0  0  0
    1.5401   -5.3645    4.1437 H   0  0  0  0  0  0  0  0  0  0  0  0
    3.3418   -4.0970    4.4095 H   0  0  0  0  0  0  0  0  0  0  0  0
    2.0418   -2.3868    2.4474 H   0  0  0  0  0  0  0  0  0  0  0  0
    2.6575   -2.0606    4.0067 H   0  0  0  0  0  0  0  0  0  0  0  0
    3.6660   -0.6325    2.5385 H   0  0  0  0  0  0  0  0  0  0  0  0
    3.9958    0.0065    0.5607 H   0  0  0  0  0  0  0  0  0  0  0  0
    5.5735   -0.2709   -0.1346 H   0  0  0  0  0  0  0  0  0  0  0  0
    2.9410   -1.5779   -0.8298 H   0  0  0  0  0  0  0  0  0  0  0  0
    4.8148   -3.6060   -1.5190 H   0  0  0  0  0  0  0  0  0  0  0  0
    2.8959   -4.4966   -0.6628 H   0  0  0  0  0  0  0  0  0  0  0  0
    2.6496   -3.3569    0.5806 H   0  0  0  0  0  0  0  0  0  0  0  0
    4.5025   -5.5793    3.1739 H   0  0  0  0  0  0  0  0  0  0  0  0
    5.0861   -4.0281    2.8266 H   0  0  0  0  0  0  0  0  0  0  0  0
  1  2  1  0
  1 21  1  0
  1 22  1  0
  1 23  1  0
  3  2  1  6
  3 14  1  0
  3 18  1  0
  3  4  1  0
  4  5  1  0
  4 24  1  0
  4 25  1  0
  5  6  1  0
  5 26  1  0
  5 27  1  0
  6 19  1  0
  6 20  1  0
  6  7  1  1
  7  8  2  0
  7 28  1  0
  8  9  1  0
  8 29  1  0
  9 10  1  0
  9 30  1  0
  9 31  1  0
 10 11  1  0
 10 20  1  0
 10 32  1  1
 11 12  1  0
 11 33  1  0
 11 34  1  0
 12 14  1  0
 12 13  1  0
 12 35  1  6
 14 13  1  1
 14 15  1  0
 15 16  1  0
 15 36  1  0
 15 37  1  0
 16 17  1  0
 16 18  1  0
 16 38  1  6
 18 19  1  0
 18 39  1  6
 19 40  1  0
 19 41  1  0
 20 42  1  0
 20 43  1  0
M  END
>  <i_m_ct_stereo_status>  (293) 
1

>  <s_m_source_file>  (293) 
/var/tmp/pbs.5076255.sched01/tmppxgjifq_/8475v0iq0b.sdf

>  <i_m_source_file_index>  (293) 
42

>  <i_lp_mmshare_version>  (293) 
48012

>  <i_f3d_flags>  (293) 
0

>  <s_epik_input>  (293) 
W0NAQF0xMjNbQ0gyXVtDSDJdW0NAXTQoT1tDSDNdKVtDQEBdNShbQ0gyXVtDQEBIXShCcilbQ0BASF00W0NIMl0yKVtDQEhdKE81KVtDSDJdW0NASF0oW0NIMl0zKVtDSDJdW0NIXT1bQ0hdMQ==

>  <s_epik_cmdline>  (293) 
J2VwaWtfcHl0aG9uJywgJy1waHQnLCAnMi4wJywgJy1waCcsICc3LjAnLCAnLXRuJywgJzgnLCAnLW1hJywgJzIwMCcsICctaW1hZScsICc8aW5maWxlLm1hZT4nLCAnLW9tYWUnLCAnPG91dGZpbGUubWFlPic=

>  <r_lp_tautomer_probability>  (293) 
1

>  <r_epik_Ionization_Penalty>  (293) 
7.23544e-12

>  <r_epik_Ionization_Penalty_Charging>  (293) 
0

>  <r_epik_Ionization_Penalty_Neutral>  (293) 
7.23544e-12

>  <r_epik_State_Penalty>  (293) 
-0

>  <r_epik_Charging_Adjusted_Penalty>  (293) 
0

>  <i_epik_Tot_Q>  (293) 
0

>  <i_epik_Tot_abs_Q>  (293) 
0

>  <s_lp_Force_Field>  (293) 
OPLS3e

>  <r_lp_Energy>  (293) 
106.487

>  <b_lp_Chiralities_Consistent>  (293) 
1

>  <s_lp_Variant>  (293) 
84:0-1

>  <s_i_glide_gridfile>  (293) 
pfpi4k_grid

>  <i_i_glide_lignum>  (293) 
42

>  <i_i_glide_rotatable_bonds>  (293) 
1

>  <r_i_docking_score>  (293) 
-2.90356

>  <r_i_glide_ligand_efficiency>  (293) 
-0.145178

>  <r_i_glide_ligand_efficiency_sa>  (293) 
-0.394074

>  <r_i_glide_ligand_efficiency_ln>  (293) 
-0.726666

>  <r_i_glide_gscore>  (293) 
-2.90356

>  <r_i_glide_lipo>  (293) 
-0.421757

>  <r_i_glide_hbond>  (293) 
-0.0300493

>  <r_i_glide_metal>  (293) 
-0

>  <r_i_glide_rewards>  (293) 
-1.0959

>  <r_i_glide_evdw>  (293) 
-19.0057

>  <r_i_glide_ecoul>  (293) 
-2.70379

>  <r_i_glide_erotb>  (293) 
0

>  <r_i_glide_esite>  (293) 
0

>  <r_i_glide_emodel>  (293) 
-25.7388

>  <r_i_glide_energy>  (293) 
-21.7095

>  <r_i_glide_einternal>  (293) 
0.00205026

>  <r_i_glide_intrahb_reward>  (293) 
-0

>  <i_i_glide_confnum>  (293) 
2

>  <i_i_glide_posenum>  (293) 
1

>  <r_i_glide_eff_state_penalty>  (293) 
0

>  <ligand_id>  (293) 
84

>  <original_smiles>  (293) 
COC12CCC34C=CCC(CC5OC51CC(Br)C2C3)C4

>  <smiles>  (293) 
[H]C1=C([H])C23C([H])([H])C([H])([H])C4(OC([H])([H])[H])C([H])(C2([H])[H])C([H])(Br)C([H])([H])C42OC2([H])C([H])([H])C([H])(C1([H])[H])C3([H])[H]

$$$$
84:0:1
     RDKit          3D

 43 47  0  0  1  0  0  0  0  0999 V2000
    5.2167   -4.2200   -3.3378 C   0  0  0  0  0  0  0  0  0  0  0  0
    5.7893   -3.3471   -2.3515 O   0  0  0  0  0  0  0  0  0  0  0  0
    5.1186   -3.2434   -1.0800 C   0  0  1  0  0  0  0  0  0  0  0  0
    5.5433   -4.5660   -0.3230 C   0  0  0  0  0  0  0  0  0  0  0  0
    4.4022   -5.2206    0.4856 C   0  0  0  0  0  0  0  0  0  0  0  0
    3.6599   -4.1111    1.2173 C   0  0  2  0  0  0  0  0  0  0  0  0
    2.5722   -4.5652    2.1616 C   0  0  0  0  0  0  0  0  0  0  0  0
    2.2499   -3.8274    3.2509 C   0  0  0  0  0  0  0  0  0  0  0  0
    2.9576   -2.5204    3.6163 C   0  0  0  0  0  0  0  0  0  0  0  0
    4.3212   -2.2822    2.8889 C   0  0  2  0  0  0  0  0  0  0  0  0
    4.4183   -0.9935    2.0310 C   0  0  0  0  0  0  0  0  0  0  0  0
    5.2048   -0.8785    0.6880 C   0  0  1  0  0  0  0  0  0  0  0  0
    6.4717   -1.4465    0.3215 O   0  0  0  0  0  0  0  0  0  0  0  0
    5.3705   -1.7591   -0.5669 C   0  0  1  0  0  0  0  0  0  0  0  0
    4.7797   -0.9610   -1.7145 C   0  0  0  0  0  0  0  0  0  0  0  0
    3.4560   -1.6892   -1.9425 C   0  0  1  0  0  0  0  0  0  0  0  0
    3.0912   -1.7303   -3.9040 Br  0  0  0  0  0  0  0  0  0  0  0  0
    3.6119   -3.0972   -1.2668 C   0  0  2  0  0  0  0  0  0  0  0  0
    2.9419   -3.2197    0.1272 C   0  0  0  0  0  0  0  0  0  0  0  0
    4.7577   -3.4985    2.1395 C   0  0  0  0  0  0  0  0  0  0  0  0
    5.8219   -4.2456   -4.2114 H   0  0  0  0  0  0  0  0  0  0  0  0
    4.2301   -3.9554   -3.6590 H   0  0  0  0  0  0  0  0  0  0  0  0
    5.1227   -5.2268   -2.9821 H   0  0  0  0  0  0  0  0  0  0  0  0
    5.7933   -5.3432   -1.0314 H   0  0  0  0  0  0  0  0  0  0  0  0
    6.4803   -4.4520    0.2332 H   0  0  0  0  0  0  0  0  0  0  0  0
    3.7214   -5.7581   -0.1797 H   0  0  0  0  0  0  0  0  0  0  0  0
    4.8010   -5.9667    1.1733 H   0  0  0  0  0  0  0  0  0  0  0  0
    2.0497   -5.4810    1.9421 H   0  0  0  0  0  0  0  0  0  0  0  0
    1.4466   -4.1476    3.8946 H   0  0  0  0  0  0  0  0  0  0  0  0
    2.2632   -1.6916    3.4554 H   0  0  0  0  0  0  0  0  0  0  0  0
    3.1440   -2.5568    4.6923 H   0  0  0  0  0  0  0  0  0  0  0  0
    5.0727   -2.1493    3.6707 H   0  0  0  0  0  0  0  0  0  0  0  0
    3.4088   -0.6518    1.8075 H   0  0  0  0  0  0  0  0  0  0  0  0
    4.7936   -0.2140    2.6886 H   0  0  0  0  0  0  0  0  0  0  0  0
    5.2135    0.2033    0.4845 H   0  0  0  0  0  0  0  0  0  0  0  0
    4.6181    0.1078   -1.5208 H   0  0  0  0  0  0  0  0  0  0  0  0
    5.4356   -1.0184   -2.5800 H   0  0  0  0  0  0  0  0  0  0  0  0
    2.6302   -1.1471   -1.4807 H   0  0  0  0  0  0  0  0  0  0  0  0
    3.2070   -3.8784   -1.8895 H   0  0  0  0  0  0  0  0  0  0  0  0
    1.9654   -3.6630   -0.0855 H   0  0  0  0  0  0  0  0  0  0  0  0
    2.6891   -2.2448    0.5232 H   0  0  0  0  0  0  0  0  0  0  0  0
    5.0396   -4.2568    2.8746 H   0  0  0  0  0  0  0  0  0  0  0  0
    5.7069   -3.2464    1.6947 H   0  0  0  0  0  0  0  0  0  0  0  0
  1  2  1  0
  1 21  1  0
  1 22  1  0
  1 23  1  0
  3  2  1  6
  3 14  1  0
  3 18  1  0
  3  4  1  0
  4  5  1  0
  4 24  1  0
  4 25  1  0
  5  6  1  0
  5 26  1  0
  5 27  1  0
  6 19  1  0
  6 20  1  0
  6  7  1  1
  7  8  2  0
  7 28  1  0
  8  9  1  0
  8 29  1  0
  9 10  1  0
  9 30  1  0
  9 31  1  0
 10 11  1  0
 10 20  1  0
 10 32  1  1
 11 12  1  0
 11 33  1  0
 11 34  1  0
 12 14  1  0
 12 13  1  0
 12 35  1  6
 14 13  1  6
 14 15  1  0
 15 16  1  0
 15 36  1  0
 15 37  1  0
 16 17  1  0
 16 18  1  0
 16 38  1  1
 18 19  1  0
 18 39  1  6
 19 40  1  0
 19 41  1  0
 20 42  1  0
 20 43  1  0
M  END
>  <i_m_ct_stereo_status>  (294) 
1

>  <s_m_source_file>  (294) 
/var/tmp/pbs.5076255.sched01/tmppxgjifq_/8475v0iq0b.sdf

>  <i_m_source_file_index>  (294) 
42

>  <i_lp_mmshare_version>  (294) 
48012

>  <i_f3d_flags>  (294) 
0

>  <s_epik_input>  (294) 
W0NAQF0xMjNbQ0gyXVtDSDJdW0NAXTQoT1tDSDNdKVtDQEBdNShbQ0gyXVtDQEBIXShCcilbQ0BASF00W0NIMl0yKVtDQEhdKE81KVtDSDJdW0NASF0oW0NIMl0zKVtDSDJdW0NIXT1bQ0hdMQ==

>  <s_epik_cmdline>  (294) 
J2VwaWtfcHl0aG9uJywgJy1waHQnLCAnMi4wJywgJy1waCcsICc3LjAnLCAnLXRuJywgJzgnLCAnLW1hJywgJzIwMCcsICctaW1hZScsICc8aW5maWxlLm1hZT4nLCAnLW9tYWUnLCAnPG91dGZpbGUubWFlPic=

>  <r_lp_tautomer_probability>  (294) 
1

>  <r_epik_Ionization_Penalty>  (294) 
7.23544e-12

>  <r_epik_Ionization_Penalty_Charging>  (294) 
0

>  <r_epik_Ionization_Penalty_Neutral>  (294) 
7.23544e-12

>  <r_epik_State_Penalty>  (294) 
-0

>  <r_epik_Charging_Adjusted_Penalty>  (294) 
0

>  <i_epik_Tot_Q>  (294) 
0

>  <i_epik_Tot_abs_Q>  (294) 
0

>  <s_lp_Force_Field>  (294) 
OPLS3e

>  <r_lp_Energy>  (294) 
106.487

>  <b_lp_Chiralities_Consistent>  (294) 
1

>  <s_lp_Variant>  (294) 
84:0-1

>  <s_i_glide_gridfile>  (294) 
pfpi4k_grid

>  <i_i_glide_lignum>  (294) 
42

>  <i_i_glide_rotatable_bonds>  (294) 
1

>  <r_i_docking_score>  (294) 
-2.81318

>  <r_i_glide_ligand_efficiency>  (294) 
-0.140659

>  <r_i_glide_ligand_efficiency_sa>  (294) 
-0.381807

>  <r_i_glide_ligand_efficiency_ln>  (294) 
-0.704047

>  <r_i_glide_gscore>  (294) 
-2.81318

>  <r_i_glide_lipo>  (294) 
-0.495142

>  <r_i_glide_hbond>  (294) 
0

>  <r_i_glide_metal>  (294) 
-0

>  <r_i_glide_rewards>  (294) 
-1.0959

>  <r_i_glide_evdw>  (294) 
-16.3982

>  <r_i_glide_ecoul>  (294) 
-2.6815

>  <r_i_glide_erotb>  (294) 
0

>  <r_i_glide_esite>  (294) 
0

>  <r_i_glide_emodel>  (294) 
-17.6611

>  <r_i_glide_energy>  (294) 
-19.0797

>  <r_i_glide_einternal>  (294) 
9.94527

>  <r_i_glide_intrahb_reward>  (294) 
-0

>  <i_i_glide_confnum>  (294) 
1

>  <i_i_glide_posenum>  (294) 
39

>  <r_i_glide_eff_state_penalty>  (294) 
0

>  <ligand_id>  (294) 
84

>  <original_smiles>  (294) 
COC12CCC34C=CCC(CC5OC51CC(Br)C2C3)C4

>  <smiles>  (294) 
[H]C1=C([H])C23C([H])([H])C([H])([H])C4(OC([H])([H])[H])C([H])(C2([H])[H])C([H])(Br)C([H])([H])C42OC2([H])C([H])([H])C([H])(C1([H])[H])C3([H])[H]

$$$$
84:0:2
     RDKit          3D

 43 47  0  0  1  0  0  0  0  0999 V2000
    7.0658   -3.4284   -2.0411 C   0  0  0  0  0  0  0  0  0  0  0  0
    5.7180   -3.7948   -1.8125 O   0  0  0  0  0  0  0  0  0  0  0  0
    5.1672   -3.4537   -0.5391 C   0  0  1  0  0  0  0  0  0  0  0  0
    5.8524   -4.4993    0.4090 C   0  0  0  0  0  0  0  0  0  0  0  0
    4.9147   -5.1209    1.4856 C   0  0  0  0  0  0  0  0  0  0  0  0
    4.0094   -4.0060    1.9956 C   0  0  2  0  0  0  0  0  0  0  0  0
    3.0772   -4.3871    3.1343 C   0  0  0  0  0  0  0  0  0  0  0  0
    2.7017   -3.4801    4.0484 C   0  0  0  0  0  0  0  0  0  0  0  0
    3.1589   -2.0143    4.0214 C   0  0  0  0  0  0  0  0  0  0  0  0
    4.3942   -1.7284    3.1099 C   0  0  2  0  0  0  0  0  0  0  0  0
    4.1783   -0.6996    1.9824 C   0  0  0  0  0  0  0  0  0  0  0  0
    4.8433   -0.7648    0.5850 C   0  0  1  0  0  0  0  0  0  0  0  0
    6.1768   -1.1604    0.2228 O   0  0  0  0  0  0  0  0  0  0  0  0
    5.1000   -1.8979   -0.4312 C   0  0  1  0  0  0  0  0  0  0  0  0
    4.3162   -1.5567   -1.6797 C   0  0  0  0  0  0  0  0  0  0  0  0
    3.2014   -2.6310   -1.6503 C   0  0  1  0  0  0  0  0  0  0  0  0
    2.8798   -3.2088   -3.5360 Br  0  0  0  0  0  0  0  0  0  0  0  0
    3.6847   -3.7171   -0.6618 C   0  0  2  0  0  0  0  0  0  0  0  0
    3.0912   -3.5778    0.7852 C   0  0  0  0  0  0  0  0  0  0  0  0
    5.0166   -2.9981    2.6259 C   0  0  0  0  0  0  0  0  0  0  0  0
    7.2897   -3.8510   -3.0042 H   0  0  0  0  0  0  0  0  0  0  0  0
    7.7699   -3.8468   -1.3209 H   0  0  0  0  0  0  0  0  0  0  0  0
    7.2176   -2.3492   -2.1050 H   0  0  0  0  0  0  0  0  0  0  0  0
    6.1843   -5.3484   -0.1965 H   0  0  0  0  0  0  0  0  0  0  0  0
    6.7784   -4.1206    0.8349 H   0  0  0  0  0  0  0  0  0  0  0  0
    4.3116   -5.9163    1.0541 H   0  0  0  0  0  0  0  0  0  0  0  0
    5.4997   -5.5771    2.2872 H   0  0  0  0  0  0  0  0  0  0  0  0
    2.7498   -5.4173    3.1924 H   0  0  0  0  0  0  0  0  0  0  0  0
    2.0273   -3.7436    4.8480 H   0  0  0  0  0  0  0  0  0  0  0  0
    2.3056   -1.3916    3.7497 H   0  0  0  0  0  0  0  0  0  0  0  0
    3.4140   -1.7476    5.0441 H   0  0  0  0  0  0  0  0  0  0  0  0
    5.1500   -1.2680    3.7455 H   0  0  0  0  0  0  0  0  0  0  0  0
    3.1043   -0.6162    1.7883 H   0  0  0  0  0  0  0  0  0  0  0  0
    4.4217    0.2886    2.3968 H   0  0  0  0  0  0  0  0  0  0  0  0
    4.6030    0.1730    0.1187 H   0  0  0  0  0  0  0  0  0  0  0  0
    3.9140   -0.5560   -1.7185 H   0  0  0  0  0  0  0  0  0  0  0  0
    4.9492   -1.6740   -2.5626 H   0  0  0  0  0  0  0  0  0  0  0  0
    2.2521   -2.2584   -1.2810 H   0  0  0  0  0  0  0  0  0  0  0  0
    3.4902   -4.7165   -1.0525 H   0  0  0  0  0  0  0  0  0  0  0  0
    2.2347   -4.2323    0.7985 H   0  0  0  0  0  0  0  0  0  0  0  0
    2.6497   -2.5901    0.9490 H   0  0  0  0  0  0  0  0  0  0  0  0
    5.4770   -3.4830    3.4851 H   0  0  0  0  0  0  0  0  0  0  0  0
    5.8716   -2.7075    2.0311 H   0  0  0  0  0  0  0  0  0  0  0  0
  1  2  1  0
  1 21  1  0
  1 22  1  0
  1 23  1  0
  3  2  1  6
  3 14  1  0
  3 18  1  0
  3  4  1  0
  4  5  1  0
  4 24  1  0
  4 25  1  0
  5  6  1  0
  5 26  1  0
  5 27  1  0
  6 19  1  0
  6 20  1  0
  6  7  1  1
  7  8  2  0
  7 28  1  0
  8  9  1  0
  8 29  1  0
  9 10  1  0
  9 30  1  0
  9 31  1  0
 10 11  1  0
 10 20  1  0
 10 32  1  1
 11 12  1  0
 11 33  1  0
 11 34  1  0
 12 14  1  0
 12 13  1  0
 12 35  1  6
 14 13  1  6
 14 15  1  0
 15 16  1  0
 15 36  1  0
 15 37  1  0
 16 17  1  0
 16 18  1  0
 16 38  1  1
 18 19  1  0
 18 39  1  6
 19 40  1  0
 19 41  1  0
 20 42  1  0
 20 43  1  0
M  END
>  <i_m_ct_stereo_status>  (295) 
1

>  <s_m_source_file>  (295) 
/var/tmp/pbs.5076255.sched01/tmppxgjifq_/8475v0iq0b.sdf

>  <i_m_source_file_index>  (295) 
42

>  <i_lp_mmshare_version>  (295) 
48012

>  <i_f3d_flags>  (295) 
0

>  <s_epik_input>  (295) 
W0NAQF0xMjNbQ0gyXVtDSDJdW0NAXTQoT1tDSDNdKVtDQEBdNShbQ0gyXVtDQEBIXShCcilbQ0BASF00W0NIMl0yKVtDQEhdKE81KVtDSDJdW0NASF0oW0NIMl0zKVtDSDJdW0NIXT1bQ0hdMQ==

>  <s_epik_cmdline>  (295) 
J2VwaWtfcHl0aG9uJywgJy1waHQnLCAnMi4wJywgJy1waCcsICc3LjAnLCAnLXRuJywgJzgnLCAnLW1hJywgJzIwMCcsICctaW1hZScsICc8aW5maWxlLm1hZT4nLCAnLW9tYWUnLCAnPG91dGZpbGUubWFlPic=

>  <r_lp_tautomer_probability>  (295) 
1

>  <r_epik_Ionization_Penalty>  (295) 
7.23544e-12

>  <r_epik_Ionization_Penalty_Charging>  (295) 
0

>  <r_epik_Ionization_Penalty_Neutral>  (295) 
7.23544e-12

>  <r_epik_State_Penalty>  (295) 
-0

>  <r_epik_Charging_Adjusted_Penalty>  (295) 
0

>  <i_epik_Tot_Q>  (295) 
0

>  <i_epik_Tot_abs_Q>  (295) 
0

>  <s_lp_Force_Field>  (295) 
OPLS3e

>  <r_lp_Energy>  (295) 
106.487

>  <b_lp_Chiralities_Consistent>  (295) 
1

>  <s_lp_Variant>  (295) 
84:0-1

>  <s_i_glide_gridfile>  (295) 
pfpi4k_grid

>  <i_i_glide_lignum>  (295) 
42

>  <i_i_glide_rotatable_bonds>  (295) 
1

>  <r_i_docking_score>  (295) 
-2.70957

>  <r_i_glide_ligand_efficiency>  (295) 
-0.135478

>  <r_i_glide_ligand_efficiency_sa>  (295) 
-0.367745

>  <r_i_glide_ligand_efficiency_ln>  (295) 
-0.678116

>  <r_i_glide_gscore>  (295) 
-2.70957

>  <r_i_glide_lipo>  (295) 
-0.642435

>  <r_i_glide_hbond>  (295) 
0

>  <r_i_glide_metal>  (295) 
-0

>  <r_i_glide_rewards>  (295) 
-1.0959

>  <r_i_glide_evdw>  (295) 
-16.3131

>  <r_i_glide_ecoul>  (295) 
-1.03717

>  <r_i_glide_erotb>  (295) 
0

>  <r_i_glide_esite>  (295) 
0

>  <r_i_glide_emodel>  (295) 
-21.0718

>  <r_i_glide_energy>  (295) 
-17.3502

>  <r_i_glide_einternal>  (295) 
0.0340485

>  <r_i_glide_intrahb_reward>  (295) 
-0

>  <i_i_glide_confnum>  (295) 
1

>  <i_i_glide_posenum>  (295) 
7

>  <r_i_glide_eff_state_penalty>  (295) 
0

>  <ligand_id>  (295) 
84

>  <original_smiles>  (295) 
COC12CCC34C=CCC(CC5OC51CC(Br)C2C3)C4

>  <smiles>  (295) 
[H]C1=C([H])C23C([H])([H])C([H])([H])C4(OC([H])([H])[H])C([H])(C2([H])[H])C([H])(Br)C([H])([H])C42OC2([H])C([H])([H])C([H])(C1([H])[H])C3([H])[H]

$$$$
86:0:0
     RDKit          3D

 81 85  0  0  1  0  0  0  0  0999 V2000
    5.5584   -3.1831   -1.7774 C   0  0  0  0  0  0  0  0  0  0  0  0
    5.6970   -3.6050   -0.2956 C   0  0  1  0  0  0  0  0  0  0  0  0
    7.2075   -3.5471    0.0655 C   0  0  0  0  0  0  0  0  0  0  0  0
    7.7833   -4.5852    0.4641 O   0  0  0  0  0  0  0  0  0  0  0  0
    7.7741   -2.4406   -0.0865 O   0  0  0  0  0  0  0  0  0  0  0  0
    4.9419   -2.6120    0.5738 C   0  0  0  0  0  0  0  0  0  0  0  0
    4.0760   -2.9054    1.5775 C   0  0  0  0  0  0  0  0  0  0  0  0
    3.3162   -1.8313    2.4008 C   0  0  2  0  0  0  0  0  0  0  0  0
    3.4730   -0.3889    1.8849 C   0  0  1  0  0  0  0  0  0  0  0  0
    3.0273   -0.2942    0.5430 O   0  0  0  0  0  0  0  0  0  0  0  0
    2.6501    0.6051    2.7068 C   0  0  0  0  0  0  0  0  0  0  0  0
    2.9768    0.6307    4.2234 C   0  0  1  0  0  0  0  0  0  0  0  0
    2.1899    1.7874    4.9961 C   0  0  1  0  0  0  0  0  0  0  0  0
    2.9400    2.0968    6.3325 C   0  0  0  0  0  0  0  0  0  0  0  0
    2.2830    3.1711    4.2600 C   0  0  0  0  0  0  0  0  0  0  0  0
    1.1274    3.5395    3.3320 C   0  0  0  0  0  0  0  0  0  0  0  0
   -0.1990    3.4445    4.0819 C   0  0  1  0  0  0  0  0  0  0  0  0
   -1.2133    4.0224    3.2782 O   0  0  0  0  0  0  0  0  0  0  0  0
   -0.5154    1.9914    4.5258 C   0  0  0  0  0  0  0  0  0  0  0  0
   -1.7551    2.0785    5.4604 C   0  0  0  0  0  0  0  0  0  0  0  0
   -0.9185    1.1272    3.3028 C   0  0  0  0  0  0  0  0  0  0  0  0
    0.7001    1.3999    5.3576 C   0  0  1  0  0  0  0  0  0  0  0  0
    0.5533   -0.0908    5.7748 C   0  0  0  0  0  0  0  0  0  0  0  0
    1.3510   -1.1309    4.9510 C   0  0  0  0  0  0  0  0  0  0  0  0
    2.8718   -0.8343    4.8280 C   0  0  2  0  0  0  0  0  0  0  0  0
    3.5063   -0.9169    6.2570 C   0  0  0  0  0  0  0  0  0  0  0  0
    3.6446   -1.9220    3.9262 C   0  0  2  0  0  0  0  0  0  0  0  0
    5.1827   -1.7456    4.1103 C   0  0  0  0  0  0  0  0  0  0  0  0
    3.2540   -3.3843    4.3344 C   0  0  0  0  0  0  0  0  0  0  0  0
    3.9750   -4.4844    3.5366 C   0  0  0  0  0  0  0  0  0  0  0  0
    3.8109   -4.3619    2.0042 C   0  0  1  0  0  0  0  0  0  0  0  0
    2.3826   -4.7801    1.5885 C   0  0  0  0  0  0  0  0  0  0  0  0
    4.8049   -5.3530    1.3516 C   0  0  0  0  0  0  0  0  0  0  0  0
    5.0944   -5.0240   -0.1184 C   0  0  0  0  0  0  0  0  0  0  0  0
    5.9506   -2.1795   -1.9510 H   0  0  0  0  0  0  0  0  0  0  0  0
    4.5117   -3.1777   -2.0824 H   0  0  0  0  0  0  0  0  0  0  0  0
    6.0952   -3.8599   -2.4432 H   0  0  0  0  0  0  0  0  0  0  0  0
    5.1571   -1.5881    0.3187 H   0  0  0  0  0  0  0  0  0  0  0  0
    2.2618   -2.0664    2.2792 H   0  0  0  0  0  0  0  0  0  0  0  0
    4.5178   -0.0798    1.9233 H   0  0  0  0  0  0  0  0  0  0  0  0
    2.1272   -0.5974    0.4371 H   0  0  0  0  0  0  0  0  0  0  0  0
    2.8322    1.5834    2.2633 H   0  0  0  0  0  0  0  0  0  0  0  0
    1.6021    0.3771    2.5593 H   0  0  0  0  0  0  0  0  0  0  0  0
    4.0282    0.9163    4.2612 H   0  0  0  0  0  0  0  0  0  0  0  0
    2.6475    3.0510    6.7730 H   0  0  0  0  0  0  0  0  0  0  0  0
    4.0222    2.1332    6.1947 H   0  0  0  0  0  0  0  0  0  0  0  0
    2.7182    1.3938    7.1281 H   0  0  0  0  0  0  0  0  0  0  0  0
    2.3248    3.9988    4.9704 H   0  0  0  0  0  0  0  0  0  0  0  0
    3.2239    3.2455    3.7187 H   0  0  0  0  0  0  0  0  0  0  0  0
    1.2801    4.5663    2.9931 H   0  0  0  0  0  0  0  0  0  0  0  0
    1.1226    2.9430    2.4243 H   0  0  0  0  0  0  0  0  0  0  0  0
   -0.1237    4.0778    4.9658 H   0  0  0  0  0  0  0  0  0  0  0  0
   -0.8733    4.0998    2.3842 H   0  0  0  0  0  0  0  0  0  0  0  0
   -2.0786    1.1052    5.8267 H   0  0  0  0  0  0  0  0  0  0  0  0
   -2.6099    2.5226    4.9496 H   0  0  0  0  0  0  0  0  0  0  0  0
   -1.5581    2.7073    6.3324 H   0  0  0  0  0  0  0  0  0  0  0  0
   -0.9222    0.0640    3.5245 H   0  0  0  0  0  0  0  0  0  0  0  0
   -0.2814    1.2903    2.4399 H   0  0  0  0  0  0  0  0  0  0  0  0
   -1.9241    1.3808    2.9689 H   0  0  0  0  0  0  0  0  0  0  0  0
    0.5491    1.9245    6.2996 H   0  0  0  0  0  0  0  0  0  0  0  0
    0.8150   -0.1759    6.8275 H   0  0  0  0  0  0  0  0  0  0  0  0
   -0.4913   -0.3875    5.7506 H   0  0  0  0  0  0  0  0  0  0  0  0
    1.1851   -2.0933    5.4316 H   0  0  0  0  0  0  0  0  0  0  0  0
    0.9024   -1.2232    3.9657 H   0  0  0  0  0  0  0  0  0  0  0  0
    3.8260   -1.9144    6.5405 H   0  0  0  0  0  0  0  0  0  0  0  0
    2.8359   -0.6481    7.0637 H   0  0  0  0  0  0  0  0  0  0  0  0
    4.3908   -0.2853    6.3363 H   0  0  0  0  0  0  0  0  0  0  0  0
    5.5251   -2.0802    5.0898 H   0  0  0  0  0  0  0  0  0  0  0  0
    5.5038   -0.7123    3.9856 H   0  0  0  0  0  0  0  0  0  0  0  0
    5.7669   -2.3257    3.3974 H   0  0  0  0  0  0  0  0  0  0  0  0
    3.4279   -3.5849    5.3905 H   0  0  0  0  0  0  0  0  0  0  0  0
    2.1872   -3.5404    4.1816 H   0  0  0  0  0  0  0  0  0  0  0  0
    5.0352   -4.4588    3.7962 H   0  0  0  0  0  0  0  0  0  0  0  0
    3.6204   -5.4642    3.8642 H   0  0  0  0  0  0  0  0  0  0  0  0
    2.1786   -5.8246    1.8327 H   0  0  0  0  0  0  0  0  0  0  0  0
    2.2306   -4.6579    0.5148 H   0  0  0  0  0  0  0  0  0  0  0  0
    1.6207   -4.1841    2.0861 H   0  0  0  0  0  0  0  0  0  0  0  0
    5.7519   -5.3460    1.8891 H   0  0  0  0  0  0  0  0  0  0  0  0
    4.4433   -6.3795    1.4316 H   0  0  0  0  0  0  0  0  0  0  0  0
    4.1728   -5.1056   -0.6973 H   0  0  0  0  0  0  0  0  0  0  0  0
    5.7571   -5.7826   -0.5334 H   0  0  0  0  0  0  0  0  0  0  0  0
  2  1  1  6
  1 35  1  0
  1 36  1  0
  1 37  1  0
  2 34  1  0
  2  3  1  0
  2  6  1  0
  3  4  2  0
  3  5  1  0
  6  7  2  0
  6 38  1  0
  7 31  1  0
  7  8  1  0
  8 27  1  0
  8  9  1  0
  8 39  1  1
  9 10  1  0
  9 11  1  0
  9 40  1  6
 10 41  1  0
 11 12  1  0
 11 42  1  0
 11 43  1  0
 12 25  1  0
 12 13  1  0
 12 44  1  6
 13 22  1  0
 13 14  1  1
 13 15  1  0
 14 45  1  0
 14 46  1  0
 14 47  1  0
 15 16  1  0
 15 48  1  0
 15 49  1  0
 16 17  1  0
 16 50  1  0
 16 51  1  0
 17 18  1  0
 17 19  1  0
 17 52  1  1
 18 53  1  0
 19 20  1  0
 19 21  1  0
 19 22  1  0
 20 54  1  0
 20 55  1  0
 20 56  1  0
 21 57  1  0
 21 58  1  0
 21 59  1  0
 22 23  1  0
 22 60  1  1
 23 24  1  0
 23 61  1  0
 23 62  1  0
 24 25  1  0
 24 63  1  0
 24 64  1  0
 25 26  1  1
 25 27  1  0
 26 65  1  0
 26 66  1  0
 26 67  1  0
 27 28  1  6
 27 29  1  0
 28 68  1  0
 28 69  1  0
 28 70  1  0
 29 30  1  0
 29 71  1  0
 29 72  1  0
 30 31  1  0
 30 73  1  0
 30 74  1  0
 31 32  1  1
 31 33  1  0
 32 75  1  0
 32 76  1  0
 32 77  1  0
 33 34  1  0
 33 78  1  0
 33 79  1  0
 34 80  1  0
 34 81  1  0
M  CHG  1   5  -1
M  END
>  <i_m_ct_stereo_status>  (296) 
1

>  <s_m_source_file>  (296) 
/var/tmp/pbs.5076255.sched01/tmp0kxp0nim/126xlotvanm.sdf

>  <i_m_source_file_index>  (296) 
2

>  <i_lp_mmshare_version>  (296) 
48012

>  <i_f3d_flags>  (296) 
0

>  <s_epik_input>  (296) 
Tz1DKFtPSF0pW0NAXShbQ0gzXSkoW0NIXT0xKVtDSDJdW0NIMl1bQ0BAXShbQ0gzXSkoW0NIMl1bQ0gyXTIpQzFbQ0BIXShbQ0BASF0oW09IXSlbQ0gyXTMpW0NAQF0yKFtDSDNdKVtDQEBdKFtDSDNdKShbQ0BASF0zW0NAQF00NVtDSDNdKVtDSDJdW0NIMl1bQ0BASF01QyhbQ0gzXSkoW0NIM10pW0NASF0oW09IXSlbQ0gyXVtDSDJdNA==

>  <s_epik_cmdline>  (296) 
J2VwaWtfcHl0aG9uJywgJy1waHQnLCAnMi4wJywgJy1waCcsICc3LjAnLCAnLXRuJywgJzgnLCAnLW1hJywgJzIwMCcsICctaW1hZScsICc8aW5maWxlLm1hZT4nLCAnLW9tYWUnLCAnPG91dGZpbGUubWFlPic=

>  <r_epik_Ionization_Penalty>  (296) 
0.00442008

>  <r_epik_Ionization_Penalty_Charging>  (296) 
0.00441378

>  <r_epik_Ionization_Penalty_Neutral>  (296) 
6.29555e-06

>  <r_epik_State_Penalty>  (296) 
0.00318151

>  <r_epik_Charging_Adjusted_Penalty>  (296) 
0.0075953

>  <i_epik_Tot_Q>  (296) 
-1

>  <i_epik_Tot_abs_Q>  (296) 
1

>  <s_lp_Force_Field>  (296) 
OPLS3e

>  <r_lp_Energy>  (296) 
101.35

>  <b_lp_Chiralities_Consistent>  (296) 
1

>  <s_lp_Variant>  (296) 
86:0-1

>  <s_i_glide_gridfile>  (296) 
pfpi4k_grid

>  <i_i_glide_lignum>  (296) 
2

>  <i_i_glide_rotatable_bonds>  (296) 
3

>  <r_i_docking_score>  (296) 
-3.46539

>  <r_i_glide_ligand_efficiency>  (296) 
-0.101923

>  <r_i_glide_ligand_efficiency_sa>  (296) 
-0.330192

>  <r_i_glide_ligand_efficiency_ln>  (296) 
-0.765602

>  <r_i_glide_gscore>  (296) 
-3.46539

>  <r_i_glide_lipo>  (296) 
-0.333299

>  <r_i_glide_hbond>  (296) 
-0.301329

>  <r_i_glide_metal>  (296) 
-0

>  <r_i_glide_rewards>  (296) 
-0.393336

>  <r_i_glide_evdw>  (296) 
-26.5784

>  <r_i_glide_ecoul>  (296) 
-7.39005

>  <r_i_glide_erotb>  (296) 
0

>  <r_i_glide_esite>  (296) 
0

>  <r_i_glide_emodel>  (296) 
-42.1582

>  <r_i_glide_energy>  (296) 
-33.9684

>  <r_i_glide_einternal>  (296) 
1.30458

>  <r_i_glide_intrahb_reward>  (296) 
-0

>  <i_i_glide_confnum>  (296) 
2

>  <i_i_glide_posenum>  (296) 
34

>  <r_i_glide_eff_state_penalty>  (296) 
0

>  <ligand_id>  (296) 
86

>  <original_smiles>  (296) 
CC1(C(=O)O)C=C2C3C(O)CC4C5(C)CCC(O)C(C)(C)C5CCC4(C)C3(C)CCC2(C)CC1

>  <smiles>  (296) 
[H]OC1([H])C([H])([H])C2([H])C3(C([H])([H])[H])C([H])([H])C([H])([H])C([H])(O[H])C(C([H])([H])[H])(C([H])([H])[H])C3([H])C([H])([H])C([H])([H])C2(C([H])([H])[H])C2(C([H])([H])[H])C([H])([H])C([H])([H])C3(C([H])([H])[H])C(=C([H])C(C(=O)[O-])(C([H])([H])[H])C([H])([H])C3([H])[H])C12[H]

$$$$
86:0:1
     RDKit          3D

 81 85  0  0  1  0  0  0  0  0999 V2000
    4.8090   -2.6815   -1.6705 C   0  0  0  0  0  0  0  0  0  0  0  0
    5.2882   -2.9446   -0.2214 C   0  0  1  0  0  0  0  0  0  0  0  0
    6.8260   -2.7164   -0.1548 C   0  0  0  0  0  0  0  0  0  0  0  0
    7.3689   -2.1036   -1.1000 O   0  0  0  0  0  0  0  0  0  0  0  0
    7.4498   -3.1247    0.8460 O   0  0  0  0  0  0  0  0  0  0  0  0
    4.5882   -1.9696    0.7164 C   0  0  0  0  0  0  0  0  0  0  0  0
    3.9561   -2.2720    1.8786 C   0  0  0  0  0  0  0  0  0  0  0  0
    3.2315   -1.2200    2.7642 C   0  0  2  0  0  0  0  0  0  0  0  0
    3.1281    0.1873    2.1509 C   0  0  1  0  0  0  0  0  0  0  0  0
    2.4673    0.1518    0.9103 O   0  0  0  0  0  0  0  0  0  0  0  0
    2.3396    1.1477    3.0423 C   0  0  0  0  0  0  0  0  0  0  0  0
    2.9292    1.3377    4.4606 C   0  0  1  0  0  0  0  0  0  0  0  0
    2.1546    2.4622    5.2920 C   0  0  1  0  0  0  0  0  0  0  0  0
    3.0915    2.9637    6.4386 C   0  0  0  0  0  0  0  0  0  0  0  0
    1.9370    3.7786    4.4631 C   0  0  0  0  0  0  0  0  0  0  0  0
    0.5922    3.9433    3.7518 C   0  0  0  0  0  0  0  0  0  0  0  0
   -0.5543    3.7621    4.7430 C   0  0  1  0  0  0  0  0  0  0  0  0
   -1.7659    4.1393    4.1103 O   0  0  0  0  0  0  0  0  0  0  0  0
   -0.5979    2.3245    5.3331 C   0  0  0  0  0  0  0  0  0  0  0  0
   -1.6478    2.3556    6.4783 C   0  0  0  0  0  0  0  0  0  0  0  0
   -1.1097    1.3193    4.2685 C   0  0  0  0  0  0  0  0  0  0  0  0
    0.8132    1.9465    5.9524 C   0  0  1  0  0  0  0  0  0  0  0  0
    0.9321    0.4910    6.4853 C   0  0  0  0  0  0  0  0  0  0  0  0
    1.6913   -0.5224    5.5960 C   0  0  0  0  0  0  0  0  0  0  0  0
    3.1166   -0.0725    5.1652 C   0  0  2  0  0  0  0  0  0  0  0  0
    4.0052    0.0353    6.4495 C   0  0  0  0  0  0  0  0  0  0  0  0
    3.8416   -1.1430    4.2011 C   0  0  2  0  0  0  0  0  0  0  0  0
    5.3531   -0.7773    4.0713 C   0  0  0  0  0  0  0  0  0  0  0  0
    3.7153   -2.5984    4.7706 C   0  0  0  0  0  0  0  0  0  0  0  0
    4.4051   -3.6788    3.9209 C   0  0  0  0  0  0  0  0  0  0  0  0
    3.9449   -3.7073    2.4439 C   0  0  1  0  0  0  0  0  0  0  0  0
    2.5249   -4.3074    2.3349 C   0  0  0  0  0  0  0  0  0  0  0  0
    4.9145   -4.6497    1.6804 C   0  0  0  0  0  0  0  0  0  0  0  0
    4.9208   -4.4019    0.1626 C   0  0  0  0  0  0  0  0  0  0  0  0
    5.0286   -1.6614   -1.9900 H   0  0  0  0  0  0  0  0  0  0  0  0
    3.7321   -2.8170   -1.7693 H   0  0  0  0  0  0  0  0  0  0  0  0
    5.2933   -3.3559   -2.3793 H   0  0  0  0  0  0  0  0  0  0  0  0
    4.6170   -0.9558    0.3547 H   0  0  0  0  0  0  0  0  0  0  0  0
    2.2099   -1.5789    2.8629 H   0  0  0  0  0  0  0  0  0  0  0  0
    4.1206    0.5969    1.9745 H   0  0  0  0  0  0  0  0  0  0  0  0
    1.6286   -0.2793    0.9823 H   0  0  0  0  0  0  0  0  0  0  0  0
    2.3145    2.0968    2.5112 H   0  0  0  0  0  0  0  0  0  0  0  0
    1.3182    0.7936    3.1115 H   0  0  0  0  0  0  0  0  0  0  0  0
    3.9247    1.7405    4.2787 H   0  0  0  0  0  0  0  0  0  0  0  0
    2.7678    3.9132    6.8663 H   0  0  0  0  0  0  0  0  0  0  0  0
    4.1163    3.1075    6.0934 H   0  0  0  0  0  0  0  0  0  0  0  0
    3.1061    2.3092    7.3024 H   0  0  0  0  0  0  0  0  0  0  0  0
    2.0087    4.6640    5.0967 H   0  0  0  0  0  0  0  0  0  0  0  0
    2.7474    3.9070    3.7477 H   0  0  0  0  0  0  0  0  0  0  0  0
    0.5546    4.9471    3.3226 H   0  0  0  0  0  0  0  0  0  0  0  0
    0.4994    3.2763    2.8999 H   0  0  0  0  0  0  0  0  0  0  0  0
   -0.3958    4.4740    5.5533 H   0  0  0  0  0  0  0  0  0  0  0  0
   -1.8381    3.6339    3.3064 H   0  0  0  0  0  0  0  0  0  0  0  0
   -1.7688    1.3890    6.9640 H   0  0  0  0  0  0  0  0  0  0  0  0
   -2.6328    2.6529    6.1146 H   0  0  0  0  0  0  0  0  0  0  0  0
   -1.3729    3.0765    7.2517 H   0  0  0  0  0  0  0  0  0  0  0  0
   -0.9387    0.2851    4.5572 H   0  0  0  0  0  0  0  0  0  0  0  0
   -0.6594    1.4741    3.2921 H   0  0  0  0  0  0  0  0  0  0  0  0
   -2.1860    1.4232    4.1162 H   0  0  0  0  0  0  0  0  0  0  0  0
    0.7728    2.5303    6.8722 H   0  0  0  0  0  0  0  0  0  0  0  0
    1.3886    0.5258    7.4728 H   0  0  0  0  0  0  0  0  0  0  0  0
   -0.0516    0.0781    6.6791 H   0  0  0  0  0  0  0  0  0  0  0  0
    1.7365   -1.4531    6.1602 H   0  0  0  0  0  0  0  0  0  0  0  0
    1.0867   -0.7487    4.7215 H   0  0  0  0  0  0  0  0  0  0  0  0
    4.4881   -0.8952    6.7300 H   0  0  0  0  0  0  0  0  0  0  0  0
    3.4629    0.2960    7.3489 H   0  0  0  0  0  0  0  0  0  0  0  0
    4.8048    0.7623    6.3153 H   0  0  0  0  0  0  0  0  0  0  0  0
    5.8907   -0.9816    4.9965 H   0  0  0  0  0  0  0  0  0  0  0  0
    5.5185    0.2702    3.8216 H   0  0  0  0  0  0  0  0  0  0  0  0
    5.8627   -1.3533    3.3011 H   0  0  0  0  0  0  0  0  0  0  0  0
    4.1044   -2.6892    5.7833 H   0  0  0  0  0  0  0  0  0  0  0  0
    2.6669   -2.8826    4.8353 H   0  0  0  0  0  0  0  0  0  0  0  0
    5.4835   -3.5152    3.9690 H   0  0  0  0  0  0  0  0  0  0  0  0
    4.2397   -4.6593    4.3731 H   0  0  0  0  0  0  0  0  0  0  0  0
    2.5030   -5.3408    2.6835 H   0  0  0  0  0  0  0  0  0  0  0  0
    2.1843   -4.3038    1.2996 H   0  0  0  0  0  0  0  0  0  0  0  0
    1.7886   -3.7594    2.9202 H   0  0  0  0  0  0  0  0  0  0  0  0
    5.9249   -4.5310    2.0670 H   0  0  0  0  0  0  0  0  0  0  0  0
    4.6763   -5.6956    1.8826 H   0  0  0  0  0  0  0  0  0  0  0  0
    3.9312   -4.6385   -0.2319 H   0  0  0  0  0  0  0  0  0  0  0  0
    5.5993   -5.1028   -0.3259 H   0  0  0  0  0  0  0  0  0  0  0  0
  2  1  1  6
  1 35  1  0
  1 36  1  0
  1 37  1  0
  2 34  1  0
  2  3  1  0
  2  6  1  0
  3  4  2  0
  3  5  1  0
  6  7  2  0
  6 38  1  0
  7 31  1  0
  7  8  1  0
  8 27  1  0
  8  9  1  0
  8 39  1  1
  9 10  1  0
  9 11  1  0
  9 40  1  6
 10 41  1  0
 11 12  1  0
 11 42  1  0
 11 43  1  0
 12 25  1  0
 12 13  1  0
 12 44  1  6
 13 22  1  0
 13 14  1  1
 13 15  1  0
 14 45  1  0
 14 46  1  0
 14 47  1  0
 15 16  1  0
 15 48  1  0
 15 49  1  0
 16 17  1  0
 16 50  1  0
 16 51  1  0
 17 18  1  0
 17 19  1  0
 17 52  1  1
 18 53  1  0
 19 20  1  0
 19 21  1  0
 19 22  1  0
 20 54  1  0
 20 55  1  0
 20 56  1  0
 21 57  1  0
 21 58  1  0
 21 59  1  0
 22 23  1  0
 22 60  1  1
 23 24  1  0
 23 61  1  0
 23 62  1  0
 24 25  1  0
 24 63  1  0
 24 64  1  0
 25 26  1  1
 25 27  1  0
 26 65  1  0
 26 66  1  0
 26 67  1  0
 27 28  1  6
 27 29  1  0
 28 68  1  0
 28 69  1  0
 28 70  1  0
 29 30  1  0
 29 71  1  0
 29 72  1  0
 30 31  1  0
 30 73  1  0
 30 74  1  0
 31 32  1  1
 31 33  1  0
 32 75  1  0
 32 76  1  0
 32 77  1  0
 33 34  1  0
 33 78  1  0
 33 79  1  0
 34 80  1  0
 34 81  1  0
M  CHG  1   5  -1
M  END
>  <i_m_ct_stereo_status>  (297) 
1

>  <s_m_source_file>  (297) 
/var/tmp/pbs.5076255.sched01/tmp0kxp0nim/126xlotvanm.sdf

>  <i_m_source_file_index>  (297) 
2

>  <i_lp_mmshare_version>  (297) 
48012

>  <i_f3d_flags>  (297) 
0

>  <s_epik_input>  (297) 
Tz1DKFtPSF0pW0NAXShbQ0gzXSkoW0NIXT0xKVtDSDJdW0NIMl1bQ0BAXShbQ0gzXSkoW0NIMl1bQ0gyXTIpQzFbQ0BIXShbQ0BASF0oW09IXSlbQ0gyXTMpW0NAQF0yKFtDSDNdKVtDQEBdKFtDSDNdKShbQ0BASF0zW0NAQF00NVtDSDNdKVtDSDJdW0NIMl1bQ0BASF01QyhbQ0gzXSkoW0NIM10pW0NASF0oW09IXSlbQ0gyXVtDSDJdNA==

>  <s_epik_cmdline>  (297) 
J2VwaWtfcHl0aG9uJywgJy1waHQnLCAnMi4wJywgJy1waCcsICc3LjAnLCAnLXRuJywgJzgnLCAnLW1hJywgJzIwMCcsICctaW1hZScsICc8aW5maWxlLm1hZT4nLCAnLW9tYWUnLCAnPG91dGZpbGUubWFlPic=

>  <r_epik_Ionization_Penalty>  (297) 
0.00442008

>  <r_epik_Ionization_Penalty_Charging>  (297) 
0.00441378

>  <r_epik_Ionization_Penalty_Neutral>  (297) 
6.29555e-06

>  <r_epik_State_Penalty>  (297) 
0.00318151

>  <r_epik_Charging_Adjusted_Penalty>  (297) 
0.0075953

>  <i_epik_Tot_Q>  (297) 
-1

>  <i_epik_Tot_abs_Q>  (297) 
1

>  <s_lp_Force_Field>  (297) 
OPLS3e

>  <r_lp_Energy>  (297) 
101.35

>  <b_lp_Chiralities_Consistent>  (297) 
1

>  <s_lp_Variant>  (297) 
86:0-1

>  <s_i_glide_gridfile>  (297) 
pfpi4k_grid

>  <i_i_glide_lignum>  (297) 
2

>  <i_i_glide_rotatable_bonds>  (297) 
3

>  <r_i_docking_score>  (297) 
-3.16026

>  <r_i_glide_ligand_efficiency>  (297) 
-0.0929489

>  <r_i_glide_ligand_efficiency_sa>  (297) 
-0.301119

>  <r_i_glide_ligand_efficiency_ln>  (297) 
-0.698191

>  <r_i_glide_gscore>  (297) 
-3.16026

>  <r_i_glide_lipo>  (297) 
-0.245598

>  <r_i_glide_hbond>  (297) 
-0.29498

>  <r_i_glide_metal>  (297) 
-0

>  <r_i_glide_rewards>  (297) 
-0.238459

>  <r_i_glide_evdw>  (297) 
-26.0081

>  <r_i_glide_ecoul>  (297) 
-7.20549

>  <r_i_glide_erotb>  (297) 
0

>  <r_i_glide_esite>  (297) 
0

>  <r_i_glide_emodel>  (297) 
-40.9315

>  <r_i_glide_energy>  (297) 
-33.2136

>  <r_i_glide_einternal>  (297) 
0.88402

>  <r_i_glide_intrahb_reward>  (297) 
-0

>  <i_i_glide_confnum>  (297) 
1

>  <i_i_glide_posenum>  (297) 
15

>  <r_i_glide_eff_state_penalty>  (297) 
0

>  <ligand_id>  (297) 
86

>  <original_smiles>  (297) 
CC1(C(=O)O)C=C2C3C(O)CC4C5(C)CCC(O)C(C)(C)C5CCC4(C)C3(C)CCC2(C)CC1

>  <smiles>  (297) 
[H]OC1([H])C([H])([H])C2([H])C3(C([H])([H])[H])C([H])([H])C([H])([H])C([H])(O[H])C(C([H])([H])[H])(C([H])([H])[H])C3([H])C([H])([H])C([H])([H])C2(C([H])([H])[H])C2(C([H])([H])[H])C([H])([H])C([H])([H])C3(C([H])([H])[H])C(=C([H])C(C(=O)[O-])(C([H])([H])[H])C([H])([H])C3([H])[H])C12[H]

$$$$
86:0:2
     RDKit          3D

 81 85  0  0  1  0  0  0  0  0999 V2000
    4.4142   -2.9672   -1.0923 C   0  0  0  0  0  0  0  0  0  0  0  0
    5.0774   -2.9779    0.3072 C   0  0  1  0  0  0  0  0  0  0  0  0
    6.6007   -2.6979    0.1216 C   0  0  0  0  0  0  0  0  0  0  0  0
    7.4217   -3.3162    0.8350 O   0  0  0  0  0  0  0  0  0  0  0  0
    6.9402   -1.8519   -0.7440 O   0  0  0  0  0  0  0  0  0  0  0  0
    4.4530   -1.8753    1.1530 C   0  0  0  0  0  0  0  0  0  0  0  0
    3.9785   -1.9978    2.4208 C   0  0  0  0  0  0  0  0  0  0  0  0
    3.3180   -0.8301    3.2090 C   0  0  2  0  0  0  0  0  0  0  0  0
    3.0581    0.4465    2.3877 C   0  0  1  0  0  0  0  0  0  0  0  0
    2.1701    0.1786    1.3225 O   0  0  0  0  0  0  0  0  0  0  0  0
    2.3468    1.5155    3.2158 C   0  0  0  0  0  0  0  0  0  0  0  0
    3.0874    1.9574    4.5005 C   0  0  1  0  0  0  0  0  0  0  0  0
    2.3638    3.1809    5.2316 C   0  0  1  0  0  0  0  0  0  0  0  0
    3.4063    3.8962    6.1512 C   0  0  0  0  0  0  0  0  0  0  0  0
    1.9797    4.3337    4.2346 C   0  0  0  0  0  0  0  0  0  0  0  0
    0.5537    4.3369    3.6878 C   0  0  0  0  0  0  0  0  0  0  0  0
   -0.4520    4.2863    4.8303 C   0  0  1  0  0  0  0  0  0  0  0  0
   -1.7445    4.5000    4.2855 O   0  0  0  0  0  0  0  0  0  0  0  0
   -0.3540    2.9695    5.6479 C   0  0  0  0  0  0  0  0  0  0  0  0
   -1.2572    3.1606    6.8999 C   0  0  0  0  0  0  0  0  0  0  0  0
   -0.9397    1.7856    4.8328 C   0  0  0  0  0  0  0  0  0  0  0  0
    1.1405    2.7425    6.1362 C   0  0  1  0  0  0  0  0  0  0  0  0
    1.3979    1.3999    6.8758 C   0  0  0  0  0  0  0  0  0  0  0  0
    2.0944    0.2767    6.0695 C   0  0  0  0  0  0  0  0  0  0  0  0
    3.4339    0.6897    5.3912 C   0  0  2  0  0  0  0  0  0  0  0  0
    4.4630    1.0401    6.5170 C   0  0  0  0  0  0  0  0  0  0  0  0
    4.0916   -0.5031    4.5275 C   0  0  2  0  0  0  0  0  0  0  0  0
    5.5600   -0.1235    4.1535 C   0  0  0  0  0  0  0  0  0  0  0  0
    4.1021   -1.8465    5.3376 C   0  0  0  0  0  0  0  0  0  0  0  0
    4.7378   -3.0325    4.5935 C   0  0  0  0  0  0  0  0  0  0  0  0
    4.1033   -3.3173    3.2090 C   0  0  1  0  0  0  0  0  0  0  0  0
    2.7093   -3.9700    3.3805 C   0  0  0  0  0  0  0  0  0  0  0  0
    5.0204   -4.3409    2.4900 C   0  0  0  0  0  0  0  0  0  0  0  0
    4.8233   -4.3573    0.9639 C   0  0  0  0  0  0  0  0  0  0  0  0
    4.5390   -2.0072   -1.5969 H   0  0  0  0  0  0  0  0  0  0  0  0
    3.3395   -3.1510   -1.0264 H   0  0  0  0  0  0  0  0  0  0  0  0
    4.8414   -3.7360   -1.7394 H   0  0  0  0  0  0  0  0  0  0  0  0
    4.4046   -0.9321    0.6395 H   0  0  0  0  0  0  0  0  0  0  0  0
    2.3354   -1.1972    3.4972 H   0  0  0  0  0  0  0  0  0  0  0  0
    3.9889    0.8509    1.9915 H   0  0  0  0  0  0  0  0  0  0  0  0
    2.5068   -0.5196    0.7800 H   0  0  0  0  0  0  0  0  0  0  0  0
    2.1990    2.3611    2.5465 H   0  0  0  0  0  0  0  0  0  0  0  0
    1.3615    1.1421    3.4688 H   0  0  0  0  0  0  0  0  0  0  0  0
    4.0317    2.3533    4.1293 H   0  0  0  0  0  0  0  0  0  0  0  0
    3.0894    4.8943    6.4568 H   0  0  0  0  0  0  0  0  0  0  0  0
    4.3733    4.0107    5.6571 H   0  0  0  0  0  0  0  0  0  0  0  0
    3.5601    3.3972    7.1016 H   0  0  0  0  0  0  0  0  0  0  0  0
    2.0831    5.3146    4.7040 H   0  0  0  0  0  0  0  0  0  0  0  0
    2.6892    4.3678    3.4100 H   0  0  0  0  0  0  0  0  0  0  0  0
    0.4137    5.2604    3.1187 H   0  0  0  0  0  0  0  0  0  0  0  0
    0.3895    3.5383    2.9675 H   0  0  0  0  0  0  0  0  0  0  0  0
   -0.2402    5.1282    5.4907 H   0  0  0  0  0  0  0  0  0  0  0  0
   -1.8877    3.8406    3.6225 H   0  0  0  0  0  0  0  0  0  0  0  0
   -1.2691    2.2842    7.5472 H   0  0  0  0  0  0  0  0  0  0  0  0
   -2.2919    3.3632    6.6221 H   0  0  0  0  0  0  0  0  0  0  0  0
   -0.9257    4.0081    7.5057 H   0  0  0  0  0  0  0  0  0  0  0  0
   -0.6800    0.8208    5.2593 H   0  0  0  0  0  0  0  0  0  0  0  0
   -0.6183    1.7912    3.7958 H   0  0  0  0  0  0  0  0  0  0  0  0
   -2.0289    1.8312    4.8077 H   0  0  0  0  0  0  0  0  0  0  0  0
    1.1836    3.4708    6.9447 H   0  0  0  0  0  0  0  0  0  0  0  0
    1.9674    1.6136    7.7765 H   0  0  0  0  0  0  0  0  0  0  0  0
    0.4655    0.9982    7.2613 H   0  0  0  0  0  0  0  0  0  0  0  0
    2.2530   -0.5445    6.7665 H   0  0  0  0  0  0  0  0  0  0  0  0
    1.3987   -0.1100    5.3294 H   0  0  0  0  0  0  0  0  0  0  0  0
    5.0244    0.1852    6.8791 H   0  0  0  0  0  0  0  0  0  0  0  0
    4.0201    1.4313    7.4249 H   0  0  0  0  0  0  0  0  0  0  0  0
    5.2015    1.7603    6.1662 H   0  0  0  0  0  0  0  0  0  0  0  0
    6.2280   -0.1597    5.0144 H   0  0  0  0  0  0  0  0  0  0  0  0
    5.6318    0.8742    3.7245 H   0  0  0  0  0  0  0  0  0  0  0  0
    5.9994   -0.7964    3.4196 H   0  0  0  0  0  0  0  0  0  0  0  0
    4.6139   -1.7557    6.2951 H   0  0  0  0  0  0  0  0  0  0  0  0
    3.0834   -2.1448    5.5827 H   0  0  0  0  0  0  0  0  0  0  0  0
    5.8072   -2.8310    4.4780 H   0  0  0  0  0  0  0  0  0  0  0  0
    4.6763   -3.9283    5.2150 H   0  0  0  0  0  0  0  0  0  0  0  0
    2.7824   -4.9317    3.8916 H   0  0  0  0  0  0  0  0  0  0  0  0
    2.2339   -4.1496    2.4151 H   0  0  0  0  0  0  0  0  0  0  0  0
    2.0246   -3.3556    3.9635 H   0  0  0  0  0  0  0  0  0  0  0  0
    6.0615   -4.1102    2.7026 H   0  0  0  0  0  0  0  0  0  0  0  0
    4.8785   -5.3450    2.8928 H   0  0  0  0  0  0  0  0  0  0  0  0
    3.8036   -4.6832    0.7488 H   0  0  0  0  0  0  0  0  0  0  0  0
    5.4662   -5.1167    0.5142 H   0  0  0  0  0  0  0  0  0  0  0  0
  2  1  1  6
  1 35  1  0
  1 36  1  0
  1 37  1  0
  2 34  1  0
  2  3  1  0
  2  6  1  0
  3  4  2  0
  3  5  1  0
  6  7  2  0
  6 38  1  0
  7 31  1  0
  7  8  1  0
  8 27  1  0
  8  9  1  0
  8 39  1  1
  9 10  1  0
  9 11  1  0
  9 40  1  6
 10 41  1  0
 11 12  1  0
 11 42  1  0
 11 43  1  0
 12 25  1  0
 12 13  1  0
 12 44  1  6
 13 22  1  0
 13 14  1  1
 13 15  1  0
 14 45  1  0
 14 46  1  0
 14 47  1  0
 15 16  1  0
 15 48  1  0
 15 49  1  0
 16 17  1  0
 16 50  1  0
 16 51  1  0
 17 18  1  0
 17 19  1  0
 17 52  1  1
 18 53  1  0
 19 20  1  0
 19 21  1  0
 19 22  1  0
 20 54  1  0
 20 55  1  0
 20 56  1  0
 21 57  1  0
 21 58  1  0
 21 59  1  0
 22 23  1  0
 22 60  1  1
 23 24  1  0
 23 61  1  0
 23 62  1  0
 24 25  1  0
 24 63  1  0
 24 64  1  0
 25 26  1  1
 25 27  1  0
 26 65  1  0
 26 66  1  0
 26 67  1  0
 27 28  1  6
 27 29  1  0
 28 68  1  0
 28 69  1  0
 28 70  1  0
 29 30  1  0
 29 71  1  0
 29 72  1  0
 30 31  1  0
 30 73  1  0
 30 74  1  0
 31 32  1  1
 31 33  1  0
 32 75  1  0
 32 76  1  0
 32 77  1  0
 33 34  1  0
 33 78  1  0
 33 79  1  0
 34 80  1  0
 34 81  1  0
M  CHG  1   5  -1
M  END
>  <i_m_ct_stereo_status>  (298) 
1

>  <s_m_source_file>  (298) 
/var/tmp/pbs.5076255.sched01/tmp0kxp0nim/126xlotvanm.sdf

>  <i_m_source_file_index>  (298) 
2

>  <i_lp_mmshare_version>  (298) 
48012

>  <i_f3d_flags>  (298) 
0

>  <s_epik_input>  (298) 
Tz1DKFtPSF0pW0NAXShbQ0gzXSkoW0NIXT0xKVtDSDJdW0NIMl1bQ0BAXShbQ0gzXSkoW0NIMl1bQ0gyXTIpQzFbQ0BIXShbQ0BASF0oW09IXSlbQ0gyXTMpW0NAQF0yKFtDSDNdKVtDQEBdKFtDSDNdKShbQ0BASF0zW0NAQF00NVtDSDNdKVtDSDJdW0NIMl1bQ0BASF01QyhbQ0gzXSkoW0NIM10pW0NASF0oW09IXSlbQ0gyXVtDSDJdNA==

>  <s_epik_cmdline>  (298) 
J2VwaWtfcHl0aG9uJywgJy1waHQnLCAnMi4wJywgJy1waCcsICc3LjAnLCAnLXRuJywgJzgnLCAnLW1hJywgJzIwMCcsICctaW1hZScsICc8aW5maWxlLm1hZT4nLCAnLW9tYWUnLCAnPG91dGZpbGUubWFlPic=

>  <r_epik_Ionization_Penalty>  (298) 
0.00442008

>  <r_epik_Ionization_Penalty_Charging>  (298) 
0.00441378

>  <r_epik_Ionization_Penalty_Neutral>  (298) 
6.29555e-06

>  <r_epik_State_Penalty>  (298) 
0.00318151

>  <r_epik_Charging_Adjusted_Penalty>  (298) 
0.0075953

>  <i_epik_Tot_Q>  (298) 
-1

>  <i_epik_Tot_abs_Q>  (298) 
1

>  <s_lp_Force_Field>  (298) 
OPLS3e

>  <r_lp_Energy>  (298) 
101.35

>  <b_lp_Chiralities_Consistent>  (298) 
1

>  <s_lp_Variant>  (298) 
86:0-1

>  <s_i_glide_gridfile>  (298) 
pfpi4k_grid

>  <i_i_glide_lignum>  (298) 
2

>  <i_i_glide_rotatable_bonds>  (298) 
3

>  <r_i_docking_score>  (298) 
-3.06859

>  <r_i_glide_ligand_efficiency>  (298) 
-0.0902526

>  <r_i_glide_ligand_efficiency_sa>  (298) 
-0.292383

>  <r_i_glide_ligand_efficiency_ln>  (298) 
-0.677937

>  <r_i_glide_gscore>  (298) 
-3.06859

>  <r_i_glide_lipo>  (298) 
-0.291655

>  <r_i_glide_hbond>  (298) 
-0.316752

>  <r_i_glide_metal>  (298) 
-0

>  <r_i_glide_rewards>  (298) 
-0.278786

>  <r_i_glide_evdw>  (298) 
-25.5715

>  <r_i_glide_ecoul>  (298) 
-6.01882

>  <r_i_glide_erotb>  (298) 
0

>  <r_i_glide_esite>  (298) 
0

>  <r_i_glide_emodel>  (298) 
-39.1466

>  <r_i_glide_energy>  (298) 
-31.5903

>  <r_i_glide_einternal>  (298) 
0.786806

>  <r_i_glide_intrahb_reward>  (298) 
-0

>  <i_i_glide_confnum>  (298) 
2

>  <i_i_glide_posenum>  (298) 
17

>  <r_i_glide_eff_state_penalty>  (298) 
0

>  <ligand_id>  (298) 
86

>  <original_smiles>  (298) 
CC1(C(=O)O)C=C2C3C(O)CC4C5(C)CCC(O)C(C)(C)C5CCC4(C)C3(C)CCC2(C)CC1

>  <smiles>  (298) 
[H]OC1([H])C([H])([H])C2([H])C3(C([H])([H])[H])C([H])([H])C([H])([H])C([H])(O[H])C(C([H])([H])[H])(C([H])([H])[H])C3([H])C([H])([H])C([H])([H])C2(C([H])([H])[H])C2(C([H])([H])[H])C([H])([H])C([H])([H])C3(C([H])([H])[H])C(=C([H])C(C(=O)[O-])(C([H])([H])[H])C([H])([H])C3([H])[H])C12[H]

$$$$
87:0:0
     RDKit          3D

 47 51  0  0  1  0  0  0  0  0999 V2000
    3.9762   -6.2529    4.5532 C   0  0  0  0  0  0  0  0  0  0  0  0
    4.0451   -6.2672    3.0079 C   0  0  1  0  0  0  0  0  0  0  0  0
    5.3388   -7.0005    2.5889 C   0  0  0  0  0  0  0  0  0  0  0  0
    4.9649   -8.3607    2.4161 O   0  0  0  0  0  0  0  0  0  0  0  0
    3.7084   -8.3903    1.8328 C   0  0  1  0  0  0  0  0  0  0  0  0
    3.0511   -9.6193    2.0590 O   0  0  0  0  0  0  0  0  0  0  0  0
    2.9349   -7.2184    2.4835 C   0  0  2  0  0  0  0  0  0  0  0  0
    1.9125   -6.6170    1.4869 C   0  0  1  0  0  0  0  0  0  0  0  0
    0.9443   -5.8795    2.2168 O   0  0  0  0  0  0  0  0  0  0  0  0
    2.5298   -5.6617    0.4851 C   0  0  2  0  0  0  0  0  0  0  0  0
    3.9205   -5.8320    0.1278 O   0  0  0  0  0  0  0  0  0  0  0  0
    3.5859   -4.7103    0.9566 C   0  0  2  0  0  0  0  0  0  0  0  0
    3.9427   -4.7898    2.4568 C   0  0  2  0  0  0  0  0  0  0  0  0
    5.1467   -3.9024    2.8711 C   0  0  0  0  0  0  0  0  0  0  0  0
    5.2022   -2.5177    2.1917 C   0  0  0  0  0  0  0  0  0  0  0  0
    5.0788   -2.6315    0.6598 C   0  0  2  0  0  0  0  0  0  0  0  0
    6.2763   -3.4536    0.1146 C   0  0  0  0  0  0  0  0  0  0  0  0
    5.1679   -1.2693   -0.0337 C   0  0  0  0  0  0  0  0  0  0  0  0
    4.6049   -1.0646   -1.2390 C   0  0  0  0  0  0  0  0  0  0  0  0
    3.8808   -2.1414   -1.8964 C   0  0  0  0  0  0  0  0  0  0  0  0
    3.4502   -3.2041   -1.1814 C   0  0  0  0  0  0  0  0  0  0  0  0
    3.6993   -3.3054    0.3257 C   0  0  1  0  0  0  0  0  0  0  0  0
    2.6256   -2.5798    0.9118 O   0  0  0  0  0  0  0  0  0  0  0  0
    4.8201   -5.7293    5.0080 H   0  0  0  0  0  0  0  0  0  0  0  0
    4.0084   -7.2761    4.9342 H   0  0  0  0  0  0  0  0  0  0  0  0
    3.0510   -5.7970    4.9146 H   0  0  0  0  0  0  0  0  0  0  0  0
    5.7477   -6.6157    1.6541 H   0  0  0  0  0  0  0  0  0  0  0  0
    6.1317   -6.9256    3.3367 H   0  0  0  0  0  0  0  0  0  0  0  0
    3.8151   -8.2767    0.7507 H   0  0  0  0  0  0  0  0  0  0  0  0
    3.5347  -10.3131    1.6253 H   0  0  0  0  0  0  0  0  0  0  0  0
    2.3944   -7.6390    3.3349 H   0  0  0  0  0  0  0  0  0  0  0  0
    1.3859   -7.4152    0.9564 H   0  0  0  0  0  0  0  0  0  0  0  0
    1.4048   -5.3008    2.8129 H   0  0  0  0  0  0  0  0  0  0  0  0
    1.8704   -5.3405   -0.3161 H   0  0  0  0  0  0  0  0  0  0  0  0
    3.0946   -4.3258    2.9593 H   0  0  0  0  0  0  0  0  0  0  0  0
    5.0921   -3.7230    3.9429 H   0  0  0  0  0  0  0  0  0  0  0  0
    6.0910   -4.4193    2.7104 H   0  0  0  0  0  0  0  0  0  0  0  0
    4.4153   -1.8786    2.5899 H   0  0  0  0  0  0  0  0  0  0  0  0
    6.1361   -2.0228    2.4579 H   0  0  0  0  0  0  0  0  0  0  0  0
    6.2804   -4.4837    0.4687 H   0  0  0  0  0  0  0  0  0  0  0  0
    7.2232   -3.0000    0.4097 H   0  0  0  0  0  0  0  0  0  0  0  0
    6.2674   -3.5008   -0.9753 H   0  0  0  0  0  0  0  0  0  0  0  0
    5.6961   -0.4818    0.4839 H   0  0  0  0  0  0  0  0  0  0  0  0
    4.6681   -0.0920   -1.7151 H   0  0  0  0  0  0  0  0  0  0  0  0
    3.6897   -2.0808   -2.9612 H   0  0  0  0  0  0  0  0  0  0  0  0
    2.9174   -3.9922   -1.6830 H   0  0  0  0  0  0  0  0  0  0  0  0
    2.3377   -1.9193    0.2885 H   0  0  0  0  0  0  0  0  0  0  0  0
  2  1  1  1
  1 24  1  0
  1 25  1  0
  1 26  1  0
  2  7  1  0
  2 13  1  0
  2  3  1  0
  3  4  1  0
  3 27  1  0
  3 28  1  0
  4  5  1  0
  5  6  1  0
  5  7  1  0
  5 29  1  6
  6 30  1  0
  7  8  1  0
  7 31  1  1
  8  9  1  0
  8 10  1  0
  8 32  1  6
  9 33  1  0
 10 12  1  0
 10 11  1  0
 10 34  1  6
 12 11  1  6
 12 22  1  0
 12 13  1  0
 13 14  1  0
 13 35  1  1
 14 15  1  0
 14 36  1  0
 14 37  1  0
 15 16  1  0
 15 38  1  0
 15 39  1  0
 16 22  1  0
 16 17  1  6
 16 18  1  0
 17 40  1  0
 17 41  1  0
 17 42  1  0
 18 19  2  0
 18 43  1  0
 19 20  1  0
 19 44  1  0
 20 21  2  0
 20 45  1  0
 21 22  1  0
 21 46  1  0
 22 23  1  1
 23 47  1  0
M  END
>  <i_m_ct_stereo_status>  (299) 
1

>  <s_m_source_file>  (299) 
/var/tmp/pbs.5076255.sched01/tmp0kxp0nim/126xlotvanm.sdf

>  <i_m_source_file_index>  (299) 
3

>  <i_lp_mmshare_version>  (299) 
48012

>  <i_f3d_flags>  (299) 
0

>  <s_epik_input>  (299) 
W09IXVtDQEBIXTFPW0NIMl1bQ0BdKFtDSDNdKShbQ0BIXTFbQ0BASF0oW09IXSlbQ0BIXShPMilbQ0BdMjM0KVtDQEhdM1tDSDJdW0NIMl1bQ0BAXTUoW0NIM10pW0NAQF00KFtPSF0pW0NIXT1bQ0hdW0NIXT1bQ0hdNQ==

>  <s_epik_cmdline>  (299) 
J2VwaWtfcHl0aG9uJywgJy1waHQnLCAnMi4wJywgJy1waCcsICc3LjAnLCAnLXRuJywgJzgnLCAnLW1hJywgJzIwMCcsICctaW1hZScsICc8aW5maWxlLm1hZT4nLCAnLW9tYWUnLCAnPG91dGZpbGUubWFlPic=

>  <r_lp_tautomer_probability>  (299) 
1

>  <r_epik_Ionization_Penalty>  (299) 
2.43338e-07

>  <r_epik_Ionization_Penalty_Charging>  (299) 
0

>  <r_epik_Ionization_Penalty_Neutral>  (299) 
2.43338e-07

>  <r_epik_State_Penalty>  (299) 
-0

>  <r_epik_Charging_Adjusted_Penalty>  (299) 
0

>  <i_epik_Tot_Q>  (299) 
0

>  <i_epik_Tot_abs_Q>  (299) 
0

>  <s_epik_Chemistry_Notes>  (299) 
This compound contains an acetal/aminal-like group ( X-CH(R)-Y where X, Y are N, S, or O) that may be acid/base labile, releasing an aldehyde.

>  <s_lp_Force_Field>  (299) 
OPLS3e

>  <r_lp_Energy>  (299) 
35.7991

>  <b_lp_Chiralities_Consistent>  (299) 
1

>  <s_lp_Variant>  (299) 
87:0-1

>  <s_i_glide_gridfile>  (299) 
pfpi4k_grid

>  <i_i_glide_lignum>  (299) 
3

>  <i_i_glide_rotatable_bonds>  (299) 
3

>  <r_i_docking_score>  (299) 
-3.4651

>  <r_i_glide_ligand_efficiency>  (299) 
-0.150657

>  <r_i_glide_ligand_efficiency_sa>  (299) 
-0.428447

>  <r_i_glide_ligand_efficiency_ln>  (299) 
-0.837893

>  <r_i_glide_gscore>  (299) 
-3.4651

>  <r_i_glide_lipo>  (299) 
-0.234253

>  <r_i_glide_hbond>  (299) 
-0.174463

>  <r_i_glide_metal>  (299) 
-0

>  <r_i_glide_rewards>  (299) 
-1.22468

>  <r_i_glide_evdw>  (299) 
-23.5018

>  <r_i_glide_ecoul>  (299) 
-4.28169

>  <r_i_glide_erotb>  (299) 
0

>  <r_i_glide_esite>  (299) 
-0.0143579

>  <r_i_glide_emodel>  (299) 
-33.8606

>  <r_i_glide_energy>  (299) 
-27.7835

>  <r_i_glide_einternal>  (299) 
0.931583

>  <r_i_glide_intrahb_reward>  (299) 
-0

>  <i_i_glide_confnum>  (299) 
2

>  <i_i_glide_posenum>  (299) 
1

>  <r_i_glide_eff_state_penalty>  (299) 
0

>  <ligand_id>  (299) 
87

>  <original_smiles>  (299) 
CC12COC(O)C1C(O)C1OC13C2CCC1(C)C=CC=CC13O

>  <smiles>  (299) 
[H]OC1([H])OC([H])([H])C2(C([H])([H])[H])C1([H])C([H])(O[H])C1([H])OC13C1(O[H])C([H])=C([H])C([H])=C([H])C1(C([H])([H])[H])C([H])([H])C([H])([H])C32[H]

$$$$
87:0:1
     RDKit          3D

 47 51  0  0  1  0  0  0  0  0999 V2000
    4.1527   -6.6584    4.5163 C   0  0  0  0  0  0  0  0  0  0  0  0
    4.2042   -6.5652    2.9703 C   0  0  1  0  0  0  0  0  0  0  0  0
    5.5131   -7.2383    2.4917 C   0  0  0  0  0  0  0  0  0  0  0  0
    5.1709   -8.5907    2.2370 O   0  0  0  0  0  0  0  0  0  0  0  0
    3.9120   -8.6034    1.6612 C   0  0  1  0  0  0  0  0  0  0  0  0
    3.2738   -9.8516    1.8216 O   0  0  0  0  0  0  0  0  0  0  0  0
    3.1168   -7.5060    2.3989 C   0  0  2  0  0  0  0  0  0  0  0  0
    2.0555   -6.8912    1.4531 C   0  0  1  0  0  0  0  0  0  0  0  0
    1.0408   -6.2650    2.2238 O   0  0  0  0  0  0  0  0  0  0  0  0
    2.6336   -5.8476    0.5160 C   0  0  2  0  0  0  0  0  0  0  0  0
    4.0201   -5.9534    0.1256 O   0  0  0  0  0  0  0  0  0  0  0  0
    3.6675   -4.9006    1.0284 C   0  0  2  0  0  0  0  0  0  0  0  0
    4.0500   -5.0622    2.5197 C   0  0  2  0  0  0  0  0  0  0  0  0
    5.2362   -4.1756    2.9724 C   0  0  0  0  0  0  0  0  0  0  0  0
    5.2429   -2.7503    2.3834 C   0  0  0  0  0  0  0  0  0  0  0  0
    5.1036   -2.7694    0.8500 C   0  0  2  0  0  0  0  0  0  0  0  0
    6.3161   -3.5216    0.2397 C   0  0  0  0  0  0  0  0  0  0  0  0
    5.1474   -1.3659    0.2468 C   0  0  0  0  0  0  0  0  0  0  0  0
    4.5646   -1.0997   -0.9370 C   0  0  0  0  0  0  0  0  0  0  0  0
    3.8595   -2.1543   -1.6532 C   0  0  0  0  0  0  0  0  0  0  0  0
    3.4683   -3.2705   -1.0039 C   0  0  0  0  0  0  0  0  0  0  0  0
    3.7409   -3.4546    0.4943 C   0  0  1  0  0  0  0  0  0  0  0  0
    2.6634   -2.7872    1.1338 O   0  0  0  0  0  0  0  0  0  0  0  0
    4.9883   -6.1380    4.9930 H   0  0  0  0  0  0  0  0  0  0  0  0
    4.2188   -7.7016    4.8265 H   0  0  0  0  0  0  0  0  0  0  0  0
    3.2187   -6.2503    4.9127 H   0  0  0  0  0  0  0  0  0  0  0  0
    5.8947   -6.7850    1.5748 H   0  0  0  0  0  0  0  0  0  0  0  0
    6.3137   -7.1853    3.2331 H   0  0  0  0  0  0  0  0  0  0  0  0
    4.0020   -8.4236    0.5873 H   0  0  0  0  0  0  0  0  0  0  0  0
    3.7754  -10.5149    1.3553 H   0  0  0  0  0  0  0  0  0  0  0  0
    2.6051   -8.0059    3.2266 H   0  0  0  0  0  0  0  0  0  0  0  0
    1.5669   -7.6735    0.8756 H   0  0  0  0  0  0  0  0  0  0  0  0
    0.8183   -6.8370    2.9441 H   0  0  0  0  0  0  0  0  0  0  0  0
    1.9571   -5.4990   -0.2625 H   0  0  0  0  0  0  0  0  0  0  0  0
    3.1916   -4.6641    3.0595 H   0  0  0  0  0  0  0  0  0  0  0  0
    5.1927   -4.0640    4.0556 H   0  0  0  0  0  0  0  0  0  0  0  0
    6.1905   -4.6537    2.7665 H   0  0  0  0  0  0  0  0  0  0  0  0
    4.4441   -2.1618    2.8301 H   0  0  0  0  0  0  0  0  0  0  0  0
    6.1658   -2.2412    2.6639 H   0  0  0  0  0  0  0  0  0  0  0  0
    6.3526   -4.5696    0.5271 H   0  0  0  0  0  0  0  0  0  0  0  0
    7.2516   -3.0597    0.5536 H   0  0  0  0  0  0  0  0  0  0  0  0
    6.2941   -3.4987   -0.8508 H   0  0  0  0  0  0  0  0  0  0  0  0
    5.6648   -0.5985    0.8052 H   0  0  0  0  0  0  0  0  0  0  0  0
    4.6147   -0.0993   -1.3516 H   0  0  0  0  0  0  0  0  0  0  0  0
    3.6556   -2.0307   -2.7098 H   0  0  0  0  0  0  0  0  0  0  0  0
    2.9559   -4.0474   -1.5451 H   0  0  0  0  0  0  0  0  0  0  0  0
    2.4293   -2.0355    0.6034 H   0  0  0  0  0  0  0  0  0  0  0  0
  2  1  1  1
  1 24  1  0
  1 25  1  0
  1 26  1  0
  2  7  1  0
  2 13  1  0
  2  3  1  0
  3  4  1  0
  3 27  1  0
  3 28  1  0
  4  5  1  0
  5  6  1  0
  5  7  1  0
  5 29  1  6
  6 30  1  0
  7  8  1  0
  7 31  1  1
  8  9  1  0
  8 10  1  0
  8 32  1  6
  9 33  1  0
 10 12  1  0
 10 11  1  0
 10 34  1  6
 12 11  1  6
 12 22  1  0
 12 13  1  0
 13 14  1  0
 13 35  1  1
 14 15  1  0
 14 36  1  0
 14 37  1  0
 15 16  1  0
 15 38  1  0
 15 39  1  0
 16 22  1  0
 16 17  1  6
 16 18  1  0
 17 40  1  0
 17 41  1  0
 17 42  1  0
 18 19  2  0
 18 43  1  0
 19 20  1  0
 19 44  1  0
 20 21  2  0
 20 45  1  0
 21 22  1  0
 21 46  1  0
 22 23  1  1
 23 47  1  0
M  END
>  <i_m_ct_stereo_status>  (300) 
1

>  <s_m_source_file>  (300) 
/var/tmp/pbs.5076255.sched01/tmp0kxp0nim/126xlotvanm.sdf

>  <i_m_source_file_index>  (300) 
3

>  <i_lp_mmshare_version>  (300) 
48012

>  <i_f3d_flags>  (300) 
0

>  <s_epik_input>  (300) 
W09IXVtDQEBIXTFPW0NIMl1bQ0BdKFtDSDNdKShbQ0BIXTFbQ0BASF0oW09IXSlbQ0BIXShPMilbQ0BdMjM0KVtDQEhdM1tDSDJdW0NIMl1bQ0BAXTUoW0NIM10pW0NAQF00KFtPSF0pW0NIXT1bQ0hdW0NIXT1bQ0hdNQ==

>  <s_epik_cmdline>  (300) 
J2VwaWtfcHl0aG9uJywgJy1waHQnLCAnMi4wJywgJy1waCcsICc3LjAnLCAnLXRuJywgJzgnLCAnLW1hJywgJzIwMCcsICctaW1hZScsICc8aW5maWxlLm1hZT4nLCAnLW9tYWUnLCAnPG91dGZpbGUubWFlPic=

>  <r_lp_tautomer_probability>  (300) 
1

>  <r_epik_Ionization_Penalty>  (300) 
2.43338e-07

>  <r_epik_Ionization_Penalty_Charging>  (300) 
0

>  <r_epik_Ionization_Penalty_Neutral>  (300) 
2.43338e-07

>  <r_epik_State_Penalty>  (300) 
-0

>  <r_epik_Charging_Adjusted_Penalty>  (300) 
0

>  <i_epik_Tot_Q>  (300) 
0

>  <i_epik_Tot_abs_Q>  (300) 
0

>  <s_epik_Chemistry_Notes>  (300) 
This compound contains an acetal/aminal-like group ( X-CH(R)-Y where X, Y are N, S, or O) that may be acid/base labile, releasing an aldehyde.

>  <s_lp_Force_Field>  (300) 
OPLS3e

>  <r_lp_Energy>  (300) 
35.7991

>  <b_lp_Chiralities_Consistent>  (300) 
1

>  <s_lp_Variant>  (300) 
87:0-1

>  <s_i_glide_gridfile>  (300) 
pfpi4k_grid

>  <i_i_glide_lignum>  (300) 
3

>  <i_i_glide_rotatable_bonds>  (300) 
3

>  <r_i_docking_score>  (300) 
-3.2646

>  <r_i_glide_ligand_efficiency>  (300) 
-0.141939

>  <r_i_glide_ligand_efficiency_sa>  (300) 
-0.403656

>  <r_i_glide_ligand_efficiency_ln>  (300) 
-0.789409

>  <r_i_glide_gscore>  (300) 
-3.2646

>  <r_i_glide_lipo>  (300) 
-0.296817

>  <r_i_glide_hbond>  (300) 
0

>  <r_i_glide_metal>  (300) 
-0

>  <r_i_glide_rewards>  (300) 
-1.22468

>  <r_i_glide_evdw>  (300) 
-23.173

>  <r_i_glide_ecoul>  (300) 
-3.72161

>  <r_i_glide_erotb>  (300) 
0

>  <r_i_glide_esite>  (300) 
-0.0262071

>  <r_i_glide_emodel>  (300) 
-32.5743

>  <r_i_glide_energy>  (300) 
-26.8946

>  <r_i_glide_einternal>  (300) 
1.03729

>  <r_i_glide_intrahb_reward>  (300) 
-0

>  <i_i_glide_confnum>  (300) 
2

>  <i_i_glide_posenum>  (300) 
13

>  <r_i_glide_eff_state_penalty>  (300) 
0

>  <ligand_id>  (300) 
87

>  <original_smiles>  (300) 
CC12COC(O)C1C(O)C1OC13C2CCC1(C)C=CC=CC13O

>  <smiles>  (300) 
[H]OC1([H])OC([H])([H])C2(C([H])([H])[H])C1([H])C([H])(O[H])C1([H])OC13C1(O[H])C([H])=C([H])C([H])=C([H])C1(C([H])([H])[H])C([H])([H])C([H])([H])C32[H]

$$$$
87:0:2
     RDKit          3D

 47 51  0  0  1  0  0  0  0  0999 V2000
    5.7002   -5.5712    3.9789 C   0  0  0  0  0  0  0  0  0  0  0  0
    5.0380   -5.8611    2.6137 C   0  0  1  0  0  0  0  0  0  0  0  0
    5.9996   -6.7498    1.7895 C   0  0  0  0  0  0  0  0  0  0  0  0
    5.6193   -8.0896    2.0741 O   0  0  0  0  0  0  0  0  0  0  0  0
    4.2356   -8.1293    2.1626 C   0  0  1  0  0  0  0  0  0  0  0  0
    3.7714   -9.2384    2.8987 O   0  0  0  0  0  0  0  0  0  0  0  0
    3.8411   -6.8142    2.8630 C   0  0  2  0  0  0  0  0  0  0  0  0
    2.4543   -6.3532    2.3704 C   0  0  1  0  0  0  0  0  0  0  0  0
    1.9195   -5.4797    3.3481 O   0  0  0  0  0  0  0  0  0  0  0  0
    2.5034   -5.6219    1.0394 C   0  0  2  0  0  0  0  0  0  0  0  0
    3.5637   -5.9350    0.1128 O   0  0  0  0  0  0  0  0  0  0  0  0
    3.6222   -4.6666    0.7702 C   0  0  2  0  0  0  0  0  0  0  0  0
    4.6512   -4.5014    1.9065 C   0  0  2  0  0  0  0  0  0  0  0  0
    5.8836   -3.6459    1.5225 C   0  0  0  0  0  0  0  0  0  0  0  0
    5.5779   -2.4083    0.6560 C   0  0  0  0  0  0  0  0  0  0  0  0
    4.7514   -2.7778   -0.5861 C   0  0  2  0  0  0  0  0  0  0  0  0
    5.5575   -3.7696   -1.4573 C   0  0  0  0  0  0  0  0  0  0  0  0
    4.4794   -1.5740   -1.4841 C   0  0  0  0  0  0  0  0  0  0  0  0
    3.4182   -1.5601   -2.3205 C   0  0  0  0  0  0  0  0  0  0  0  0
    2.5158   -2.7008   -2.3445 C   0  0  0  0  0  0  0  0  0  0  0  0
    2.4711   -3.5525   -1.3038 C   0  0  0  0  0  0  0  0  0  0  0  0
    3.3995   -3.4017   -0.0965 C   0  0  1  0  0  0  0  0  0  0  0  0
    2.7149   -2.5077    0.7667 O   0  0  0  0  0  0  0  0  0  0  0  0
    6.6490   -5.0459    3.8725 H   0  0  0  0  0  0  0  0  0  0  0  0
    5.9322   -6.5071    4.4835 H   0  0  0  0  0  0  0  0  0  0  0  0
    5.0478   -4.9883    4.6354 H   0  0  0  0  0  0  0  0  0  0  0  0
    5.9024   -6.5663    0.7180 H   0  0  0  0  0  0  0  0  0  0  0  0
    7.0498   -6.5890    2.0435 H   0  0  0  0  0  0  0  0  0  0  0  0
    3.8111   -8.2125    1.1566 H   0  0  0  0  0  0  0  0  0  0  0  0
    3.7683   -9.9993    2.3307 H   0  0  0  0  0  0  0  0  0  0  0  0
    3.7851   -7.0439    3.9348 H   0  0  0  0  0  0  0  0  0  0  0  0
    1.7684   -7.1989    2.2930 H   0  0  0  0  0  0  0  0  0  0  0  0
    2.6356   -4.9938    3.7403 H   0  0  0  0  0  0  0  0  0  0  0  0
    1.5335   -5.4260    0.5919 H   0  0  0  0  0  0  0  0  0  0  0  0
    4.1314   -3.8980    2.6489 H   0  0  0  0  0  0  0  0  0  0  0  0
    6.3145   -3.2608    2.4434 H   0  0  0  0  0  0  0  0  0  0  0  0
    6.6514   -4.2453    1.0393 H   0  0  0  0  0  0  0  0  0  0  0  0
    5.0531   -1.6613    1.2472 H   0  0  0  0  0  0  0  0  0  0  0  0
    6.5115   -1.9347    0.3528 H   0  0  0  0  0  0  0  0  0  0  0  0
    5.7479   -4.7107   -0.9483 H   0  0  0  0  0  0  0  0  0  0  0  0
    6.5181   -3.3384   -1.7353 H   0  0  0  0  0  0  0  0  0  0  0  0
    5.0331   -4.0175   -2.3819 H   0  0  0  0  0  0  0  0  0  0  0  0
    5.1522   -0.7347   -1.4140 H   0  0  0  0  0  0  0  0  0  0  0  0
    3.2286   -0.6941   -2.9431 H   0  0  0  0  0  0  0  0  0  0  0  0
    1.8459   -2.8314   -3.1886 H   0  0  0  0  0  0  0  0  0  0  0  0
    1.7847   -4.3823   -1.3353 H   0  0  0  0  0  0  0  0  0  0  0  0
    2.2900   -1.8504    0.2228 H   0  0  0  0  0  0  0  0  0  0  0  0
  2  1  1  1
  1 24  1  0
  1 25  1  0
  1 26  1  0
  2  7  1  0
  2 13  1  0
  2  3  1  0
  3  4  1  0
  3 27  1  0
  3 28  1  0
  4  5  1  0
  5  6  1  0
  5  7  1  0
  5 29  1  6
  6 30  1  0
  7  8  1  0
  7 31  1  1
  8  9  1  0
  8 10  1  0
  8 32  1  6
  9 33  1  0
 10 12  1  0
 10 11  1  0
 10 34  1  6
 12 11  1  6
 12 22  1  0
 12 13  1  0
 13 14  1  0
 13 35  1  1
 14 15  1  0
 14 36  1  0
 14 37  1  0
 15 16  1  0
 15 38  1  0
 15 39  1  0
 16 22  1  0
 16 17  1  6
 16 18  1  0
 17 40  1  0
 17 41  1  0
 17 42  1  0
 18 19  2  0
 18 43  1  0
 19 20  1  0
 19 44  1  0
 20 21  2  0
 20 45  1  0
 21 22  1  0
 21 46  1  0
 22 23  1  1
 23 47  1  0
M  END
>  <i_m_ct_stereo_status>  (301) 
1

>  <s_m_source_file>  (301) 
/var/tmp/pbs.5076255.sched01/tmp0kxp0nim/126xlotvanm.sdf

>  <i_m_source_file_index>  (301) 
3

>  <i_lp_mmshare_version>  (301) 
48012

>  <i_f3d_flags>  (301) 
0

>  <s_epik_input>  (301) 
W09IXVtDQEBIXTFPW0NIMl1bQ0BdKFtDSDNdKShbQ0BIXTFbQ0BASF0oW09IXSlbQ0BIXShPMilbQ0BdMjM0KVtDQEhdM1tDSDJdW0NIMl1bQ0BAXTUoW0NIM10pW0NAQF00KFtPSF0pW0NIXT1bQ0hdW0NIXT1bQ0hdNQ==

>  <s_epik_cmdline>  (301) 
J2VwaWtfcHl0aG9uJywgJy1waHQnLCAnMi4wJywgJy1waCcsICc3LjAnLCAnLXRuJywgJzgnLCAnLW1hJywgJzIwMCcsICctaW1hZScsICc8aW5maWxlLm1hZT4nLCAnLW9tYWUnLCAnPG91dGZpbGUubWFlPic=

>  <r_lp_tautomer_probability>  (301) 
1

>  <r_epik_Ionization_Penalty>  (301) 
2.43338e-07

>  <r_epik_Ionization_Penalty_Charging>  (301) 
0

>  <r_epik_Ionization_Penalty_Neutral>  (301) 
2.43338e-07

>  <r_epik_State_Penalty>  (301) 
-0

>  <r_epik_Charging_Adjusted_Penalty>  (301) 
0

>  <i_epik_Tot_Q>  (301) 
0

>  <i_epik_Tot_abs_Q>  (301) 
0

>  <s_epik_Chemistry_Notes>  (301) 
This compound contains an acetal/aminal-like group ( X-CH(R)-Y where X, Y are N, S, or O) that may be acid/base labile, releasing an aldehyde.

>  <s_lp_Force_Field>  (301) 
OPLS3e

>  <r_lp_Energy>  (301) 
35.7991

>  <b_lp_Chiralities_Consistent>  (301) 
1

>  <s_lp_Variant>  (301) 
87:0-1

>  <s_i_glide_gridfile>  (301) 
pfpi4k_grid

>  <i_i_glide_lignum>  (301) 
3

>  <i_i_glide_rotatable_bonds>  (301) 
3

>  <r_i_docking_score>  (301) 
-2.97062

>  <r_i_glide_ligand_efficiency>  (301) 
-0.129157

>  <r_i_glide_ligand_efficiency_sa>  (301) 
-0.367306

>  <r_i_glide_ligand_efficiency_ln>  (301) 
-0.718322

>  <r_i_glide_gscore>  (301) 
-2.97062

>  <r_i_glide_lipo>  (301) 
-0.299699

>  <r_i_glide_hbond>  (301) 
-0.15078

>  <r_i_glide_metal>  (301) 
-0

>  <r_i_glide_rewards>  (301) 
-1.22468

>  <r_i_glide_evdw>  (301) 
-22.2016

>  <r_i_glide_ecoul>  (301) 
-1.21201

>  <r_i_glide_erotb>  (301) 
0

>  <r_i_glide_esite>  (301) 
-0.00357712

>  <r_i_glide_emodel>  (301) 
-27.748

>  <r_i_glide_energy>  (301) 
-23.4136

>  <r_i_glide_einternal>  (301) 
1.99036

>  <r_i_glide_intrahb_reward>  (301) 
-0

>  <i_i_glide_confnum>  (301) 
2

>  <i_i_glide_posenum>  (301) 
25

>  <r_i_glide_eff_state_penalty>  (301) 
0

>  <ligand_id>  (301) 
87

>  <original_smiles>  (301) 
CC12COC(O)C1C(O)C1OC13C2CCC1(C)C=CC=CC13O

>  <smiles>  (301) 
[H]OC1([H])OC([H])([H])C2(C([H])([H])[H])C1([H])C([H])(O[H])C1([H])OC13C1(O[H])C([H])=C([H])C([H])=C([H])C1(C([H])([H])[H])C([H])([H])C([H])([H])C32[H]

$$$$
88:0:0
     RDKit          3D

 54 59  0  0  1  0  0  0  0  0999 V2000
    1.7752   -3.9263   -1.3966 C   0  0  0  0  0  0  0  0  0  0  0  0
    2.7793   -3.8200   -0.3696 O   0  0  0  0  0  0  0  0  0  0  0  0
    3.9652   -2.9990   -0.4652 C   0  0  2  0  0  0  0  0  0  0  0  0
    4.1455   -2.3718   -1.8895 C   0  0  1  0  0  0  0  0  0  0  0  0
    3.3924   -1.0765   -2.2601 C   0  0  0  0  0  0  0  0  0  0  0  0
    5.6272   -2.1442   -2.0444 C   0  0  0  0  0  0  0  0  0  0  0  0
    6.3364   -3.1754   -1.1945 C   0  0  0  0  0  0  0  0  0  0  0  0
    5.2713   -3.8895   -0.3130 C   0  0  2  0  0  0  0  0  0  0  0  0
    5.0067   -5.1068   -0.9800 O   0  0  0  0  0  0  0  0  0  0  0  0
    5.8807   -4.2746    1.1017 C   0  0  1  0  0  0  0  0  0  0  0  0
    7.1281   -5.1875    0.8915 C   0  0  0  0  0  0  0  0  0  0  0  0
    6.6175   -3.1382    1.6641 O   0  0  0  0  0  0  0  0  0  0  0  0
    6.0455   -1.8514    1.9826 C   0  0  0  0  0  0  0  0  0  0  0  0
    4.6051   -2.1648    2.0878 C   0  0  1  0  0  0  0  0  0  0  0  0
    4.4257   -2.9990    3.4038 C   0  0  2  0  0  0  0  0  0  0  0  0
    5.0686   -4.2662    3.4111 O   0  0  0  0  0  0  0  0  0  0  0  0
    4.9036   -4.9725    2.2005 C   0  0  2  0  0  0  0  0  0  0  0  0
    5.2724   -6.4182    2.5977 C   0  0  0  0  0  0  0  0  0  0  0  0
    3.4099   -5.0239    1.9100 C   0  0  0  0  0  0  0  0  0  0  0  0
    2.5057   -4.1252    2.4250 C   0  0  0  0  0  0  0  0  0  0  0  0
    2.9479   -2.9516    3.2847 C   0  0  1  0  0  0  0  0  0  0  0  0
    2.1820   -2.9000    4.4797 O   0  0  0  0  0  0  0  0  0  0  0  0
    3.2799   -1.5767    2.6281 C   0  0  2  0  0  0  0  0  0  0  0  0
    2.7183   -1.3059    1.2505 C   0  0  1  0  0  0  0  0  0  0  0  0
    2.4430    0.0084    0.8905 O   0  0  0  0  0  0  0  0  0  0  0  0
    3.9600   -1.9567    0.6747 C   0  0  2  0  0  0  0  0  0  0  0  0
    1.0316   -4.6655   -1.0613 H   0  0  0  0  0  0  0  0  0  0  0  0
    2.1879   -4.2459   -2.3254 H   0  0  0  0  0  0  0  0  0  0  0  0
    1.2111   -3.0223   -1.6174 H   0  0  0  0  0  0  0  0  0  0  0  0
    3.9479   -3.1365   -2.6392 H   0  0  0  0  0  0  0  0  0  0  0  0
    3.8311   -0.2489   -1.6992 H   0  0  0  0  0  0  0  0  0  0  0  0
    2.3315   -1.1749   -2.0775 H   0  0  0  0  0  0  0  0  0  0  0  0
    3.4715   -0.8436   -3.3268 H   0  0  0  0  0  0  0  0  0  0  0  0
    5.8584   -2.3129   -3.0857 H   0  0  0  0  0  0  0  0  0  0  0  0
    5.9044   -1.1346   -1.7412 H   0  0  0  0  0  0  0  0  0  0  0  0
    6.8533   -3.8594   -1.8547 H   0  0  0  0  0  0  0  0  0  0  0  0
    7.1198   -2.6744   -0.6189 H   0  0  0  0  0  0  0  0  0  0  0  0
    4.3698   -4.9600   -1.6433 H   0  0  0  0  0  0  0  0  0  0  0  0
    6.8832   -6.1661    0.4795 H   0  0  0  0  0  0  0  0  0  0  0  0
    7.6719   -5.3587    1.8193 H   0  0  0  0  0  0  0  0  0  0  0  0
    7.8538   -4.7449    0.2177 H   0  0  0  0  0  0  0  0  0  0  0  0
    6.4135   -1.4611    2.9175 H   0  0  0  0  0  0  0  0  0  0  0  0
    6.3286   -1.1122    1.2323 H   0  0  0  0  0  0  0  0  0  0  0  0
    4.7746   -2.4276    4.2689 H   0  0  0  0  0  0  0  0  0  0  0  0
    5.2107   -7.1026    1.7504 H   0  0  0  0  0  0  0  0  0  0  0  0
    4.5723   -6.7788    3.3515 H   0  0  0  0  0  0  0  0  0  0  0  0
    6.2574   -6.4928    3.0491 H   0  0  0  0  0  0  0  0  0  0  0  0
    3.0761   -5.7939    1.2372 H   0  0  0  0  0  0  0  0  0  0  0  0
    1.4610   -4.1589    2.1937 H   0  0  0  0  0  0  0  0  0  0  0  0
    2.7039   -2.4500    5.1119 H   0  0  0  0  0  0  0  0  0  0  0  0
    3.4298   -0.7185    3.2776 H   0  0  0  0  0  0  0  0  0  0  0  0
    1.8346   -1.9034    1.0716 H   0  0  0  0  0  0  0  0  0  0  0  0
    1.7227   -0.0777    0.2646 H   0  0  0  0  0  0  0  0  0  0  0  0
    4.5075   -1.0891    0.3032 H   0  0  0  0  0  0  0  0  0  0  0  0
  1  2  1  0
  1 27  1  0
  1 28  1  0
  1 29  1  0
  3  2  1  6
  3  8  1  0
  3 26  1  0
  3  4  1  0
  4  5  1  0
  4  6  1  0
  4 30  1  6
  5 31  1  0
  5 32  1  0
  5 33  1  0
  6  7  1  0
  6 34  1  0
  6 35  1  0
  7  8  1  0
  7 36  1  0
  7 37  1  0
  8  9  1  6
  8 10  1  0
  9 38  1  0
 10 17  1  0
 10 11  1  6
 10 12  1  0
 11 39  1  0
 11 40  1  0
 11 41  1  0
 12 13  1  0
 14 13  1  6
 13 42  1  0
 13 43  1  0
 14 23  1  0
 14 26  1  0
 14 15  1  0
 15 21  1  0
 15 16  1  0
 15 44  1  1
 16 17  1  0
 17 18  1  1
 17 19  1  0
 18 45  1  0
 18 46  1  0
 18 47  1  0
 19 20  2  0
 19 48  1  0
 20 21  1  0
 20 49  1  0
 21 22  1  1
 21 23  1  0
 22 50  1  0
 23 24  1  0
 23 51  1  1
 24 25  1  0
 24 26  1  0
 24 52  1  1
 25 53  1  0
 26 54  1  6
M  END
>  <i_m_ct_stereo_status>  (302) 
1

>  <s_m_source_file>  (302) 
/var/tmp/pbs.5076255.sched01/tmp0kxp0nim/126xlotvanm.sdf

>  <i_m_source_file_index>  (302) 
4

>  <i_lp_mmshare_version>  (302) 
48012

>  <i_f3d_flags>  (302) 
0

>  <s_epik_input>  (302) 
W0NIM11bQ0BIXTFbQ0gyXVtDSDJdW0NAQF0oW09IXSkoW0NAQF0oW0NIM10pKE9bQ0gyXTIpW0NAXShPMykoW0NIM10pW0NIXT1bQ0hdNClbQ0BAXTEoT1tDSDNdKVtDQEhdNVtDQEhdKFtPSF0pW0NASF02W0NAQF00KFtDQEBIXTNbQ0BAXTI1NilbT0hd

>  <s_epik_cmdline>  (302) 
J2VwaWtfcHl0aG9uJywgJy1waHQnLCAnMi4wJywgJy1waCcsICc3LjAnLCAnLXRuJywgJzgnLCAnLW1hJywgJzIwMCcsICctaW1hZScsICc8aW5maWxlLm1hZT4nLCAnLW9tYWUnLCAnPG91dGZpbGUubWFlPic=

>  <r_lp_tautomer_probability>  (302) 
1

>  <r_epik_Ionization_Penalty>  (302) 
3.69493e-07

>  <r_epik_Ionization_Penalty_Charging>  (302) 
0

>  <r_epik_Ionization_Penalty_Neutral>  (302) 
3.69493e-07

>  <r_epik_State_Penalty>  (302) 
-0

>  <r_epik_Charging_Adjusted_Penalty>  (302) 
0

>  <i_epik_Tot_Q>  (302) 
0

>  <i_epik_Tot_abs_Q>  (302) 
0

>  <s_lp_Force_Field>  (302) 
OPLS3e

>  <r_lp_Energy>  (302) 
137.286

>  <b_lp_Chiralities_Consistent>  (302) 
1

>  <s_lp_Variant>  (302) 
88:0-1

>  <s_i_glide_gridfile>  (302) 
pfpi4k_grid

>  <i_i_glide_lignum>  (302) 
4

>  <i_i_glide_rotatable_bonds>  (302) 
4

>  <r_i_docking_score>  (302) 
-3.0964

>  <r_i_glide_ligand_efficiency>  (302) 
-0.119092

>  <r_i_glide_ligand_efficiency_sa>  (302) 
-0.352811

>  <r_i_glide_ligand_efficiency_ln>  (302) 
-0.72718

>  <r_i_glide_gscore>  (302) 
-3.0964

>  <r_i_glide_lipo>  (302) 
-0.507528

>  <r_i_glide_hbond>  (302) 
-0.154649

>  <r_i_glide_metal>  (302) 
-0

>  <r_i_glide_rewards>  (302) 
-0.924322

>  <r_i_glide_evdw>  (302) 
-10.5083

>  <r_i_glide_ecoul>  (302) 
-6.56326

>  <r_i_glide_erotb>  (302) 
0

>  <r_i_glide_esite>  (302) 
0

>  <r_i_glide_emodel>  (302) 
-16.2443

>  <r_i_glide_energy>  (302) 
-17.0715

>  <r_i_glide_einternal>  (302) 
4.70638

>  <r_i_glide_intrahb_reward>  (302) 
-0

>  <i_i_glide_confnum>  (302) 
2

>  <i_i_glide_posenum>  (302) 
2

>  <r_i_glide_eff_state_penalty>  (302) 
0

>  <ligand_id>  (302) 
88

>  <original_smiles>  (302) 
COC12C(C)CCC1(O)C1(C)OCC34C5OC1(C)C=CC5(O)C3C(O)C42

>  <smiles>  (302) 
[H]OC1([H])C2([H])C3(O[H])C([H])=C([H])C4(C([H])([H])[H])OC3([H])C23C([H])([H])OC4(C([H])([H])[H])C2(O[H])C([H])([H])C([H])([H])C([H])(C([H])([H])[H])C2(OC([H])([H])[H])C13[H]

$$$$
88:0:1
     RDKit          3D

 54 59  0  0  1  0  0  0  0  0999 V2000
    1.8209   -3.9144   -1.2166 C   0  0  0  0  0  0  0  0  0  0  0  0
    2.8990   -3.7362   -0.2833 O   0  0  0  0  0  0  0  0  0  0  0  0
    4.0766   -2.9475   -0.5290 C   0  0  2  0  0  0  0  0  0  0  0  0
    4.1315   -2.3816   -1.9894 C   0  0  1  0  0  0  0  0  0  0  0  0
    3.3527   -1.0991   -2.3332 C   0  0  0  0  0  0  0  0  0  0  0  0
    5.6028   -2.1371   -2.2835 C   0  0  0  0  0  0  0  0  0  0  0  0
    6.3721   -3.1590   -1.4737 C   0  0  0  0  0  0  0  0  0  0  0  0
    5.3843   -3.8447   -0.4645 C   0  0  2  0  0  0  0  0  0  0  0  0
    5.0152   -5.0883   -1.0137 O   0  0  0  0  0  0  0  0  0  0  0  0
    6.1280   -4.1749    0.9123 C   0  0  1  0  0  0  0  0  0  0  0  0
    7.3460   -5.1061    0.6271 C   0  0  0  0  0  0  0  0  0  0  0  0
    6.9367   -3.0192    1.3354 O   0  0  0  0  0  0  0  0  0  0  0  0
    6.3848   -1.7132    1.6658 C   0  0  0  0  0  0  0  0  0  0  0  0
    4.9528   -2.0277    1.9152 C   0  0  1  0  0  0  0  0  0  0  0  0
    4.8872   -2.8123    3.2835 C   0  0  2  0  0  0  0  0  0  0  0  0
    5.5157   -4.0832    3.2890 O   0  0  0  0  0  0  0  0  0  0  0  0
    5.2509   -4.8295    2.1219 C   0  0  2  0  0  0  0  0  0  0  0  0
    5.6486   -6.2631    2.5505 C   0  0  0  0  0  0  0  0  0  0  0  0
    3.7212   -4.8869    1.9664 C   0  0  0  0  0  0  0  0  0  0  0  0
    2.8791   -3.9678    2.5303 C   0  0  0  0  0  0  0  0  0  0  0  0
    3.3972   -2.7789    3.3077 C   0  0  1  0  0  0  0  0  0  0  0  0
    2.7509   -2.6643    4.5508 O   0  0  0  0  0  0  0  0  0  0  0  0
    3.6814   -1.4240    2.5702 C   0  0  2  0  0  0  0  0  0  0  0  0
    2.9809   -1.1833    1.2539 C   0  0  1  0  0  0  0  0  0  0  0  0
    2.6931    0.1798    1.0004 O   0  0  0  0  0  0  0  0  0  0  0  0
    4.1573   -1.8407    0.5723 C   0  0  2  0  0  0  0  0  0  0  0  0
    1.1357   -4.6680   -0.7901 H   0  0  0  0  0  0  0  0  0  0  0  0
    2.1772   -4.2678   -2.1873 H   0  0  0  0  0  0  0  0  0  0  0  0
    1.2694   -3.0205   -1.4462 H   0  0  0  0  0  0  0  0  0  0  0  0
    3.8783   -3.1730   -2.6910 H   0  0  0  0  0  0  0  0  0  0  0  0
    3.8427   -0.2552   -1.8609 H   0  0  0  0  0  0  0  0  0  0  0  0
    2.3098   -1.2043   -2.0332 H   0  0  0  0  0  0  0  0  0  0  0  0
    3.3544   -0.9142   -3.4213 H   0  0  0  0  0  0  0  0  0  0  0  0
    5.7817   -2.2931   -3.3436 H   0  0  0  0  0  0  0  0  0  0  0  0
    5.9071   -1.1278   -1.9976 H   0  0  0  0  0  0  0  0  0  0  0  0
    6.8432   -3.8399   -2.1828 H   0  0  0  0  0  0  0  0  0  0  0  0
    7.1983   -2.6510   -0.9698 H   0  0  0  0  0  0  0  0  0  0  0  0
    4.3750   -4.9397   -1.7004 H   0  0  0  0  0  0  0  0  0  0  0  0
    7.0566   -6.0999    0.2785 H   0  0  0  0  0  0  0  0  0  0  0  0
    7.9620   -5.2460    1.5165 H   0  0  0  0  0  0  0  0  0  0  0  0
    8.0179   -4.6946   -0.1157 H   0  0  0  0  0  0  0  0  0  0  0  0
    6.8095   -1.2449    2.5391 H   0  0  0  0  0  0  0  0  0  0  0  0
    6.5719   -1.0095    0.8450 H   0  0  0  0  0  0  0  0  0  0  0  0
    5.3202   -2.2157    4.0893 H   0  0  0  0  0  0  0  0  0  0  0  0
    5.5130   -6.9730    1.7388 H   0  0  0  0  0  0  0  0  0  0  0  0
    5.0144   -6.5870    3.3742 H   0  0  0  0  0  0  0  0  0  0  0  0
    6.6713   -6.3176    2.9133 H   0  0  0  0  0  0  0  0  0  0  0  0
    3.3347   -5.6809    1.3556 H   0  0  0  0  0  0  0  0  0  0  0  0
    1.8144   -4.0031    2.3803 H   0  0  0  0  0  0  0  0  0  0  0  0
    3.2648   -2.0610    5.0812 H   0  0  0  0  0  0  0  0  0  0  0  0
    3.9046   -0.5555    3.1778 H   0  0  0  0  0  0  0  0  0  0  0  0
    2.0667   -1.7852    1.1434 H   0  0  0  0  0  0  0  0  0  0  0  0
    3.5113    0.6754    1.0061 H   0  0  0  0  0  0  0  0  0  0  0  0
    4.6789   -0.9946    0.1108 H   0  0  0  0  0  0  0  0  0  0  0  0
  1  2  1  0
  1 27  1  0
  1 28  1  0
  1 29  1  0
  3  2  1  6
  3  8  1  0
  3 26  1  0
  3  4  1  0
  4  5  1  0
  4  6  1  0
  4 30  1  6
  5 31  1  0
  5 32  1  0
  5 33  1  0
  6  7  1  0
  6 34  1  0
  6 35  1  0
  7  8  1  0
  7 36  1  0
  7 37  1  0
  8  9  1  6
  8 10  1  0
  9 38  1  0
 10 17  1  0
 10 11  1  6
 10 12  1  0
 11 39  1  0
 11 40  1  0
 11 41  1  0
 12 13  1  0
 14 13  1  6
 13 42  1  0
 13 43  1  0
 14 23  1  0
 14 26  1  0
 14 15  1  0
 15 21  1  0
 15 16  1  0
 15 44  1  1
 16 17  1  0
 17 18  1  1
 17 19  1  0
 18 45  1  0
 18 46  1  0
 18 47  1  0
 19 20  2  0
 19 48  1  0
 20 21  1  0
 20 49  1  0
 21 22  1  1
 21 23  1  0
 22 50  1  0
 23 24  1  0
 23 51  1  1
 24 25  1  0
 24 26  1  0
 24 52  1  1
 25 53  1  0
 26 54  1  6
M  END
>  <i_m_ct_stereo_status>  (303) 
1

>  <s_m_source_file>  (303) 
/var/tmp/pbs.5076255.sched01/tmp0kxp0nim/126xlotvanm.sdf

>  <i_m_source_file_index>  (303) 
4

>  <i_lp_mmshare_version>  (303) 
48012

>  <i_f3d_flags>  (303) 
0

>  <s_epik_input>  (303) 
W0NIM11bQ0BIXTFbQ0gyXVtDSDJdW0NAQF0oW09IXSkoW0NAQF0oW0NIM10pKE9bQ0gyXTIpW0NAXShPMykoW0NIM10pW0NIXT1bQ0hdNClbQ0BAXTEoT1tDSDNdKVtDQEhdNVtDQEhdKFtPSF0pW0NASF02W0NAQF00KFtDQEBIXTNbQ0BAXTI1NilbT0hd

>  <s_epik_cmdline>  (303) 
J2VwaWtfcHl0aG9uJywgJy1waHQnLCAnMi4wJywgJy1waCcsICc3LjAnLCAnLXRuJywgJzgnLCAnLW1hJywgJzIwMCcsICctaW1hZScsICc8aW5maWxlLm1hZT4nLCAnLW9tYWUnLCAnPG91dGZpbGUubWFlPic=

>  <r_lp_tautomer_probability>  (303) 
1

>  <r_epik_Ionization_Penalty>  (303) 
3.69493e-07

>  <r_epik_Ionization_Penalty_Charging>  (303) 
0

>  <r_epik_Ionization_Penalty_Neutral>  (303) 
3.69493e-07

>  <r_epik_State_Penalty>  (303) 
-0

>  <r_epik_Charging_Adjusted_Penalty>  (303) 
0

>  <i_epik_Tot_Q>  (303) 
0

>  <i_epik_Tot_abs_Q>  (303) 
0

>  <s_lp_Force_Field>  (303) 
OPLS3e

>  <r_lp_Energy>  (303) 
137.286

>  <b_lp_Chiralities_Consistent>  (303) 
1

>  <s_lp_Variant>  (303) 
88:0-1

>  <s_i_glide_gridfile>  (303) 
pfpi4k_grid

>  <i_i_glide_lignum>  (303) 
4

>  <i_i_glide_rotatable_bonds>  (303) 
4

>  <r_i_docking_score>  (303) 
-2.42492

>  <r_i_glide_ligand_efficiency>  (303) 
-0.0932663

>  <r_i_glide_ligand_efficiency_sa>  (303) 
-0.276301

>  <r_i_glide_ligand_efficiency_ln>  (303) 
-0.569485

>  <r_i_glide_gscore>  (303) 
-2.42492

>  <r_i_glide_lipo>  (303) 
-0.605431

>  <r_i_glide_hbond>  (303) 
0

>  <r_i_glide_metal>  (303) 
-0

>  <r_i_glide_rewards>  (303) 
-0.924322

>  <r_i_glide_evdw>  (303) 
-11.491

>  <r_i_glide_ecoul>  (303) 
-2.13748

>  <r_i_glide_erotb>  (303) 
0

>  <r_i_glide_esite>  (303) 
0

>  <r_i_glide_emodel>  (303) 
-12.8845

>  <r_i_glide_energy>  (303) 
-13.6284

>  <r_i_glide_einternal>  (303) 
3.38039

>  <r_i_glide_intrahb_reward>  (303) 
-0

>  <i_i_glide_confnum>  (303) 
1

>  <i_i_glide_posenum>  (303) 
11

>  <r_i_glide_eff_state_penalty>  (303) 
0

>  <ligand_id>  (303) 
88

>  <original_smiles>  (303) 
COC12C(C)CCC1(O)C1(C)OCC34C5OC1(C)C=CC5(O)C3C(O)C42

>  <smiles>  (303) 
[H]OC1([H])C2([H])C3(O[H])C([H])=C([H])C4(C([H])([H])[H])OC3([H])C23C([H])([H])OC4(C([H])([H])[H])C2(O[H])C([H])([H])C([H])([H])C([H])(C([H])([H])[H])C2(OC([H])([H])[H])C13[H]

$$$$
89:0:0
     RDKit          3D

 51 57  0  0  1  0  0  0  0  0999 V2000
   -6.9205   -8.1359   -7.8904 O   0  0  0  0  0  0  0  0  0  0  0  0
   -6.9493   -8.9622   -6.9771 C   0  0  0  0  0  0  0  0  0  0  0  0
   -6.0434   -8.9319   -5.8330 C   0  0  0  0  0  0  0  0  0  0  0  0
   -5.7889   -7.8076   -5.1149 C   0  0  0  0  0  0  0  0  0  0  0  0
   -6.4384   -6.4625   -5.1383 C   0  0  0  0  0  0  0  0  0  0  0  0
   -5.7207   -5.3230   -4.7137 C   0  0  0  0  0  0  0  0  0  0  0  0
   -6.3299   -4.0551   -4.6922 C   0  0  0  0  0  0  0  0  0  0  0  0
   -7.6565   -3.8882   -5.1244 C   0  0  0  0  0  0  0  0  0  0  0  0
   -8.3782   -4.9985   -5.5654 C   0  0  0  0  0  0  0  0  0  0  0  0
   -7.7659   -6.2605   -5.5815 C   0  0  0  0  0  0  0  0  0  0  0  0
   -7.7784  -10.0227   -6.9839 N   0  0  0  0  0  0  0  0  0  0  0  0
   -8.6393  -10.5072   -8.0926 C   0  0  2  0  0  0  0  0  0  0  0  0
   -7.8383  -10.6595   -9.4132 C   0  0  0  0  0  0  0  0  0  0  0  0
   -8.7342  -10.0940  -10.5636 C   0  0  2  0  0  0  0  0  0  0  0  0
   -8.9024   -8.5749  -10.1868 C   0  0  0  0  0  0  0  0  0  0  0  0
   -8.4219   -7.4875  -10.9337 C   0  0  0  0  0  0  0  0  0  0  0  0
   -8.5753   -6.1859  -10.4305 C   0  0  0  0  0  0  0  0  0  0  0  0
   -9.2239   -5.9568   -9.2006 C   0  0  0  0  0  0  0  0  0  0  0  0
   -9.7324   -7.0259   -8.4541 C   0  0  0  0  0  0  0  0  0  0  0  0
   -9.5481   -8.3248   -8.9486 C   0  0  0  0  0  0  0  0  0  0  0  0
   -9.9163   -9.6526   -8.3351 C   0  0  1  0  0  0  0  0  0  0  0  0
  -10.9524  -10.0755   -9.4284 C   0  0  2  0  0  0  0  0  0  0  0  0
  -11.9066  -10.6362   -8.3643 C   0  0  0  0  0  0  0  0  0  0  0  0
  -10.7154  -10.5892   -7.4390 C   0  0  1  0  0  0  0  0  0  0  0  0
   -9.5862  -11.6481   -7.6267 C   0  0  1  0  0  0  0  0  0  0  0  0
   -9.8605  -12.6718   -8.7553 C   0  0  0  0  0  0  0  0  0  0  0  0
  -10.0504  -12.3075  -10.0384 C   0  0  0  0  0  0  0  0  0  0  0  0
  -10.1453  -10.8382  -10.4888 C   0  0  2  0  0  0  0  0  0  0  0  0
   -5.5172   -9.8566   -5.5757 H   0  0  0  0  0  0  0  0  0  0  0  0
   -5.0102   -7.9160   -4.3710 H   0  0  0  0  0  0  0  0  0  0  0  0
   -4.7010   -5.4352   -4.3643 H   0  0  0  0  0  0  0  0  0  0  0  0
   -5.7722   -3.2096   -4.3117 H   0  0  0  0  0  0  0  0  0  0  0  0
   -8.1449   -2.9193   -5.1243 H   0  0  0  0  0  0  0  0  0  0  0  0
   -9.4031   -4.8879   -5.8797 H   0  0  0  0  0  0  0  0  0  0  0  0
   -8.3682   -7.0765   -5.9325 H   0  0  0  0  0  0  0  0  0  0  0  0
   -7.7691  -10.6377   -6.1727 H   0  0  0  0  0  0  0  0  0  0  0  0
   -6.8931  -10.1261   -9.3983 H   0  0  0  0  0  0  0  0  0  0  0  0
   -7.5449  -11.6946   -9.5875 H   0  0  0  0  0  0  0  0  0  0  0  0
   -8.2454  -10.2652  -11.5233 H   0  0  0  0  0  0  0  0  0  0  0  0
   -7.8665   -7.6623  -11.8355 H   0  0  0  0  0  0  0  0  0  0  0  0
   -8.1540   -5.3548  -10.9802 H   0  0  0  0  0  0  0  0  0  0  0  0
   -9.2693   -4.9614   -8.7950 H   0  0  0  0  0  0  0  0  0  0  0  0
  -10.2312   -6.8486   -7.5186 H   0  0  0  0  0  0  0  0  0  0  0  0
  -11.4996   -9.2412   -9.8922 H   0  0  0  0  0  0  0  0  0  0  0  0
  -12.6615   -9.9036   -8.0713 H   0  0  0  0  0  0  0  0  0  0  0  0
  -12.3501  -11.6233   -8.5564 H   0  0  0  0  0  0  0  0  0  0  0  0
  -10.9163  -10.2580   -6.4522 H   0  0  0  0  0  0  0  0  0  0  0  0
   -9.2845  -12.1361   -6.7021 H   0  0  0  0  0  0  0  0  0  0  0  0
   -9.8926  -13.7218   -8.4772 H   0  0  0  0  0  0  0  0  0  0  0  0
  -10.2414  -13.0510  -10.8082 H   0  0  0  0  0  0  0  0  0  0  0  0
  -10.6456  -10.7790  -11.4564 H   0  0  0  0  0  0  0  0  0  0  0  0
  1  2  2  0
  2  3  1  0
  2 11  1  0
  3  4  2  3
  3 29  1  0
  4  5  1  0
  4 30  1  0
  5 10  1  0
  5  6  2  0
  6  7  1  0
  6 31  1  0
  7  8  2  0
  7 32  1  0
  8  9  1  0
  8 33  1  0
  9 10  2  0
  9 34  1  0
 10 35  1  0
 12 11  1  1
 11 36  1  0
 12 21  1  0
 12 25  1  0
 12 13  1  0
 13 14  1  0
 13 37  1  0
 13 38  1  0
 14 28  1  0
 14 15  1  0
 14 39  1  6
 15 20  2  0
 15 16  1  0
 16 17  2  0
 16 40  1  0
 17 18  1  0
 17 41  1  0
 18 19  2  0
 18 42  1  0
 19 20  1  0
 19 43  1  0
 21 20  1  1
 21 24  1  0
 21 22  1  0
 22 28  1  0
 22 23  1  0
 22 44  1  6
 23 24  1  0
 23 45  1  0
 23 46  1  0
 24 25  1  0
 24 47  1  1
 25 26  1  0
 25 48  1  1
 26 27  2  0
 26 49  1  0
 27 28  1  0
 27 50  1  0
 28 51  1  6
M  END
>  <i_m_ct_stereo_status>  (304) 
1

>  <s_m_source_file>  (304) 
/var/tmp/pbs.5076255.sched01/tmp0kxp0nim/126xlotvanm.sdf

>  <i_m_source_file_index>  (304) 
5

>  <i_lp_mmshare_version>  (304) 
48012

>  <i_f3d_flags>  (304) 
0

>  <s_epik_input>  (304) 
W2NIXTFbY0hdW2NIXVtjSF1bY0hdYzFcW0NIXT1bQ0hdXEMoPU8pW05IXVtDQF0yKEMzNDUpW0NASF02W0NAQEhdNVtDSDJdW0NAQEhdNFtDQEhdKFtDSF09W0NIXTYpW0NASF0oW0NIMl0yKWM3YzNbY0hdW2NIXVtjSF1bY0hdNw==

>  <s_epik_cmdline>  (304) 
J2VwaWtfcHl0aG9uJywgJy1waHQnLCAnMi4wJywgJy1waCcsICc3LjAnLCAnLXRuJywgJzgnLCAnLW1hJywgJzIwMCcsICctaW1hZScsICc8aW5maWxlLm1hZT4nLCAnLW9tYWUnLCAnPG91dGZpbGUubWFlPic=

>  <r_lp_tautomer_probability>  (304) 
1

>  <r_epik_Ionization_Penalty>  (304) 
4.48966e-06

>  <r_epik_Ionization_Penalty_Charging>  (304) 
0

>  <r_epik_Ionization_Penalty_Neutral>  (304) 
4.48966e-06

>  <r_epik_State_Penalty>  (304) 
-0

>  <r_epik_Charging_Adjusted_Penalty>  (304) 
0

>  <i_epik_Tot_Q>  (304) 
0

>  <i_epik_Tot_abs_Q>  (304) 
0

>  <s_lp_Force_Field>  (304) 
OPLS3e

>  <r_lp_Energy>  (304) 
134.755

>  <b_lp_Chiralities_Consistent>  (304) 
1

>  <s_lp_Variant>  (304) 
89:0-1

>  <s_i_glide_gridfile>  (304) 
pfpi4k_grid

>  <i_i_glide_lignum>  (304) 
5

>  <i_i_glide_rotatable_bonds>  (304) 
4

>  <r_i_docking_score>  (304) 
-5.67163

>  <r_i_glide_ligand_efficiency>  (304) 
-0.202558

>  <r_i_glide_ligand_efficiency_sa>  (304) 
-0.615086

>  <r_i_glide_ligand_efficiency_ln>  (304) 
-1.30918

>  <r_i_glide_gscore>  (304) 
-5.67163

>  <r_i_glide_lipo>  (304) 
-3.00645

>  <r_i_glide_hbond>  (304) 
0

>  <r_i_glide_metal>  (304) 
-0

>  <r_i_glide_rewards>  (304) 
-1.65228

>  <r_i_glide_evdw>  (304) 
-27.5162

>  <r_i_glide_ecoul>  (304) 
0.499087

>  <r_i_glide_erotb>  (304) 
0.288044

>  <r_i_glide_esite>  (304) 
0

>  <r_i_glide_emodel>  (304) 
-25.5746

>  <r_i_glide_energy>  (304) 
-27.0171

>  <r_i_glide_einternal>  (304) 
8.42853

>  <r_i_glide_intrahb_reward>  (304) 
-0

>  <i_i_glide_confnum>  (304) 
1

>  <i_i_glide_posenum>  (304) 
13

>  <r_i_glide_eff_state_penalty>  (304) 
0

>  <ligand_id>  (304) 
89

>  <original_smiles>  (304) 
O=C(C=Cc1ccccc1)NC12CC3c4ccccc4C14C1CC4C2C=CC31

>  <smiles>  (304) 
[H]C(C(=O)N([H])C12C([H])([H])C3([H])c4c([H])c([H])c([H])c([H])c4C14C1([H])C([H])([H])C4([H])C2([H])C([H])=C([H])C31[H])=C([H])c1c([H])c([H])c([H])c([H])c1[H]

$$$$
89:0:1
     RDKit          3D

 51 57  0  0  1  0  0  0  0  0999 V2000
   -7.3750   -8.6497   -6.1744 O   0  0  0  0  0  0  0  0  0  0  0  0
   -6.3308   -8.5457   -5.5290 C   0  0  0  0  0  0  0  0  0  0  0  0
   -6.0289   -7.4103   -4.6957 C   0  0  0  0  0  0  0  0  0  0  0  0
   -6.6642   -6.2043   -4.8023 C   0  0  0  0  0  0  0  0  0  0  0  0
   -7.6538   -5.6639   -5.7882 C   0  0  0  0  0  0  0  0  0  0  0  0
   -8.5580   -4.6444   -5.3635 C   0  0  0  0  0  0  0  0  0  0  0  0
   -9.5606   -4.1508   -6.2366 C   0  0  0  0  0  0  0  0  0  0  0  0
   -9.7169   -4.7079   -7.5209 C   0  0  0  0  0  0  0  0  0  0  0  0
   -8.8212   -5.7064   -7.9547 C   0  0  0  0  0  0  0  0  0  0  0  0
   -7.7634   -6.1282   -7.1222 C   0  0  0  0  0  0  0  0  0  0  0  0
   -5.4091   -9.5430   -5.4788 N   0  0  0  0  0  0  0  0  0  0  0  0
   -5.2976  -10.6160   -6.4894 C   0  0  2  0  0  0  0  0  0  0  0  0
   -5.3507  -10.0622   -7.9361 C   0  0  0  0  0  0  0  0  0  0  0  0
   -6.1810  -11.0551   -8.8136 C   0  0  2  0  0  0  0  0  0  0  0  0
   -7.5986  -11.0122   -8.2311 C   0  0  0  0  0  0  0  0  0  0  0  0
   -8.6828  -10.4662   -8.9451 C   0  0  0  0  0  0  0  0  0  0  0  0
   -9.9078  -10.3583   -8.2638 C   0  0  0  0  0  0  0  0  0  0  0  0
  -10.0050  -10.7877   -6.9370 C   0  0  0  0  0  0  0  0  0  0  0  0
   -8.9365  -11.3255   -6.2120 C   0  0  0  0  0  0  0  0  0  0  0  0
   -7.7053  -11.4410   -6.8831 C   0  0  0  0  0  0  0  0  0  0  0  0
   -6.3096  -11.7984   -6.3552 C   0  0  1  0  0  0  0  0  0  0  0  0
   -6.1677  -13.0044   -7.3682 C   0  0  2  0  0  0  0  0  0  0  0  0
   -5.5215  -13.8679   -6.3179 C   0  0  0  0  0  0  0  0  0  0  0  0
   -5.2639  -12.5983   -5.5617 C   0  0  1  0  0  0  0  0  0  0  0  0
   -4.1729  -11.6111   -6.0898 C   0  0  1  0  0  0  0  0  0  0  0  0
   -3.4106  -12.1607   -7.3144 C   0  0  0  0  0  0  0  0  0  0  0  0
   -4.0144  -12.4987   -8.4722 C   0  0  0  0  0  0  0  0  0  0  0  0
   -5.5406  -12.4895   -8.6549 C   0  0  2  0  0  0  0  0  0  0  0  0
   -5.2844   -7.5355   -3.9176 H   0  0  0  0  0  0  0  0  0  0  0  0
   -6.3856   -5.5129   -4.0266 H   0  0  0  0  0  0  0  0  0  0  0  0
   -8.4886   -4.2423   -4.3566 H   0  0  0  0  0  0  0  0  0  0  0  0
  -10.2215   -3.3544   -5.9066 H   0  0  0  0  0  0  0  0  0  0  0  0
  -10.5008   -4.3651   -8.1919 H   0  0  0  0  0  0  0  0  0  0  0  0
   -8.9302   -6.1672   -8.9203 H   0  0  0  0  0  0  0  0  0  0  0  0
   -7.0697   -6.8687   -7.5205 H   0  0  0  0  0  0  0  0  0  0  0  0
   -4.6491   -9.4985   -4.7934 H   0  0  0  0  0  0  0  0  0  0  0  0
   -5.7413   -9.0465   -8.0163 H   0  0  0  0  0  0  0  0  0  0  0  0
   -4.3448  -10.0030   -8.3323 H   0  0  0  0  0  0  0  0  0  0  0  0
   -6.2828  -10.7582   -9.8428 H   0  0  0  0  0  0  0  0  0  0  0  0
   -8.5887  -10.0761   -9.9510 H   0  0  0  0  0  0  0  0  0  0  0  0
  -10.7812   -9.9238   -8.7144 H   0  0  0  0  0  0  0  0  0  0  0  0
  -10.9072  -10.5921   -6.3948 H   0  0  0  0  0  0  0  0  0  0  0  0
   -9.0964  -11.4634   -5.1553 H   0  0  0  0  0  0  0  0  0  0  0  0
   -7.1099  -13.5167   -7.5829 H   0  0  0  0  0  0  0  0  0  0  0  0
   -6.2843  -14.4272   -5.7791 H   0  0  0  0  0  0  0  0  0  0  0  0
   -4.6071  -14.4318   -6.5571 H   0  0  0  0  0  0  0  0  0  0  0  0
   -5.3740  -12.6577   -4.4868 H   0  0  0  0  0  0  0  0  0  0  0  0
   -3.5062  -11.2090   -5.3256 H   0  0  0  0  0  0  0  0  0  0  0  0
   -2.3540  -12.3379   -7.1814 H   0  0  0  0  0  0  0  0  0  0  0  0
   -3.4480  -12.9365   -9.2790 H   0  0  0  0  0  0  0  0  0  0  0  0
   -5.8070  -13.1278   -9.5028 H   0  0  0  0  0  0  0  0  0  0  0  0
  1  2  2  0
  2  3  1  0
  2 11  1  0
  3  4  2  3
  3 29  1  0
  4  5  1  0
  4 30  1  0
  5 10  1  0
  5  6  2  0
  6  7  1  0
  6 31  1  0
  7  8  2  0
  7 32  1  0
  8  9  1  0
  8 33  1  0
  9 10  2  0
  9 34  1  0
 10 35  1  0
 12 11  1  1
 11 36  1  0
 12 21  1  0
 12 25  1  0
 12 13  1  0
 13 14  1  0
 13 37  1  0
 13 38  1  0
 14 28  1  0
 14 15  1  0
 14 39  1  6
 15 20  2  0
 15 16  1  0
 16 17  2  0
 16 40  1  0
 17 18  1  0
 17 41  1  0
 18 19  2  0
 18 42  1  0
 19 20  1  0
 19 43  1  0
 21 20  1  1
 21 24  1  0
 21 22  1  0
 22 28  1  0
 22 23  1  0
 22 44  1  6
 23 24  1  0
 23 45  1  0
 23 46  1  0
 24 25  1  0
 24 47  1  1
 25 26  1  0
 25 48  1  1
 26 27  2  0
 26 49  1  0
 27 28  1  0
 27 50  1  0
 28 51  1  6
M  END
>  <i_m_ct_stereo_status>  (305) 
1

>  <s_m_source_file>  (305) 
/var/tmp/pbs.5076255.sched01/tmp0kxp0nim/126xlotvanm.sdf

>  <i_m_source_file_index>  (305) 
5

>  <i_lp_mmshare_version>  (305) 
48012

>  <i_f3d_flags>  (305) 
0

>  <s_epik_input>  (305) 
W2NIXTFbY0hdW2NIXVtjSF1bY0hdYzFcW0NIXT1bQ0hdXEMoPU8pW05IXVtDQF0yKEMzNDUpW0NASF02W0NAQEhdNVtDSDJdW0NAQEhdNFtDQEhdKFtDSF09W0NIXTYpW0NASF0oW0NIMl0yKWM3YzNbY0hdW2NIXVtjSF1bY0hdNw==

>  <s_epik_cmdline>  (305) 
J2VwaWtfcHl0aG9uJywgJy1waHQnLCAnMi4wJywgJy1waCcsICc3LjAnLCAnLXRuJywgJzgnLCAnLW1hJywgJzIwMCcsICctaW1hZScsICc8aW5maWxlLm1hZT4nLCAnLW9tYWUnLCAnPG91dGZpbGUubWFlPic=

>  <r_lp_tautomer_probability>  (305) 
1

>  <r_epik_Ionization_Penalty>  (305) 
4.48966e-06

>  <r_epik_Ionization_Penalty_Charging>  (305) 
0

>  <r_epik_Ionization_Penalty_Neutral>  (305) 
4.48966e-06

>  <r_epik_State_Penalty>  (305) 
-0

>  <r_epik_Charging_Adjusted_Penalty>  (305) 
0

>  <i_epik_Tot_Q>  (305) 
0

>  <i_epik_Tot_abs_Q>  (305) 
0

>  <s_lp_Force_Field>  (305) 
OPLS3e

>  <r_lp_Energy>  (305) 
134.755

>  <b_lp_Chiralities_Consistent>  (305) 
1

>  <s_lp_Variant>  (305) 
89:0-1

>  <s_i_glide_gridfile>  (305) 
pfpi4k_grid

>  <i_i_glide_lignum>  (305) 
5

>  <i_i_glide_rotatable_bonds>  (305) 
4

>  <r_i_docking_score>  (305) 
-5.37452

>  <r_i_glide_ligand_efficiency>  (305) 
-0.191947

>  <r_i_glide_ligand_efficiency_sa>  (305) 
-0.582865

>  <r_i_glide_ligand_efficiency_ln>  (305) 
-1.2406

>  <r_i_glide_gscore>  (305) 
-5.37452

>  <r_i_glide_lipo>  (305) 
-2.68482

>  <r_i_glide_hbond>  (305) 
0

>  <r_i_glide_metal>  (305) 
-0

>  <r_i_glide_rewards>  (305) 
-1.87591

>  <r_i_glide_evdw>  (305) 
-16.4

>  <r_i_glide_ecoul>  (305) 
-1.87894

>  <r_i_glide_erotb>  (305) 
0.288044

>  <r_i_glide_esite>  (305) 
0

>  <r_i_glide_emodel>  (305) 
-15.191

>  <r_i_glide_energy>  (305) 
-18.2789

>  <r_i_glide_einternal>  (305) 
7.41748

>  <r_i_glide_intrahb_reward>  (305) 
-0

>  <i_i_glide_confnum>  (305) 
3

>  <i_i_glide_posenum>  (305) 
1

>  <r_i_glide_eff_state_penalty>  (305) 
0

>  <ligand_id>  (305) 
89

>  <original_smiles>  (305) 
O=C(C=Cc1ccccc1)NC12CC3c4ccccc4C14C1CC4C2C=CC31

>  <smiles>  (305) 
[H]C(C(=O)N([H])C12C([H])([H])C3([H])c4c([H])c([H])c([H])c([H])c4C14C1([H])C([H])([H])C4([H])C2([H])C([H])=C([H])C31[H])=C([H])c1c([H])c([H])c([H])c([H])c1[H]

$$$$
90:0:0
     RDKit          3D

 76 80  0  0  1  0  0  0  0  0999 V2000
    8.4231   -1.1039    0.6399 C   0  0  0  0  0  0  0  0  0  0  0  0
    7.3713   -1.8142    0.0150 O   0  0  0  0  0  0  0  0  0  0  0  0
    6.8833   -2.9368    0.7353 C   0  0  2  0  0  0  0  0  0  0  0  0
    7.8236   -4.1059    0.3997 C   0  0  0  0  0  0  0  0  0  0  0  0
    7.4554   -5.3509    1.1989 C   0  0  0  0  0  0  0  0  0  0  0  0
    5.9678   -5.6329    1.2132 C   0  0  0  0  0  0  0  0  0  0  0  0
    5.7017   -7.0760    1.6301 C   0  0  0  0  0  0  0  0  0  0  0  0
    5.0360   -4.6850    0.8920 C   0  0  0  0  0  0  0  0  0  0  0  0
    3.5922   -4.9897    1.0406 C   0  0  0  0  0  0  0  0  0  0  0  0
    3.0371   -5.8856    0.4187 O   0  0  0  0  0  0  0  0  0  0  0  0
    2.6866   -4.0541    1.8471 C   0  0  1  0  0  0  0  0  0  0  0  0
    1.8016   -4.7389    2.9552 C   0  0  1  0  0  0  0  0  0  0  0  0
    0.8332   -5.9081    2.5808 C   0  0  0  0  0  0  0  0  0  0  0  0
    1.1566   -7.3724    3.0251 C   0  0  0  0  0  0  0  0  0  0  0  0
   -0.1946   -7.9948    3.4683 C   0  0  0  0  0  0  0  0  0  0  0  0
    1.6593   -8.2782    1.8856 C   0  0  0  0  0  0  0  0  0  0  0  0
    2.1028   -7.4367    4.2503 C   0  0  0  0  0  0  0  0  0  0  0  0
    3.1331   -6.3048    4.3776 C   0  0  0  0  0  0  0  0  0  0  0  0
    2.4520   -4.9273    4.3488 C   0  0  2  0  0  0  0  0  0  0  0  0
    1.3503   -4.8683    5.4371 C   0  0  0  0  0  0  0  0  0  0  0  0
    3.4345   -3.7867    4.7103 C   0  0  0  0  0  0  0  0  0  0  0  0
    4.2983   -3.2063    3.5843 C   0  0  0  0  0  0  0  0  0  0  0  0
    3.4679   -2.7895    2.3382 C   0  0  2  0  0  0  0  0  0  0  0  0
    2.4251   -1.7051    2.7955 C   0  0  0  0  0  0  0  0  0  0  0  0
    4.3883   -2.1650    1.1922 C   0  0  2  0  0  0  0  0  0  0  0  0
    5.1420   -0.9069    1.7527 C   0  0  0  0  0  0  0  0  0  0  0  0
    3.5173   -1.5969    0.0278 C   0  0  0  0  0  0  0  0  0  0  0  0
    4.2770   -1.7736   -1.2814 C   0  0  1  0  0  0  0  0  0  0  0  0
    5.2013   -0.7259   -1.4824 O   0  0  0  0  0  0  0  0  0  0  0  0
    4.9730   -3.1033   -1.0595 C   0  0  1  0  0  0  0  0  0  0  0  0
    5.9565   -3.3288   -2.0502 O   0  0  0  0  0  0  0  0  0  0  0  0
    5.3607   -3.2324    0.4700 C   0  0  1  0  0  0  0  0  0  0  0  0
    8.6646   -0.2047    0.0810 H   0  0  0  0  0  0  0  0  0  0  0  0
    9.3435   -1.6774    0.7040 H   0  0  0  0  0  0  0  0  0  0  0  0
    8.1163   -0.7306    1.6124 H   0  0  0  0  0  0  0  0  0  0  0  0
    6.9658   -2.7915    1.8079 H   0  0  0  0  0  0  0  0  0  0  0  0
    7.7912   -4.2921   -0.6653 H   0  0  0  0  0  0  0  0  0  0  0  0
    8.8645   -3.8582    0.5905 H   0  0  0  0  0  0  0  0  0  0  0  0
    7.9969   -6.2176    0.8070 H   0  0  0  0  0  0  0  0  0  0  0  0
    7.7606   -5.2209    2.2382 H   0  0  0  0  0  0  0  0  0  0  0  0
    6.1095   -7.7663    0.8885 H   0  0  0  0  0  0  0  0  0  0  0  0
    4.6553   -7.3246    1.7407 H   0  0  0  0  0  0  0  0  0  0  0  0
    6.1849   -7.2912    2.5820 H   0  0  0  0  0  0  0  0  0  0  0  0
    1.9742   -3.7114    1.0958 H   0  0  0  0  0  0  0  0  0  0  0  0
    1.0601   -3.9657    3.0900 H   0  0  0  0  0  0  0  0  0  0  0  0
   -0.1522   -5.6610    2.9940 H   0  0  0  0  0  0  0  0  0  0  0  0
    0.7171   -5.9218    1.5028 H   0  0  0  0  0  0  0  0  0  0  0  0
   -0.0808   -9.0301    3.8083 H   0  0  0  0  0  0  0  0  0  0  0  0
   -0.9234   -7.9965    2.6529 H   0  0  0  0  0  0  0  0  0  0  0  0
   -0.6327   -7.4373    4.2965 H   0  0  0  0  0  0  0  0  0  0  0  0
    1.6805   -9.3263    2.1854 H   0  0  0  0  0  0  0  0  0  0  0  0
    2.6712   -8.0464    1.5828 H   0  0  0  0  0  0  0  0  0  0  0  0
    1.0315   -8.2263    1.0012 H   0  0  0  0  0  0  0  0  0  0  0  0
    1.5251   -7.5248    5.1744 H   0  0  0  0  0  0  0  0  0  0  0  0
    2.6630   -8.3706    4.1986 H   0  0  0  0  0  0  0  0  0  0  0  0
    3.7107   -6.4338    5.2927 H   0  0  0  0  0  0  0  0  0  0  0  0
    3.8528   -6.3728    3.5645 H   0  0  0  0  0  0  0  0  0  0  0  0
    1.7574   -5.1230    6.4118 H   0  0  0  0  0  0  0  0  0  0  0  0
    0.5147   -5.5344    5.2508 H   0  0  0  0  0  0  0  0  0  0  0  0
    0.9188   -3.8715    5.5061 H   0  0  0  0  0  0  0  0  0  0  0  0
    2.9072   -2.9709    5.2073 H   0  0  0  0  0  0  0  0  0  0  0  0
    4.1166   -4.1600    5.4734 H   0  0  0  0  0  0  0  0  0  0  0  0
    4.8217   -2.3504    4.0056 H   0  0  0  0  0  0  0  0  0  0  0  0
    5.0802   -3.9247    3.3450 H   0  0  0  0  0  0  0  0  0  0  0  0
    2.8851   -0.8328    3.2549 H   0  0  0  0  0  0  0  0  0  0  0  0
    1.7473   -2.0588    3.5659 H   0  0  0  0  0  0  0  0  0  0  0  0
    1.7827   -1.3696    1.9849 H   0  0  0  0  0  0  0  0  0  0  0  0
    5.6943   -0.3784    0.9789 H   0  0  0  0  0  0  0  0  0  0  0  0
    5.8503   -1.1264    2.5519 H   0  0  0  0  0  0  0  0  0  0  0  0
    4.4726   -0.1459    2.1445 H   0  0  0  0  0  0  0  0  0  0  0  0
    2.6053   -2.1748   -0.0839 H   0  0  0  0  0  0  0  0  0  0  0  0
    3.2100   -0.5652    0.1884 H   0  0  0  0  0  0  0  0  0  0  0  0
    3.5975   -1.7951   -2.1350 H   0  0  0  0  0  0  0  0  0  0  0  0
    4.7449    0.0991   -1.4409 H   0  0  0  0  0  0  0  0  0  0  0  0
    4.2097   -3.8466   -1.2935 H   0  0  0  0  0  0  0  0  0  0  0  0
    6.0962   -4.2567   -2.1181 H   0  0  0  0  0  0  0  0  0  0  0  0
  1  2  1  0
  1 33  1  0
  1 34  1  0
  1 35  1  0
  2  3  1  0
  3 32  1  0
  3  4  1  0
  3 36  1  1
  4  5  1  0
  4 37  1  0
  4 38  1  0
  5  6  1  0
  5 39  1  0
  5 40  1  0
  6  7  1  0
  6  8  2  0
  7 41  1  0
  7 42  1  0
  7 43  1  0
 32  8  1  1
  8  9  1  0
  9 10  2  0
  9 11  1  0
 11 23  1  0
 11 12  1  0
 11 44  1  6
 12 19  1  0
 12 13  1  0
 12 45  1  1
 13 14  1  0
 13 46  1  0
 13 47  1  0
 14 15  1  0
 14 16  1  0
 14 17  1  0
 15 48  1  0
 15 49  1  0
 15 50  1  0
 16 51  1  0
 16 52  1  0
 16 53  1  0
 17 18  1  0
 17 54  1  0
 17 55  1  0
 18 19  1  0
 18 56  1  0
 18 57  1  0
 19 20  1  1
 19 21  1  0
 20 58  1  0
 20 59  1  0
 20 60  1  0
 21 22  1  0
 21 61  1  0
 21 62  1  0
 22 23  1  0
 22 63  1  0
 22 64  1  0
 23 24  1  1
 23 25  1  0
 24 65  1  0
 24 66  1  0
 24 67  1  0
 25 32  1  0
 25 26  1  1
 25 27  1  0
 26 68  1  0
 26 69  1  0
 26 70  1  0
 27 28  1  0
 27 71  1  0
 27 72  1  0
 28 29  1  0
 28 30  1  0
 28 73  1  6
 29 74  1  0
 30 31  1  0
 30 32  1  0
 30 75  1  6
 31 76  1  0
M  END
>  <i_m_ct_stereo_status>  (306) 
1

>  <s_m_source_file>  (306) 
/var/tmp/pbs.5076255.sched01/tmp0kxp0nim/126xlotvanm.sdf

>  <i_m_source_file_index>  (306) 
6

>  <i_lp_mmshare_version>  (306) 
48012

>  <i_f3d_flags>  (306) 
0

>  <s_epik_input>  (306) 
W0NIM11PW0NAQEhdMVtDSDJdW0NIMl1DKFtDSDNdKT1DKFtDQF0xMjMpQyg9TylbQ0BIXTRbQ0BASF01W0NAQF0oW0NIM10pKFtDSDJdW0NIMl1DKFtDSDJdNSkoW0NIM10pW0NIM10pW0NIMl1bQ0gyXVtDQEBdNChbQ0gzXSlbQ0BdMihbQ0gzXSlbQ0gyXVtDQEBIXShbT0hdKVtDQEhdM1tPSF0=

>  <s_epik_cmdline>  (306) 
J2VwaWtfcHl0aG9uJywgJy1waHQnLCAnMi4wJywgJy1waCcsICc3LjAnLCAnLXRuJywgJzgnLCAnLW1hJywgJzIwMCcsICctaW1hZScsICc8aW5maWxlLm1hZT4nLCAnLW9tYWUnLCAnPG91dGZpbGUubWFlPic=

>  <r_lp_tautomer_probability>  (306) 
1

>  <r_epik_Ionization_Penalty>  (306) 
1.43284e-07

>  <r_epik_Ionization_Penalty_Charging>  (306) 
0

>  <r_epik_Ionization_Penalty_Neutral>  (306) 
1.43284e-07

>  <r_epik_State_Penalty>  (306) 
-0

>  <r_epik_Charging_Adjusted_Penalty>  (306) 
0

>  <i_epik_Tot_Q>  (306) 
0

>  <i_epik_Tot_abs_Q>  (306) 
0

>  <s_lp_Force_Field>  (306) 
OPLS3e

>  <r_lp_Energy>  (306) 
89.9282

>  <b_lp_Chiralities_Consistent>  (306) 
1

>  <s_lp_Variant>  (306) 
90:0-1

>  <s_i_glide_gridfile>  (306) 
pfpi4k_grid

>  <i_i_glide_lignum>  (306) 
6

>  <i_i_glide_rotatable_bonds>  (306) 
3

>  <r_i_docking_score>  (306) 
-3.05672

>  <r_i_glide_ligand_efficiency>  (306) 
-0.0955225

>  <r_i_glide_ligand_efficiency_sa>  (306) 
-0.303265

>  <r_i_glide_ligand_efficiency_ln>  (306) 
-0.684483

>  <r_i_glide_gscore>  (306) 
-3.05672

>  <r_i_glide_lipo>  (306) 
-0.810148

>  <r_i_glide_hbond>  (306) 
-0.10359

>  <r_i_glide_metal>  (306) 
-0

>  <r_i_glide_rewards>  (306) 
-0.378735

>  <r_i_glide_evdw>  (306) 
-22.1513

>  <r_i_glide_ecoul>  (306) 
-4.37786

>  <r_i_glide_erotb>  (306) 
0

>  <r_i_glide_esite>  (306) 
0

>  <r_i_glide_emodel>  (306) 
-31.0644

>  <r_i_glide_energy>  (306) 
-26.5292

>  <r_i_glide_einternal>  (306) 
1.16352

>  <r_i_glide_intrahb_reward>  (306) 
-0

>  <i_i_glide_confnum>  (306) 
2

>  <i_i_glide_posenum>  (306) 
1

>  <r_i_glide_eff_state_penalty>  (306) 
0

>  <ligand_id>  (306) 
90

>  <original_smiles>  (306) 
COC1CCC(C)=C2C(=O)C3C4CC(C)(C)CCC4(C)CCC3(C)C3(C)CC(O)C(O)C213

>  <smiles>  (306) 
[H]OC1([H])C([H])([H])C2(C([H])([H])[H])C3(C(=C(C([H])([H])[H])C([H])([H])C([H])([H])C3([H])OC([H])([H])[H])C(=O)C3([H])C4([H])C([H])([H])C(C([H])([H])[H])(C([H])([H])[H])C([H])([H])C([H])([H])C4(C([H])([H])[H])C([H])([H])C([H])([H])C32C([H])([H])[H])C1([H])O[H]

$$$$
90:0:1
     RDKit          3D

 76 80  0  0  1  0  0  0  0  0999 V2000
    8.3821   -3.4488    0.7300 C   0  0  0  0  0  0  0  0  0  0  0  0
    6.9653   -3.3996    0.8371 O   0  0  0  0  0  0  0  0  0  0  0  0
    6.2906   -4.5367    1.3934 C   0  0  2  0  0  0  0  0  0  0  0  0
    6.8228   -5.8462    0.7852 C   0  0  0  0  0  0  0  0  0  0  0  0
    6.2032   -7.0559    1.4411 C   0  0  0  0  0  0  0  0  0  0  0  0
    4.7070   -6.9654    1.5182 C   0  0  0  0  0  0  0  0  0  0  0  0
    4.1113   -8.3504    1.7019 C   0  0  0  0  0  0  0  0  0  0  0  0
    4.0366   -5.7732    1.4352 C   0  0  0  0  0  0  0  0  0  0  0  0
    2.5704   -5.7445    1.6363 C   0  0  0  0  0  0  0  0  0  0  0  0
    1.7793   -6.2945    0.8790 O   0  0  0  0  0  0  0  0  0  0  0  0
    1.9932   -4.7998    2.6945 C   0  0  1  0  0  0  0  0  0  0  0  0
    1.0142   -5.4279    3.7604 C   0  0  1  0  0  0  0  0  0  0  0  0
   -0.1958   -6.2660    3.2589 C   0  0  0  0  0  0  0  0  0  0  0  0
   -0.2663   -7.8089    3.4511 C   0  0  0  0  0  0  0  0  0  0  0  0
   -1.7047   -8.1459    3.8880 C   0  0  0  0  0  0  0  0  0  0  0  0
   -0.0571   -8.5821    2.1259 C   0  0  0  0  0  0  0  0  0  0  0  0
    0.7003   -8.3436    4.5402 C   0  0  0  0  0  0  0  0  0  0  0  0
    1.9738   -7.5112    4.7606 C   0  0  0  0  0  0  0  0  0  0  0  0
    1.6598   -6.0304    5.0363 C   0  0  2  0  0  0  0  0  0  0  0  0
    0.6611   -5.9139    6.2176 C   0  0  0  0  0  0  0  0  0  0  0  0
    2.9235   -5.2517    5.4964 C   0  0  0  0  0  0  0  0  0  0  0  0
    3.8342   -4.6828    4.4031 C   0  0  0  0  0  0  0  0  0  0  0  0
    3.0712   -3.8550    3.3275 C   0  0  2  0  0  0  0  0  0  0  0  0
    2.3546   -2.6670    4.0559 C   0  0  0  0  0  0  0  0  0  0  0  0
    4.0652   -3.2683    2.2179 C   0  0  2  0  0  0  0  0  0  0  0  0
    5.1400   -2.3509    2.9029 C   0  0  0  0  0  0  0  0  0  0  0  0
    3.3092   -2.2954    1.2473 C   0  0  0  0  0  0  0  0  0  0  0  0
    3.9522   -2.3858   -0.1290 C   0  0  1  0  0  0  0  0  0  0  0  0
    5.0634   -1.5022   -0.2257 O   0  0  0  0  0  0  0  0  0  0  0  0
    4.3081   -3.8663   -0.1950 C   0  0  1  0  0  0  0  0  0  0  0  0
    5.1315   -4.1607   -1.3051 O   0  0  0  0  0  0  0  0  0  0  0  0
    4.7109   -4.3788    1.2403 C   0  0  1  0  0  0  0  0  0  0  0  0
    8.7698   -2.4605    0.4623 H   0  0  0  0  0  0  0  0  0  0  0  0
    8.6897   -4.1129   -0.0746 H   0  0  0  0  0  0  0  0  0  0  0  0
    8.8512   -3.7744    1.6597 H   0  0  0  0  0  0  0  0  0  0  0  0
    6.5371   -4.5924    2.4510 H   0  0  0  0  0  0  0  0  0  0  0  0
    6.6221   -5.8625   -0.2785 H   0  0  0  0  0  0  0  0  0  0  0  0
    7.8902   -5.9833    0.9252 H   0  0  0  0  0  0  0  0  0  0  0  0
    6.5119   -7.9552    0.9019 H   0  0  0  0  0  0  0  0  0  0  0  0
    6.5925   -7.1601    2.4502 H   0  0  0  0  0  0  0  0  0  0  0  0
    4.3135   -8.9637    0.8186 H   0  0  0  0  0  0  0  0  0  0  0  0
    3.0448   -8.3618    1.8621 H   0  0  0  0  0  0  0  0  0  0  0  0
    4.5842   -8.8415    2.5540 H   0  0  0  0  0  0  0  0  0  0  0  0
    1.3675   -4.1435    2.0878 H   0  0  0  0  0  0  0  0  0  0  0  0
    0.4915   -4.5420    4.0956 H   0  0  0  0  0  0  0  0  0  0  0  0
   -1.0653   -5.8569    3.8094 H   0  0  0  0  0  0  0  0  0  0  0  0
   -0.3621   -6.0779    2.2100 H   0  0  0  0  0  0  0  0  0  0  0  0
   -1.8319   -9.2186    4.0209 H   0  0  0  0  0  0  0  0  0  0  0  0
   -2.4541   -7.8191    3.1624 H   0  0  0  0  0  0  0  0  0  0  0  0
   -1.9405   -7.6783    4.8450 H   0  0  0  0  0  0  0  0  0  0  0  0
   -0.2861   -9.6422    2.2476 H   0  0  0  0  0  0  0  0  0  0  0  0
    0.9584   -8.5352    1.7702 H   0  0  0  0  0  0  0  0  0  0  0  0
   -0.7041   -8.2203    1.3270 H   0  0  0  0  0  0  0  0  0  0  0  0
    0.1671   -8.4408    5.4955 H   0  0  0  0  0  0  0  0  0  0  0  0
    0.9978   -9.3527    4.2927 H   0  0  0  0  0  0  0  0  0  0  0  0
    2.5446   -7.9402    5.5877 H   0  0  0  0  0  0  0  0  0  0  0  0
    2.6182   -7.5899    3.8937 H   0  0  0  0  0  0  0  0  0  0  0  0
    1.0400   -6.4372    7.0948 H   0  0  0  0  0  0  0  0  0  0  0  0
   -0.3238   -6.3203    5.9951 H   0  0  0  0  0  0  0  0  0  0  0  0
    0.4924   -4.8735    6.4975 H   0  0  0  0  0  0  0  0  0  0  0  0
    2.6345   -4.4279    6.1575 H   0  0  0  0  0  0  0  0  0  0  0  0
    3.5190   -5.9016    6.1205 H   0  0  0  0  0  0  0  0  0  0  0  0
    4.5758   -4.0647    4.9096 H   0  0  0  0  0  0  0  0  0  0  0  0
    4.4021   -5.5012    3.9661 H   0  0  0  0  0  0  0  0  0  0  0  0
    3.0404   -2.0225    4.6073 H   0  0  0  0  0  0  0  0  0  0  0  0
    1.6522   -2.9859    4.8160 H   0  0  0  0  0  0  0  0  0  0  0  0
    1.7780   -2.0383    3.3759 H   0  0  0  0  0  0  0  0  0  0  0  0
    5.7755   -1.8376    2.1840 H   0  0  0  0  0  0  0  0  0  0  0  0
    5.8037   -2.8821    3.5835 H   0  0  0  0  0  0  0  0  0  0  0  0
    4.7003   -1.5345    3.4730 H   0  0  0  0  0  0  0  0  0  0  0  0
    2.2703   -2.5990    1.1150 H   0  0  0  0  0  0  0  0  0  0  0  0
    3.2660   -1.2641    1.6103 H   0  0  0  0  0  0  0  0  0  0  0  0
    3.2447   -2.1022   -0.9134 H   0  0  0  0  0  0  0  0  0  0  0  0
    4.7489   -0.6157   -0.1848 H   0  0  0  0  0  0  0  0  0  0  0  0
    3.3712   -4.3394   -0.4825 H   0  0  0  0  0  0  0  0  0  0  0  0
    4.8502   -4.9780   -1.6801 H   0  0  0  0  0  0  0  0  0  0  0  0
  1  2  1  0
  1 33  1  0
  1 34  1  0
  1 35  1  0
  2  3  1  0
  3 32  1  0
  3  4  1  0
  3 36  1  1
  4  5  1  0
  4 37  1  0
  4 38  1  0
  5  6  1  0
  5 39  1  0
  5 40  1  0
  6  7  1  0
  6  8  2  0
  7 41  1  0
  7 42  1  0
  7 43  1  0
 32  8  1  1
  8  9  1  0
  9 10  2  0
  9 11  1  0
 11 23  1  0
 11 12  1  0
 11 44  1  6
 12 19  1  0
 12 13  1  0
 12 45  1  1
 13 14  1  0
 13 46  1  0
 13 47  1  0
 14 15  1  0
 14 16  1  0
 14 17  1  0
 15 48  1  0
 15 49  1  0
 15 50  1  0
 16 51  1  0
 16 52  1  0
 16 53  1  0
 17 18  1  0
 17 54  1  0
 17 55  1  0
 18 19  1  0
 18 56  1  0
 18 57  1  0
 19 20  1  1
 19 21  1  0
 20 58  1  0
 20 59  1  0
 20 60  1  0
 21 22  1  0
 21 61  1  0
 21 62  1  0
 22 23  1  0
 22 63  1  0
 22 64  1  0
 23 24  1  1
 23 25  1  0
 24 65  1  0
 24 66  1  0
 24 67  1  0
 25 32  1  0
 25 26  1  1
 25 27  1  0
 26 68  1  0
 26 69  1  0
 26 70  1  0
 27 28  1  0
 27 71  1  0
 27 72  1  0
 28 29  1  0
 28 30  1  0
 28 73  1  6
 29 74  1  0
 30 31  1  0
 30 32  1  0
 30 75  1  6
 31 76  1  0
M  END
>  <i_m_ct_stereo_status>  (307) 
1

>  <s_m_source_file>  (307) 
/var/tmp/pbs.5076255.sched01/tmp0kxp0nim/126xlotvanm.sdf

>  <i_m_source_file_index>  (307) 
6

>  <i_lp_mmshare_version>  (307) 
48012

>  <i_f3d_flags>  (307) 
0

>  <s_epik_input>  (307) 
W0NIM11PW0NAQEhdMVtDSDJdW0NIMl1DKFtDSDNdKT1DKFtDQF0xMjMpQyg9TylbQ0BIXTRbQ0BASF01W0NAQF0oW0NIM10pKFtDSDJdW0NIMl1DKFtDSDJdNSkoW0NIM10pW0NIM10pW0NIMl1bQ0gyXVtDQEBdNChbQ0gzXSlbQ0BdMihbQ0gzXSlbQ0gyXVtDQEBIXShbT0hdKVtDQEhdM1tPSF0=

>  <s_epik_cmdline>  (307) 
J2VwaWtfcHl0aG9uJywgJy1waHQnLCAnMi4wJywgJy1waCcsICc3LjAnLCAnLXRuJywgJzgnLCAnLW1hJywgJzIwMCcsICctaW1hZScsICc8aW5maWxlLm1hZT4nLCAnLW9tYWUnLCAnPG91dGZpbGUubWFlPic=

>  <r_lp_tautomer_probability>  (307) 
1

>  <r_epik_Ionization_Penalty>  (307) 
1.43284e-07

>  <r_epik_Ionization_Penalty_Charging>  (307) 
0

>  <r_epik_Ionization_Penalty_Neutral>  (307) 
1.43284e-07

>  <r_epik_State_Penalty>  (307) 
-0

>  <r_epik_Charging_Adjusted_Penalty>  (307) 
0

>  <i_epik_Tot_Q>  (307) 
0

>  <i_epik_Tot_abs_Q>  (307) 
0

>  <s_lp_Force_Field>  (307) 
OPLS3e

>  <r_lp_Energy>  (307) 
89.9282

>  <b_lp_Chiralities_Consistent>  (307) 
1

>  <s_lp_Variant>  (307) 
90:0-1

>  <s_i_glide_gridfile>  (307) 
pfpi4k_grid

>  <i_i_glide_lignum>  (307) 
6

>  <i_i_glide_rotatable_bonds>  (307) 
3

>  <r_i_docking_score>  (307) 
-2.85757

>  <r_i_glide_ligand_efficiency>  (307) 
-0.089299

>  <r_i_glide_ligand_efficiency_sa>  (307) 
-0.283507

>  <r_i_glide_ligand_efficiency_ln>  (307) 
-0.639887

>  <r_i_glide_gscore>  (307) 
-2.85757

>  <r_i_glide_lipo>  (307) 
-0.617992

>  <r_i_glide_hbond>  (307) 
0

>  <r_i_glide_metal>  (307) 
-0

>  <r_i_glide_rewards>  (307) 
-0.37741

>  <r_i_glide_evdw>  (307) 
-23.8184

>  <r_i_glide_ecoul>  (307) 
-4.38251

>  <r_i_glide_erotb>  (307) 
0

>  <r_i_glide_esite>  (307) 
-0.0138681

>  <r_i_glide_emodel>  (307) 
-30.4706

>  <r_i_glide_energy>  (307) 
-28.2009

>  <r_i_glide_einternal>  (307) 
4.0056

>  <r_i_glide_intrahb_reward>  (307) 
-0

>  <i_i_glide_confnum>  (307) 
1

>  <i_i_glide_posenum>  (307) 
29

>  <r_i_glide_eff_state_penalty>  (307) 
0

>  <ligand_id>  (307) 
90

>  <original_smiles>  (307) 
COC1CCC(C)=C2C(=O)C3C4CC(C)(C)CCC4(C)CCC3(C)C3(C)CC(O)C(O)C213

>  <smiles>  (307) 
[H]OC1([H])C([H])([H])C2(C([H])([H])[H])C3(C(=C(C([H])([H])[H])C([H])([H])C([H])([H])C3([H])OC([H])([H])[H])C(=O)C3([H])C4([H])C([H])([H])C(C([H])([H])[H])(C([H])([H])[H])C([H])([H])C([H])([H])C4(C([H])([H])[H])C([H])([H])C([H])([H])C32C([H])([H])[H])C1([H])O[H]

$$$$
90:0:2
     RDKit          3D

 76 80  0  0  1  0  0  0  0  0999 V2000
   -0.4584    4.8255    7.6763 C   0  0  0  0  0  0  0  0  0  0  0  0
   -0.2393    4.3032    6.3741 O   0  0  0  0  0  0  0  0  0  0  0  0
    0.7713    3.2929    6.2932 C   0  0  2  0  0  0  0  0  0  0  0  0
    2.1635    3.9401    6.3938 C   0  0  0  0  0  0  0  0  0  0  0  0
    3.2513    2.8746    6.4324 C   0  0  0  0  0  0  0  0  0  0  0  0
    3.0785    1.8137    5.3776 C   0  0  0  0  0  0  0  0  0  0  0  0
    4.3821    1.0622    5.1528 C   0  0  0  0  0  0  0  0  0  0  0  0
    1.8945    1.6155    4.7218 C   0  0  0  0  0  0  0  0  0  0  0  0
    1.7760    0.4926    3.7546 C   0  0  0  0  0  0  0  0  0  0  0  0
    2.4403    0.4332    2.7358 O   0  0  0  0  0  0  0  0  0  0  0  0
    0.6424   -0.5260    3.9212 C   0  0  1  0  0  0  0  0  0  0  0  0
    1.0479   -2.0515    3.9408 C   0  0  1  0  0  0  0  0  0  0  0  0
    1.8675   -2.6306    2.7471 C   0  0  0  0  0  0  0  0  0  0  0  0
    3.3720   -3.0177    2.9400 C   0  0  0  0  0  0  0  0  0  0  0  0
    3.5921   -4.3487    2.1880 C   0  0  0  0  0  0  0  0  0  0  0  0
    4.3648   -2.0247    2.2839 C   0  0  0  0  0  0  0  0  0  0  0  0
    3.7681   -3.2728    4.4213 C   0  0  0  0  0  0  0  0  0  0  0  0
    2.9848   -2.4702    5.4704 C   0  0  0  0  0  0  0  0  0  0  0  0
    1.4691   -2.6487    5.3096 C   0  0  2  0  0  0  0  0  0  0  0  0
    1.1147   -4.1593    5.3298 C   0  0  0  0  0  0  0  0  0  0  0  0
    0.6818   -2.0442    6.5028 C   0  0  0  0  0  0  0  0  0  0  0  0
    0.3495   -0.5521    6.4356 C   0  0  0  0  0  0  0  0  0  0  0  0
   -0.3267   -0.1383    5.0961 C   0  0  2  0  0  0  0  0  0  0  0  0
   -1.6517   -0.9585    4.9704 C   0  0  0  0  0  0  0  0  0  0  0  0
   -0.6851    1.4214    5.0807 C   0  0  2  0  0  0  0  0  0  0  0  0
   -1.6544    1.7567    6.2779 C   0  0  0  0  0  0  0  0  0  0  0  0
   -1.5160    1.7900    3.8069 C   0  0  0  0  0  0  0  0  0  0  0  0
   -1.1856    3.2112    3.3905 C   0  0  1  0  0  0  0  0  0  0  0  0
   -1.9739    4.1318    4.1149 O   0  0  0  0  0  0  0  0  0  0  0  0
    0.3044    3.2779    3.7216 C   0  0  1  0  0  0  0  0  0  0  0  0
    0.7721    4.6036    3.6682 O   0  0  0  0  0  0  0  0  0  0  0  0
    0.5816    2.4020    4.9963 C   0  0  1  0  0  0  0  0  0  0  0  0
   -1.3011    5.5129    7.6427 H   0  0  0  0  0  0  0  0  0  0  0  0
    0.3963    5.3862    8.0503 H   0  0  0  0  0  0  0  0  0  0  0  0
   -0.7026    4.0362    8.3873 H   0  0  0  0  0  0  0  0  0  0  0  0
    0.6991    2.6358    7.1568 H   0  0  0  0  0  0  0  0  0  0  0  0
    2.3507    4.6183    5.5651 H   0  0  0  0  0  0  0  0  0  0  0  0
    2.2627    4.5547    7.2871 H   0  0  0  0  0  0  0  0  0  0  0  0
    4.2265    3.3599    6.3314 H   0  0  0  0  0  0  0  0  0  0  0  0
    3.2420    2.3695    7.3960 H   0  0  0  0  0  0  0  0  0  0  0  0
    5.1358    1.7472    4.7683 H   0  0  0  0  0  0  0  0  0  0  0  0
    4.3253    0.2500    4.4452 H   0  0  0  0  0  0  0  0  0  0  0  0
    4.7621    0.6661    6.0946 H   0  0  0  0  0  0  0  0  0  0  0  0
    0.0691   -0.4160    2.9932 H   0  0  0  0  0  0  0  0  0  0  0  0
    0.0959   -2.5042    3.7093 H   0  0  0  0  0  0  0  0  0  0  0  0
    1.3418   -3.5435    2.4102 H   0  0  0  0  0  0  0  0  0  0  0  0
    1.8024   -1.9454    1.9120 H   0  0  0  0  0  0  0  0  0  0  0  0
    4.6233   -4.7160    2.2624 H   0  0  0  0  0  0  0  0  0  0  0  0
    3.3502   -4.2609    1.1225 H   0  0  0  0  0  0  0  0  0  0  0  0
    2.9521   -5.1434    2.5902 H   0  0  0  0  0  0  0  0  0  0  0  0
    5.3792   -2.4283    2.2681 H   0  0  0  0  0  0  0  0  0  0  0  0
    4.4209   -1.0953    2.8154 H   0  0  0  0  0  0  0  0  0  0  0  0
    4.0959   -1.8043    1.2533 H   0  0  0  0  0  0  0  0  0  0  0  0
    3.6973   -4.3449    4.6557 H   0  0  0  0  0  0  0  0  0  0  0  0
    4.8122   -3.0347    4.5533 H   0  0  0  0  0  0  0  0  0  0  0  0
    3.3030   -2.7662    6.4726 H   0  0  0  0  0  0  0  0  0  0  0  0
    3.2321   -1.4199    5.3864 H   0  0  0  0  0  0  0  0  0  0  0  0
    1.5085   -4.6393    6.2265 H   0  0  0  0  0  0  0  0  0  0  0  0
    1.5019   -4.7085    4.4728 H   0  0  0  0  0  0  0  0  0  0  0  0
    0.0360   -4.3233    5.3150 H   0  0  0  0  0  0  0  0  0  0  0  0
   -0.2431   -2.6056    6.6727 H   0  0  0  0  0  0  0  0  0  0  0  0
    1.2591   -2.2036    7.4005 H   0  0  0  0  0  0  0  0  0  0  0  0
   -0.3009   -0.3387    7.2851 H   0  0  0  0  0  0  0  0  0  0  0  0
    1.2549    0.0163    6.6309 H   0  0  0  0  0  0  0  0  0  0  0  0
   -2.3515   -0.8185    5.7966 H   0  0  0  0  0  0  0  0  0  0  0  0
   -1.4903   -2.0291    4.9596 H   0  0  0  0  0  0  0  0  0  0  0  0
   -2.1921   -0.7355    4.0516 H   0  0  0  0  0  0  0  0  0  0  0  0
   -2.0300    2.7764    6.2506 H   0  0  0  0  0  0  0  0  0  0  0  0
   -1.2056    1.6211    7.2606 H   0  0  0  0  0  0  0  0  0  0  0  0
   -2.5687    1.1713    6.2695 H   0  0  0  0  0  0  0  0  0  0  0  0
   -1.2549    1.1516    2.9628 H   0  0  0  0  0  0  0  0  0  0  0  0
   -2.5888    1.6769    3.9633 H   0  0  0  0  0  0  0  0  0  0  0  0
   -1.3912    3.3669    2.3292 H   0  0  0  0  0  0  0  0  0  0  0  0
   -1.7167    4.0461    5.0312 H   0  0  0  0  0  0  0  0  0  0  0  0
    0.7875    2.8119    2.8605 H   0  0  0  0  0  0  0  0  0  0  0  0
    0.6531    4.8958    2.7705 H   0  0  0  0  0  0  0  0  0  0  0  0
  1  2  1  0
  1 33  1  0
  1 34  1  0
  1 35  1  0
  2  3  1  0
  3 32  1  0
  3  4  1  0
  3 36  1  1
  4  5  1  0
  4 37  1  0
  4 38  1  0
  5  6  1  0
  5 39  1  0
  5 40  1  0
  6  7  1  0
  6  8  2  0
  7 41  1  0
  7 42  1  0
  7 43  1  0
 32  8  1  6
  8  9  1  0
  9 10  2  0
  9 11  1  0
 11 23  1  0
 11 12  1  0
 11 44  1  6
 12 19  1  0
 12 13  1  0
 12 45  1  6
 13 14  1  0
 13 46  1  0
 13 47  1  0
 14 15  1  0
 14 16  1  0
 14 17  1  0
 15 48  1  0
 15 49  1  0
 15 50  1  0
 16 51  1  0
 16 52  1  0
 16 53  1  0
 17 18  1  0
 17 54  1  0
 17 55  1  0
 18 19  1  0
 18 56  1  0
 18 57  1  0
 19 20  1  6
 19 21  1  0
 20 58  1  0
 20 59  1  0
 20 60  1  0
 21 22  1  0
 21 61  1  0
 21 62  1  0
 22 23  1  0
 22 63  1  0
 22 64  1  0
 23 24  1  6
 23 25  1  0
 24 65  1  0
 24 66  1  0
 24 67  1  0
 25 32  1  0
 25 26  1  1
 25 27  1  0
 26 68  1  0
 26 69  1  0
 26 70  1  0
 27 28  1  0
 27 71  1  0
 27 72  1  0
 28 29  1  0
 28 30  1  0
 28 73  1  6
 29 74  1  0
 30 31  1  0
 30 32  1  0
 30 75  1  6
 31 76  1  0
M  END
>  <i_m_ct_stereo_status>  (308) 
1

>  <s_m_source_file>  (308) 
/var/tmp/pbs.5076255.sched01/tmp0kxp0nim/126xlotvanm.sdf

>  <i_m_source_file_index>  (308) 
6

>  <i_lp_mmshare_version>  (308) 
48012

>  <i_f3d_flags>  (308) 
0

>  <s_epik_input>  (308) 
W0NIM11PW0NAQEhdMVtDSDJdW0NIMl1DKFtDSDNdKT1DKFtDQF0xMjMpQyg9TylbQ0BIXTRbQ0BASF01W0NAQF0oW0NIM10pKFtDSDJdW0NIMl1DKFtDSDJdNSkoW0NIM10pW0NIM10pW0NIMl1bQ0gyXVtDQEBdNChbQ0gzXSlbQ0BdMihbQ0gzXSlbQ0gyXVtDQEBIXShbT0hdKVtDQEhdM1tPSF0=

>  <s_epik_cmdline>  (308) 
J2VwaWtfcHl0aG9uJywgJy1waHQnLCAnMi4wJywgJy1waCcsICc3LjAnLCAnLXRuJywgJzgnLCAnLW1hJywgJzIwMCcsICctaW1hZScsICc8aW5maWxlLm1hZT4nLCAnLW9tYWUnLCAnPG91dGZpbGUubWFlPic=

>  <r_lp_tautomer_probability>  (308) 
1

>  <r_epik_Ionization_Penalty>  (308) 
1.43284e-07

>  <r_epik_Ionization_Penalty_Charging>  (308) 
0

>  <r_epik_Ionization_Penalty_Neutral>  (308) 
1.43284e-07

>  <r_epik_State_Penalty>  (308) 
-0

>  <r_epik_Charging_Adjusted_Penalty>  (308) 
0

>  <i_epik_Tot_Q>  (308) 
0

>  <i_epik_Tot_abs_Q>  (308) 
0

>  <s_lp_Force_Field>  (308) 
OPLS3e

>  <r_lp_Energy>  (308) 
89.9282

>  <b_lp_Chiralities_Consistent>  (308) 
1

>  <s_lp_Variant>  (308) 
90:0-1

>  <s_i_glide_gridfile>  (308) 
pfpi4k_grid

>  <i_i_glide_lignum>  (308) 
6

>  <i_i_glide_rotatable_bonds>  (308) 
3

>  <r_i_docking_score>  (308) 
-2.58841

>  <r_i_glide_ligand_efficiency>  (308) 
-0.0808877

>  <r_i_glide_ligand_efficiency_sa>  (308) 
-0.256803

>  <r_i_glide_ligand_efficiency_ln>  (308) 
-0.579615

>  <r_i_glide_gscore>  (308) 
-2.58841

>  <r_i_glide_lipo>  (308) 
-0.0478686

>  <r_i_glide_hbond>  (308) 
0

>  <r_i_glide_metal>  (308) 
-0

>  <r_i_glide_rewards>  (308) 
-0.87741

>  <r_i_glide_evdw>  (308) 
-19.8394

>  <r_i_glide_ecoul>  (308) 
-4.44395

>  <r_i_glide_erotb>  (308) 
0

>  <r_i_glide_esite>  (308) 
-0.00456785

>  <r_i_glide_emodel>  (308) 
-33.4163

>  <r_i_glide_energy>  (308) 
-24.2833

>  <r_i_glide_einternal>  (308) 
0.400535

>  <r_i_glide_intrahb_reward>  (308) 
-0.5

>  <i_i_glide_confnum>  (308) 
1

>  <i_i_glide_posenum>  (308) 
9

>  <r_i_glide_eff_state_penalty>  (308) 
0

>  <ligand_id>  (308) 
90

>  <original_smiles>  (308) 
COC1CCC(C)=C2C(=O)C3C4CC(C)(C)CCC4(C)CCC3(C)C3(C)CC(O)C(O)C213

>  <smiles>  (308) 
[H]OC1([H])C([H])([H])C2(C([H])([H])[H])C3(C(=C(C([H])([H])[H])C([H])([H])C([H])([H])C3([H])OC([H])([H])[H])C(=O)C3([H])C4([H])C([H])([H])C(C([H])([H])[H])(C([H])([H])[H])C([H])([H])C([H])([H])C4(C([H])([H])[H])C([H])([H])C([H])([H])C32C([H])([H])[H])C1([H])O[H]

$$$$
91:0:0
     RDKit          3D

 45 49  0  0  1  0  0  0  0  0999 V2000
    3.5443   -0.0219    1.5380 C   0  0  0  0  0  0  0  0  0  0  0  0
    3.6220   -1.3525    1.6828 C   0  0  0  0  0  0  0  0  0  0  0  0
    4.4884   -2.2101    2.5682 C   0  0  0  0  0  0  0  0  0  0  0  0
    3.9490   -3.3773    1.6947 C   0  0  1  0  0  0  0  0  0  0  0  0
    3.3541   -4.6053    2.4506 C   0  0  1  0  0  0  0  0  0  0  0  0
    2.6858   -4.2183    3.6424 O   0  0  0  0  0  0  0  0  0  0  0  0
    2.3738   -5.3720    1.5468 C   0  0  0  0  0  0  0  0  0  0  0  0
    1.3255   -5.8621    1.9602 O   0  0  0  0  0  0  0  0  0  0  0  0
    2.7292   -5.4599    0.0678 C   0  0  0  0  0  0  0  0  0  0  0  0
    3.5603   -4.2716   -0.4861 C   0  0  1  0  0  0  0  0  0  0  0  0
    2.9783   -2.8092   -0.4397 C   0  0  1  0  0  0  0  0  0  0  0  0
    2.8452   -2.5014    1.0625 C   0  0  2  0  0  0  0  0  0  0  0  0
    4.0947   -1.9711   -0.9485 N   0  0  2  0  0  0  0  0  0  0  0  0
    3.9737   -1.6226   -2.3853 C   0  0  0  0  0  0  0  0  0  0  0  0
    5.2552   -2.8132   -0.5874 C   0  0  1  0  0  0  0  0  0  0  0  0
    6.5467   -2.2567   -0.0161 C   0  0  0  0  0  0  0  0  0  0  0  0
    7.1344   -3.5316    0.6433 C   0  0  0  0  0  0  0  0  0  0  0  0
    6.0503   -4.6508    0.5818 C   0  0  1  0  0  0  0  0  0  0  0  0
    6.0726   -5.4988    1.7150 O   0  0  0  0  0  0  0  0  0  0  0  0
    7.2108   -6.3397    1.8035 C   0  0  0  0  0  0  0  0  0  0  0  0
    4.7286   -3.8758    0.4049 C   0  0  1  0  0  0  0  0  0  0  0  0
    2.8232    0.4372    0.8776 H   0  0  0  0  0  0  0  0  0  0  0  0
    4.1890    0.6239    2.1172 H   0  0  0  0  0  0  0  0  0  0  0  0
    5.5673   -2.0954    2.5444 H   0  0  0  0  0  0  0  0  0  0  0  0
    4.1771   -2.2664    3.6105 H   0  0  0  0  0  0  0  0  0  0  0  0
    4.1198   -5.3065    2.7644 H   0  0  0  0  0  0  0  0  0  0  0  0
    2.0285   -3.5717    3.4279 H   0  0  0  0  0  0  0  0  0  0  0  0
    3.3109   -6.3735   -0.0535 H   0  0  0  0  0  0  0  0  0  0  0  0
    1.8152   -5.5982   -0.5114 H   0  0  0  0  0  0  0  0  0  0  0  0
    3.8623   -4.5383   -1.5010 H   0  0  0  0  0  0  0  0  0  0  0  0
    2.0563   -2.6830   -1.0014 H   0  0  0  0  0  0  0  0  0  0  0  0
    1.8519   -2.6720    1.4802 H   0  0  0  0  0  0  0  0  0  0  0  0
    3.8924   -2.5155   -3.0113 H   0  0  0  0  0  0  0  0  0  0  0  0
    4.8402   -1.0442   -2.7155 H   0  0  0  0  0  0  0  0  0  0  0  0
    3.0797   -1.0136   -2.5514 H   0  0  0  0  0  0  0  0  0  0  0  0
    5.5766   -3.3084   -1.5064 H   0  0  0  0  0  0  0  0  0  0  0  0
    7.2036   -1.8744   -0.7958 H   0  0  0  0  0  0  0  0  0  0  0  0
    6.3914   -1.4497    0.6975 H   0  0  0  0  0  0  0  0  0  0  0  0
    8.0457   -3.8522    0.1333 H   0  0  0  0  0  0  0  0  0  0  0  0
    7.4030   -3.3168    1.6754 H   0  0  0  0  0  0  0  0  0  0  0  0
    6.2051   -5.2473   -0.3186 H   0  0  0  0  0  0  0  0  0  0  0  0
    7.1110   -6.9754    2.6837 H   0  0  0  0  0  0  0  0  0  0  0  0
    8.1296   -5.7634    1.9132 H   0  0  0  0  0  0  0  0  0  0  0  0
    7.3021   -6.9870    0.9305 H   0  0  0  0  0  0  0  0  0  0  0  0
    4.0982   -1.1227   -0.3972 H   0  0  0  0  0  0  0  0  0  0  0  0
  1  2  2  0
  1 22  1  0
  1 23  1  0
  2 12  1  0
  2  3  1  0
  4  3  1  1
  3 24  1  0
  3 25  1  0
  4 12  1  0
 21  4  1  1
  4  5  1  0
  5  6  1  0
  5  7  1  0
  5 26  1  1
  6 27  1  0
  7  8  2  0
  7  9  1  0
  9 10  1  0
  9 28  1  0
  9 29  1  0
 10 21  1  0
 10 11  1  0
 10 30  1  6
 11 12  1  0
 11 13  1  0
 11 31  1  6
 12 32  1  1
 13 14  1  0
 13 15  1  0
 13 45  1  1
 14 33  1  0
 14 34  1  0
 14 35  1  0
 15 21  1  0
 15 16  1  0
 15 36  1  6
 16 17  1  0
 16 37  1  0
 16 38  1  0
 17 18  1  0
 17 39  1  0
 17 40  1  0
 18 19  1  0
 18 21  1  0
 18 41  1  6
 19 20  1  0
 20 42  1  0
 20 43  1  0
 20 44  1  0
M  CHG  1  13   1
M  END
>  <i_m_ct_stereo_status>  (309) 
1

>  <s_m_source_file>  (309) 
/var/tmp/pbs.5076255.sched01/tmp0kxp0nim/126xlotvanm.sdf

>  <i_m_source_file_index>  (309) 
7

>  <i_lp_mmshare_version>  (309) 
48012

>  <i_f3d_flags>  (309) 
0

>  <s_epik_input>  (309) 
W09IXVtDQEhdMUMoPU8pW0NIMl1bQ0BIXShbQ0BdMjNbQ0BAXTE0NSlbQ0BASF0oW0NAQEhdNUMoPVtDSDJdKVtDSDJdNClOKFtDSDNdKVtDQEhdMltDSDJdW0NIMl1bQ0BIXTNPW0NIM10=

>  <s_epik_cmdline>  (309) 
J2VwaWtfcHl0aG9uJywgJy1waHQnLCAnMi4wJywgJy1waCcsICc3LjAnLCAnLXRuJywgJzgnLCAnLW1hJywgJzIwMCcsICctaW1hZScsICc8aW5maWxlLm1hZT4nLCAnLW9tYWUnLCAnPG91dGZpbGUubWFlPic=

>  <r_lp_tautomer_probability>  (309) 
0.99995

>  <r_epik_Ionization_Penalty>  (309) 
0.00568621

>  <r_epik_Ionization_Penalty_Charging>  (309) 
0.00565815

>  <r_epik_Ionization_Penalty_Neutral>  (309) 
2.80592e-05

>  <r_epik_State_Penalty>  (309) 
0.00414825

>  <r_epik_Charging_Adjusted_Penalty>  (309) 
0.0098064

>  <i_epik_Tot_Q>  (309) 
1

>  <i_epik_Tot_abs_Q>  (309) 
1

>  <s_lp_Force_Field>  (309) 
OPLS3e

>  <r_lp_Energy>  (309) 
77.5841

>  <b_lp_Chiralities_Consistent>  (309) 
1

>  <s_lp_Variant>  (309) 
91:0-1

>  <s_i_glide_gridfile>  (309) 
pfpi4k_grid

>  <i_i_glide_lignum>  (309) 
7

>  <i_i_glide_rotatable_bonds>  (309) 
2

>  <r_i_docking_score>  (309) 
-3.3824

>  <r_i_glide_ligand_efficiency>  (309) 
-0.161067

>  <r_i_glide_ligand_efficiency_sa>  (309) 
-0.444371

>  <r_i_glide_ligand_efficiency_ln>  (309) 
-0.836292

>  <r_i_glide_gscore>  (309) 
-3.3824

>  <r_i_glide_lipo>  (309) 
-0.351908

>  <r_i_glide_hbond>  (309) 
-0.0604974

>  <r_i_glide_metal>  (309) 
-0

>  <r_i_glide_rewards>  (309) 
-1.42925

>  <r_i_glide_evdw>  (309) 
-16.2531

>  <r_i_glide_ecoul>  (309) 
-4.45036

>  <r_i_glide_erotb>  (309) 
0

>  <r_i_glide_esite>  (309) 
-0.0605419

>  <r_i_glide_emodel>  (309) 
-24.6986

>  <r_i_glide_energy>  (309) 
-20.7034

>  <r_i_glide_einternal>  (309) 
1.35204

>  <r_i_glide_intrahb_reward>  (309) 
-0

>  <i_i_glide_confnum>  (309) 
1

>  <i_i_glide_posenum>  (309) 
27

>  <r_i_glide_eff_state_penalty>  (309) 
0

>  <ligand_id>  (309) 
91

>  <original_smiles>  (309) 
C=C1CC23C(O)C(=O)CC4C(C12)N(C)C1CCC(OC)C413

>  <smiles>  (309) 
[H]OC1([H])C(=O)C([H])([H])C2([H])C34C([H])(OC([H])([H])[H])C([H])([H])C([H])([H])C3([H])[N+]([H])(C([H])([H])[H])C2([H])C2([H])C(=C([H])[H])C([H])([H])C124

$$$$
91:0:1
     RDKit          3D

 45 49  0  0  1  0  0  0  0  0999 V2000
    4.0173   -0.3956    2.0713 C   0  0  0  0  0  0  0  0  0  0  0  0
    3.9397   -1.7315    2.1050 C   0  0  0  0  0  0  0  0  0  0  0  0
    4.7031   -2.7596    2.9056 C   0  0  0  0  0  0  0  0  0  0  0  0
    4.0455   -3.7785    1.9344 C   0  0  1  0  0  0  0  0  0  0  0  0
    3.3106   -4.9986    2.5733 C   0  0  1  0  0  0  0  0  0  0  0  0
    2.6586   -4.6356    3.7815 O   0  0  0  0  0  0  0  0  0  0  0  0
    2.2551   -5.5786    1.6070 C   0  0  0  0  0  0  0  0  0  0  0  0
    1.1655   -6.0014    1.9727 O   0  0  0  0  0  0  0  0  0  0  0  0
    2.6189   -5.5724    0.1259 C   0  0  0  0  0  0  0  0  0  0  0  0
    3.5838   -4.4401   -0.3070 C   0  0  1  0  0  0  0  0  0  0  0  0
    3.1490   -2.9306   -0.1389 C   0  0  1  0  0  0  0  0  0  0  0  0
    3.0444   -2.7384    1.3884 C   0  0  2  0  0  0  0  0  0  0  0  0
    4.3545   -2.1711   -0.5840 N   0  0  2  0  0  0  0  0  0  0  0  0
    4.2908   -1.6909   -1.9891 C   0  0  0  0  0  0  0  0  0  0  0  0
    5.4257   -3.1591   -0.3045 C   0  0  1  0  0  0  0  0  0  0  0  0
    6.7798   -2.7800    0.2804 C   0  0  0  0  0  0  0  0  0  0  0  0
    7.2491   -4.1494    0.8294 C   0  0  0  0  0  0  0  0  0  0  0  0
    6.0357   -5.1390    0.7512 C   0  0  1  0  0  0  0  0  0  0  0  0
    5.9629   -6.1627    1.7408 O   0  0  0  0  0  0  0  0  0  0  0  0
    6.7319   -5.9692    2.9190 C   0  0  0  0  0  0  0  0  0  0  0  0
    4.7883   -4.2381    0.6129 C   0  0  1  0  0  0  0  0  0  0  0  0
    3.3602    0.1973    1.4440 H   0  0  0  0  0  0  0  0  0  0  0  0
    4.7296    0.1297    2.7022 H   0  0  0  0  0  0  0  0  0  0  0  0
    5.7874   -2.7553    2.8874 H   0  0  0  0  0  0  0  0  0  0  0  0
    4.3834   -2.8606    3.9391 H   0  0  0  0  0  0  0  0  0  0  0  0
    3.9916   -5.8013    2.8280 H   0  0  0  0  0  0  0  0  0  0  0  0
    3.3125   -4.3543    4.4075 H   0  0  0  0  0  0  0  0  0  0  0  0
    3.1124   -6.5258   -0.0567 H   0  0  0  0  0  0  0  0  0  0  0  0
    1.7041   -5.5576   -0.4696 H   0  0  0  0  0  0  0  0  0  0  0  0
    3.8448   -4.6508   -1.3438 H   0  0  0  0  0  0  0  0  0  0  0  0
    2.2343   -2.6712   -0.6761 H   0  0  0  0  0  0  0  0  0  0  0  0
    2.0347   -2.8394    1.7951 H   0  0  0  0  0  0  0  0  0  0  0  0
    4.1220   -2.5251   -2.6831 H   0  0  0  0  0  0  0  0  0  0  0  0
    5.2324   -1.1871   -2.2537 H   0  0  0  0  0  0  0  0  0  0  0  0
    3.4658   -0.9696   -2.0912 H   0  0  0  0  0  0  0  0  0  0  0  0
    5.6828   -3.6207   -1.2589 H   0  0  0  0  0  0  0  0  0  0  0  0
    7.4610   -2.3740   -0.4711 H   0  0  0  0  0  0  0  0  0  0  0  0
    6.6849   -2.0456    1.0723 H   0  0  0  0  0  0  0  0  0  0  0  0
    8.0903   -4.5362    0.2457 H   0  0  0  0  0  0  0  0  0  0  0  0
    7.5925   -3.9810    1.8459 H   0  0  0  0  0  0  0  0  0  0  0  0
    6.1062   -5.6878   -0.1886 H   0  0  0  0  0  0  0  0  0  0  0  0
    6.5516   -6.7545    3.6336 H   0  0  0  0  0  0  0  0  0  0  0  0
    6.4818   -5.0165    3.3952 H   0  0  0  0  0  0  0  0  0  0  0  0
    7.8015   -5.9559    2.6694 H   0  0  0  0  0  0  0  0  0  0  0  0
    4.4548   -1.3879    0.0464 H   0  0  0  0  0  0  0  0  0  0  0  0
  1  2  2  0
  1 22  1  0
  1 23  1  0
  2 12  1  0
  2  3  1  0
  4  3  1  1
  3 24  1  0
  3 25  1  0
  4 12  1  0
 21  4  1  1
  4  5  1  0
  5  6  1  0
  5  7  1  0
  5 26  1  1
  6 27  1  0
  7  8  2  0
  7  9  1  0
  9 10  1  0
  9 28  1  0
  9 29  1  0
 10 21  1  0
 10 11  1  0
 10 30  1  6
 11 12  1  0
 11 13  1  0
 11 31  1  6
 12 32  1  1
 13 14  1  0
 13 15  1  0
 13 45  1  1
 14 33  1  0
 14 34  1  0
 14 35  1  0
 15 21  1  0
 15 16  1  0
 15 36  1  6
 16 17  1  0
 16 37  1  0
 16 38  1  0
 17 18  1  0
 17 39  1  0
 17 40  1  0
 18 19  1  0
 18 21  1  0
 18 41  1  6
 19 20  1  0
 20 42  1  0
 20 43  1  0
 20 44  1  0
M  CHG  1  13   1
M  END
>  <i_m_ct_stereo_status>  (310) 
1

>  <s_m_source_file>  (310) 
/var/tmp/pbs.5076255.sched01/tmp0kxp0nim/126xlotvanm.sdf

>  <i_m_source_file_index>  (310) 
7

>  <i_lp_mmshare_version>  (310) 
48012

>  <i_f3d_flags>  (310) 
0

>  <s_epik_input>  (310) 
W09IXVtDQEhdMUMoPU8pW0NIMl1bQ0BIXShbQ0BdMjNbQ0BAXTE0NSlbQ0BASF0oW0NAQEhdNUMoPVtDSDJdKVtDSDJdNClOKFtDSDNdKVtDQEhdMltDSDJdW0NIMl1bQ0BIXTNPW0NIM10=

>  <s_epik_cmdline>  (310) 
J2VwaWtfcHl0aG9uJywgJy1waHQnLCAnMi4wJywgJy1waCcsICc3LjAnLCAnLXRuJywgJzgnLCAnLW1hJywgJzIwMCcsICctaW1hZScsICc8aW5maWxlLm1hZT4nLCAnLW9tYWUnLCAnPG91dGZpbGUubWFlPic=

>  <r_lp_tautomer_probability>  (310) 
0.99995

>  <r_epik_Ionization_Penalty>  (310) 
0.00568621

>  <r_epik_Ionization_Penalty_Charging>  (310) 
0.00565815

>  <r_epik_Ionization_Penalty_Neutral>  (310) 
2.80592e-05

>  <r_epik_State_Penalty>  (310) 
0.00414825

>  <r_epik_Charging_Adjusted_Penalty>  (310) 
0.0098064

>  <i_epik_Tot_Q>  (310) 
1

>  <i_epik_Tot_abs_Q>  (310) 
1

>  <s_lp_Force_Field>  (310) 
OPLS3e

>  <r_lp_Energy>  (310) 
77.5841

>  <b_lp_Chiralities_Consistent>  (310) 
1

>  <s_lp_Variant>  (310) 
91:0-1

>  <s_i_glide_gridfile>  (310) 
pfpi4k_grid

>  <i_i_glide_lignum>  (310) 
7

>  <i_i_glide_rotatable_bonds>  (310) 
2

>  <r_i_docking_score>  (310) 
-3.36229

>  <r_i_glide_ligand_efficiency>  (310) 
-0.160109

>  <r_i_glide_ligand_efficiency_sa>  (310) 
-0.441729

>  <r_i_glide_ligand_efficiency_ln>  (310) 
-0.831319

>  <r_i_glide_gscore>  (310) 
-3.36229

>  <r_i_glide_lipo>  (310) 
-0.527703

>  <r_i_glide_hbond>  (310) 
-0.0677657

>  <r_i_glide_metal>  (310) 
-0

>  <r_i_glide_rewards>  (310) 
-1.42925

>  <r_i_glide_evdw>  (310) 
-15.1223

>  <r_i_glide_ecoul>  (310) 
-3.53981

>  <r_i_glide_erotb>  (310) 
0

>  <r_i_glide_esite>  (310) 
-0.0504922

>  <r_i_glide_emodel>  (310) 
-17.4113

>  <r_i_glide_energy>  (310) 
-18.6621

>  <r_i_glide_einternal>  (310) 
11.3249

>  <r_i_glide_intrahb_reward>  (310) 
-0

>  <i_i_glide_confnum>  (310) 
1

>  <i_i_glide_posenum>  (310) 
15

>  <r_i_glide_eff_state_penalty>  (310) 
0

>  <ligand_id>  (310) 
91

>  <original_smiles>  (310) 
C=C1CC23C(O)C(=O)CC4C(C12)N(C)C1CCC(OC)C413

>  <smiles>  (310) 
[H]OC1([H])C(=O)C([H])([H])C2([H])C34C([H])(OC([H])([H])[H])C([H])([H])C([H])([H])C3([H])[N+]([H])(C([H])([H])[H])C2([H])C2([H])C(=C([H])[H])C([H])([H])C124

$$$$
91:0:2
     RDKit          3D

 45 49  0  0  1  0  0  0  0  0999 V2000
    3.0755    0.1170    1.2947 C   0  0  0  0  0  0  0  0  0  0  0  0
    3.3829   -1.1549    1.5943 C   0  0  0  0  0  0  0  0  0  0  0  0
    4.4800   -1.7420    2.4413 C   0  0  0  0  0  0  0  0  0  0  0  0
    4.0179   -3.0891    1.8202 C   0  0  1  0  0  0  0  0  0  0  0  0
    3.7272   -4.2640    2.8030 C   0  0  1  0  0  0  0  0  0  0  0  0
    3.1417   -3.7904    4.0036 O   0  0  0  0  0  0  0  0  0  0  0  0
    2.7717   -5.2887    2.1643 C   0  0  0  0  0  0  0  0  0  0  0  0
    1.8977   -5.8737    2.7980 O   0  0  0  0  0  0  0  0  0  0  0  0
    2.9350   -5.5513    0.6718 C   0  0  0  0  0  0  0  0  0  0  0  0
    3.4912   -4.3480   -0.1310 C   0  0  1  0  0  0  0  0  0  0  0  0
    2.6962   -2.9887   -0.1962 C   0  0  1  0  0  0  0  0  0  0  0  0
    2.7171   -2.4767    1.2557 C   0  0  2  0  0  0  0  0  0  0  0  0
    3.5927   -2.0987   -0.9767 N   0  0  2  0  0  0  0  0  0  0  0  0
    3.2372   -1.9937   -2.4127 C   0  0  0  0  0  0  0  0  0  0  0  0
    4.9065   -2.7061   -0.6852 C   0  0  1  0  0  0  0  0  0  0  0  0
    6.1527   -1.8938   -0.3973 C   0  0  0  0  0  0  0  0  0  0  0  0
    7.0252   -2.9558    0.3235 C   0  0  0  0  0  0  0  0  0  0  0  0
    6.1347   -4.2119    0.5745 C   0  0  1  0  0  0  0  0  0  0  0  0
    6.4348   -4.8738    1.7896 O   0  0  0  0  0  0  0  0  0  0  0  0
    7.6929   -5.5274    1.8136 C   0  0  0  0  0  0  0  0  0  0  0  0
    4.6910   -3.6658    0.5077 C   0  0  1  0  0  0  0  0  0  0  0  0
    2.2064    0.3548    0.6997 H   0  0  0  0  0  0  0  0  0  0  0  0
    3.6774    0.9347    1.6707 H   0  0  0  0  0  0  0  0  0  0  0  0
    5.5154   -1.4825    2.2384 H   0  0  0  0  0  0  0  0  0  0  0  0
    4.3163   -1.6738    3.5157 H   0  0  0  0  0  0  0  0  0  0  0  0
    4.6272   -4.7954    3.0944 H   0  0  0  0  0  0  0  0  0  0  0  0
    3.7595   -3.2241    4.4421 H   0  0  0  0  0  0  0  0  0  0  0  0
    3.6316   -6.3864    0.5852 H   0  0  0  0  0  0  0  0  0  0  0  0
    1.9870   -5.8994    0.2579 H   0  0  0  0  0  0  0  0  0  0  0  0
    3.7120   -4.7260   -1.1214 H   0  0  0  0  0  0  0  0  0  0  0  0
    1.7003   -3.0669   -0.6248 H   0  0  0  0  0  0  0  0  0  0  0  0
    1.8319   -2.7248    1.8427 H   0  0  0  0  0  0  0  0  0  0  0  0
    3.2178   -2.9710   -2.8997 H   0  0  0  0  0  0  0  0  0  0  0  0
    3.9493   -1.3582   -2.9437 H   0  0  0  0  0  0  0  0  0  0  0  0
    2.2483   -1.5459   -2.5285 H   0  0  0  0  0  0  0  0  0  0  0  0
    5.1824   -3.2839   -1.5728 H   0  0  0  0  0  0  0  0  0  0  0  0
    6.6107   -1.5501   -1.3206 H   0  0  0  0  0  0  0  0  0  0  0  0
    5.9709   -1.0158    0.2212 H   0  0  0  0  0  0  0  0  0  0  0  0
    7.9040   -3.2216   -0.2702 H   0  0  0  0  0  0  0  0  0  0  0  0
    7.3922   -2.5481    1.2644 H   0  0  0  0  0  0  0  0  0  0  0  0
    6.2682   -4.9083   -0.2580 H   0  0  0  0  0  0  0  0  0  0  0  0
    7.8087   -6.0285    2.7743 H   0  0  0  0  0  0  0  0  0  0  0  0
    8.5164   -4.8205    1.7053 H   0  0  0  0  0  0  0  0  0  0  0  0
    7.7683   -6.2833    1.0311 H   0  0  0  0  0  0  0  0  0  0  0  0
    3.5284   -1.1809   -0.5561 H   0  0  0  0  0  0  0  0  0  0  0  0
  1  2  2  0
  1 22  1  0
  1 23  1  0
  2 12  1  0
  2  3  1  0
  4  3  1  1
  3 24  1  0
  3 25  1  0
  4 12  1  0
 21  4  1  1
  4  5  1  0
  5  6  1  0
  5  7  1  0
  5 26  1  1
  6 27  1  0
  7  8  2  0
  7  9  1  0
  9 10  1  0
  9 28  1  0
  9 29  1  0
 10 21  1  0
 10 11  1  0
 10 30  1  6
 11 12  1  0
 11 13  1  0
 11 31  1  6
 12 32  1  1
 13 14  1  0
 13 15  1  0
 13 45  1  1
 14 33  1  0
 14 34  1  0
 14 35  1  0
 15 21  1  0
 15 16  1  0
 15 36  1  6
 16 17  1  0
 16 37  1  0
 16 38  1  0
 17 18  1  0
 17 39  1  0
 17 40  1  0
 18 19  1  0
 18 21  1  0
 18 41  1  6
 19 20  1  0
 20 42  1  0
 20 43  1  0
 20 44  1  0
M  CHG  1  13   1
M  END
>  <i_m_ct_stereo_status>  (311) 
1

>  <s_m_source_file>  (311) 
/var/tmp/pbs.5076255.sched01/tmp0kxp0nim/126xlotvanm.sdf

>  <i_m_source_file_index>  (311) 
7

>  <i_lp_mmshare_version>  (311) 
48012

>  <i_f3d_flags>  (311) 
0

>  <s_epik_input>  (311) 
W09IXVtDQEhdMUMoPU8pW0NIMl1bQ0BIXShbQ0BdMjNbQ0BAXTE0NSlbQ0BASF0oW0NAQEhdNUMoPVtDSDJdKVtDSDJdNClOKFtDSDNdKVtDQEhdMltDSDJdW0NIMl1bQ0BIXTNPW0NIM10=

>  <s_epik_cmdline>  (311) 
J2VwaWtfcHl0aG9uJywgJy1waHQnLCAnMi4wJywgJy1waCcsICc3LjAnLCAnLXRuJywgJzgnLCAnLW1hJywgJzIwMCcsICctaW1hZScsICc8aW5maWxlLm1hZT4nLCAnLW9tYWUnLCAnPG91dGZpbGUubWFlPic=

>  <r_lp_tautomer_probability>  (311) 
0.99995

>  <r_epik_Ionization_Penalty>  (311) 
0.00568621

>  <r_epik_Ionization_Penalty_Charging>  (311) 
0.00565815

>  <r_epik_Ionization_Penalty_Neutral>  (311) 
2.80592e-05

>  <r_epik_State_Penalty>  (311) 
0.00414825

>  <r_epik_Charging_Adjusted_Penalty>  (311) 
0.0098064

>  <i_epik_Tot_Q>  (311) 
1

>  <i_epik_Tot_abs_Q>  (311) 
1

>  <s_lp_Force_Field>  (311) 
OPLS3e

>  <r_lp_Energy>  (311) 
77.5841

>  <b_lp_Chiralities_Consistent>  (311) 
1

>  <s_lp_Variant>  (311) 
91:0-1

>  <s_i_glide_gridfile>  (311) 
pfpi4k_grid

>  <i_i_glide_lignum>  (311) 
7

>  <i_i_glide_rotatable_bonds>  (311) 
2

>  <r_i_docking_score>  (311) 
-3.11474

>  <r_i_glide_ligand_efficiency>  (311) 
-0.148321

>  <r_i_glide_ligand_efficiency_sa>  (311) 
-0.409207

>  <r_i_glide_ligand_efficiency_ln>  (311) 
-0.770114

>  <r_i_glide_gscore>  (311) 
-3.11474

>  <r_i_glide_lipo>  (311) 
-0.348453

>  <r_i_glide_hbond>  (311) 
0

>  <r_i_glide_metal>  (311) 
-0

>  <r_i_glide_rewards>  (311) 
-1.42925

>  <r_i_glide_evdw>  (311) 
-16.7968

>  <r_i_glide_ecoul>  (311) 
-2.84069

>  <r_i_glide_erotb>  (311) 
0

>  <r_i_glide_esite>  (311) 
-0.0711016

>  <r_i_glide_emodel>  (311) 
-23.9288

>  <r_i_glide_energy>  (311) 
-19.6375

>  <r_i_glide_einternal>  (311) 
0.000333172

>  <r_i_glide_intrahb_reward>  (311) 
-0

>  <i_i_glide_confnum>  (311) 
2

>  <i_i_glide_posenum>  (311) 
13

>  <r_i_glide_eff_state_penalty>  (311) 
0

>  <ligand_id>  (311) 
91

>  <original_smiles>  (311) 
C=C1CC23C(O)C(=O)CC4C(C12)N(C)C1CCC(OC)C413

>  <smiles>  (311) 
[H]OC1([H])C(=O)C([H])([H])C2([H])C34C([H])(OC([H])([H])[H])C([H])([H])C([H])([H])C3([H])[N+]([H])(C([H])([H])[H])C2([H])C2([H])C(=C([H])[H])C([H])([H])C124

$$$$
94:0:0
     RDKit          3D

 69 75  0  0  1  0  0  0  0  0999 V2000
    1.8040   -3.7867   -1.7688 C   0  0  0  0  0  0  0  0  0  0  0  0
    2.3779   -4.1986   -0.5340 O   0  0  0  0  0  0  0  0  0  0  0  0
    2.8561   -3.1694    0.3178 C   0  0  2  0  0  0  0  0  0  0  0  0
    3.8377   -2.2642   -0.4880 C   0  0  0  0  0  0  0  0  0  0  0  0
    4.6107   -1.2149    0.3145 C   0  0  0  0  0  0  0  0  0  0  0  0
    5.0669   -1.7385    1.6667 C   0  0  0  0  0  0  0  0  0  0  0  0
    6.1746   -1.3965    2.0986 O   0  0  0  0  0  0  0  0  0  0  0  0
    4.0666   -2.6172    2.4799 C   0  0  2  0  0  0  0  0  0  0  0  0
    2.9238   -1.5312    2.7202 C   0  0  0  0  0  0  0  0  0  0  0  0
    4.7162   -3.2620    3.8080 C   0  0  1  0  0  0  0  0  0  0  0  0
    4.3905   -2.1177    4.8550 C   0  0  2  0  0  0  0  0  0  0  0  0
    4.3129   -2.1398    6.2752 O   0  0  0  0  0  0  0  0  0  0  0  0
    3.0416   -1.9088    5.6184 C   0  0  2  0  0  0  0  0  0  0  0  0
    2.1009   -2.9462    6.0008 O   0  0  0  0  0  0  0  0  0  0  0  0
    1.4568   -3.9148    5.1729 C   0  0  1  0  0  0  0  0  0  0  0  0
    0.3786   -3.3544    4.4516 O   0  0  0  0  0  0  0  0  0  0  0  0
    2.4910   -4.7203    4.3032 C   0  0  1  0  0  0  0  0  0  0  0  0
    2.4464   -6.2347    4.2920 C   0  0  0  0  0  0  0  0  0  0  0  0
    3.9617   -6.3276    3.8125 C   0  0  1  0  0  0  0  0  0  0  0  0
    4.2626   -7.5070    2.8459 C   0  0  2  0  0  0  0  0  0  0  0  0
    4.6106   -7.7474    1.3865 C   0  0  1  0  0  0  0  0  0  0  0  0
    5.1448   -9.0417    1.1800 O   0  0  0  0  0  0  0  0  0  0  0  0
    3.1593   -7.7292    1.7887 C   0  0  1  0  0  0  0  0  0  0  0  0
    2.3438   -9.0170    1.8813 C   0  0  0  0  0  0  0  0  0  0  0  0
    2.3024   -6.6201    1.1492 C   0  0  0  0  0  0  0  0  0  0  0  0
    1.7022   -5.5235    1.8907 O   0  0  0  0  0  0  0  0  0  0  0  0
    2.4276   -4.4895    2.6125 C   0  0  2  0  0  0  0  0  0  0  0  0
    3.5110   -3.7696    1.6397 C   0  0  1  0  0  0  0  0  0  0  0  0
    4.7460   -4.5906    1.1302 C   0  0  0  0  0  0  0  0  0  0  0  0
    4.8094   -4.9218    4.2137 C   0  0  1  0  0  0  0  0  0  0  0  0
    6.2146   -5.2723    4.7595 C   0  0  0  0  0  0  0  0  0  0  0  0
    3.7946   -4.8275    5.2415 C   0  0  1  0  0  0  0  0  0  0  0  0
    4.0746   -4.4981    6.5885 O   0  0  0  0  0  0  0  0  0  0  0  0
    1.4129   -4.6623   -2.2736 H   0  0  0  0  0  0  0  0  0  0  0  0
    2.5319   -3.3929   -2.4755 H   0  0  0  0  0  0  0  0  0  0  0  0
    0.9849   -3.0719   -1.6484 H   0  0  0  0  0  0  0  0  0  0  0  0
    1.9535   -2.6083    0.5490 H   0  0  0  0  0  0  0  0  0  0  0  0
    4.5424   -2.8968   -1.0272 H   0  0  0  0  0  0  0  0  0  0  0  0
    3.2893   -1.7097   -1.2493 H   0  0  0  0  0  0  0  0  0  0  0  0
    5.4642   -0.8791   -0.2676 H   0  0  0  0  0  0  0  0  0  0  0  0
    3.9854   -0.3350    0.4620 H   0  0  0  0  0  0  0  0  0  0  0  0
    2.0842   -1.8754    3.3051 H   0  0  0  0  0  0  0  0  0  0  0  0
    2.4746   -1.1245    1.8233 H   0  0  0  0  0  0  0  0  0  0  0  0
    3.2915   -0.6184    3.1878 H   0  0  0  0  0  0  0  0  0  0  0  0
    5.7856   -3.1158    3.6765 H   0  0  0  0  0  0  0  0  0  0  0  0
    4.8822   -1.1955    4.5545 H   0  0  0  0  0  0  0  0  0  0  0  0
    2.6448   -0.8969    5.7778 H   0  0  0  0  0  0  0  0  0  0  0  0
    0.9926   -4.5962    5.8835 H   0  0  0  0  0  0  0  0  0  0  0  0
    0.7432   -2.7733    3.8055 H   0  0  0  0  0  0  0  0  0  0  0  0
    2.2403   -6.6935    5.2628 H   0  0  0  0  0  0  0  0  0  0  0  0
    1.6807   -6.7282    3.7047 H   0  0  0  0  0  0  0  0  0  0  0  0
    4.3564   -6.9660    4.6129 H   0  0  0  0  0  0  0  0  0  0  0  0
    4.4786   -8.4097    3.4180 H   0  0  0  0  0  0  0  0  0  0  0  0
    5.0873   -7.0275    0.7492 H   0  0  0  0  0  0  0  0  0  0  0  0
    4.4766   -9.7009    1.2968 H   0  0  0  0  0  0  0  0  0  0  0  0
    2.0082   -9.3353    0.8938 H   0  0  0  0  0  0  0  0  0  0  0  0
    1.4657   -8.8708    2.5127 H   0  0  0  0  0  0  0  0  0  0  0  0
    2.9279   -9.8289    2.3134 H   0  0  0  0  0  0  0  0  0  0  0  0
    2.8551   -6.2737    0.2916 H   0  0  0  0  0  0  0  0  0  0  0  0
    1.4436   -7.1031    0.6766 H   0  0  0  0  0  0  0  0  0  0  0  0
    1.6245   -3.7799    2.5189 H   0  0  0  0  0  0  0  0  0  0  0  0
    5.1986   -5.2407    1.8591 H   0  0  0  0  0  0  0  0  0  0  0  0
    5.5981   -4.0011    0.8042 H   0  0  0  0  0  0  0  0  0  0  0  0
    4.5273   -5.1248    0.2157 H   0  0  0  0  0  0  0  0  0  0  0  0
    6.2191   -6.1762    5.3727 H   0  0  0  0  0  0  0  0  0  0  0  0
    6.6083   -4.4700    5.3852 H   0  0  0  0  0  0  0  0  0  0  0  0
    6.9136   -5.4380    3.9389 H   0  0  0  0  0  0  0  0  0  0  0  0
    3.7890   -5.6947    5.9154 H   0  0  0  0  0  0  0  0  0  0  0  0
    4.1609   -3.5465    6.6355 H   0  0  0  0  0  0  0  0  0  0  0  0
  1  2  1  0
  1 34  1  0
  1 35  1  0
  1 36  1  0
  2  3  1  0
  3 28  1  0
  3  4  1  0
  3 37  1  1
  4  5  1  0
  4 38  1  0
  4 39  1  0
  5  6  1  0
  5 40  1  0
  5 41  1  0
  6  7  2  0
  6  8  1  0
  8 28  1  0
  8  9  1  1
  8 10  1  0
  9 42  1  0
  9 43  1  0
  9 44  1  0
 10 30  1  0
 10 11  1  0
 10 45  1  6
 11 13  1  0
 11 12  1  0
 11 46  1  1
 12 13  1  0
 13 14  1  0
 13 47  1  1
 14 15  1  0
 15 16  1  0
 15 17  1  0
 15 48  1  1
 16 49  1  0
 17 27  1  0
 17 32  1  0
 17 18  1  6
 18 19  1  0
 18 50  1  0
 18 51  1  0
 19 20  1  0
 19 30  1  0
 19 52  1  1
 20 23  1  0
 20 21  1  0
 20 53  1  1
 21 22  1  0
 21 23  1  0
 21 54  1  6
 22 55  1  0
 23 24  1  1
 23 25  1  0
 24 56  1  0
 24 57  1  0
 24 58  1  0
 25 26  1  0
 25 59  1  0
 25 60  1  0
 26 27  1  0
 27 28  1  0
 27 61  1  1
 28 29  1  6
 29 62  1  0
 29 63  1  0
 29 64  1  0
 30 31  1  1
 30 32  1  0
 31 65  1  0
 31 66  1  0
 31 67  1  0
 32 33  1  0
 32 68  1  1
 33 69  1  0
M  END
>  <i_m_ct_stereo_status>  (312) 
1

>  <s_m_source_file>  (312) 
/var/tmp/pbs.5076255.sched01/tmp0kxp0nim/126xlotvanm.sdf

>  <i_m_source_file_index>  (312) 
10

>  <i_lp_mmshare_version>  (312) 
48012

>  <i_f3d_flags>  (312) 
0

>  <s_epik_input>  (312) 
W0NIM11PW0NAQEhdMVtDSDJdW0NIMl1DKD1PKVtDQEBdKFtDSDNdKShbQ0BdMShbQ0BASF0yW0NAQF0zNDUpW0NIM10pW0NAQEhdKFtDQEhdNltDQEhdKE82KU9bQ0BIXTNbT0hdKVtDQEBdKFtDSDNdKShbQ0BIXTVbT0hdKVtDQEBIXShbQ0gyXTQpW0NASF03W0NAQF0oW0NIM10pKFtDSDJdTzIpW0NAQEhdN1tPSF0=

>  <s_epik_cmdline>  (312) 
J2VwaWtfcHl0aG9uJywgJy1waHQnLCAnMi4wJywgJy1waCcsICc3LjAnLCAnLXRuJywgJzgnLCAnLW1hJywgJzIwMCcsICctaW1hZScsICc8aW5maWxlLm1hZT4nLCAnLW9tYWUnLCAnPG91dGZpbGUubWFlPic=

>  <r_lp_tautomer_probability>  (312) 
1

>  <r_epik_Ionization_Penalty>  (312) 
8.84483e-07

>  <r_epik_Ionization_Penalty_Charging>  (312) 
0

>  <r_epik_Ionization_Penalty_Neutral>  (312) 
8.84483e-07

>  <r_epik_State_Penalty>  (312) 
-0

>  <r_epik_Charging_Adjusted_Penalty>  (312) 
0

>  <i_epik_Tot_Q>  (312) 
0

>  <i_epik_Tot_abs_Q>  (312) 
0

>  <s_epik_Chemistry_Notes>  (312) 
This compound contains an acetal/aminal-like group ( X-CH(R)-Y where X, Y are N, S, or O) that may be acid/base labile, releasing an aldehyde.

>  <s_lp_Force_Field>  (312) 
OPLS3e

>  <r_lp_Energy>  (312) 
332.249

>  <b_lp_Chiralities_Consistent>  (312) 
1

>  <s_lp_Variant>  (312) 
94:0-1

>  <s_i_glide_gridfile>  (312) 
pfpi4k_grid

>  <i_i_glide_lignum>  (312) 
10

>  <i_i_glide_rotatable_bonds>  (312) 
4

>  <r_i_docking_score>  (312) 
-2.67074

>  <r_i_glide_ligand_efficiency>  (312) 
-0.0809314

>  <r_i_glide_ligand_efficiency_sa>  (312) 
-0.25959

>  <r_i_glide_ligand_efficiency_ln>  (312) 
-0.593958

>  <r_i_glide_gscore>  (312) 
-2.67074

>  <r_i_glide_lipo>  (312) 
-0.164754

>  <r_i_glide_hbond>  (312) 
-0.0322326

>  <r_i_glide_metal>  (312) 
-0

>  <r_i_glide_rewards>  (312) 
-0.84102

>  <r_i_glide_evdw>  (312) 
-20.0768

>  <r_i_glide_ecoul>  (312) 
-4.1926

>  <r_i_glide_erotb>  (312) 
0

>  <r_i_glide_esite>  (312) 
0

>  <r_i_glide_emodel>  (312) 
-32.7657

>  <r_i_glide_energy>  (312) 
-24.2694

>  <r_i_glide_einternal>  (312) 
1.37628

>  <r_i_glide_intrahb_reward>  (312) 
-0.5

>  <i_i_glide_confnum>  (312) 
2

>  <i_i_glide_posenum>  (312) 
4

>  <r_i_glide_eff_state_penalty>  (312) 
0

>  <ligand_id>  (312) 
94

>  <original_smiles>  (312) 
COC1CCC(=O)C2(C)C3C4OC4OC(O)C45CC(C6C(O)C6(C)COC4C12C)C3(C)C5O

>  <smiles>  (312) 
[H]OC1([H])OC2([H])OC2([H])C2([H])C3(C([H])([H])[H])C(=O)C([H])([H])C([H])([H])C([H])(OC([H])([H])[H])C3(C([H])([H])[H])C3([H])OC([H])([H])C4(C([H])([H])[H])C([H])(O[H])C4([H])C4([H])C([H])([H])C13C([H])(O[H])C42C([H])([H])[H]

$$$$
94:0:1
     RDKit          3D

 69 75  0  0  1  0  0  0  0  0999 V2000
    2.3785   -3.4001   -2.3597 C   0  0  0  0  0  0  0  0  0  0  0  0
    2.9172   -3.7696   -1.0914 O   0  0  0  0  0  0  0  0  0  0  0  0
    3.4626   -2.7202   -0.2989 C   0  0  2  0  0  0  0  0  0  0  0  0
    4.6548   -2.0890   -1.0799 C   0  0  0  0  0  0  0  0  0  0  0  0
    5.4827   -1.0669   -0.3027 C   0  0  0  0  0  0  0  0  0  0  0  0
    5.6847   -1.4507    1.1482 C   0  0  0  0  0  0  0  0  0  0  0  0
    6.7500   -1.1693    1.6833 O   0  0  0  0  0  0  0  0  0  0  0  0
    4.4932   -2.0663    1.9253 C   0  0  2  0  0  0  0  0  0  0  0  0
    3.5352   -0.7950    1.8949 C   0  0  0  0  0  0  0  0  0  0  0  0
    4.8969   -2.6121    3.3880 C   0  0  1  0  0  0  0  0  0  0  0  0
    4.6631   -1.3021    4.2510 C   0  0  2  0  0  0  0  0  0  0  0  0
    4.4271   -1.1257    5.6433 O   0  0  0  0  0  0  0  0  0  0  0  0
    3.2911   -0.7984    4.8064 C   0  0  2  0  0  0  0  0  0  0  0  0
    2.1627   -1.6279    5.1751 O   0  0  0  0  0  0  0  0  0  0  0  0
    1.4750   -2.6025    4.3905 C   0  0  1  0  0  0  0  0  0  0  0  0
    0.6063   -2.0067    3.4562 O   0  0  0  0  0  0  0  0  0  0  0  0
    2.4475   -3.6603    3.7663 C   0  0  1  0  0  0  0  0  0  0  0  0
    2.1529   -5.1353    3.9313 C   0  0  0  0  0  0  0  0  0  0  0  0
    3.6768   -5.5101    3.6578 C   0  0  1  0  0  0  0  0  0  0  0  0
    3.8957   -6.8378    2.8767 C   0  0  2  0  0  0  0  0  0  0  0  0
    4.3671   -7.3100    1.5108 C   0  0  1  0  0  0  0  0  0  0  0  0
    4.7008   -8.6802    1.4926 O   0  0  0  0  0  0  0  0  0  0  0  0
    2.9039   -7.0414    1.7123 C   0  0  1  0  0  0  0  0  0  0  0  0
    1.8747   -8.1619    1.8559 C   0  0  0  0  0  0  0  0  0  0  0  0
    2.3225   -5.9246    0.8407 C   0  0  0  0  0  0  0  0  0  0  0  0
    1.8270   -4.6877    1.4015 O   0  0  0  0  0  0  0  0  0  0  0  0
    2.6079   -3.6595    2.0653 C   0  0  2  0  0  0  0  0  0  0  0  0
    3.8779   -3.2288    1.1564 C   0  0  1  0  0  0  0  0  0  0  0  0
    5.0226   -4.2720    0.9085 C   0  0  0  0  0  0  0  0  0  0  0  0
    4.6852   -4.1992    3.9975 C   0  0  1  0  0  0  0  0  0  0  0  0
    5.9447   -4.6812    4.7572 C   0  0  0  0  0  0  0  0  0  0  0  0
    3.5978   -3.8238    4.8712 C   0  0  1  0  0  0  0  0  0  0  0  0
    3.7743   -3.3565    6.1942 O   0  0  0  0  0  0  0  0  0  0  0  0
    1.8758   -4.2536   -2.8098 H   0  0  0  0  0  0  0  0  0  0  0  0
    3.1538   -3.0900   -3.0635 H   0  0  0  0  0  0  0  0  0  0  0  0
    1.6341   -2.6105   -2.2850 H   0  0  0  0  0  0  0  0  0  0  0  0
    2.6499   -2.0008   -0.2320 H   0  0  0  0  0  0  0  0  0  0  0  0
    5.3108   -2.8831   -1.4388 H   0  0  0  0  0  0  0  0  0  0  0  0
    4.2982   -1.5759   -1.9733 H   0  0  0  0  0  0  0  0  0  0  0  0
    6.4519   -0.9686   -0.7735 H   0  0  0  0  0  0  0  0  0  0  0  0
    5.0099   -0.0880   -0.3386 H   0  0  0  0  0  0  0  0  0  0  0  0
    2.5922   -0.9263    2.4034 H   0  0  0  0  0  0  0  0  0  0  0  0
    3.2606   -0.4426    0.9080 H   0  0  0  0  0  0  0  0  0  0  0  0
    4.0029    0.1044    2.3004 H   0  0  0  0  0  0  0  0  0  0  0  0
    5.9801   -2.6458    3.3582 H   0  0  0  0  0  0  0  0  0  0  0  0
    5.3298   -0.5114    3.9138 H   0  0  0  0  0  0  0  0  0  0  0  0
    3.0444    0.2740    4.7936 H   0  0  0  0  0  0  0  0  0  0  0  0
    0.8253   -3.0943    5.1079 H   0  0  0  0  0  0  0  0  0  0  0  0
    1.1120   -1.7337    2.7129 H   0  0  0  0  0  0  0  0  0  0  0  0
    1.7752   -5.4201    4.9156 H   0  0  0  0  0  0  0  0  0  0  0  0
    1.3819   -5.5897    3.3199 H   0  0  0  0  0  0  0  0  0  0  0  0
    3.8757   -6.0876    4.5687 H   0  0  0  0  0  0  0  0  0  0  0  0
    3.8971   -7.6794    3.5700 H   0  0  0  0  0  0  0  0  0  0  0  0
    5.0067   -6.7540    0.8552 H   0  0  0  0  0  0  0  0  0  0  0  0
    3.9659   -9.2002    1.7756 H   0  0  0  0  0  0  0  0  0  0  0  0
    1.5918   -8.5567    0.8790 H   0  0  0  0  0  0  0  0  0  0  0  0
    0.9669   -7.7975    2.3441 H   0  0  0  0  0  0  0  0  0  0  0  0
    2.2660   -8.9896    2.4474 H   0  0  0  0  0  0  0  0  0  0  0  0
    3.0056   -5.7762    0.0219 H   0  0  0  0  0  0  0  0  0  0  0  0
    1.4485   -6.3275    0.3251 H   0  0  0  0  0  0  0  0  0  0  0  0
    1.9432   -2.8673    1.7745 H   0  0  0  0  0  0  0  0  0  0  0  0
    5.2803   -4.8779    1.7610 H   0  0  0  0  0  0  0  0  0  0  0  0
    5.9893   -3.8593    0.6320 H   0  0  0  0  0  0  0  0  0  0  0  0
    4.8229   -4.8844    0.0402 H   0  0  0  0  0  0  0  0  0  0  0  0
    5.7313   -5.4799    5.4748 H   0  0  0  0  0  0  0  0  0  0  0  0
    6.4051   -3.8700    5.3228 H   0  0  0  0  0  0  0  0  0  0  0  0
    6.6812   -5.0669    4.0540 H   0  0  0  0  0  0  0  0  0  0  0  0
    3.3874   -4.5841    5.6352 H   0  0  0  0  0  0  0  0  0  0  0  0
    4.0004   -2.4283    6.1422 H   0  0  0  0  0  0  0  0  0  0  0  0
  1  2  1  0
  1 34  1  0
  1 35  1  0
  1 36  1  0
  2  3  1  0
  3 28  1  0
  3  4  1  0
  3 37  1  1
  4  5  1  0
  4 38  1  0
  4 39  1  0
  5  6  1  0
  5 40  1  0
  5 41  1  0
  6  7  2  0
  6  8  1  0
  8 28  1  0
  8  9  1  1
  8 10  1  0
  9 42  1  0
  9 43  1  0
  9 44  1  0
 10 30  1  0
 10 11  1  0
 10 45  1  6
 11 13  1  0
 11 12  1  0
 11 46  1  6
 12 13  1  0
 13 14  1  0
 13 47  1  6
 14 15  1  0
 15 16  1  0
 15 17  1  0
 15 48  1  1
 16 49  1  0
 17 27  1  0
 17 32  1  0
 17 18  1  6
 18 19  1  0
 18 50  1  0
 18 51  1  0
 19 20  1  0
 19 30  1  0
 19 52  1  1
 20 23  1  0
 20 21  1  0
 20 53  1  1
 21 22  1  0
 21 23  1  0
 21 54  1  6
 22 55  1  0
 23 24  1  1
 23 25  1  0
 24 56  1  0
 24 57  1  0
 24 58  1  0
 25 26  1  0
 25 59  1  0
 25 60  1  0
 26 27  1  0
 27 28  1  0
 27 61  1  6
 28 29  1  6
 29 62  1  0
 29 63  1  0
 29 64  1  0
 30 31  1  1
 30 32  1  0
 31 65  1  0
 31 66  1  0
 31 67  1  0
 32 33  1  0
 32 68  1  1
 33 69  1  0
M  END
>  <i_m_ct_stereo_status>  (313) 
1

>  <s_m_source_file>  (313) 
/var/tmp/pbs.5076255.sched01/tmp0kxp0nim/126xlotvanm.sdf

>  <i_m_source_file_index>  (313) 
10

>  <i_lp_mmshare_version>  (313) 
48012

>  <i_f3d_flags>  (313) 
0

>  <s_epik_input>  (313) 
W0NIM11PW0NAQEhdMVtDSDJdW0NIMl1DKD1PKVtDQEBdKFtDSDNdKShbQ0BdMShbQ0BASF0yW0NAQF0zNDUpW0NIM10pW0NAQEhdKFtDQEhdNltDQEhdKE82KU9bQ0BIXTNbT0hdKVtDQEBdKFtDSDNdKShbQ0BIXTVbT0hdKVtDQEBIXShbQ0gyXTQpW0NASF03W0NAQF0oW0NIM10pKFtDSDJdTzIpW0NAQEhdN1tPSF0=

>  <s_epik_cmdline>  (313) 
J2VwaWtfcHl0aG9uJywgJy1waHQnLCAnMi4wJywgJy1waCcsICc3LjAnLCAnLXRuJywgJzgnLCAnLW1hJywgJzIwMCcsICctaW1hZScsICc8aW5maWxlLm1hZT4nLCAnLW9tYWUnLCAnPG91dGZpbGUubWFlPic=

>  <r_lp_tautomer_probability>  (313) 
1

>  <r_epik_Ionization_Penalty>  (313) 
8.84483e-07

>  <r_epik_Ionization_Penalty_Charging>  (313) 
0

>  <r_epik_Ionization_Penalty_Neutral>  (313) 
8.84483e-07

>  <r_epik_State_Penalty>  (313) 
-0

>  <r_epik_Charging_Adjusted_Penalty>  (313) 
0

>  <i_epik_Tot_Q>  (313) 
0

>  <i_epik_Tot_abs_Q>  (313) 
0

>  <s_epik_Chemistry_Notes>  (313) 
This compound contains an acetal/aminal-like group ( X-CH(R)-Y where X, Y are N, S, or O) that may be acid/base labile, releasing an aldehyde.

>  <s_lp_Force_Field>  (313) 
OPLS3e

>  <r_lp_Energy>  (313) 
332.249

>  <b_lp_Chiralities_Consistent>  (313) 
1

>  <s_lp_Variant>  (313) 
94:0-1

>  <s_i_glide_gridfile>  (313) 
pfpi4k_grid

>  <i_i_glide_lignum>  (313) 
10

>  <i_i_glide_rotatable_bonds>  (313) 
4

>  <r_i_docking_score>  (313) 
-2.30591

>  <r_i_glide_ligand_efficiency>  (313) 
-0.0698762

>  <r_i_glide_ligand_efficiency_sa>  (313) 
-0.22413

>  <r_i_glide_ligand_efficiency_ln>  (313) 
-0.512824

>  <r_i_glide_gscore>  (313) 
-2.30591

>  <r_i_glide_lipo>  (313) 
-0.430969

>  <r_i_glide_hbond>  (313) 
-0.0324878

>  <r_i_glide_metal>  (313) 
-0

>  <r_i_glide_rewards>  (313) 
-0.938188

>  <r_i_glide_evdw>  (313) 
-16.3997

>  <r_i_glide_ecoul>  (313) 
-0.561909

>  <r_i_glide_erotb>  (313) 
0

>  <r_i_glide_esite>  (313) 
0

>  <r_i_glide_emodel>  (313) 
-25.0355

>  <r_i_glide_energy>  (313) 
-16.9616

>  <r_i_glide_einternal>  (313) 
0.848164

>  <r_i_glide_intrahb_reward>  (313) 
-0.5

>  <i_i_glide_confnum>  (313) 
2

>  <i_i_glide_posenum>  (313) 
27

>  <r_i_glide_eff_state_penalty>  (313) 
0

>  <ligand_id>  (313) 
94

>  <original_smiles>  (313) 
COC1CCC(=O)C2(C)C3C4OC4OC(O)C45CC(C6C(O)C6(C)COC4C12C)C3(C)C5O

>  <smiles>  (313) 
[H]OC1([H])OC2([H])OC2([H])C2([H])C3(C([H])([H])[H])C(=O)C([H])([H])C([H])([H])C([H])(OC([H])([H])[H])C3(C([H])([H])[H])C3([H])OC([H])([H])C4(C([H])([H])[H])C([H])(O[H])C4([H])C4([H])C([H])([H])C13C([H])(O[H])C42C([H])([H])[H]

$$$$
94:0:2
     RDKit          3D

 69 75  0  0  1  0  0  0  0  0999 V2000
    1.7982   -3.7895   -1.7631 C   0  0  0  0  0  0  0  0  0  0  0  0
    2.3657   -4.1832   -0.5227 O   0  0  0  0  0  0  0  0  0  0  0  0
    2.8214   -3.1490    0.3408 C   0  0  2  0  0  0  0  0  0  0  0  0
    3.7982   -2.2235   -0.4524 C   0  0  0  0  0  0  0  0  0  0  0  0
    4.5520   -1.1665    0.3593 C   0  0  0  0  0  0  0  0  0  0  0  0
    5.0062   -1.6923    1.7124 C   0  0  0  0  0  0  0  0  0  0  0  0
    6.0989   -1.3331    2.1504 O   0  0  0  0  0  0  0  0  0  0  0  0
    4.0131   -2.5887    2.5149 C   0  0  2  0  0  0  0  0  0  0  0  0
    2.8560   -1.5208    2.7540 C   0  0  0  0  0  0  0  0  0  0  0  0
    4.6642   -3.2295    3.8447 C   0  0  1  0  0  0  0  0  0  0  0  0
    4.3173   -2.0913    4.8884 C   0  0  2  0  0  0  0  0  0  0  0  0
    4.2441   -2.1084    6.3056 O   0  0  0  0  0  0  0  0  0  0  0  0
    2.9648   -1.9027    5.6467 C   0  0  2  0  0  0  0  0  0  0  0  0
    2.0278   -2.9511    6.0195 O   0  0  0  0  0  0  0  0  0  0  0  0
    1.4070   -3.9309    5.1867 C   0  0  1  0  0  0  0  0  0  0  0  0
    0.3200   -3.3828    4.4691 O   0  0  0  0  0  0  0  0  0  0  0  0
    2.4603   -4.7273    4.3218 C   0  0  1  0  0  0  0  0  0  0  0  0
    2.4332   -6.2405    4.2988 C   0  0  0  0  0  0  0  0  0  0  0  0
    3.9513   -6.3036    3.8324 C   0  0  1  0  0  0  0  0  0  0  0  0
    4.2785   -7.4708    2.8602 C   0  0  2  0  0  0  0  0  0  0  0  0
    4.6344   -7.7044    1.4001 C   0  0  1  0  0  0  0  0  0  0  0  0
    5.1893   -8.9915    1.1989 O   0  0  0  0  0  0  0  0  0  0  0  0
    3.1832   -7.7085    1.7988 C   0  0  1  0  0  0  0  0  0  0  0  0
    2.3858   -9.0082    1.8796 C   0  0  0  0  0  0  0  0  0  0  0  0
    2.3096   -6.6143    1.1574 C   0  0  0  0  0  0  0  0  0  0  0  0
    1.6905   -5.5263    1.8958 O   0  0  0  0  0  0  0  0  0  0  0  0
    2.3997   -4.4851    2.6308 C   0  0  2  0  0  0  0  0  0  0  0  0
    3.4782   -3.7416    1.6697 C   0  0  1  0  0  0  0  0  0  0  0  0
    4.7256   -4.5448    1.1618 C   0  0  0  0  0  0  0  0  0  0  0  0
    4.7727   -4.8849    4.2577 C   0  0  1  0  0  0  0  0  0  0  0  0
    6.1835   -5.2177    4.8013 C   0  0  0  0  0  0  0  0  0  0  0  0
    3.7503   -4.7908    5.2757 C   0  0  1  0  0  0  0  0  0  0  0  0
    3.9576   -4.5415    6.6572 O   0  0  0  0  0  0  0  0  0  0  0  0
    1.4095   -4.6617   -2.2570 H   0  0  0  0  0  0  0  0  0  0  0  0
    2.5308   -3.3906   -2.4567 H   0  0  0  0  0  0  0  0  0  0  0  0
    0.9854   -3.0625   -1.6511 H   0  0  0  0  0  0  0  0  0  0  0  0
    1.9097   -2.6011    0.5695 H   0  0  0  0  0  0  0  0  0  0  0  0
    4.5137   -2.8446   -0.9925 H   0  0  0  0  0  0  0  0  0  0  0  0
    3.2473   -1.6734   -1.2159 H   0  0  0  0  0  0  0  0  0  0  0  0
    5.4052   -0.8161   -0.2180 H   0  0  0  0  0  0  0  0  0  0  0  0
    3.9140   -0.2968    0.5047 H   0  0  0  0  0  0  0  0  0  0  0  0
    2.0169   -1.8781    3.3362 H   0  0  0  0  0  0  0  0  0  0  0  0
    2.4078   -1.1160    1.8554 H   0  0  0  0  0  0  0  0  0  0  0  0
    3.2078   -0.6030    3.2248 H   0  0  0  0  0  0  0  0  0  0  0  0
    5.7288   -3.0661    3.7175 H   0  0  0  0  0  0  0  0  0  0  0  0
    4.7974   -1.1617    4.5840 H   0  0  0  0  0  0  0  0  0  0  0  0
    2.5478   -0.8980    5.8025 H   0  0  0  0  0  0  0  0  0  0  0  0
    0.9537   -4.6220    5.8968 H   0  0  0  0  0  0  0  0  0  0  0  0
    0.6854   -2.8065    3.8205 H   0  0  0  0  0  0  0  0  0  0  0  0
    2.2240   -6.7011    5.2653 H   0  0  0  0  0  0  0  0  0  0  0  0
    1.6770   -6.7393    3.7046 H   0  0  0  0  0  0  0  0  0  0  0  0
    4.3506   -6.9432    4.6279 H   0  0  0  0  0  0  0  0  0  0  0  0
    4.5023   -8.3739    3.4299 H   0  0  0  0  0  0  0  0  0  0  0  0
    5.1086   -6.9753    0.7680 H   0  0  0  0  0  0  0  0  0  0  0  0
    4.5295   -9.6584    1.3248 H   0  0  0  0  0  0  0  0  0  0  0  0
    2.0591   -9.3247    0.8876 H   0  0  0  0  0  0  0  0  0  0  0  0
    1.5038   -8.8762    2.5087 H   0  0  0  0  0  0  0  0  0  0  0  0
    2.9775   -9.8137    2.3094 H   0  0  0  0  0  0  0  0  0  0  0  0
    2.8657   -6.2612    0.3075 H   0  0  0  0  0  0  0  0  0  0  0  0
    1.4600   -7.1105    0.6833 H   0  0  0  0  0  0  0  0  0  0  0  0
    1.5872   -3.7843    2.5406 H   0  0  0  0  0  0  0  0  0  0  0  0
    5.1848   -5.1925    1.8921 H   0  0  0  0  0  0  0  0  0  0  0  0
    5.5721   -3.9424    0.8429 H   0  0  0  0  0  0  0  0  0  0  0  0
    4.5172   -5.0805    0.2432 H   0  0  0  0  0  0  0  0  0  0  0  0
    6.2051   -6.1286    5.4034 H   0  0  0  0  0  0  0  0  0  0  0  0
    6.5685   -4.4134    5.4315 H   0  0  0  0  0  0  0  0  0  0  0  0
    6.8870   -5.3692    3.9799 H   0  0  0  0  0  0  0  0  0  0  0  0
    3.7629   -5.6786    5.9167 H   0  0  0  0  0  0  0  0  0  0  0  0
    4.7521   -4.9612    6.9313 H   0  0  0  0  0  0  0  0  0  0  0  0
  1  2  1  0
  1 34  1  0
  1 35  1  0
  1 36  1  0
  2  3  1  0
  3 28  1  0
  3  4  1  0
  3 37  1  1
  4  5  1  0
  4 38  1  0
  4 39  1  0
  5  6  1  0
  5 40  1  0
  5 41  1  0
  6  7  2  0
  6  8  1  0
  8 28  1  0
  8  9  1  1
  8 10  1  0
  9 42  1  0
  9 43  1  0
  9 44  1  0
 10 30  1  0
 10 11  1  0
 10 45  1  6
 11 13  1  0
 11 12  1  0
 11 46  1  1
 12 13  1  0
 13 14  1  0
 13 47  1  1
 14 15  1  0
 15 16  1  0
 15 17  1  0
 15 48  1  1
 16 49  1  0
 17 27  1  0
 17 32  1  0
 17 18  1  6
 18 19  1  0
 18 50  1  0
 18 51  1  0
 19 20  1  0
 19 30  1  0
 19 52  1  1
 20 23  1  0
 20 21  1  0
 20 53  1  1
 21 22  1  0
 21 23  1  0
 21 54  1  6
 22 55  1  0
 23 24  1  1
 23 25  1  0
 24 56  1  0
 24 57  1  0
 24 58  1  0
 25 26  1  0
 25 59  1  0
 25 60  1  0
 26 27  1  0
 27 28  1  0
 27 61  1  1
 28 29  1  6
 29 62  1  0
 29 63  1  0
 29 64  1  0
 30 31  1  1
 30 32  1  0
 31 65  1  0
 31 66  1  0
 31 67  1  0
 32 33  1  0
 32 68  1  1
 33 69  1  0
M  END
>  <i_m_ct_stereo_status>  (314) 
1

>  <s_m_source_file>  (314) 
/var/tmp/pbs.5076255.sched01/tmp0kxp0nim/126xlotvanm.sdf

>  <i_m_source_file_index>  (314) 
10

>  <i_lp_mmshare_version>  (314) 
48012

>  <i_f3d_flags>  (314) 
0

>  <s_epik_input>  (314) 
W0NIM11PW0NAQEhdMVtDSDJdW0NIMl1DKD1PKVtDQEBdKFtDSDNdKShbQ0BdMShbQ0BASF0yW0NAQF0zNDUpW0NIM10pW0NAQEhdKFtDQEhdNltDQEhdKE82KU9bQ0BIXTNbT0hdKVtDQEBdKFtDSDNdKShbQ0BIXTVbT0hdKVtDQEBIXShbQ0gyXTQpW0NASF03W0NAQF0oW0NIM10pKFtDSDJdTzIpW0NAQEhdN1tPSF0=

>  <s_epik_cmdline>  (314) 
J2VwaWtfcHl0aG9uJywgJy1waHQnLCAnMi4wJywgJy1waCcsICc3LjAnLCAnLXRuJywgJzgnLCAnLW1hJywgJzIwMCcsICctaW1hZScsICc8aW5maWxlLm1hZT4nLCAnLW9tYWUnLCAnPG91dGZpbGUubWFlPic=

>  <r_lp_tautomer_probability>  (314) 
1

>  <r_epik_Ionization_Penalty>  (314) 
8.84483e-07

>  <r_epik_Ionization_Penalty_Charging>  (314) 
0

>  <r_epik_Ionization_Penalty_Neutral>  (314) 
8.84483e-07

>  <r_epik_State_Penalty>  (314) 
-0

>  <r_epik_Charging_Adjusted_Penalty>  (314) 
0

>  <i_epik_Tot_Q>  (314) 
0

>  <i_epik_Tot_abs_Q>  (314) 
0

>  <s_epik_Chemistry_Notes>  (314) 
This compound contains an acetal/aminal-like group ( X-CH(R)-Y where X, Y are N, S, or O) that may be acid/base labile, releasing an aldehyde.

>  <s_lp_Force_Field>  (314) 
OPLS3e

>  <r_lp_Energy>  (314) 
332.249

>  <b_lp_Chiralities_Consistent>  (314) 
1

>  <s_lp_Variant>  (314) 
94:0-1

>  <s_i_glide_gridfile>  (314) 
pfpi4k_grid

>  <i_i_glide_lignum>  (314) 
10

>  <i_i_glide_rotatable_bonds>  (314) 
4

>  <r_i_docking_score>  (314) 
-2.17695

>  <r_i_glide_ligand_efficiency>  (314) 
-0.0659681

>  <r_i_glide_ligand_efficiency_sa>  (314) 
-0.211595

>  <r_i_glide_ligand_efficiency_ln>  (314) 
-0.484141

>  <r_i_glide_gscore>  (314) 
-2.17695

>  <r_i_glide_lipo>  (314) 
-0.162145

>  <r_i_glide_hbond>  (314) 
-0.0334816

>  <r_i_glide_metal>  (314) 
-0

>  <r_i_glide_rewards>  (314) 
-0.337486

>  <r_i_glide_evdw>  (314) 
-19.9665

>  <r_i_glide_ecoul>  (314) 
-4.30338

>  <r_i_glide_erotb>  (314) 
0

>  <r_i_glide_esite>  (314) 
0

>  <r_i_glide_emodel>  (314) 
-26.7048

>  <r_i_glide_energy>  (314) 
-24.2699

>  <r_i_glide_einternal>  (314) 
1.75098

>  <r_i_glide_intrahb_reward>  (314) 
-0

>  <i_i_glide_confnum>  (314) 
1

>  <i_i_glide_posenum>  (314) 
33

>  <r_i_glide_eff_state_penalty>  (314) 
0

>  <ligand_id>  (314) 
94

>  <original_smiles>  (314) 
COC1CCC(=O)C2(C)C3C4OC4OC(O)C45CC(C6C(O)C6(C)COC4C12C)C3(C)C5O

>  <smiles>  (314) 
[H]OC1([H])OC2([H])OC2([H])C2([H])C3(C([H])([H])[H])C(=O)C([H])([H])C([H])([H])C([H])(OC([H])([H])[H])C3(C([H])([H])[H])C3([H])OC([H])([H])C4(C([H])([H])[H])C([H])(O[H])C4([H])C4([H])C([H])([H])C13C([H])(O[H])C42C([H])([H])[H]

$$$$
95:0:0
     RDKit          3D

 40 44  0  0  1  0  0  0  0  0999 V2000
    3.2006   -1.2667   -3.8800 C   0  0  0  0  0  0  0  0  0  0  0  0
    3.3031   -2.4866   -2.8954 C   0  0  0  0  0  0  0  0  0  0  0  0
    1.8646   -3.0749   -3.0477 C   0  0  0  0  0  0  0  0  0  0  0  0
    4.5090   -3.6306   -2.7710 C   0  0  1  0  0  0  0  0  0  0  0  0
    5.2429   -2.4455   -2.6633 C   0  0  0  0  0  0  0  0  0  0  0  0
    4.0044   -2.3515   -1.5165 C   0  0  2  0  0  0  0  0  0  0  0  0
    3.6467   -3.7655   -0.8438 C   0  0  0  0  0  0  0  0  0  0  0  0
    4.8113   -4.3719   -1.3747 C   0  0  2  0  0  0  0  0  0  0  0  0
    5.8872   -3.8744   -0.2081 C   0  0  0  0  0  0  0  0  0  0  0  0
    5.6474   -2.4406    0.5333 C   0  0  2  0  0  0  0  0  0  0  0  0
    6.4467   -1.6476    1.5825 C   0  0  0  0  0  0  0  0  0  0  0  0
    5.4256   -0.4251    1.7097 C   0  0  0  0  0  0  0  0  0  0  0  0
    4.2447   -0.8567    0.8645 N   0  0  2  0  0  0  0  0  0  0  0  0
    3.0486   -0.0701    1.1678 C   0  0  0  0  0  0  0  0  0  0  0  0
    4.2812   -2.1848    1.3265 C   0  0  0  0  0  0  0  0  0  0  0  0
    4.5993   -1.0936   -0.6389 C   0  0  0  0  0  0  0  0  0  0  0  0
    5.7700   -1.4472   -0.5234 N   0  0  0  0  0  0  0  0  0  0  0  0
    3.4061   -1.5546   -4.9174 H   0  0  0  0  0  0  0  0  0  0  0  0
    3.8636   -0.4352   -3.6246 H   0  0  0  0  0  0  0  0  0  0  0  0
    2.2175   -0.8014   -3.8853 H   0  0  0  0  0  0  0  0  0  0  0  0
    1.8663   -4.1571   -3.1323 H   0  0  0  0  0  0  0  0  0  0  0  0
    1.3356   -2.7504   -3.9553 H   0  0  0  0  0  0  0  0  0  0  0  0
    1.2337   -2.8346   -2.1995 H   0  0  0  0  0  0  0  0  0  0  0  0
    4.7284   -4.1682   -3.6881 H   0  0  0  0  0  0  0  0  0  0  0  0
    6.2588   -2.7503   -2.4155 H   0  0  0  0  0  0  0  0  0  0  0  0
    5.3772   -1.8552   -3.5622 H   0  0  0  0  0  0  0  0  0  0  0  0
    3.5873   -4.0818    0.1937 H   0  0  0  0  0  0  0  0  0  0  0  0
    2.7607   -4.2598   -1.2150 H   0  0  0  0  0  0  0  0  0  0  0  0
    4.7615   -5.4507   -1.4437 H   0  0  0  0  0  0  0  0  0  0  0  0
    5.8923   -4.6338    0.5778 H   0  0  0  0  0  0  0  0  0  0  0  0
    6.9019   -3.8888   -0.6149 H   0  0  0  0  0  0  0  0  0  0  0  0
    6.5446   -2.2231    2.5056 H   0  0  0  0  0  0  0  0  0  0  0  0
    7.4476   -1.3376    1.2504 H   0  0  0  0  0  0  0  0  0  0  0  0
    5.1710   -0.2744    2.7601 H   0  0  0  0  0  0  0  0  0  0  0  0
    5.8269    0.5027    1.3411 H   0  0  0  0  0  0  0  0  0  0  0  0
    2.7795   -0.0541    2.2186 H   0  0  0  0  0  0  0  0  0  0  0  0
    2.2337   -0.4759    0.6063 H   0  0  0  0  0  0  0  0  0  0  0  0
    3.1888    0.9530    0.8812 H   0  0  0  0  0  0  0  0  0  0  0  0
    3.2639   -2.4954    1.1170 H   0  0  0  0  0  0  0  0  0  0  0  0
    4.3422   -2.3506    2.4142 H   0  0  0  0  0  0  0  0  0  0  0  0
  1  2  1  0
  1 18  1  0
  1 19  1  0
  1 20  1  0
  2  6  1  0
  2  3  1  0
  2  4  1  0
  3 21  1  0
  3 22  1  0
  3 23  1  0
  4  8  1  0
  4  5  1  0
  4 24  1  6
  5  6  1  0
  5 25  1  0
  5 26  1  0
  6 16  1  1
  6  7  1  0
  7  8  1  0
  7 27  1  0
  7 28  1  0
  8  9  1  0
  8 29  1  6
 10  9  1  6
  9 30  1  0
  9 31  1  0
 10 15  1  0
 10 17  1  0
 10 11  1  0
 11 12  1  0
 11 32  1  0
 11 33  1  0
 12 13  1  0
 12 34  1  0
 12 35  1  0
 13 14  1  6
 13 15  1  0
 13 16  1  0
 14 36  1  0
 14 37  1  0
 14 38  1  0
 15 39  1  0
 15 40  1  0
 16 17  2  0
M  CHG  1  13   1
M  END
>  <i_m_ct_stereo_status>  (315) 
1

>  <s_m_source_file>  (315) 
/var/tmp/pbs.5076255.sched01/tmp0kxp0nim/126xlotvanm.sdf

>  <i_m_source_file_index>  (315) 
11

>  <i_lp_mmshare_version>  (315) 
48012

>  <i_f3d_flags>  (315) 
2

>  <s_epik_input>  (315) 
W0NIM11DMShbQ0gzXSlbQ0BASF0oW0NIMl0yKVtDQEhdKFtDSDJdMylbQ0gyXVtDQF0oTjQpKFtDSDJdNSlbQ0gyXVtDSDJdW05AK101KFtDSDNdKUM9NEMxMjM=

>  <s_epik_cmdline>  (315) 
J2VwaWtfcHl0aG9uJywgJy1waHQnLCAnMi4wJywgJy1waCcsICc3LjAnLCAnLXRuJywgJzgnLCAnLW1hJywgJzIwMCcsICctaW1hZScsICc8aW5maWxlLm1hZT4nLCAnLW9tYWUnLCAnPG91dGZpbGUubWFlPic=

>  <r_lp_tautomer_probability>  (315) 
1

>  <r_epik_Ionization_Penalty>  (315) 
0

>  <r_epik_Ionization_Penalty_Charging>  (315) 
0

>  <r_epik_Ionization_Penalty_Neutral>  (315) 
0

>  <r_epik_State_Penalty>  (315) 
-0

>  <r_epik_Charging_Adjusted_Penalty>  (315) 
0

>  <i_epik_Tot_Q>  (315) 
1

>  <i_epik_Tot_abs_Q>  (315) 
1

>  <s_epik_Chemistry_Notes>  (315) 
This compound has an imine and may undergo hydrolysis.

>  <s_lp_Force_Field>  (315) 
OPLS3e

>  <r_lp_Energy>  (315) 
313.071

>  <b_lp_Chiralities_Consistent>  (315) 
0

>  <s_lp_Variant>  (315) 
95:0-1

>  <s_i_glide_gridfile>  (315) 
pfpi4k_grid

>  <i_i_glide_lignum>  (315) 
11

>  <i_i_glide_rotatable_bonds>  (315) 
0

>  <r_i_docking_score>  (315) 
-4.08251

>  <r_i_glide_ligand_efficiency>  (315) 
-0.240147

>  <r_i_glide_ligand_efficiency_sa>  (315) 
-0.617487

>  <r_i_glide_ligand_efficiency_ln>  (315) 
-1.06504

>  <r_i_glide_gscore>  (315) 
-4.08251

>  <r_i_glide_lipo>  (315) 
-0.757617

>  <r_i_glide_hbond>  (315) 
0

>  <r_i_glide_metal>  (315) 
-0

>  <r_i_glide_rewards>  (315) 
-1.83166

>  <r_i_glide_evdw>  (315) 
-17.2091

>  <r_i_glide_ecoul>  (315) 
-3.96191

>  <r_i_glide_erotb>  (315) 
0

>  <r_i_glide_esite>  (315) 
-0.0384889

>  <r_i_glide_emodel>  (315) 
-25.8642

>  <r_i_glide_energy>  (315) 
-21.171

>  <r_i_glide_einternal>  (315) 
0

>  <r_i_glide_intrahb_reward>  (315) 
-0

>  <i_i_glide_confnum>  (315) 
2

>  <i_i_glide_posenum>  (315) 
25

>  <r_i_glide_eff_state_penalty>  (315) 
0

>  <ligand_id>  (315) 
95

>  <original_smiles>  (315) 
CC1(C)C2CC13CC2CC12CC[N+](C)(C1)C3=N2

>  <smiles>  (315) 
[H]C([H])([H])C1(C([H])([H])[H])C2([H])C([H])([H])C13C1=NC4(C([H])([H])C2([H])C3([H])[H])C([H])([H])C([H])([H])[N+]1(C([H])([H])[H])C4([H])[H]

$$$$
95:0:1
     RDKit          3D

 40 44  0  0  1  0  0  0  0  0999 V2000
    5.1962   -6.1359    0.3365 C   0  0  0  0  0  0  0  0  0  0  0  0
    4.8466   -4.6974    0.8794 C   0  0  0  0  0  0  0  0  0  0  0  0
    3.8954   -5.0678    2.0528 C   0  0  0  0  0  0  0  0  0  0  0  0
    5.8839   -3.4339    1.1887 C   0  0  1  0  0  0  0  0  0  0  0  0
    6.2283   -3.7277   -0.1337 C   0  0  0  0  0  0  0  0  0  0  0  0
    4.5607   -3.5519   -0.1159 C   0  0  2  0  0  0  0  0  0  0  0  0
    4.0553   -2.3968    0.9166 C   0  0  0  0  0  0  0  0  0  0  0  0
    5.3752   -1.9011    1.0740 C   0  0  2  0  0  0  0  0  0  0  0  0
    5.4284   -0.9288   -0.2753 C   0  0  0  0  0  0  0  0  0  0  0  0
    4.6146   -1.3711   -1.6358 C   0  0  2  0  0  0  0  0  0  0  0  0
    4.4342   -0.7426   -3.0237 C   0  0  0  0  0  0  0  0  0  0  0  0
    3.4395   -1.8386   -3.6249 C   0  0  0  0  0  0  0  0  0  0  0  0
    3.1130   -2.6991   -2.4042 N   0  0  2  0  0  0  0  0  0  0  0  0
    1.8731   -3.4709   -2.5645 C   0  0  0  0  0  0  0  0  0  0  0  0
    3.0583   -1.5746   -1.5443 C   0  0  0  0  0  0  0  0  0  0  0  0
    4.3289   -3.4177   -1.7414 C   0  0  0  0  0  0  0  0  0  0  0  0
    5.2308   -2.6213   -2.0661 N   0  0  0  0  0  0  0  0  0  0  0  0
    6.0328   -6.5838    0.8855 H   0  0  0  0  0  0  0  0  0  0  0  0
    5.4199   -6.1426   -0.7225 H   0  0  0  0  0  0  0  0  0  0  0  0
    4.3589   -6.8316    0.4079 H   0  0  0  0  0  0  0  0  0  0  0  0
    4.1055   -4.4870    2.9529 H   0  0  0  0  0  0  0  0  0  0  0  0
    3.9849   -6.1035    2.3951 H   0  0  0  0  0  0  0  0  0  0  0  0
    2.8495   -4.9165    1.7852 H   0  0  0  0  0  0  0  0  0  0  0  0
    6.6891   -3.6390    1.8861 H   0  0  0  0  0  0  0  0  0  0  0  0
    6.9147   -2.9485   -0.4645 H   0  0  0  0  0  0  0  0  0  0  0  0
    6.8057   -4.6384   -0.3202 H   0  0  0  0  0  0  0  0  0  0  0  0
    3.4208   -1.5290    0.7802 H   0  0  0  0  0  0  0  0  0  0  0  0
    3.6794   -2.7264    1.8728 H   0  0  0  0  0  0  0  0  0  0  0  0
    5.5134   -1.3389    1.9962 H   0  0  0  0  0  0  0  0  0  0  0  0
    5.0431    0.0509    0.0167 H   0  0  0  0  0  0  0  0  0  0  0  0
    6.4666   -0.7639   -0.5310 H   0  0  0  0  0  0  0  0  0  0  0  0
    4.0290    0.2770   -3.0124 H   0  0  0  0  0  0  0  0  0  0  0  0
    5.3467   -0.7467   -3.5622 H   0  0  0  0  0  0  0  0  0  0  0  0
    2.5587   -1.3505   -4.0443 H   0  0  0  0  0  0  0  0  0  0  0  0
    3.8879   -2.4291   -4.4241 H   0  0  0  0  0  0  0  0  0  0  0  0
    1.0379   -2.8640   -2.9011 H   0  0  0  0  0  0  0  0  0  0  0  0
    1.5868   -3.9810   -1.6391 H   0  0  0  0  0  0  0  0  0  0  0  0
    2.0523   -4.2264   -3.3322 H   0  0  0  0  0  0  0  0  0  0  0  0
    2.5099   -2.0491   -0.7542 H   0  0  0  0  0  0  0  0  0  0  0  0
    2.4747   -0.7169   -1.8994 H   0  0  0  0  0  0  0  0  0  0  0  0
  1  2  1  0
  1 18  1  0
  1 19  1  0
  1 20  1  0
  2  6  1  0
  2  3  1  0
  2  4  1  0
  3 21  1  0
  3 22  1  0
  3 23  1  0
  4  8  1  0
  4  5  1  0
  4 24  1  1
  5  6  1  0
  5 25  1  0
  5 26  1  0
  6 16  1  6
  6  7  1  0
  7  8  1  0
  7 27  1  0
  7 28  1  0
  8  9  1  0
  8 29  1  1
 10  9  1  1
  9 30  1  0
  9 31  1  0
 10 15  1  0
 10 17  1  0
 10 11  1  0
 11 12  1  0
 11 32  1  0
 11 33  1  0
 12 13  1  0
 12 34  1  0
 12 35  1  0
 13 14  1  6
 13 15  1  0
 13 16  1  0
 14 36  1  0
 14 37  1  0
 14 38  1  0
 15 39  1  0
 15 40  1  0
 16 17  2  0
M  CHG  1  13   1
M  END
>  <i_m_ct_stereo_status>  (316) 
1

>  <s_m_source_file>  (316) 
/var/tmp/pbs.5076255.sched01/tmp0kxp0nim/126xlotvanm.sdf

>  <i_m_source_file_index>  (316) 
11

>  <i_lp_mmshare_version>  (316) 
48012

>  <i_f3d_flags>  (316) 
2

>  <s_epik_input>  (316) 
W0NIM11DMShbQ0gzXSlbQ0BASF0oW0NIMl0yKVtDQEhdKFtDSDJdMylbQ0gyXVtDQF0oTjQpKFtDSDJdNSlbQ0gyXVtDSDJdW05AK101KFtDSDNdKUM9NEMxMjM=

>  <s_epik_cmdline>  (316) 
J2VwaWtfcHl0aG9uJywgJy1waHQnLCAnMi4wJywgJy1waCcsICc3LjAnLCAnLXRuJywgJzgnLCAnLW1hJywgJzIwMCcsICctaW1hZScsICc8aW5maWxlLm1hZT4nLCAnLW9tYWUnLCAnPG91dGZpbGUubWFlPic=

>  <r_lp_tautomer_probability>  (316) 
1

>  <r_epik_Ionization_Penalty>  (316) 
0

>  <r_epik_Ionization_Penalty_Charging>  (316) 
0

>  <r_epik_Ionization_Penalty_Neutral>  (316) 
0

>  <r_epik_State_Penalty>  (316) 
-0

>  <r_epik_Charging_Adjusted_Penalty>  (316) 
0

>  <i_epik_Tot_Q>  (316) 
1

>  <i_epik_Tot_abs_Q>  (316) 
1

>  <s_epik_Chemistry_Notes>  (316) 
This compound has an imine and may undergo hydrolysis.

>  <s_lp_Force_Field>  (316) 
OPLS3e

>  <r_lp_Energy>  (316) 
313.071

>  <b_lp_Chiralities_Consistent>  (316) 
0

>  <s_lp_Variant>  (316) 
95:0-1

>  <s_i_glide_gridfile>  (316) 
pfpi4k_grid

>  <i_i_glide_lignum>  (316) 
11

>  <i_i_glide_rotatable_bonds>  (316) 
0

>  <r_i_docking_score>  (316) 
-3.99785

>  <r_i_glide_ligand_efficiency>  (316) 
-0.235168

>  <r_i_glide_ligand_efficiency_sa>  (316) 
-0.604683

>  <r_i_glide_ligand_efficiency_ln>  (316) 
-1.04295

>  <r_i_glide_gscore>  (316) 
-3.99785

>  <r_i_glide_lipo>  (316) 
-0.94706

>  <r_i_glide_hbond>  (316) 
0

>  <r_i_glide_metal>  (316) 
-0

>  <r_i_glide_rewards>  (316) 
-1.83166

>  <r_i_glide_evdw>  (316) 
-7.87898

>  <r_i_glide_ecoul>  (316) 
-5.14365

>  <r_i_glide_erotb>  (316) 
0

>  <r_i_glide_esite>  (316) 
-0.0536375

>  <r_i_glide_emodel>  (316) 
-17.6248

>  <r_i_glide_energy>  (316) 
-13.0226

>  <r_i_glide_einternal>  (316) 
0

>  <r_i_glide_intrahb_reward>  (316) 
-0

>  <i_i_glide_confnum>  (316) 
2

>  <i_i_glide_posenum>  (316) 
23

>  <r_i_glide_eff_state_penalty>  (316) 
0

>  <ligand_id>  (316) 
95

>  <original_smiles>  (316) 
CC1(C)C2CC13CC2CC12CC[N+](C)(C1)C3=N2

>  <smiles>  (316) 
[H]C([H])([H])C1(C([H])([H])[H])C2([H])C([H])([H])C13C1=NC4(C([H])([H])C2([H])C3([H])[H])C([H])([H])C([H])([H])[N+]1(C([H])([H])[H])C4([H])[H]

$$$$
95:0:2
     RDKit          3D

 40 44  0  0  1  0  0  0  0  0999 V2000
    5.0219   -5.6257   -0.8630 C   0  0  0  0  0  0  0  0  0  0  0  0
    4.4846   -4.3022   -0.2568 C   0  0  0  0  0  0  0  0  0  0  0  0
    3.4567   -4.8516    0.7843 C   0  0  0  0  0  0  0  0  0  0  0  0
    5.3587   -2.9860    0.2370 C   0  0  1  0  0  0  0  0  0  0  0  0
    5.8416   -3.1125   -1.0740 C   0  0  0  0  0  0  0  0  0  0  0  0
    4.1752   -3.1193   -1.2022 C   0  0  2  0  0  0  0  0  0  0  0  0
    3.4656   -2.1123   -0.1404 C   0  0  0  0  0  0  0  0  0  0  0  0
    4.7099   -1.5184    0.1736 C   0  0  2  0  0  0  0  0  0  0  0  0
    4.7897   -0.4619   -1.1045 C   0  0  0  0  0  0  0  0  0  0  0  0
    4.1905   -0.8470   -2.5833 C   0  0  2  0  0  0  0  0  0  0  0  0
    4.0444   -0.0738   -3.9318 C   0  0  0  0  0  0  0  0  0  0  0  0
    3.1493   -1.1466   -4.6550 C   0  0  0  0  0  0  0  0  0  0  0  0
    2.8578   -2.1676   -3.5731 N   0  0  2  0  0  0  0  0  0  0  0  0
    1.7210   -3.0618   -3.9057 C   0  0  0  0  0  0  0  0  0  0  0  0
    2.6708   -1.1820   -2.5887 C   0  0  0  0  0  0  0  0  0  0  0  0
    4.0621   -2.8717   -2.8535 C   0  0  0  0  0  0  0  0  0  0  0  0
    4.9322   -1.9982   -3.0678 N   0  0  0  0  0  0  0  0  0  0  0  0
    5.8558   -6.0266   -0.2922 H   0  0  0  0  0  0  0  0  0  0  0  0
    5.2834   -5.4912   -1.9041 H   0  0  0  0  0  0  0  0  0  0  0  0
    4.2779   -6.4105   -0.9168 H   0  0  0  0  0  0  0  0  0  0  0  0
    3.5240   -4.3291    1.7398 H   0  0  0  0  0  0  0  0  0  0  0  0
    3.6194   -5.8959    1.0525 H   0  0  0  0  0  0  0  0  0  0  0  0
    2.4341   -4.7775    0.4155 H   0  0  0  0  0  0  0  0  0  0  0  0
    6.1226   -3.1563    0.9910 H   0  0  0  0  0  0  0  0  0  0  0  0
    6.4653   -2.2483   -1.2979 H   0  0  0  0  0  0  0  0  0  0  0  0
    6.5237   -3.9253   -1.3134 H   0  0  0  0  0  0  0  0  0  0  0  0
    2.7493   -1.3179   -0.2838 H   0  0  0  0  0  0  0  0  0  0  0  0
    3.0334   -2.5400    0.7519 H   0  0  0  0  0  0  0  0  0  0  0  0
    4.7079   -1.0023    1.1311 H   0  0  0  0  0  0  0  0  0  0  0  0
    4.2126    0.3854   -0.7325 H   0  0  0  0  0  0  0  0  0  0  0  0
    5.8152   -0.1697   -1.2472 H   0  0  0  0  0  0  0  0  0  0  0  0
    3.5523    0.8998   -3.8688 H   0  0  0  0  0  0  0  0  0  0  0  0
    4.8957   -0.0217   -4.5904 H   0  0  0  0  0  0  0  0  0  0  0  0
    2.2689   -0.6755   -5.0771 H   0  0  0  0  0  0  0  0  0  0  0  0
    3.7064   -1.5753   -5.4746 H   0  0  0  0  0  0  0  0  0  0  0  0
    0.8562   -2.5474   -4.3114 H   0  0  0  0  0  0  0  0  0  0  0  0
    1.4329   -3.6166   -3.0138 H   0  0  0  0  0  0  0  0  0  0  0  0
    2.0393   -3.7857   -4.6565 H   0  0  0  0  0  0  0  0  0  0  0  0
    2.1037   -1.8604   -1.9600 H   0  0  0  0  0  0  0  0  0  0  0  0
    2.0950   -0.2598   -2.6847 H   0  0  0  0  0  0  0  0  0  0  0  0
  1  2  1  0
  1 18  1  0
  1 19  1  0
  1 20  1  0
  2  6  1  0
  2  3  1  0
  2  4  1  0
  3 21  1  0
  3 22  1  0
  3 23  1  0
  4  8  1  0
  4  5  1  0
  4 24  1  1
  5  6  1  0
  5 25  1  0
  5 26  1  0
  6 16  1  6
  6  7  1  0
  7  8  1  0
  7 27  1  0
  7 28  1  0
  8  9  1  0
  8 29  1  1
 10  9  1  1
  9 30  1  0
  9 31  1  0
 10 15  1  0
 10 17  1  0
 10 11  1  0
 11 12  1  0
 11 32  1  0
 11 33  1  0
 12 13  1  0
 12 34  1  0
 12 35  1  0
 13 14  1  6
 13 15  1  0
 13 16  1  0
 14 36  1  0
 14 37  1  0
 14 38  1  0
 15 39  1  0
 15 40  1  0
 16 17  2  0
M  CHG  1  13   1
M  END
>  <i_m_ct_stereo_status>  (317) 
1

>  <s_m_source_file>  (317) 
/var/tmp/pbs.5076255.sched01/tmp0kxp0nim/126xlotvanm.sdf

>  <i_m_source_file_index>  (317) 
11

>  <i_lp_mmshare_version>  (317) 
48012

>  <i_f3d_flags>  (317) 
2

>  <s_epik_input>  (317) 
W0NIM11DMShbQ0gzXSlbQ0BASF0oW0NIMl0yKVtDQEhdKFtDSDJdMylbQ0gyXVtDQF0oTjQpKFtDSDJdNSlbQ0gyXVtDSDJdW05AK101KFtDSDNdKUM9NEMxMjM=

>  <s_epik_cmdline>  (317) 
J2VwaWtfcHl0aG9uJywgJy1waHQnLCAnMi4wJywgJy1waCcsICc3LjAnLCAnLXRuJywgJzgnLCAnLW1hJywgJzIwMCcsICctaW1hZScsICc8aW5maWxlLm1hZT4nLCAnLW9tYWUnLCAnPG91dGZpbGUubWFlPic=

>  <r_lp_tautomer_probability>  (317) 
1

>  <r_epik_Ionization_Penalty>  (317) 
0

>  <r_epik_Ionization_Penalty_Charging>  (317) 
0

>  <r_epik_Ionization_Penalty_Neutral>  (317) 
0

>  <r_epik_State_Penalty>  (317) 
-0

>  <r_epik_Charging_Adjusted_Penalty>  (317) 
0

>  <i_epik_Tot_Q>  (317) 
1

>  <i_epik_Tot_abs_Q>  (317) 
1

>  <s_epik_Chemistry_Notes>  (317) 
This compound has an imine and may undergo hydrolysis.

>  <s_lp_Force_Field>  (317) 
OPLS3e

>  <r_lp_Energy>  (317) 
313.071

>  <b_lp_Chiralities_Consistent>  (317) 
0

>  <s_lp_Variant>  (317) 
95:0-1

>  <s_i_glide_gridfile>  (317) 
pfpi4k_grid

>  <i_i_glide_lignum>  (317) 
11

>  <i_i_glide_rotatable_bonds>  (317) 
0

>  <r_i_docking_score>  (317) 
-2.77495

>  <r_i_glide_ligand_efficiency>  (317) 
-0.163232

>  <r_i_glide_ligand_efficiency_sa>  (317) 
-0.419716

>  <r_i_glide_ligand_efficiency_ln>  (317) 
-0.723921

>  <r_i_glide_gscore>  (317) 
-2.77495

>  <r_i_glide_lipo>  (317) 
-0.39812

>  <r_i_glide_hbond>  (317) 
0

>  <r_i_glide_metal>  (317) 
-0

>  <r_i_glide_rewards>  (317) 
-1.88002

>  <r_i_glide_evdw>  (317) 
3.87691

>  <r_i_glide_ecoul>  (317) 
-4.60431

>  <r_i_glide_erotb>  (317) 
0

>  <r_i_glide_esite>  (317) 
0

>  <r_i_glide_emodel>  (317) 
-1.47535

>  <r_i_glide_energy>  (317) 
-0.727406

>  <r_i_glide_einternal>  (317) 
0

>  <r_i_glide_intrahb_reward>  (317) 
-0

>  <i_i_glide_confnum>  (317) 
1

>  <i_i_glide_posenum>  (317) 
18

>  <r_i_glide_eff_state_penalty>  (317) 
0

>  <ligand_id>  (317) 
95

>  <original_smiles>  (317) 
CC1(C)C2CC13CC2CC12CC[N+](C)(C1)C3=N2

>  <smiles>  (317) 
[H]C([H])([H])C1(C([H])([H])[H])C2([H])C([H])([H])C13C1=NC4(C([H])([H])C2([H])C3([H])[H])C([H])([H])C([H])([H])[N+]1(C([H])([H])[H])C4([H])[H]

$$$$
96:0:0
     RDKit          3D

 53 57  0  0  1  0  0  0  0  0999 V2000
    6.3837   -5.6266    2.2868 C   0  0  0  0  0  0  0  0  0  0  0  0
    5.1732   -4.9763    1.5781 C   0  0  0  0  0  0  0  0  0  0  0  0
    4.9186   -5.7821    0.2777 C   0  0  0  0  0  0  0  0  0  0  0  0
    3.9591   -5.1751    2.5066 C   0  0  0  0  0  0  0  0  0  0  0  0
    2.6957   -4.4892    1.9747 C   0  0  0  0  0  0  0  0  0  0  0  0
    2.9034   -2.9737    1.8412 C   0  0  1  0  0  0  0  0  0  0  0  0
    2.9827   -2.4854    3.1702 O   0  0  0  0  0  0  0  0  0  0  0  0
    4.1623   -2.5678    0.9991 C   0  0  2  0  0  0  0  0  0  0  0  0
    4.4298   -1.0577    1.2695 C   0  0  0  0  0  0  0  0  0  0  0  0
    3.9417   -2.7072   -0.5157 C   0  0  0  0  0  0  0  0  0  0  0  0
    2.8340   -3.0567   -1.1726 C   0  0  0  0  0  0  0  0  0  0  0  0
    3.0126   -3.0778   -2.6634 C   0  0  1  0  0  0  0  0  0  0  0  0
    2.2170   -2.1263   -3.3421 O   0  0  0  0  0  0  0  0  0  0  0  0
    2.9815   -1.1882   -4.0663 C   0  0  1  0  0  0  0  0  0  0  0  0
    3.7483   -0.2386   -3.2161 C   0  0  0  0  0  0  0  0  0  0  0  0
    4.3865   -1.4886   -3.7384 C   0  0  1  0  0  0  0  0  0  0  0  0
    4.4906   -2.7168   -2.8900 C   0  0  2  0  0  0  0  0  0  0  0  0
    5.1502   -3.8555   -3.6492 C   0  0  0  0  0  0  0  0  0  0  0  0
    5.0860   -2.4098   -1.4607 C   0  0  2  0  0  0  0  0  0  0  0  0
    6.3732   -3.1363   -1.0283 C   0  0  1  0  0  0  0  0  0  0  0  0
    7.4852   -2.5688   -1.6952 O   0  0  0  0  0  0  0  0  0  0  0  0
    6.6414   -3.0557    0.4925 C   0  0  0  0  0  0  0  0  0  0  0  0
    5.4208   -3.4274    1.3856 C   0  0  2  0  0  0  0  0  0  0  0  0
    6.1700   -6.6576    2.5701 H   0  0  0  0  0  0  0  0  0  0  0  0
    6.6363   -5.0889    3.2011 H   0  0  0  0  0  0  0  0  0  0  0  0
    7.2734   -5.6526    1.6588 H   0  0  0  0  0  0  0  0  0  0  0  0
    4.2013   -5.3046   -0.3864 H   0  0  0  0  0  0  0  0  0  0  0  0
    4.5168   -6.7724    0.4993 H   0  0  0  0  0  0  0  0  0  0  0  0
    5.8337   -5.9503   -0.2850 H   0  0  0  0  0  0  0  0  0  0  0  0
    3.7626   -6.2378    2.6512 H   0  0  0  0  0  0  0  0  0  0  0  0
    4.1951   -4.7867    3.4992 H   0  0  0  0  0  0  0  0  0  0  0  0
    2.4188   -4.9157    1.0133 H   0  0  0  0  0  0  0  0  0  0  0  0
    1.8624   -4.6989    2.6454 H   0  0  0  0  0  0  0  0  0  0  0  0
    2.0096   -2.5170    1.4103 H   0  0  0  0  0  0  0  0  0  0  0  0
    2.1578   -2.6381    3.5940 H   0  0  0  0  0  0  0  0  0  0  0  0
    4.7066   -0.8723    2.3070 H   0  0  0  0  0  0  0  0  0  0  0  0
    3.5432   -0.4606    1.0518 H   0  0  0  0  0  0  0  0  0  0  0  0
    5.2368   -0.6419    0.6705 H   0  0  0  0  0  0  0  0  0  0  0  0
    1.8796   -3.2909   -0.7334 H   0  0  0  0  0  0  0  0  0  0  0  0
    2.7424   -4.0393   -3.0844 H   0  0  0  0  0  0  0  0  0  0  0  0
    2.7174   -0.9363   -5.0872 H   0  0  0  0  0  0  0  0  0  0  0  0
    4.0628    0.6887   -3.6739 H   0  0  0  0  0  0  0  0  0  0  0  0
    3.5180   -0.2619   -2.1532 H   0  0  0  0  0  0  0  0  0  0  0  0
    4.9999   -1.4075   -4.6338 H   0  0  0  0  0  0  0  0  0  0  0  0
    6.1974   -3.6358   -3.8310 H   0  0  0  0  0  0  0  0  0  0  0  0
    4.6838   -4.0266   -4.6193 H   0  0  0  0  0  0  0  0  0  0  0  0
    5.0756   -4.7904   -3.0920 H   0  0  0  0  0  0  0  0  0  0  0  0
    5.2925   -1.3437   -1.3710 H   0  0  0  0  0  0  0  0  0  0  0  0
    6.3107   -4.1810   -1.2989 H   0  0  0  0  0  0  0  0  0  0  0  0
    7.6282   -3.0221   -2.5165 H   0  0  0  0  0  0  0  0  0  0  0  0
    7.5048   -3.6724    0.7394 H   0  0  0  0  0  0  0  0  0  0  0  0
    6.9580   -2.0421    0.7414 H   0  0  0  0  0  0  0  0  0  0  0  0
    5.6951   -3.0846    2.3835 H   0  0  0  0  0  0  0  0  0  0  0  0
  1  2  1  0
  1 24  1  0
  1 25  1  0
  1 26  1  0
  2 23  1  0
  2  3  1  0
  2  4  1  0
  3 27  1  0
  3 28  1  0
  3 29  1  0
  4  5  1  0
  4 30  1  0
  4 31  1  0
  5  6  1  0
  5 32  1  0
  5 33  1  0
  6  7  1  0
  6  8  1  0
  6 34  1  6
  7 35  1  0
  8 23  1  0
  8  9  1  6
  8 10  1  0
  9 36  1  0
  9 37  1  0
  9 38  1  0
 10 19  1  0
 10 11  2  0
 11 12  1  0
 11 39  1  0
 12 17  1  0
 12 13  1  0
 12 40  1  6
 13 14  1  0
 14 16  1  0
 14 15  1  0
 14 41  1  6
 15 16  1  0
 15 42  1  0
 15 43  1  0
 16 17  1  0
 16 44  1  6
 17 18  1  6
 17 19  1  0
 18 45  1  0
 18 46  1  0
 18 47  1  0
 19 20  1  0
 19 48  1  6
 20 21  1  0
 20 22  1  0
 20 49  1  6
 21 50  1  0
 22 23  1  0
 22 51  1  0
 22 52  1  0
 23 53  1  1
M  END
>  <i_m_ct_stereo_status>  (318) 
1

>  <s_m_source_file>  (318) 
/var/tmp/pbs.5076255.sched01/tmp0kxp0nim/126xlotvanm.sdf

>  <i_m_source_file_index>  (318) 
12

>  <i_lp_mmshare_version>  (318) 
48012

>  <i_f3d_flags>  (318) 
0

>  <s_epik_input>  (318) 
W09IXVtDQEBIXTFbQ0gyXVtDSDJdQyhbQ0gzXSkoW0NIM10pW0NASF0yW0NIMl1bQ0BIXShbT0hdKVtDQEhdKEM9M1tDQEBdMTJbQ0gzXSlbQ0BAXTQoW0NIM10pW0NAQEhdKFtDSF0zKU9bQ0BASF01W0NASF00W0NIMl01

>  <s_epik_cmdline>  (318) 
J2VwaWtfcHl0aG9uJywgJy1waHQnLCAnMi4wJywgJy1waCcsICc3LjAnLCAnLXRuJywgJzgnLCAnLW1hJywgJzIwMCcsICctaW1hZScsICc8aW5maWxlLm1hZT4nLCAnLW9tYWUnLCAnPG91dGZpbGUubWFlPic=

>  <r_lp_tautomer_probability>  (318) 
1

>  <r_epik_Ionization_Penalty>  (318) 
1.12759e-06

>  <r_epik_Ionization_Penalty_Charging>  (318) 
0

>  <r_epik_Ionization_Penalty_Neutral>  (318) 
1.12759e-06

>  <r_epik_State_Penalty>  (318) 
-0

>  <r_epik_Charging_Adjusted_Penalty>  (318) 
0

>  <i_epik_Tot_Q>  (318) 
0

>  <i_epik_Tot_abs_Q>  (318) 
0

>  <s_lp_Force_Field>  (318) 
OPLS3e

>  <r_lp_Energy>  (318) 
33.7571

>  <b_lp_Chiralities_Consistent>  (318) 
1

>  <s_lp_Variant>  (318) 
96:0-1

>  <s_i_glide_gridfile>  (318) 
pfpi4k_grid

>  <i_i_glide_lignum>  (318) 
12

>  <i_i_glide_rotatable_bonds>  (318) 
2

>  <r_i_docking_score>  (318) 
-4.4468

>  <r_i_glide_ligand_efficiency>  (318) 
-0.193339

>  <r_i_glide_ligand_efficiency_sa>  (318) 
-0.549831

>  <r_i_glide_ligand_efficiency_ln>  (318) 
-1.07528

>  <r_i_glide_gscore>  (318) 
-4.4468

>  <r_i_glide_lipo>  (318) 
-0.965857

>  <r_i_glide_hbond>  (318) 
-0.387719

>  <r_i_glide_metal>  (318) 
-0

>  <r_i_glide_rewards>  (318) 
-1.23784

>  <r_i_glide_evdw>  (318) 
-24.6851

>  <r_i_glide_ecoul>  (318) 
-4.14088

>  <r_i_glide_erotb>  (318) 
0

>  <r_i_glide_esite>  (318) 
0

>  <r_i_glide_emodel>  (318) 
-33.9293

>  <r_i_glide_energy>  (318) 
-28.826

>  <r_i_glide_einternal>  (318) 
1.267

>  <r_i_glide_intrahb_reward>  (318) 
-0

>  <i_i_glide_confnum>  (318) 
1

>  <i_i_glide_posenum>  (318) 
7

>  <r_i_glide_eff_state_penalty>  (318) 
0

>  <ligand_id>  (318) 
96

>  <original_smiles>  (318) 
CC1(C)CCC(O)C2(C)C3=CC4OC5CC5C4(C)C3C(O)CC12

>  <smiles>  (318) 
[H]OC1([H])C([H])([H])C2([H])C(C([H])([H])[H])(C3=C([H])C4([H])OC5([H])C([H])([H])C5([H])C4(C([H])([H])[H])C31[H])C([H])(O[H])C([H])([H])C([H])([H])C2(C([H])([H])[H])C([H])([H])[H]

$$$$
96:0:1
     RDKit          3D

 53 57  0  0  1  0  0  0  0  0999 V2000
    6.4336   -5.6126    2.3366 C   0  0  0  0  0  0  0  0  0  0  0  0
    5.1900   -5.0204    1.6330 C   0  0  0  0  0  0  0  0  0  0  0  0
    4.9937   -5.8273    0.3227 C   0  0  0  0  0  0  0  0  0  0  0  0
    3.9877   -5.3063    2.5488 C   0  0  0  0  0  0  0  0  0  0  0  0
    2.6914   -4.6861    2.0181 C   0  0  0  0  0  0  0  0  0  0  0  0
    2.8094   -3.1596    1.8999 C   0  0  1  0  0  0  0  0  0  0  0  0
    2.8519   -2.6861    3.2296 O   0  0  0  0  0  0  0  0  0  0  0  0
    4.0441   -2.6736    1.0651 C   0  0  2  0  0  0  0  0  0  0  0  0
    4.2217   -1.1547    1.3662 C   0  0  0  0  0  0  0  0  0  0  0  0
    3.8491   -2.7953   -0.4431 C   0  0  0  0  0  0  0  0  0  0  0  0
    2.7623   -3.1898   -1.1198 C   0  0  0  0  0  0  0  0  0  0  0  0
    2.9625   -3.1847   -2.6088 C   0  0  1  0  0  0  0  0  0  0  0  0
    2.1315   -2.2585   -3.2822 O   0  0  0  0  0  0  0  0  0  0  0  0
    2.8847   -1.2951   -3.9846 C   0  0  1  0  0  0  0  0  0  0  0  0
    3.5725   -0.2845   -3.1383 C   0  0  0  0  0  0  0  0  0  0  0  0
    4.3077   -1.5118   -3.6314 C   0  0  1  0  0  0  0  0  0  0  0  0
    4.4271   -2.7531   -2.8063 C   0  0  2  0  0  0  0  0  0  0  0  0
    5.1534   -3.8469   -3.5827 C   0  0  0  0  0  0  0  0  0  0  0  0
    4.9838   -2.4285   -1.3773 C   0  0  2  0  0  0  0  0  0  0  0  0
    6.3102   -3.0839   -0.9456 C   0  0  1  0  0  0  0  0  0  0  0  0
    7.4011   -2.4510   -1.5901 O   0  0  0  0  0  0  0  0  0  0  0  0
    6.5539   -3.0086    0.5764 C   0  0  0  0  0  0  0  0  0  0  0  0
    5.3452   -3.4591    1.4560 C   0  0  2  0  0  0  0  0  0  0  0  0
    6.2804   -6.6593    2.6070 H   0  0  0  0  0  0  0  0  0  0  0  0
    6.6479   -5.0741    3.2596 H   0  0  0  0  0  0  0  0  0  0  0  0
    7.3291   -5.5784    1.7151 H   0  0  0  0  0  0  0  0  0  0  0  0
    4.2488   -5.3865   -0.3424 H   0  0  0  0  0  0  0  0  0  0  0  0
    4.6497   -6.8455    0.5284 H   0  0  0  0  0  0  0  0  0  0  0  0
    5.9199   -5.9326   -0.2404 H   0  0  0  0  0  0  0  0  0  0  0  0
    3.8514   -6.3808    2.6780 H   0  0  0  0  0  0  0  0  0  0  0  0
    4.1929   -4.9178    3.5461 H   0  0  0  0  0  0  0  0  0  0  0  0
    2.4422   -5.1207    1.0517 H   0  0  0  0  0  0  0  0  0  0  0  0
    1.8680   -4.9468    2.6850 H   0  0  0  0  0  0  0  0  0  0  0  0
    1.8912   -2.7573    1.4711 H   0  0  0  0  0  0  0  0  0  0  0  0
    2.8189   -1.7381    3.2037 H   0  0  0  0  0  0  0  0  0  0  0  0
    4.4904   -0.9602    2.4042 H   0  0  0  0  0  0  0  0  0  0  0  0
    3.3023   -0.6062    1.1453 H   0  0  0  0  0  0  0  0  0  0  0  0
    5.0048   -0.6846    0.7716 H   0  0  0  0  0  0  0  0  0  0  0  0
    1.8251   -3.4933   -0.6879 H   0  0  0  0  0  0  0  0  0  0  0  0
    2.7387   -4.1517   -3.0440 H   0  0  0  0  0  0  0  0  0  0  0  0
    2.5800   -1.0015   -4.9895 H   0  0  0  0  0  0  0  0  0  0  0  0
    3.8113    0.6644   -3.6155 H   0  0  0  0  0  0  0  0  0  0  0  0
    3.2838   -0.2598   -2.0970 H   0  0  0  0  0  0  0  0  0  0  0  0
    5.0186   -1.3566   -4.4256 H   0  0  0  0  0  0  0  0  0  0  0  0
    6.1891   -3.5722   -3.7519 H   0  0  0  0  0  0  0  0  0  0  0  0
    4.6995   -4.0298   -4.5511 H   0  0  0  0  0  0  0  0  0  0  0  0
    5.1178   -4.7831   -3.0330 H   0  0  0  0  0  0  0  0  0  0  0  0
    5.1169   -1.3518   -1.2765 H   0  0  0  0  0  0  0  0  0  0  0  0
    6.3113   -4.1270   -1.2296 H   0  0  0  0  0  0  0  0  0  0  0  0
    7.5552   -2.8765   -2.4268 H   0  0  0  0  0  0  0  0  0  0  0  0
    7.4505   -3.5779    0.8236 H   0  0  0  0  0  0  0  0  0  0  0  0
    6.8069   -1.9797    0.8409 H   0  0  0  0  0  0  0  0  0  0  0  0
    5.6000   -3.1202    2.4575 H   0  0  0  0  0  0  0  0  0  0  0  0
  1  2  1  0
  1 24  1  0
  1 25  1  0
  1 26  1  0
  2 23  1  0
  2  3  1  0
  2  4  1  0
  3 27  1  0
  3 28  1  0
  3 29  1  0
  4  5  1  0
  4 30  1  0
  4 31  1  0
  5  6  1  0
  5 32  1  0
  5 33  1  0
  6  7  1  0
  6  8  1  0
  6 34  1  6
  7 35  1  0
  8 23  1  0
  8  9  1  6
  8 10  1  0
  9 36  1  0
  9 37  1  0
  9 38  1  0
 10 19  1  0
 10 11  2  0
 11 12  1  0
 11 39  1  0
 12 17  1  0
 12 13  1  0
 12 40  1  6
 13 14  1  0
 14 16  1  0
 14 15  1  0
 14 41  1  6
 15 16  1  0
 15 42  1  0
 15 43  1  0
 16 17  1  0
 16 44  1  6
 17 18  1  6
 17 19  1  0
 18 45  1  0
 18 46  1  0
 18 47  1  0
 19 20  1  0
 19 48  1  6
 20 21  1  0
 20 22  1  0
 20 49  1  6
 21 50  1  0
 22 23  1  0
 22 51  1  0
 22 52  1  0
 23 53  1  1
M  END
>  <i_m_ct_stereo_status>  (319) 
1

>  <s_m_source_file>  (319) 
/var/tmp/pbs.5076255.sched01/tmp0kxp0nim/126xlotvanm.sdf

>  <i_m_source_file_index>  (319) 
12

>  <i_lp_mmshare_version>  (319) 
48012

>  <i_f3d_flags>  (319) 
0

>  <s_epik_input>  (319) 
W09IXVtDQEBIXTFbQ0gyXVtDSDJdQyhbQ0gzXSkoW0NIM10pW0NASF0yW0NIMl1bQ0BIXShbT0hdKVtDQEhdKEM9M1tDQEBdMTJbQ0gzXSlbQ0BAXTQoW0NIM10pW0NAQEhdKFtDSF0zKU9bQ0BASF01W0NASF00W0NIMl01

>  <s_epik_cmdline>  (319) 
J2VwaWtfcHl0aG9uJywgJy1waHQnLCAnMi4wJywgJy1waCcsICc3LjAnLCAnLXRuJywgJzgnLCAnLW1hJywgJzIwMCcsICctaW1hZScsICc8aW5maWxlLm1hZT4nLCAnLW9tYWUnLCAnPG91dGZpbGUubWFlPic=

>  <r_lp_tautomer_probability>  (319) 
1

>  <r_epik_Ionization_Penalty>  (319) 
1.12759e-06

>  <r_epik_Ionization_Penalty_Charging>  (319) 
0

>  <r_epik_Ionization_Penalty_Neutral>  (319) 
1.12759e-06

>  <r_epik_State_Penalty>  (319) 
-0

>  <r_epik_Charging_Adjusted_Penalty>  (319) 
0

>  <i_epik_Tot_Q>  (319) 
0

>  <i_epik_Tot_abs_Q>  (319) 
0

>  <s_lp_Force_Field>  (319) 
OPLS3e

>  <r_lp_Energy>  (319) 
33.7571

>  <b_lp_Chiralities_Consistent>  (319) 
1

>  <s_lp_Variant>  (319) 
96:0-1

>  <s_i_glide_gridfile>  (319) 
pfpi4k_grid

>  <i_i_glide_lignum>  (319) 
12

>  <i_i_glide_rotatable_bonds>  (319) 
2

>  <r_i_docking_score>  (319) 
-4.20557

>  <r_i_glide_ligand_efficiency>  (319) 
-0.182851

>  <r_i_glide_ligand_efficiency_sa>  (319) 
-0.520004

>  <r_i_glide_ligand_efficiency_ln>  (319) 
-1.01695

>  <r_i_glide_gscore>  (319) 
-4.20557

>  <r_i_glide_lipo>  (319) 
-0.932944

>  <r_i_glide_hbond>  (319) 
-0.304763

>  <r_i_glide_metal>  (319) 
-0

>  <r_i_glide_rewards>  (319) 
-1.23784

>  <r_i_glide_evdw>  (319) 
-21.8836

>  <r_i_glide_ecoul>  (319) 
-4.23899

>  <r_i_glide_erotb>  (319) 
0

>  <r_i_glide_esite>  (319) 
0

>  <r_i_glide_emodel>  (319) 
-31.0715

>  <r_i_glide_energy>  (319) 
-26.1226

>  <r_i_glide_einternal>  (319) 
1.2573

>  <r_i_glide_intrahb_reward>  (319) 
-0

>  <i_i_glide_confnum>  (319) 
1

>  <i_i_glide_posenum>  (319) 
1

>  <r_i_glide_eff_state_penalty>  (319) 
0

>  <ligand_id>  (319) 
96

>  <original_smiles>  (319) 
CC1(C)CCC(O)C2(C)C3=CC4OC5CC5C4(C)C3C(O)CC12

>  <smiles>  (319) 
[H]OC1([H])C([H])([H])C2([H])C(C([H])([H])[H])(C3=C([H])C4([H])OC5([H])C([H])([H])C5([H])C4(C([H])([H])[H])C31[H])C([H])(O[H])C([H])([H])C([H])([H])C2(C([H])([H])[H])C([H])([H])[H]

$$$$
96:0:2
     RDKit          3D

 53 57  0  0  1  0  0  0  0  0999 V2000
    6.3740   -5.6185    2.3483 C   0  0  0  0  0  0  0  0  0  0  0  0
    5.1297   -5.0252    1.6365 C   0  0  0  0  0  0  0  0  0  0  0  0
    4.9605   -5.8291    0.3174 C   0  0  0  0  0  0  0  0  0  0  0  0
    3.9185   -5.3274    2.5315 C   0  0  0  0  0  0  0  0  0  0  0  0
    2.6261   -4.7119    1.9871 C   0  0  0  0  0  0  0  0  0  0  0  0
    2.7363   -3.1854    1.8832 C   0  0  1  0  0  0  0  0  0  0  0  0
    2.7695   -2.7234    3.2171 O   0  0  0  0  0  0  0  0  0  0  0  0
    3.9846   -2.6884    1.0584 C   0  0  2  0  0  0  0  0  0  0  0  0
    4.1461   -1.1745    1.3760 C   0  0  0  0  0  0  0  0  0  0  0  0
    3.8035   -2.7991   -0.4494 C   0  0  0  0  0  0  0  0  0  0  0  0
    2.7386   -3.1968   -1.1360 C   0  0  0  0  0  0  0  0  0  0  0  0
    2.9504   -3.1818   -2.6234 C   0  0  1  0  0  0  0  0  0  0  0  0
    2.1191   -2.2599   -3.3073 O   0  0  0  0  0  0  0  0  0  0  0  0
    2.8776   -1.2926   -3.9918 C   0  0  1  0  0  0  0  0  0  0  0  0
    3.5477   -0.2849   -3.1336 C   0  0  0  0  0  0  0  0  0  0  0  0
    4.2924   -1.4978   -3.6190 C   0  0  1  0  0  0  0  0  0  0  0  0
    4.4158   -2.7453   -2.7974 C   0  0  2  0  0  0  0  0  0  0  0  0
    5.1566   -3.8266   -3.5733 C   0  0  0  0  0  0  0  0  0  0  0  0
    4.9476   -2.4183   -1.3639 C   0  0  2  0  0  0  0  0  0  0  0  0
    6.2704   -3.0720   -0.9184 C   0  0  1  0  0  0  0  0  0  0  0  0
    7.3674   -2.4038   -1.5236 O   0  0  0  0  0  0  0  0  0  0  0  0
    6.4992   -3.0145    0.6081 C   0  0  0  0  0  0  0  0  0  0  0  0
    5.2780   -3.4667    1.4713 C   0  0  2  0  0  0  0  0  0  0  0  0
    6.2228   -6.6679    2.6121 H   0  0  0  0  0  0  0  0  0  0  0  0
    6.5763   -5.0829    3.2758 H   0  0  0  0  0  0  0  0  0  0  0  0
    7.2756   -5.5785    1.7363 H   0  0  0  0  0  0  0  0  0  0  0  0
    4.2193   -5.3927   -0.3538 H   0  0  0  0  0  0  0  0  0  0  0  0
    4.6188   -6.8547    0.5112 H   0  0  0  0  0  0  0  0  0  0  0  0
    5.8930   -5.9270   -0.2363 H   0  0  0  0  0  0  0  0  0  0  0  0
    3.7906   -6.4056    2.6543 H   0  0  0  0  0  0  0  0  0  0  0  0
    4.1130   -4.9443    3.5333 H   0  0  0  0  0  0  0  0  0  0  0  0
    2.3950   -5.1411    1.0148 H   0  0  0  0  0  0  0  0  0  0  0  0
    1.7949   -4.9905    2.6370 H   0  0  0  0  0  0  0  0  0  0  0  0
    1.8263   -2.7791    1.4463 H   0  0  0  0  0  0  0  0  0  0  0  0
    1.9484   -2.9526    3.6343 H   0  0  0  0  0  0  0  0  0  0  0  0
    4.3881   -0.9819    2.4228 H   0  0  0  0  0  0  0  0  0  0  0  0
    3.2243   -0.6259    1.1448 H   0  0  0  0  0  0  0  0  0  0  0  0
    4.9340   -0.6927    0.7980 H   0  0  0  0  0  0  0  0  0  0  0  0
    1.7961   -3.5103   -0.7181 H   0  0  0  0  0  0  0  0  0  0  0  0
    2.7372   -4.1470   -3.0692 H   0  0  0  0  0  0  0  0  0  0  0  0
    2.5846   -0.9803   -4.9991 H   0  0  0  0  0  0  0  0  0  0  0  0
    3.7862    0.6789   -3.6061 H   0  0  0  0  0  0  0  0  0  0  0  0
    3.2424   -0.2666   -2.1071 H   0  0  0  0  0  0  0  0  0  0  0  0
    5.0102   -1.3339   -4.4059 H   0  0  0  0  0  0  0  0  0  0  0  0
    6.1932   -3.5395   -3.7168 H   0  0  0  0  0  0  0  0  0  0  0  0
    4.7193   -4.0039   -4.5480 H   0  0  0  0  0  0  0  0  0  0  0  0
    5.1163   -4.7629   -3.0304 H   0  0  0  0  0  0  0  0  0  0  0  0
    5.0736   -1.3428   -1.2530 H   0  0  0  0  0  0  0  0  0  0  0  0
    6.2809   -4.1048   -1.2238 H   0  0  0  0  0  0  0  0  0  0  0  0
    8.0624   -3.0391   -1.6868 H   0  0  0  0  0  0  0  0  0  0  0  0
    7.3968   -3.5759    0.8654 H   0  0  0  0  0  0  0  0  0  0  0  0
    6.7402   -1.9799    0.8822 H   0  0  0  0  0  0  0  0  0  0  0  0
    5.5219   -3.1312    2.4731 H   0  0  0  0  0  0  0  0  0  0  0  0
  1  2  1  0
  1 24  1  0
  1 25  1  0
  1 26  1  0
  2 23  1  0
  2  3  1  0
  2  4  1  0
  3 27  1  0
  3 28  1  0
  3 29  1  0
  4  5  1  0
  4 30  1  0
  4 31  1  0
  5  6  1  0
  5 32  1  0
  5 33  1  0
  6  7  1  0
  6  8  1  0
  6 34  1  6
  7 35  1  0
  8 23  1  0
  8  9  1  6
  8 10  1  0
  9 36  1  0
  9 37  1  0
  9 38  1  0
 10 19  1  0
 10 11  2  0
 11 12  1  0
 11 39  1  0
 12 17  1  0
 12 13  1  0
 12 40  1  6
 13 14  1  0
 14 16  1  0
 14 15  1  0
 14 41  1  6
 15 16  1  0
 15 42  1  0
 15 43  1  0
 16 17  1  0
 16 44  1  6
 17 18  1  6
 17 19  1  0
 18 45  1  0
 18 46  1  0
 18 47  1  0
 19 20  1  0
 19 48  1  6
 20 21  1  0
 20 22  1  0
 20 49  1  6
 21 50  1  0
 22 23  1  0
 22 51  1  0
 22 52  1  0
 23 53  1  1
M  END
>  <i_m_ct_stereo_status>  (320) 
1

>  <s_m_source_file>  (320) 
/var/tmp/pbs.5076255.sched01/tmp0kxp0nim/126xlotvanm.sdf

>  <i_m_source_file_index>  (320) 
12

>  <i_lp_mmshare_version>  (320) 
48012

>  <i_f3d_flags>  (320) 
0

>  <s_epik_input>  (320) 
W09IXVtDQEBIXTFbQ0gyXVtDSDJdQyhbQ0gzXSkoW0NIM10pW0NASF0yW0NIMl1bQ0BIXShbT0hdKVtDQEhdKEM9M1tDQEBdMTJbQ0gzXSlbQ0BAXTQoW0NIM10pW0NAQEhdKFtDSF0zKU9bQ0BASF01W0NASF00W0NIMl01

>  <s_epik_cmdline>  (320) 
J2VwaWtfcHl0aG9uJywgJy1waHQnLCAnMi4wJywgJy1waCcsICc3LjAnLCAnLXRuJywgJzgnLCAnLW1hJywgJzIwMCcsICctaW1hZScsICc8aW5maWxlLm1hZT4nLCAnLW9tYWUnLCAnPG91dGZpbGUubWFlPic=

>  <r_lp_tautomer_probability>  (320) 
1

>  <r_epik_Ionization_Penalty>  (320) 
1.12759e-06

>  <r_epik_Ionization_Penalty_Charging>  (320) 
0

>  <r_epik_Ionization_Penalty_Neutral>  (320) 
1.12759e-06

>  <r_epik_State_Penalty>  (320) 
-0

>  <r_epik_Charging_Adjusted_Penalty>  (320) 
0

>  <i_epik_Tot_Q>  (320) 
0

>  <i_epik_Tot_abs_Q>  (320) 
0

>  <s_lp_Force_Field>  (320) 
OPLS3e

>  <r_lp_Energy>  (320) 
33.7571

>  <b_lp_Chiralities_Consistent>  (320) 
1

>  <s_lp_Variant>  (320) 
96:0-1

>  <s_i_glide_gridfile>  (320) 
pfpi4k_grid

>  <i_i_glide_lignum>  (320) 
12

>  <i_i_glide_rotatable_bonds>  (320) 
2

>  <r_i_docking_score>  (320) 
-4.02354

>  <r_i_glide_ligand_efficiency>  (320) 
-0.174936

>  <r_i_glide_ligand_efficiency_sa>  (320) 
-0.497496

>  <r_i_glide_ligand_efficiency_ln>  (320) 
-0.972928

>  <r_i_glide_gscore>  (320) 
-4.02354

>  <r_i_glide_lipo>  (320) 
-0.91639

>  <r_i_glide_hbond>  (320) 
-0.16

>  <r_i_glide_metal>  (320) 
-0

>  <r_i_glide_rewards>  (320) 
-1.23784

>  <r_i_glide_evdw>  (320) 
-22.054

>  <r_i_glide_ecoul>  (320) 
-4.04407

>  <r_i_glide_erotb>  (320) 
0

>  <r_i_glide_esite>  (320) 
0

>  <r_i_glide_emodel>  (320) 
-30.699

>  <r_i_glide_energy>  (320) 
-26.0981

>  <r_i_glide_einternal>  (320) 
1.13485

>  <r_i_glide_intrahb_reward>  (320) 
-0

>  <i_i_glide_confnum>  (320) 
2

>  <i_i_glide_posenum>  (320) 
9

>  <r_i_glide_eff_state_penalty>  (320) 
0

>  <ligand_id>  (320) 
96

>  <original_smiles>  (320) 
CC1(C)CCC(O)C2(C)C3=CC4OC5CC5C4(C)C3C(O)CC12

>  <smiles>  (320) 
[H]OC1([H])C([H])([H])C2([H])C(C([H])([H])[H])(C3=C([H])C4([H])OC5([H])C([H])([H])C5([H])C4(C([H])([H])[H])C31[H])C([H])(O[H])C([H])([H])C([H])([H])C2(C([H])([H])[H])C([H])([H])[H]

$$$$
97:0:0
     RDKit          3D

 87 93  0  0  1  0  0  0  0  0999 V2000
    7.6625   -5.2751    0.4722 C   0  0  0  0  0  0  0  0  0  0  0  0
    7.0457   -4.0520    1.1206 C   0  0  2  0  0  0  0  0  0  0  0  0
    6.4070   -4.4803    2.4435 C   0  0  0  0  0  0  0  0  0  0  0  0
    5.7594   -3.2688    3.1128 C   0  0  0  0  0  0  0  0  0  0  0  0
    4.6812   -2.6185    2.2536 C   0  0  2  0  0  0  0  0  0  0  0  0
    3.7546   -3.6865    2.0695 O   0  0  0  0  0  0  0  0  0  0  0  0
    5.3206   -2.1863    0.8947 C   0  0  2  0  0  0  0  0  0  0  0  0
    4.2909   -1.4996   -0.0377 C   0  0  0  0  0  0  0  0  0  0  0  0
    3.6455   -0.3204    0.6821 C   0  0  0  0  0  0  0  0  0  0  0  0
    2.9710   -0.7589    1.9792 C   0  0  1  0  0  0  0  0  0  0  0  0
    1.7369   -1.6285    1.6994 C   0  0  0  0  0  0  0  0  0  0  0  0
    3.9981   -1.4300    2.9583 C   0  0  1  0  0  0  0  0  0  0  0  0
    3.4141   -1.8859    4.3042 C   0  0  0  0  0  0  0  0  0  0  0  0
    3.5009   -0.6767    5.1952 C   0  0  2  0  0  0  0  0  0  0  0  0
    3.5109   -0.9039    6.7226 C   0  0  0  0  0  0  0  0  0  0  0  0
    2.6285    0.2152    7.3163 C   0  0  0  0  0  0  0  0  0  0  0  0
    2.3587    1.2376    6.1791 C   0  0  1  0  0  0  0  0  0  0  0  0
    3.5579    2.2278    6.1198 C   0  0  0  0  0  0  0  0  0  0  0  0
    2.3519    0.3228    4.9679 C   0  0  2  0  0  0  0  0  0  0  0  0
    0.9923   -0.3776    4.8998 C   0  0  0  0  0  0  0  0  0  0  0  0
   -0.1323    0.5369    4.5070 C   0  0  1  0  0  0  0  0  0  0  0  0
   -1.5693   -0.5180    4.4265 Cl  0  0  0  0  0  0  0  0  0  0  0  0
   -0.3051    1.6769    5.5283 C   0  0  2  0  0  0  0  0  0  0  0  0
   -0.8044    1.1782    6.8905 C   0  0  2  0  0  0  0  0  0  0  0  0
   -2.2620    1.5031    7.0300 C   0  0  0  0  0  0  0  0  0  0  0  0
   -2.4481    2.7925    6.2354 C   0  0  1  0  0  0  0  0  0  0  0  0
   -2.3897    3.8514    7.1706 O   0  0  0  0  0  0  0  0  0  0  0  0
   -1.3421    2.8361    5.0988 C   0  0  1  0  0  0  0  0  0  0  0  0
   -0.6587    4.2376    5.0437 C   0  0  0  0  0  0  0  0  0  0  0  0
   -2.0655    2.6364    3.6937 C   0  0  2  0  0  0  0  0  0  0  0  0
   -1.1847    2.7196    2.6113 O   0  0  0  0  0  0  0  0  0  0  0  0
   -3.1345    3.6674    3.3086 C   0  0  0  0  0  0  0  0  0  0  0  0
   -3.8182    3.3485    2.1228 O   0  0  0  0  0  0  0  0  0  0  0  0
    0.2486    2.0517    7.5741 C   0  0  0  0  0  0  0  0  0  0  0  0
    1.0381    2.0651    6.2707 C   0  0  1  0  0  0  0  0  0  0  0  0
    4.7683   -0.1733    4.8163 O   0  0  0  0  0  0  0  0  0  0  0  0
    4.9360   -0.4152    3.3344 O   0  0  0  0  0  0  0  0  0  0  0  0
    6.0042   -3.3769    0.1978 C   0  0  0  0  0  0  0  0  0  0  0  0
    6.8840   -6.0057    0.2327 H   0  0  0  0  0  0  0  0  0  0  0  0
    8.3894   -5.7497    1.1299 H   0  0  0  0  0  0  0  0  0  0  0  0
    8.1983   -4.9691   -0.4199 H   0  0  0  0  0  0  0  0  0  0  0  0
    7.8421   -3.3290    1.3030 H   0  0  0  0  0  0  0  0  0  0  0  0
    5.6538   -5.2505    2.2802 H   0  0  0  0  0  0  0  0  0  0  0  0
    7.1203   -5.0053    3.0890 H   0  0  0  0  0  0  0  0  0  0  0  0
    5.4498   -3.6490    4.0815 H   0  0  0  0  0  0  0  0  0  0  0  0
    6.3768   -2.3962    3.2536 H   0  0  0  0  0  0  0  0  0  0  0  0
    4.1508   -4.2970    1.5166 H   0  0  0  0  0  0  0  0  0  0  0  0
    6.0939   -1.4326    1.0860 H   0  0  0  0  0  0  0  0  0  0  0  0
    4.7490   -1.1751   -0.9715 H   0  0  0  0  0  0  0  0  0  0  0  0
    3.5317   -2.2240   -0.3166 H   0  0  0  0  0  0  0  0  0  0  0  0
    4.3582    0.4906    0.8212 H   0  0  0  0  0  0  0  0  0  0  0  0
    2.8326    0.0838    0.0670 H   0  0  0  0  0  0  0  0  0  0  0  0
    2.6197    0.1937    2.3487 H   0  0  0  0  0  0  0  0  0  0  0  0
    1.9460   -2.5018    1.0764 H   0  0  0  0  0  0  0  0  0  0  0  0
    0.9632   -0.9982    1.2733 H   0  0  0  0  0  0  0  0  0  0  0  0
    1.2311   -2.0541    2.5442 H   0  0  0  0  0  0  0  0  0  0  0  0
    2.4545   -2.3632    4.1758 H   0  0  0  0  0  0  0  0  0  0  0  0
    3.9623   -2.6732    4.8081 H   0  0  0  0  0  0  0  0  0  0  0  0
    3.1141   -1.8869    6.9811 H   0  0  0  0  0  0  0  0  0  0  0  0
    4.5300   -0.8575    7.1207 H   0  0  0  0  0  0  0  0  0  0  0  0
    1.6986   -0.2571    7.6359 H   0  0  0  0  0  0  0  0  0  0  0  0
    3.0827    0.6822    8.1938 H   0  0  0  0  0  0  0  0  0  0  0  0
    3.6075    2.7426    5.1556 H   0  0  0  0  0  0  0  0  0  0  0  0
    4.5250    1.7440    6.2701 H   0  0  0  0  0  0  0  0  0  0  0  0
    3.4672    2.9870    6.8966 H   0  0  0  0  0  0  0  0  0  0  0  0
    2.5440    0.9763    4.1196 H   0  0  0  0  0  0  0  0  0  0  0  0
    0.9344   -1.1267    4.1469 H   0  0  0  0  0  0  0  0  0  0  0  0
    0.7714   -0.9603    5.7948 H   0  0  0  0  0  0  0  0  0  0  0  0
    0.1105    0.8923    3.5077 H   0  0  0  0  0  0  0  0  0  0  0  0
   -0.5953    0.1189    7.0520 H   0  0  0  0  0  0  0  0  0  0  0  0
   -2.8648    0.7244    6.5638 H   0  0  0  0  0  0  0  0  0  0  0  0
   -2.5832    1.5804    8.0692 H   0  0  0  0  0  0  0  0  0  0  0  0
   -3.4666    2.8105    5.8730 H   0  0  0  0  0  0  0  0  0  0  0  0
   -1.5231    3.8752    7.5442 H   0  0  0  0  0  0  0  0  0  0  0  0
   -1.3529    5.0367    4.7996 H   0  0  0  0  0  0  0  0  0  0  0  0
    0.1380    4.2610    4.2964 H   0  0  0  0  0  0  0  0  0  0  0  0
   -0.2167    4.5357    5.9950 H   0  0  0  0  0  0  0  0  0  0  0  0
   -2.5800    1.6852    3.6824 H   0  0  0  0  0  0  0  0  0  0  0  0
   -0.4910    2.0969    2.7216 H   0  0  0  0  0  0  0  0  0  0  0  0
   -3.8809    3.5094    4.0510 H   0  0  0  0  0  0  0  0  0  0  0  0
   -2.7929    4.7074    3.2620 H   0  0  0  0  0  0  0  0  0  0  0  0
   -3.1647    3.2111    1.4533 H   0  0  0  0  0  0  0  0  0  0  0  0
   -0.0814    3.0534    7.8357 H   0  0  0  0  0  0  0  0  0  0  0  0
    0.7618    1.5859    8.4138 H   0  0  0  0  0  0  0  0  0  0  0  0
    1.2965    3.0763    5.9683 H   0  0  0  0  0  0  0  0  0  0  0  0
    6.4747   -3.0535   -0.7348 H   0  0  0  0  0  0  0  0  0  0  0  0
    5.2353   -4.1040   -0.0724 H   0  0  0  0  0  0  0  0  0  0  0  0
  1  2  1  0
  1 39  1  0
  1 40  1  0
  1 41  1  0
  2 38  1  0
  2  3  1  0
  2 42  1  1
  3  4  1  0
  3 43  1  0
  3 44  1  0
  4  5  1  0
  4 45  1  0
  4 46  1  0
  5 12  1  0
  5  6  1  6
  5  7  1  0
  6 47  1  0
  7  8  1  0
  7 38  1  0
  7 48  1  1
  8  9  1  0
  8 49  1  0
  8 50  1  0
  9 10  1  0
  9 51  1  0
  9 52  1  0
 10 11  1  0
 10 12  1  0
 10 53  1  1
 11 54  1  0
 11 55  1  0
 11 56  1  0
 12 37  1  1
 12 13  1  0
 13 14  1  0
 13 57  1  0
 13 58  1  0
 14 19  1  0
 14 15  1  0
 14 36  1  6
 15 16  1  0
 15 59  1  0
 15 60  1  0
 16 17  1  0
 16 61  1  0
 16 62  1  0
 17 35  1  0
 17 18  1  6
 17 19  1  0
 18 63  1  0
 18 64  1  0
 18 65  1  0
 19 20  1  0
 19 66  1  6
 20 21  1  0
 20 67  1  0
 20 68  1  0
 21 22  1  0
 21 23  1  0
 21 69  1  6
 23 28  1  6
 23 35  1  0
 23 24  1  0
 24 25  1  0
 24 34  1  0
 24 70  1  6
 25 26  1  0
 25 71  1  0
 25 72  1  0
 26 27  1  0
 26 28  1  0
 26 73  1  6
 27 74  1  0
 28 29  1  6
 28 30  1  0
 29 75  1  0
 29 76  1  0
 29 77  1  0
 30 31  1  0
 30 32  1  0
 30 78  1  1
 31 79  1  0
 32 33  1  0
 32 80  1  0
 32 81  1  0
 33 82  1  0
 34 35  1  0
 34 83  1  0
 34 84  1  0
 35 85  1  6
 36 37  1  0
 38 86  1  0
 38 87  1  0
M  END
>  <i_m_ct_stereo_status>  (321) 
1

>  <s_m_source_file>  (321) 
/var/tmp/pbs.5076255.sched01/tmp0kxp0nim/126xlotvanm.sdf

>  <i_m_source_file_index>  (321) 
13

>  <i_lp_mmshare_version>  (321) 
48012

>  <i_f3d_flags>  (321) 
0

>  <s_epik_input>  (321) 
W0NIMl0xW0NIMl1bQ0BASF0oW0NIM10pW0NIMl1bQ0BASF0oW0NIMl1bQ0gyXVtDQEhdMltDSDNdKVtDQF0xKFtPSF0pW0NAXTIzW0NIMl1bQ0BAXTQoT08zKVtDQEBIXTVbQ0BdKFtDSDNdKShbQ0gyXVtDSDJdNClbQ0BIXTZbQ0BAXTcoW0NASF0oQ2wpW0NIMl01KVtDQEBIXShbQ0gyXTYpW0NIMl1bQ0BASF0oW09IXSlbQ0BdNyhbQ0gzXSlbQ0BIXShbT0hdKVtDSDJdW09IXQ==

>  <s_epik_cmdline>  (321) 
J2VwaWtfcHl0aG9uJywgJy1waHQnLCAnMi4wJywgJy1waCcsICc3LjAnLCAnLXRuJywgJzgnLCAnLW1hJywgJzIwMCcsICctaW1hZScsICc8aW5maWxlLm1hZT4nLCAnLW9tYWUnLCAnPG91dGZpbGUubWFlPic=

>  <r_lp_tautomer_probability>  (321) 
1

>  <r_epik_Ionization_Penalty>  (321) 
7.39513e-07

>  <r_epik_Ionization_Penalty_Charging>  (321) 
0

>  <r_epik_Ionization_Penalty_Neutral>  (321) 
7.39513e-07

>  <r_epik_State_Penalty>  (321) 
-0

>  <r_epik_Charging_Adjusted_Penalty>  (321) 
0

>  <i_epik_Tot_Q>  (321) 
0

>  <i_epik_Tot_abs_Q>  (321) 
0

>  <s_lp_Force_Field>  (321) 
OPLS3e

>  <r_lp_Energy>  (321) 
103.57

>  <b_lp_Chiralities_Consistent>  (321) 
1

>  <s_lp_Variant>  (321) 
97:0-1

>  <s_i_glide_gridfile>  (321) 
pfpi4k_grid

>  <i_i_glide_lignum>  (321) 
13

>  <i_i_glide_rotatable_bonds>  (321) 
6

>  <r_i_docking_score>  (321) 
0.179218

>  <r_i_glide_ligand_efficiency>  (321) 
0.00471627

>  <r_i_glide_ligand_efficiency_sa>  (321) 
0.015856

>  <r_i_glide_ligand_efficiency_ln>  (321) 
0.0386447

>  <r_i_glide_gscore>  (321) 
0.179218

>  <r_i_glide_lipo>  (321) 
-0.543635

>  <r_i_glide_hbond>  (321) 
0

>  <r_i_glide_metal>  (321) 
-0

>  <r_i_glide_rewards>  (321) 
0

>  <r_i_glide_evdw>  (321) 
-9.05054

>  <r_i_glide_ecoul>  (321) 
1.34049

>  <r_i_glide_erotb>  (321) 
0.0635092

>  <r_i_glide_esite>  (321) 
0

>  <r_i_glide_emodel>  (321) 
1.68493

>  <r_i_glide_energy>  (321) 
-7.71005

>  <r_i_glide_einternal>  (321) 
5.99846

>  <r_i_glide_intrahb_reward>  (321) 
-0

>  <i_i_glide_confnum>  (321) 
1

>  <i_i_glide_posenum>  (321) 
5

>  <r_i_glide_eff_state_penalty>  (321) 
0

>  <ligand_id>  (321) 
97

>  <original_smiles>  (321) 
CC1CCC2(O)C(CCC(C)C23CC2(CCC4(C)C2CC(Cl)C25C(CC(O)C2(C)C(O)CO)CC45)OO3)C1

>  <smiles>  (321) 
[H]OC([H])([H])C([H])(O[H])C1(C([H])([H])[H])C([H])(O[H])C([H])([H])C2([H])C([H])([H])C3([H])C4(C([H])([H])[H])C([H])([H])C([H])([H])C5(OOC6(C5([H])[H])C([H])(C([H])([H])[H])C([H])([H])C([H])([H])C5([H])C([H])([H])C([H])(C([H])([H])[H])C([H])([H])C([H])([H])C56O[H])C4([H])C([H])([H])C([H])(Cl)C231

$$$$
98:0:0
     RDKit          3D

 85 90  0  0  1  0  0  0  0  0999 V2000
   -1.7309    0.3751    4.7248 C   0  0  0  0  0  0  0  0  0  0  0  0
   -1.0552    0.9462    3.4812 C   0  0  0  0  0  0  0  0  0  0  0  0
   -1.6310    2.2596    2.9827 C   0  0  0  0  0  0  0  0  0  0  0  0
   -0.0026    0.3782    2.8520 C   0  0  0  0  0  0  0  0  0  0  0  0
    0.6986   -0.9247    3.2037 C   0  0  0  0  0  0  0  0  0  0  0  0
    1.9119   -0.7399    4.1673 C   0  0  2  0  0  0  0  0  0  0  0  0
    3.1396   -0.0823    3.4896 C   0  0  1  0  0  0  0  0  0  0  0  0
    3.7093    1.0405    4.3879 C   0  0  0  0  0  0  0  0  0  0  0  0
    4.2280   -1.0755    2.9452 C   0  0  1  0  0  0  0  0  0  0  0  0
    5.5417   -0.7289    3.3643 O   0  0  0  0  0  0  0  0  0  0  0  0
    3.9143   -2.6671    3.0622 C   0  0  2  0  0  0  0  0  0  0  0  0
    5.0659   -3.5572    2.5383 C   0  0  2  0  0  0  0  0  0  0  0  0
    5.2126   -3.0361    1.0938 C   0  0  0  0  0  0  0  0  0  0  0  0
    3.7708   -2.6916    0.6344 C   0  0  1  0  0  0  0  0  0  0  0  0
    3.3363   -2.9019   -0.8358 C   0  0  0  0  0  0  0  0  0  0  0  0
    4.0306   -2.0602   -1.8402 N   0  0  0  0  0  0  0  0  0  0  0  0
    5.4727   -2.3877   -1.9822 C   0  0  0  0  0  0  0  0  0  0  0  0
    5.4922   -3.6206   -2.9313 C   0  0  0  0  0  0  0  0  0  0  0  0
    4.5587   -3.4008   -3.9778 O   0  0  0  0  0  0  0  0  0  0  0  0
    3.4259   -2.2760   -3.4163 S   0  0  0  0  0  0  0  0  0  0  0  0
    2.1483   -2.9987   -3.3581 O   0  0  0  0  0  0  0  0  0  0  0  0
    3.6947   -1.0542   -4.1731 O   0  0  0  0  0  0  0  0  0  0  0  0
    3.0093   -3.2820    1.8467 C   0  0  1  0  0  0  0  0  0  0  0  0
    3.1289   -4.8626    1.7672 C   0  0  0  0  0  0  0  0  0  0  0  0
    1.8659   -5.5368    2.3311 C   0  0  0  0  0  0  0  0  0  0  0  0
    3.1776   -5.6047    0.3933 C   0  0  0  0  0  0  0  0  0  0  0  0
    4.5273   -5.0192    2.4247 C   0  0  2  0  0  0  0  0  0  0  0  0
    4.7712   -6.0927    3.5052 C   0  0  0  0  0  0  0  0  0  0  0  0
    4.4950   -5.8140    4.9871 C   0  0  0  0  0  0  0  0  0  0  0  0
    3.0418   -5.4722    5.3471 C   0  0  1  0  0  0  0  0  0  0  0  0
    2.6208   -6.1645    6.6592 C   0  0  0  0  0  0  0  0  0  0  0  0
    2.8038   -3.9559    5.4029 C   0  0  2  0  0  0  0  0  0  0  0  0
    1.4909   -3.2147    5.1806 C   0  0  0  0  0  0  0  0  0  0  0  0
    2.3425   -1.9554    5.0153 C   0  0  1  0  0  0  0  0  0  0  0  0
    3.5810   -2.8283    4.6358 C   0  0  2  0  0  0  0  0  0  0  0  0
    4.8590   -2.4720    5.4667 C   0  0  0  0  0  0  0  0  0  0  0  0
   -2.7863    0.1655    4.6241 H   0  0  0  0  0  0  0  0  0  0  0  0
   -1.6805    1.1117    5.5255 H   0  0  0  0  0  0  0  0  0  0  0  0
   -1.2819   -0.5590    5.0576 H   0  0  0  0  0  0  0  0  0  0  0  0
   -2.6794    2.1520    2.7135 H   0  0  0  0  0  0  0  0  0  0  0  0
   -1.1005    2.6292    2.1043 H   0  0  0  0  0  0  0  0  0  0  0  0
   -1.5637    3.0174    3.7590 H   0  0  0  0  0  0  0  0  0  0  0  0
    0.4138    0.8834    1.9897 H   0  0  0  0  0  0  0  0  0  0  0  0
   -0.0277   -1.6295    3.5975 H   0  0  0  0  0  0  0  0  0  0  0  0
    1.0119   -1.2895    2.2337 H   0  0  0  0  0  0  0  0  0  0  0  0
    1.5201   -0.0110    4.8753 H   0  0  0  0  0  0  0  0  0  0  0  0
    2.7745    0.4440    2.6071 H   0  0  0  0  0  0  0  0  0  0  0  0
    4.0793    0.6638    5.3418 H   0  0  0  0  0  0  0  0  0  0  0  0
    2.9361    1.7767    4.6048 H   0  0  0  0  0  0  0  0  0  0  0  0
    4.5216    1.5808    3.9011 H   0  0  0  0  0  0  0  0  0  0  0  0
    4.4246   -0.6903    1.9600 H   0  0  0  0  0  0  0  0  0  0  0  0
    5.6245   -0.9392    4.2728 H   0  0  0  0  0  0  0  0  0  0  0  0
    6.0188   -3.4998    3.0566 H   0  0  0  0  0  0  0  0  0  0  0  0
    5.8638   -2.1598    1.0400 H   0  0  0  0  0  0  0  0  0  0  0  0
    5.6797   -3.8092    0.4781 H   0  0  0  0  0  0  0  0  0  0  0  0
    3.5502   -1.6358    0.5947 H   0  0  0  0  0  0  0  0  0  0  0  0
    3.4367   -3.8901   -1.2536 H   0  0  0  0  0  0  0  0  0  0  0  0
    2.2626   -2.6943   -0.8839 H   0  0  0  0  0  0  0  0  0  0  0  0
    5.9674   -1.5413   -2.4594 H   0  0  0  0  0  0  0  0  0  0  0  0
    6.0378   -2.6243   -1.1038 H   0  0  0  0  0  0  0  0  0  0  0  0
    6.4990   -3.7846   -3.3189 H   0  0  0  0  0  0  0  0  0  0  0  0
    5.2097   -4.5433   -2.4044 H   0  0  0  0  0  0  0  0  0  0  0  0
    1.9702   -2.9914    1.8198 H   0  0  0  0  0  0  0  0  0  0  0  0
    2.0426   -6.5764    2.6021 H   0  0  0  0  0  0  0  0  0  0  0  0
    1.0644   -5.5575    1.5927 H   0  0  0  0  0  0  0  0  0  0  0  0
    1.4310   -5.0057    3.1510 H   0  0  0  0  0  0  0  0  0  0  0  0
    3.1209   -6.6849    0.5177 H   0  0  0  0  0  0  0  0  0  0  0  0
    4.1042   -5.4633   -0.1638 H   0  0  0  0  0  0  0  0  0  0  0  0
    2.3326   -5.3517   -0.2508 H   0  0  0  0  0  0  0  0  0  0  0  0
    5.1722   -5.4639    1.6648 H   0  0  0  0  0  0  0  0  0  0  0  0
    4.2517   -7.0051    3.2050 H   0  0  0  0  0  0  0  0  0  0  0  0
    5.8303   -6.3520    3.4461 H   0  0  0  0  0  0  0  0  0  0  0  0
    4.7767   -6.7300    5.5066 H   0  0  0  0  0  0  0  0  0  0  0  0
    5.1876   -5.0672    5.3689 H   0  0  0  0  0  0  0  0  0  0  0  0
    2.3871   -5.9672    4.6545 H   0  0  0  0  0  0  0  0  0  0  0  0
    3.2497   -5.8671    7.5004 H   0  0  0  0  0  0  0  0  0  0  0  0
    2.6827   -7.2514    6.5698 H   0  0  0  0  0  0  0  0  0  0  0  0
    1.5867   -5.9266    6.9130 H   0  0  0  0  0  0  0  0  0  0  0  0
    2.9803   -3.7395    6.4634 H   0  0  0  0  0  0  0  0  0  0  0  0
    0.9478   -3.4613    4.2770 H   0  0  0  0  0  0  0  0  0  0  0  0
    0.8382   -3.1995    6.0553 H   0  0  0  0  0  0  0  0  0  0  0  0
    2.5428   -1.5811    6.0245 H   0  0  0  0  0  0  0  0  0  0  0  0
    4.8588   -2.8848    6.4750 H   0  0  0  0  0  0  0  0  0  0  0  0
    4.9605   -1.4043    5.6478 H   0  0  0  0  0  0  0  0  0  0  0  0
    5.7856   -2.8357    5.0341 H   0  0  0  0  0  0  0  0  0  0  0  0
  1  2  1  0
  1 37  1  0
  1 38  1  0
  1 39  1  0
  2  3  1  0
  2  4  2  3
  3 40  1  0
  3 41  1  0
  3 42  1  0
  4  5  1  0
  4 43  1  0
  5  6  1  0
  5 44  1  0
  5 45  1  0
  6 34  1  0
  6  7  1  0
  6 46  1  1
  7  8  1  0
  7  9  1  0
  7 47  1  6
  8 48  1  0
  8 49  1  0
  8 50  1  0
  9 10  1  0
  9 11  1  0
  9 51  1  6
 10 52  1  0
 11 23  1  0
 11 35  1  1
 11 12  1  0
 12 27  1  0
 12 13  1  0
 12 53  1  1
 13 14  1  0
 13 54  1  0
 13 55  1  0
 14 15  1  0
 14 23  1  0
 14 56  1  1
 15 16  1  0
 15 57  1  0
 15 58  1  0
 16 20  1  0
 16 17  1  0
 17 18  1  0
 17 59  1  0
 17 60  1  0
 18 19  1  0
 18 61  1  0
 18 62  1  0
 19 20  1  0
 20 21  2  0
 20 22  2  0
 23 24  1  0
 23 63  1  1
 24 25  1  0
 24 26  1  0
 24 27  1  0
 25 64  1  0
 25 65  1  0
 25 66  1  0
 26 67  1  0
 26 68  1  0
 26 69  1  0
 27 28  1  0
 27 70  1  6
 28 29  1  0
 28 71  1  0
 28 72  1  0
 29 30  1  0
 29 73  1  0
 29 74  1  0
 30 31  1  0
 30 32  1  0
 30 75  1  6
 31 76  1  0
 31 77  1  0
 31 78  1  0
 32 35  1  0
 32 33  1  0
 32 79  1  1
 33 34  1  0
 33 80  1  0
 33 81  1  0
 34 35  1  0
 34 82  1  1
 35 36  1  1
 36 83  1  0
 36 84  1  0
 36 85  1  0
M  END
>  <i_m_ct_stereo_status>  (322) 
1

>  <s_m_source_file>  (322) 
/var/tmp/pbs.5076255.sched01/tmp0kxp0nim/126xlotvanm.sdf

>  <i_m_source_file_index>  (322) 
14

>  <i_lp_mmshare_version>  (322) 
48012

>  <i_f3d_flags>  (322) 
0

>  <s_epik_input>  (322) 
W0NIM11DKFtDSDNdKT1bQ0hdW0NIMl1bQ0BIXShbQ0BASF0oW0NIM10pW0NASF0xW09IXSlbQ0BASF0oW0NIMl0yKVtDQEBdMyhbQ0gzXSlbQ0BASF0yW0NASF0oW0NIM10pW0NIMl1bQ0gyXVtDQEhdKFtDQEBIXTRbQ0BdMTM1KUMoW0NIM10pKFtDSDNdKVtDQEBIXTVbQ0BASF0oW0NIMl00KVtDSDJdTihTNig9Tyk9TylbQ0gyXVtDSDJdTzY=

>  <s_epik_cmdline>  (322) 
J2VwaWtfcHl0aG9uJywgJy1waHQnLCAnMi4wJywgJy1waCcsICc3LjAnLCAnLXRuJywgJzgnLCAnLW1hJywgJzIwMCcsICctaW1hZScsICc8aW5maWxlLm1hZT4nLCAnLW9tYWUnLCAnPG91dGZpbGUubWFlPic=

>  <r_lp_tautomer_probability>  (322) 
1

>  <r_epik_Ionization_Penalty>  (322) 
3.26718e-06

>  <r_epik_Ionization_Penalty_Charging>  (322) 
0

>  <r_epik_Ionization_Penalty_Neutral>  (322) 
3.26718e-06

>  <r_epik_State_Penalty>  (322) 
-0

>  <r_epik_Charging_Adjusted_Penalty>  (322) 
0

>  <i_epik_Tot_Q>  (322) 
0

>  <i_epik_Tot_abs_Q>  (322) 
0

>  <s_lp_Force_Field>  (322) 
OPLS3e

>  <r_lp_Energy>  (322) 
166.848

>  <b_lp_Chiralities_Consistent>  (322) 
1

>  <s_lp_Variant>  (322) 
98:0-1

>  <s_i_glide_gridfile>  (322) 
pfpi4k_grid

>  <i_i_glide_lignum>  (322) 
14

>  <i_i_glide_rotatable_bonds>  (322) 
5

>  <r_i_docking_score>  (322) 
-1.82685

>  <r_i_glide_ligand_efficiency>  (322) 
-0.0507458

>  <r_i_glide_ligand_efficiency_sa>  (322) 
-0.167559

>  <r_i_glide_ligand_efficiency_ln>  (322) 
-0.398569

>  <r_i_glide_gscore>  (322) 
-1.82685

>  <r_i_glide_lipo>  (322) 
-0.279089

>  <r_i_glide_hbond>  (322) 
-0.021522

>  <r_i_glide_metal>  (322) 
-0

>  <r_i_glide_rewards>  (322) 
-0.243132

>  <r_i_glide_evdw>  (322) 
-31.2351

>  <r_i_glide_ecoul>  (322) 
0.00616856

>  <r_i_glide_erotb>  (322) 
0.304206

>  <r_i_glide_esite>  (322) 
-0.026481

>  <r_i_glide_emodel>  (322) 
-31.2703

>  <r_i_glide_energy>  (322) 
-31.2289

>  <r_i_glide_einternal>  (322) 
2.96634

>  <r_i_glide_intrahb_reward>  (322) 
-0

>  <i_i_glide_confnum>  (322) 
2

>  <i_i_glide_posenum>  (322) 
2

>  <r_i_glide_eff_state_penalty>  (322) 
0

>  <ligand_id>  (322) 
98

>  <original_smiles>  (322) 
CC(C)=CCC1C(C)C(O)C23C4CC(CN5CCOS5(=O)=O)C2C(C)(C)C4CCC(C)C2CC1C23C

>  <smiles>  (322) 
[H]OC1([H])C([H])(C([H])([H])[H])C([H])(C([H])([H])C([H])=C(C([H])([H])[H])C([H])([H])[H])C2([H])C([H])([H])C3([H])C([H])(C([H])([H])[H])C([H])([H])C([H])([H])C4([H])C5([H])C([H])([H])C([H])(C([H])([H])N6C([H])([H])C([H])([H])OS6(=O)=O)C([H])(C4(C([H])([H])[H])C([H])([H])[H])C15C32C([H])([H])[H]

$$$$
98:0:1
     RDKit          3D

 85 90  0  0  1  0  0  0  0  0999 V2000
   -0.6694    1.4220    2.3070 C   0  0  0  0  0  0  0  0  0  0  0  0
   -1.0580    1.3531    3.7754 C   0  0  0  0  0  0  0  0  0  0  0  0
   -2.1527    2.3218    4.1729 C   0  0  0  0  0  0  0  0  0  0  0  0
   -0.5174    0.5230    4.6865 C   0  0  0  0  0  0  0  0  0  0  0  0
    0.5803   -0.5115    4.4723 C   0  0  0  0  0  0  0  0  0  0  0  0
    1.8830   -0.2639    5.2998 C   0  0  2  0  0  0  0  0  0  0  0  0
    3.0984   -1.0803    4.7774 C   0  0  1  0  0  0  0  0  0  0  0  0
    4.3379   -0.1661    4.6269 C   0  0  0  0  0  0  0  0  0  0  0  0
    3.3877   -2.4378    5.5174 C   0  0  1  0  0  0  0  0  0  0  0  0
    4.7436   -2.5858    5.9187 O   0  0  0  0  0  0  0  0  0  0  0  0
    2.3478   -2.8965    6.6790 C   0  0  2  0  0  0  0  0  0  0  0  0
    2.7513   -4.2346    7.3597 C   0  0  2  0  0  0  0  0  0  0  0  0
    2.8307   -5.2049    6.1285 C   0  0  0  0  0  0  0  0  0  0  0  0
    1.6930   -4.7094    5.1983 C   0  0  1  0  0  0  0  0  0  0  0  0
    0.8622   -5.7264    4.4051 C   0  0  0  0  0  0  0  0  0  0  0  0
    1.4378   -6.0500    3.0840 N   0  0  0  0  0  0  0  0  0  0  0  0
    2.7068   -6.7968    3.1627 C   0  0  0  0  0  0  0  0  0  0  0  0
    2.3216   -8.2823    3.3551 C   0  0  0  0  0  0  0  0  0  0  0  0
    1.2284   -8.5741    2.4885 O   0  0  0  0  0  0  0  0  0  0  0  0
    0.4536   -7.1112    2.1583 S   0  0  0  0  0  0  0  0  0  0  0  0
   -0.9065   -7.1517    2.7723 O   0  0  0  0  0  0  0  0  0  0  0  0
    0.7154   -6.7754    0.7259 O   0  0  0  0  0  0  0  0  0  0  0  0
    1.0269   -3.6919    6.1437 C   0  0  1  0  0  0  0  0  0  0  0  0
    0.3049   -4.4855    7.3071 C   0  0  0  0  0  0  0  0  0  0  0  0
   -0.9695   -3.7500    7.7656 C   0  0  0  0  0  0  0  0  0  0  0  0
   -0.3272   -5.8838    7.0341 C   0  0  0  0  0  0  0  0  0  0  0  0
    1.5356   -4.6984    8.2266 C   0  0  2  0  0  0  0  0  0  0  0  0
    1.4269   -4.4146    9.7450 C   0  0  0  0  0  0  0  0  0  0  0  0
    1.6571   -3.0177   10.3394 C   0  0  0  0  0  0  0  0  0  0  0  0
    0.6927   -1.9186    9.8714 C   0  0  1  0  0  0  0  0  0  0  0  0
    0.2723   -1.0011   11.0392 C   0  0  0  0  0  0  0  0  0  0  0  0
    1.2779   -1.1135    8.7023 C   0  0  2  0  0  0  0  0  0  0  0  0
    0.5053   -0.3601    7.6315 C   0  0  0  0  0  0  0  0  0  0  0  0
    1.8136   -0.3377    6.8423 C   0  0  1  0  0  0  0  0  0  0  0  0
    2.3239   -1.5869    7.6345 C   0  0  2  0  0  0  0  0  0  0  0  0
    3.7507   -1.3708    8.2393 C   0  0  0  0  0  0  0  0  0  0  0  0
   -0.3007    2.4199    2.0800 H   0  0  0  0  0  0  0  0  0  0  0  0
   -1.5435    1.2390    1.6822 H   0  0  0  0  0  0  0  0  0  0  0  0
    0.0996    0.7202    1.9936 H   0  0  0  0  0  0  0  0  0  0  0  0
   -1.8190    3.3404    3.9865 H   0  0  0  0  0  0  0  0  0  0  0  0
   -2.4134    2.2342    5.2288 H   0  0  0  0  0  0  0  0  0  0  0  0
   -3.0506    2.1464    3.5828 H   0  0  0  0  0  0  0  0  0  0  0  0
   -0.9223    0.5742    5.6864 H   0  0  0  0  0  0  0  0  0  0  0  0
    0.1036   -1.4603    4.6461 H   0  0  0  0  0  0  0  0  0  0  0  0
    0.8617   -0.5641    3.4213 H   0  0  0  0  0  0  0  0  0  0  0  0
    2.0968    0.7770    5.0364 H   0  0  0  0  0  0  0  0  0  0  0  0
    2.8662   -1.3628    3.7493 H   0  0  0  0  0  0  0  0  0  0  0  0
    4.6634    0.2403    5.5844 H   0  0  0  0  0  0  0  0  0  0  0  0
    4.1104    0.6808    3.9799 H   0  0  0  0  0  0  0  0  0  0  0  0
    5.1810   -0.6884    4.1720 H   0  0  0  0  0  0  0  0  0  0  0  0
    3.5356   -3.1174    4.6924 H   0  0  0  0  0  0  0  0  0  0  0  0
    4.8781   -3.4904    6.1572 H   0  0  0  0  0  0  0  0  0  0  0  0
    3.6880   -4.2437    7.9150 H   0  0  0  0  0  0  0  0  0  0  0  0
    3.8006   -5.1346    5.6403 H   0  0  0  0  0  0  0  0  0  0  0  0
    2.7023   -6.2528    6.3999 H   0  0  0  0  0  0  0  0  0  0  0  0
    2.0103   -4.1514    4.3295 H   0  0  0  0  0  0  0  0  0  0  0  0
    0.7290   -6.6832    4.8993 H   0  0  0  0  0  0  0  0  0  0  0  0
   -0.1339   -5.3069    4.2379 H   0  0  0  0  0  0  0  0  0  0  0  0
    3.2799   -6.6723    2.2433 H   0  0  0  0  0  0  0  0  0  0  0  0
    3.3476   -6.4792    3.9659 H   0  0  0  0  0  0  0  0  0  0  0  0
    3.1514   -8.9412    3.1419 H   0  0  0  0  0  0  0  0  0  0  0  0
    2.0223   -8.4752    4.3839 H   0  0  0  0  0  0  0  0  0  0  0  0
    0.2860   -3.1397    5.5969 H   0  0  0  0  0  0  0  0  0  0  0  0
   -1.2958   -4.0597    8.7572 H   0  0  0  0  0  0  0  0  0  0  0  0
   -1.8132   -3.9494    7.1004 H   0  0  0  0  0  0  0  0  0  0  0  0
   -0.8736   -2.6871    7.7195 H   0  0  0  0  0  0  0  0  0  0  0  0
   -0.8944   -6.2285    7.8961 H   0  0  0  0  0  0  0  0  0  0  0  0
    0.3986   -6.6779    6.8775 H   0  0  0  0  0  0  0  0  0  0  0  0
   -1.0302   -5.8767    6.1986 H   0  0  0  0  0  0  0  0  0  0  0  0
    1.6869   -5.7759    8.2843 H   0  0  0  0  0  0  0  0  0  0  0  0
    0.4676   -4.7938   10.0971 H   0  0  0  0  0  0  0  0  0  0  0  0
    2.1644   -5.0561   10.2249 H   0  0  0  0  0  0  0  0  0  0  0  0
    1.5397   -3.1359   11.4171 H   0  0  0  0  0  0  0  0  0  0  0  0
    2.6938   -2.7141   10.2172 H   0  0  0  0  0  0  0  0  0  0  0  0
   -0.2510   -2.3678    9.6294 H   0  0  0  0  0  0  0  0  0  0  0  0
    1.1299   -0.5124   11.5033 H   0  0  0  0  0  0  0  0  0  0  0  0
   -0.2469   -1.5646   11.8180 H   0  0  0  0  0  0  0  0  0  0  0  0
   -0.4148   -0.2219   10.7066 H   0  0  0  0  0  0  0  0  0  0  0  0
    1.7622   -0.2770    9.2178 H   0  0  0  0  0  0  0  0  0  0  0  0
   -0.2528   -0.9217    7.1094 H   0  0  0  0  0  0  0  0  0  0  0  0
    0.1589    0.6300    7.9413 H   0  0  0  0  0  0  0  0  0  0  0  0
    2.3852    0.5117    7.2185 H   0  0  0  0  0  0  0  0  0  0  0  0
    3.7652   -0.7628    9.1414 H   0  0  0  0  0  0  0  0  0  0  0  0
    4.4161   -0.8299    7.5708 H   0  0  0  0  0  0  0  0  0  0  0  0
    4.2494   -2.2899    8.5271 H   0  0  0  0  0  0  0  0  0  0  0  0
  1  2  1  0
  1 37  1  0
  1 38  1  0
  1 39  1  0
  2  3  1  0
  2  4  2  3
  3 40  1  0
  3 41  1  0
  3 42  1  0
  4  5  1  0
  4 43  1  0
  5  6  1  0
  5 44  1  0
  5 45  1  0
  6 34  1  0
  6  7  1  0
  6 46  1  1
  7  8  1  0
  7  9  1  0
  7 47  1  6
  8 48  1  0
  8 49  1  0
  8 50  1  0
  9 10  1  0
  9 11  1  0
  9 51  1  6
 10 52  1  0
 11 23  1  0
 11 35  1  1
 11 12  1  0
 12 27  1  0
 12 13  1  0
 12 53  1  1
 13 14  1  0
 13 54  1  0
 13 55  1  0
 14 15  1  0
 14 23  1  0
 14 56  1  6
 15 16  1  0
 15 57  1  0
 15 58  1  0
 16 20  1  0
 16 17  1  0
 17 18  1  0
 17 59  1  0
 17 60  1  0
 18 19  1  0
 18 61  1  0
 18 62  1  0
 19 20  1  0
 20 21  2  0
 20 22  2  0
 23 24  1  0
 23 63  1  6
 24 25  1  0
 24 26  1  0
 24 27  1  0
 25 64  1  0
 25 65  1  0
 25 66  1  0
 26 67  1  0
 26 68  1  0
 26 69  1  0
 27 28  1  0
 27 70  1  1
 28 29  1  0
 28 71  1  0
 28 72  1  0
 29 30  1  0
 29 73  1  0
 29 74  1  0
 30 31  1  0
 30 32  1  0
 30 75  1  6
 31 76  1  0
 31 77  1  0
 31 78  1  0
 32 35  1  0
 32 33  1  0
 32 79  1  1
 33 34  1  0
 33 80  1  0
 33 81  1  0
 34 35  1  0
 34 82  1  1
 35 36  1  1
 36 83  1  0
 36 84  1  0
 36 85  1  0
M  END
>  <i_m_ct_stereo_status>  (323) 
1

>  <s_m_source_file>  (323) 
/var/tmp/pbs.5076255.sched01/tmp0kxp0nim/126xlotvanm.sdf

>  <i_m_source_file_index>  (323) 
14

>  <i_lp_mmshare_version>  (323) 
48012

>  <i_f3d_flags>  (323) 
0

>  <s_epik_input>  (323) 
W0NIM11DKFtDSDNdKT1bQ0hdW0NIMl1bQ0BIXShbQ0BASF0oW0NIM10pW0NASF0xW09IXSlbQ0BASF0oW0NIMl0yKVtDQEBdMyhbQ0gzXSlbQ0BASF0yW0NASF0oW0NIM10pW0NIMl1bQ0gyXVtDQEhdKFtDQEBIXTRbQ0BdMTM1KUMoW0NIM10pKFtDSDNdKVtDQEBIXTVbQ0BASF0oW0NIMl00KVtDSDJdTihTNig9Tyk9TylbQ0gyXVtDSDJdTzY=

>  <s_epik_cmdline>  (323) 
J2VwaWtfcHl0aG9uJywgJy1waHQnLCAnMi4wJywgJy1waCcsICc3LjAnLCAnLXRuJywgJzgnLCAnLW1hJywgJzIwMCcsICctaW1hZScsICc8aW5maWxlLm1hZT4nLCAnLW9tYWUnLCAnPG91dGZpbGUubWFlPic=

>  <r_lp_tautomer_probability>  (323) 
1

>  <r_epik_Ionization_Penalty>  (323) 
3.26718e-06

>  <r_epik_Ionization_Penalty_Charging>  (323) 
0

>  <r_epik_Ionization_Penalty_Neutral>  (323) 
3.26718e-06

>  <r_epik_State_Penalty>  (323) 
-0

>  <r_epik_Charging_Adjusted_Penalty>  (323) 
0

>  <i_epik_Tot_Q>  (323) 
0

>  <i_epik_Tot_abs_Q>  (323) 
0

>  <s_lp_Force_Field>  (323) 
OPLS3e

>  <r_lp_Energy>  (323) 
166.848

>  <b_lp_Chiralities_Consistent>  (323) 
1

>  <s_lp_Variant>  (323) 
98:0-1

>  <s_i_glide_gridfile>  (323) 
pfpi4k_grid

>  <i_i_glide_lignum>  (323) 
14

>  <i_i_glide_rotatable_bonds>  (323) 
5

>  <r_i_docking_score>  (323) 
-1.56281

>  <r_i_glide_ligand_efficiency>  (323) 
-0.0434114

>  <r_i_glide_ligand_efficiency_sa>  (323) 
-0.143341

>  <r_i_glide_ligand_efficiency_ln>  (323) 
-0.340963

>  <r_i_glide_gscore>  (323) 
-1.56281

>  <r_i_glide_lipo>  (323) 
-0.0360602

>  <r_i_glide_hbond>  (323) 
0

>  <r_i_glide_metal>  (323) 
-0

>  <r_i_glide_rewards>  (323) 
0

>  <r_i_glide_evdw>  (323) 
-23.1175

>  <r_i_glide_ecoul>  (323) 
-2.56717

>  <r_i_glide_erotb>  (323) 
0.304206

>  <r_i_glide_esite>  (323) 
-0.290006

>  <r_i_glide_emodel>  (323) 
-27.1037

>  <r_i_glide_energy>  (323) 
-25.6847

>  <r_i_glide_einternal>  (323) 
1.08252

>  <r_i_glide_intrahb_reward>  (323) 
-0

>  <i_i_glide_confnum>  (323) 
2

>  <i_i_glide_posenum>  (323) 
12

>  <r_i_glide_eff_state_penalty>  (323) 
0

>  <ligand_id>  (323) 
98

>  <original_smiles>  (323) 
CC(C)=CCC1C(C)C(O)C23C4CC(CN5CCOS5(=O)=O)C2C(C)(C)C4CCC(C)C2CC1C23C

>  <smiles>  (323) 
[H]OC1([H])C([H])(C([H])([H])[H])C([H])(C([H])([H])C([H])=C(C([H])([H])[H])C([H])([H])[H])C2([H])C([H])([H])C3([H])C([H])(C([H])([H])[H])C([H])([H])C([H])([H])C4([H])C5([H])C([H])([H])C([H])(C([H])([H])N6C([H])([H])C([H])([H])OS6(=O)=O)C([H])(C4(C([H])([H])[H])C([H])([H])[H])C15C32C([H])([H])[H]

$$$$
98:0:2
     RDKit          3D

 85 90  0  0  1  0  0  0  0  0999 V2000
    3.0336   -3.3771    0.2972 C   0  0  0  0  0  0  0  0  0  0  0  0
    3.8145   -4.6809    0.3407 C   0  0  0  0  0  0  0  0  0  0  0  0
    4.9860   -4.7345   -0.6182 C   0  0  0  0  0  0  0  0  0  0  0  0
    3.5454   -5.7280    1.1445 C   0  0  0  0  0  0  0  0  0  0  0  0
    2.4261   -5.8573    2.1707 C   0  0  0  0  0  0  0  0  0  0  0  0
    1.5831   -7.1699    2.0561 C   0  0  2  0  0  0  0  0  0  0  0  0
    0.2531   -7.1007    2.8575 C   0  0  1  0  0  0  0  0  0  0  0  0
   -0.9297   -7.5757    1.9840 C   0  0  0  0  0  0  0  0  0  0  0  0
    0.2801   -7.7428    4.2904 C   0  0  1  0  0  0  0  0  0  0  0  0
   -0.8061   -8.6275    4.5249 O   0  0  0  0  0  0  0  0  0  0  0  0
    1.6999   -8.3186    4.8262 C   0  0  2  0  0  0  0  0  0  0  0  0
    1.5986   -8.9583    6.2348 C   0  0  2  0  0  0  0  0  0  0  0  0
    1.0172   -7.7755    7.0704 C   0  0  0  0  0  0  0  0  0  0  0  0
    1.6639   -6.5035    6.4677 C   0  0  1  0  0  0  0  0  0  0  0  0
    2.0490   -5.3198    7.3568 C   0  0  0  0  0  0  0  0  0  0  0  0
    0.8714   -4.5744    7.8469 N   0  0  0  0  0  0  0  0  0  0  0  0
    0.0889   -5.2990    8.8796 C   0  0  0  0  0  0  0  0  0  0  0  0
    0.8526   -5.1550   10.2217 C   0  0  0  0  0  0  0  0  0  0  0  0
    1.2875   -3.8043   10.3457 O   0  0  0  0  0  0  0  0  0  0  0  0
    1.3766   -3.1368    8.7663 S   0  0  0  0  0  0  0  0  0  0  0  0
    2.8316   -2.8875    8.4874 O   0  0  0  0  0  0  0  0  0  0  0  0
    0.2506   -2.1760    8.6456 O   0  0  0  0  0  0  0  0  0  0  0  0
    2.6722   -7.1976    5.5238 C   0  0  1  0  0  0  0  0  0  0  0  0
    3.8035   -7.8740    6.4075 C   0  0  0  0  0  0  0  0  0  0  0  0
    5.1598   -7.8447    5.6769 C   0  0  0  0  0  0  0  0  0  0  0  0
    4.2593   -7.2203    7.7515 C   0  0  0  0  0  0  0  0  0  0  0  0
    3.0568   -9.1885    6.7544 C   0  0  2  0  0  0  0  0  0  0  0  0
    3.7888  -10.5435    6.6341 C   0  0  0  0  0  0  0  0  0  0  0  0
    3.8295  -11.3322    5.3203 C   0  0  0  0  0  0  0  0  0  0  0  0
    4.5258  -10.6352    4.1416 C   0  0  1  0  0  0  0  0  0  0  0  0
    5.4006  -11.6231    3.3402 C   0  0  0  0  0  0  0  0  0  0  0  0
    3.5182   -9.9127    3.2360 C   0  0  2  0  0  0  0  0  0  0  0  0
    3.7903   -8.7092    2.3495 C   0  0  0  0  0  0  0  0  0  0  0  0
    2.2749   -8.5319    2.2871 C   0  0  1  0  0  0  0  0  0  0  0  0
    2.1216   -9.3218    3.6276 C   0  0  2  0  0  0  0  0  0  0  0  0
    1.0689  -10.4765    3.5338 C   0  0  0  0  0  0  0  0  0  0  0  0
    2.6215   -3.2391   -0.7008 H   0  0  0  0  0  0  0  0  0  0  0  0
    3.6997   -2.5388    0.5018 H   0  0  0  0  0  0  0  0  0  0  0  0
    2.2129   -3.3082    1.0045 H   0  0  0  0  0  0  0  0  0  0  0  0
    4.6235   -4.6335   -1.6393 H   0  0  0  0  0  0  0  0  0  0  0  0
    5.5220   -5.6813   -0.5454 H   0  0  0  0  0  0  0  0  0  0  0  0
    5.6882   -3.9255   -0.4191 H   0  0  0  0  0  0  0  0  0  0  0  0
    4.2222   -6.5668    1.0801 H   0  0  0  0  0  0  0  0  0  0  0  0
    2.8929   -5.7013    3.1288 H   0  0  0  0  0  0  0  0  0  0  0  0
    1.7404   -5.0143    2.0870 H   0  0  0  0  0  0  0  0  0  0  0  0
    1.2945   -7.1365    1.0007 H   0  0  0  0  0  0  0  0  0  0  0  0
    0.0417   -6.0438    3.0287 H   0  0  0  0  0  0  0  0  0  0  0  0
   -0.8296   -8.6215    1.6921 H   0  0  0  0  0  0  0  0  0  0  0  0
   -0.9657   -6.9978    1.0641 H   0  0  0  0  0  0  0  0  0  0  0  0
   -1.8937   -7.4534    2.4821 H   0  0  0  0  0  0  0  0  0  0  0  0
   -0.2005   -6.9835    4.8879 H   0  0  0  0  0  0  0  0  0  0  0  0
   -0.5450   -9.5138    4.3116 H   0  0  0  0  0  0  0  0  0  0  0  0
    0.9679   -9.8425    6.3444 H   0  0  0  0  0  0  0  0  0  0  0  0
   -0.0687   -7.7349    6.9901 H   0  0  0  0  0  0  0  0  0  0  0  0
    1.2618   -7.9021    8.1219 H   0  0  0  0  0  0  0  0  0  0  0  0
    1.0064   -5.9078    5.8447 H   0  0  0  0  0  0  0  0  0  0  0  0
    2.6167   -5.5243    8.2525 H   0  0  0  0  0  0  0  0  0  0  0  0
    2.6790   -4.6373    6.7663 H   0  0  0  0  0  0  0  0  0  0  0  0
   -0.9111   -4.8650    8.9524 H   0  0  0  0  0  0  0  0  0  0  0  0
   -0.0489   -6.3295    8.6732 H   0  0  0  0  0  0  0  0  0  0  0  0
    0.2239   -5.4359   11.0466 H   0  0  0  0  0  0  0  0  0  0  0  0
    1.7125   -5.8165   10.2584 H   0  0  0  0  0  0  0  0  0  0  0  0
    3.1272   -6.4607    4.8894 H   0  0  0  0  0  0  0  0  0  0  0  0
    5.8591   -8.5733    6.0797 H   0  0  0  0  0  0  0  0  0  0  0  0
    5.6514   -6.8741    5.7745 H   0  0  0  0  0  0  0  0  0  0  0  0
    5.0832   -7.9628    4.6166 H   0  0  0  0  0  0  0  0  0  0  0  0
    5.1324   -7.7219    8.1649 H   0  0  0  0  0  0  0  0  0  0  0  0
    3.5252   -7.3014    8.5512 H   0  0  0  0  0  0  0  0  0  0  0  0
    4.5567   -6.1744    7.6323 H   0  0  0  0  0  0  0  0  0  0  0  0
    2.9290   -9.1889    7.8362 H   0  0  0  0  0  0  0  0  0  0  0  0
    4.8005  -10.4255    7.0170 H   0  0  0  0  0  0  0  0  0  0  0  0
    3.3144  -11.2056    7.3525 H   0  0  0  0  0  0  0  0  0  0  0  0
    4.3747  -12.2476    5.5488 H   0  0  0  0  0  0  0  0  0  0  0  0
    2.8365  -11.6811    5.0475 H   0  0  0  0  0  0  0  0  0  0  0  0
    5.2836   -9.9750    4.5224 H   0  0  0  0  0  0  0  0  0  0  0  0
    4.8139  -12.4462    2.9315 H   0  0  0  0  0  0  0  0  0  0  0  0
    6.1850  -12.0515    3.9679 H   0  0  0  0  0  0  0  0  0  0  0  0
    5.8945  -11.1232    2.5063 H   0  0  0  0  0  0  0  0  0  0  0  0
    3.3010  -10.6742    2.4798 H   0  0  0  0  0  0  0  0  0  0  0  0
    4.2664   -7.8698    2.8301 H   0  0  0  0  0  0  0  0  0  0  0  0
    4.2523   -8.9551    1.3903 H   0  0  0  0  0  0  0  0  0  0  0  0
    1.9113   -9.1966    1.5027 H   0  0  0  0  0  0  0  0  0  0  0  0
    1.4369  -11.3657    3.0271 H   0  0  0  0  0  0  0  0  0  0  0  0
    0.1977  -10.2125    2.9406 H   0  0  0  0  0  0  0  0  0  0  0  0
    0.7289  -10.8469    4.4957 H   0  0  0  0  0  0  0  0  0  0  0  0
  1  2  1  0
  1 37  1  0
  1 38  1  0
  1 39  1  0
  2  3  1  0
  2  4  2  3
  3 40  1  0
  3 41  1  0
  3 42  1  0
  4  5  1  0
  4 43  1  0
  5  6  1  0
  5 44  1  0
  5 45  1  0
  6 34  1  0
  6  7  1  0
  6 46  1  6
  7  8  1  0
  7  9  1  0
  7 47  1  1
  8 48  1  0
  8 49  1  0
  8 50  1  0
  9 10  1  0
  9 11  1  0
  9 51  1  1
 10 52  1  0
 11 23  1  0
 11 35  1  6
 11 12  1  0
 12 27  1  0
 12 13  1  0
 12 53  1  6
 13 14  1  0
 13 54  1  0
 13 55  1  0
 14 15  1  0
 14 23  1  0
 14 56  1  6
 15 16  1  0
 15 57  1  0
 15 58  1  0
 16 20  1  0
 16 17  1  0
 17 18  1  0
 17 59  1  0
 17 60  1  0
 18 19  1  0
 18 61  1  0
 18 62  1  0
 19 20  1  0
 20 21  2  0
 20 22  2  0
 23 24  1  0
 23 63  1  6
 24 25  1  0
 24 26  1  0
 24 27  1  0
 25 64  1  0
 25 65  1  0
 25 66  1  0
 26 67  1  0
 26 68  1  0
 26 69  1  0
 27 28  1  0
 27 70  1  1
 28 29  1  0
 28 71  1  0
 28 72  1  0
 29 30  1  0
 29 73  1  0
 29 74  1  0
 30 31  1  0
 30 32  1  0
 30 75  1  1
 31 76  1  0
 31 77  1  0
 31 78  1  0
 32 35  1  0
 32 33  1  0
 32 79  1  6
 33 34  1  0
 33 80  1  0
 33 81  1  0
 34 35  1  0
 34 82  1  6
 35 36  1  6
 36 83  1  0
 36 84  1  0
 36 85  1  0
M  END
>  <i_m_ct_stereo_status>  (324) 
1

>  <s_m_source_file>  (324) 
/var/tmp/pbs.5076255.sched01/tmp0kxp0nim/126xlotvanm.sdf

>  <i_m_source_file_index>  (324) 
14

>  <i_lp_mmshare_version>  (324) 
48012

>  <i_f3d_flags>  (324) 
0

>  <s_epik_input>  (324) 
W0NIM11DKFtDSDNdKT1bQ0hdW0NIMl1bQ0BIXShbQ0BASF0oW0NIM10pW0NASF0xW09IXSlbQ0BASF0oW0NIMl0yKVtDQEBdMyhbQ0gzXSlbQ0BASF0yW0NASF0oW0NIM10pW0NIMl1bQ0gyXVtDQEhdKFtDQEBIXTRbQ0BdMTM1KUMoW0NIM10pKFtDSDNdKVtDQEBIXTVbQ0BASF0oW0NIMl00KVtDSDJdTihTNig9Tyk9TylbQ0gyXVtDSDJdTzY=

>  <s_epik_cmdline>  (324) 
J2VwaWtfcHl0aG9uJywgJy1waHQnLCAnMi4wJywgJy1waCcsICc3LjAnLCAnLXRuJywgJzgnLCAnLW1hJywgJzIwMCcsICctaW1hZScsICc8aW5maWxlLm1hZT4nLCAnLW9tYWUnLCAnPG91dGZpbGUubWFlPic=

>  <r_lp_tautomer_probability>  (324) 
1

>  <r_epik_Ionization_Penalty>  (324) 
3.26718e-06

>  <r_epik_Ionization_Penalty_Charging>  (324) 
0

>  <r_epik_Ionization_Penalty_Neutral>  (324) 
3.26718e-06

>  <r_epik_State_Penalty>  (324) 
-0

>  <r_epik_Charging_Adjusted_Penalty>  (324) 
0

>  <i_epik_Tot_Q>  (324) 
0

>  <i_epik_Tot_abs_Q>  (324) 
0

>  <s_lp_Force_Field>  (324) 
OPLS3e

>  <r_lp_Energy>  (324) 
166.848

>  <b_lp_Chiralities_Consistent>  (324) 
1

>  <s_lp_Variant>  (324) 
98:0-1

>  <s_i_glide_gridfile>  (324) 
pfpi4k_grid

>  <i_i_glide_lignum>  (324) 
14

>  <i_i_glide_rotatable_bonds>  (324) 
5

>  <r_i_docking_score>  (324) 
-1.36575

>  <r_i_glide_ligand_efficiency>  (324) 
-0.0379375

>  <r_i_glide_ligand_efficiency_sa>  (324) 
-0.125267

>  <r_i_glide_ligand_efficiency_ln>  (324) 
-0.29797

>  <r_i_glide_gscore>  (324) 
-1.36575

>  <r_i_glide_lipo>  (324) 
-0.130332

>  <r_i_glide_hbond>  (324) 
-0.00272282

>  <r_i_glide_metal>  (324) 
-0

>  <r_i_glide_rewards>  (324) 
0

>  <r_i_glide_evdw>  (324) 
-22.3834

>  <r_i_glide_ecoul>  (324) 
-2.34442

>  <r_i_glide_erotb>  (324) 
0.304206

>  <r_i_glide_esite>  (324) 
-0.0660692

>  <r_i_glide_emodel>  (324) 
-24.5183

>  <r_i_glide_energy>  (324) 
-24.7278

>  <r_i_glide_einternal>  (324) 
0.80343

>  <r_i_glide_intrahb_reward>  (324) 
-0

>  <i_i_glide_confnum>  (324) 
2

>  <i_i_glide_posenum>  (324) 
26

>  <r_i_glide_eff_state_penalty>  (324) 
0

>  <ligand_id>  (324) 
98

>  <original_smiles>  (324) 
CC(C)=CCC1C(C)C(O)C23C4CC(CN5CCOS5(=O)=O)C2C(C)(C)C4CCC(C)C2CC1C23C

>  <smiles>  (324) 
[H]OC1([H])C([H])(C([H])([H])[H])C([H])(C([H])([H])C([H])=C(C([H])([H])[H])C([H])([H])[H])C2([H])C([H])([H])C3([H])C([H])(C([H])([H])[H])C([H])([H])C([H])([H])C4([H])C5([H])C([H])([H])C([H])(C([H])([H])N6C([H])([H])C([H])([H])OS6(=O)=O)C([H])(C4(C([H])([H])[H])C([H])([H])[H])C15C32C([H])([H])[H]

$$$$
99:0:0
     RDKit          3D

 18 19  0  0  1  0  0  0  0  0999 V2000
    2.6897  -11.5798    3.3332 C   0  0  0  0  0  0  0  0  0  0  0  0
    1.9402  -10.3285    2.8975 C   0  0  0  0  0  0  0  0  0  0  0  0
    0.5961  -10.1826    3.3303 C   0  0  0  0  0  0  0  0  0  0  0  0
    0.0094   -9.0056    2.8727 N   0  0  0  0  0  0  0  0  0  0  0  0
   -1.2568   -8.6084    3.1253 N   0  0  0  0  0  0  0  0  0  0  0  0
   -1.3565   -7.4643    2.5158 N   0  0  0  0  0  0  0  0  0  0  0  0
   -0.1907   -7.0818    1.8617 N   0  0  0  0  0  0  0  0  0  0  0  0
    0.6777   -8.0645    2.0863 C   0  0  0  0  0  0  0  0  0  0  0  0
    1.9638   -8.1967    1.6855 N   0  0  0  0  0  0  0  0  0  0  0  0
    2.5615   -9.3359    2.0932 C   0  0  0  0  0  0  0  0  0  0  0  0
    3.9966   -9.4565    1.6043 C   0  0  0  0  0  0  0  0  0  0  0  0
    2.0643  -12.2260    3.9465 H   0  0  0  0  0  0  0  0  0  0  0  0
    3.5684  -11.3260    3.9236 H   0  0  0  0  0  0  0  0  0  0  0  0
    3.0102  -12.1672    2.4761 H   0  0  0  0  0  0  0  0  0  0  0  0
    0.0348  -10.8719    3.9481 H   0  0  0  0  0  0  0  0  0  0  0  0
    4.4986  -10.3602    1.9387 H   0  0  0  0  0  0  0  0  0  0  0  0
    4.5798   -8.6069    1.9610 H   0  0  0  0  0  0  0  0  0  0  0  0
    4.0227   -9.4496    0.5135 H   0  0  0  0  0  0  0  0  0  0  0  0
  1  2  1  0
  1 12  1  0
  1 13  1  0
  1 14  1  0
  2 10  1  0
  2  3  2  0
  3  4  1  0
  3 15  1  0
  4  8  1  0
  4  5  1  0
  5  6  2  0
  6  7  1  0
  7  8  2  0
  8  9  1  0
  9 10  2  0
 10 11  1  0
 11 16  1  0
 11 17  1  0
 11 18  1  0
M  END
>  <i_m_ct_stereo_status>  (325) 
1

>  <s_m_source_file>  (325) 
/var/tmp/pbs.5076255.sched01/tmp0kxp0nim/126xlotvanm.sdf

>  <i_m_source_file_index>  (325) 
15

>  <i_lp_mmshare_version>  (325) 
48012

>  <i_f3d_flags>  (325) 
0

>  <s_epik_input>  (325) 
W0NIM11jKFtjSF0xKWMoW0NIM10pbmMobjEyKW5ubjI=

>  <s_epik_cmdline>  (325) 
J2VwaWtfcHl0aG9uJywgJy1waHQnLCAnMi4wJywgJy1waCcsICc3LjAnLCAnLXRuJywgJzgnLCAnLW1hJywgJzIwMCcsICctaW1hZScsICc8aW5maWxlLm1hZT4nLCAnLW9tYWUnLCAnPG91dGZpbGUubWFlPic=

>  <r_lp_tautomer_probability>  (325) 
1

>  <r_epik_Ionization_Penalty>  (325) 
1.39594e-10

>  <r_epik_Ionization_Penalty_Charging>  (325) 
0

>  <r_epik_Ionization_Penalty_Neutral>  (325) 
1.39594e-10

>  <r_epik_State_Penalty>  (325) 
-0

>  <r_epik_Charging_Adjusted_Penalty>  (325) 
0

>  <i_epik_Tot_Q>  (325) 
0

>  <i_epik_Tot_abs_Q>  (325) 
0

>  <s_lp_Force_Field>  (325) 
OPLS3e

>  <r_lp_Energy>  (325) 
12.2494

>  <b_lp_Chiralities_Consistent>  (325) 
1

>  <s_lp_Variant>  (325) 
99:0-1

>  <s_i_glide_gridfile>  (325) 
pfpi4k_grid

>  <i_i_glide_lignum>  (325) 
15

>  <i_i_glide_rotatable_bonds>  (325) 
0

>  <r_i_docking_score>  (325) 
-4.13241

>  <r_i_glide_ligand_efficiency>  (325) 
-0.375674

>  <r_i_glide_ligand_efficiency_sa>  (325) 
-0.835491

>  <r_i_glide_ligand_efficiency_ln>  (325) 
-1.21617

>  <r_i_glide_gscore>  (325) 
-4.13241

>  <r_i_glide_lipo>  (325) 
-0.0806349

>  <r_i_glide_hbond>  (325) 
0

>  <r_i_glide_metal>  (325) 
-0

>  <r_i_glide_rewards>  (325) 
-2.25

>  <r_i_glide_evdw>  (325) 
-18.8709

>  <r_i_glide_ecoul>  (325) 
-3.64737

>  <r_i_glide_erotb>  (325) 
0

>  <r_i_glide_esite>  (325) 
-0.311129

>  <r_i_glide_emodel>  (325) 
-29.5271

>  <r_i_glide_energy>  (325) 
-22.5182

>  <r_i_glide_einternal>  (325) 
0

>  <r_i_glide_intrahb_reward>  (325) 
-0

>  <i_i_glide_confnum>  (325) 
2

>  <i_i_glide_posenum>  (325) 
10

>  <r_i_glide_eff_state_penalty>  (325) 
0

>  <ligand_id>  (325) 
99

>  <original_smiles>  (325) 
Cc1cn2nnnc2nc1C

>  <smiles>  (325) 
[H]c1c(C([H])([H])[H])c(C([H])([H])[H])nc2nnnn12

$$$$
99:0:1
     RDKit          3D

 18 19  0  0  1  0  0  0  0  0999 V2000
    2.2284    0.1361    1.9058 C   0  0  0  0  0  0  0  0  0  0  0  0
    1.1477   -0.2341    2.9122 C   0  0  0  0  0  0  0  0  0  0  0  0
    1.3339   -1.4086    3.6814 C   0  0  0  0  0  0  0  0  0  0  0  0
    0.2832   -1.6460    4.5647 N   0  0  0  0  0  0  0  0  0  0  0  0
    0.1942   -2.6897    5.4154 N   0  0  0  0  0  0  0  0  0  0  0  0
   -0.9312   -2.4987    6.0372 N   0  0  0  0  0  0  0  0  0  0  0  0
   -1.6036   -1.3559    5.6184 N   0  0  0  0  0  0  0  0  0  0  0  0
   -0.8263   -0.8115    4.6850 C   0  0  0  0  0  0  0  0  0  0  0  0
   -1.0012    0.3126    3.9551 N   0  0  0  0  0  0  0  0  0  0  0  0
   -0.0102    0.5728    3.0782 C   0  0  0  0  0  0  0  0  0  0  0  0
   -0.2512    1.8339    2.2664 C   0  0  0  0  0  0  0  0  0  0  0  0
    3.0400   -0.5892    1.9122 H   0  0  0  0  0  0  0  0  0  0  0  0
    2.6610    1.1095    2.1345 H   0  0  0  0  0  0  0  0  0  0  0  0
    1.8271    0.1637    0.8931 H   0  0  0  0  0  0  0  0  0  0  0  0
    2.1762   -2.0858    3.6366 H   0  0  0  0  0  0  0  0  0  0  0  0
    0.5430    2.0649    1.5601 H   0  0  0  0  0  0  0  0  0  0  0  0
   -0.3520    2.6904    2.9330 H   0  0  0  0  0  0  0  0  0  0  0  0
   -1.1778    1.7414    1.7000 H   0  0  0  0  0  0  0  0  0  0  0  0
  1  2  1  0
  1 12  1  0
  1 13  1  0
  1 14  1  0
  2 10  1  0
  2  3  2  0
  3  4  1  0
  3 15  1  0
  4  8  1  0
  4  5  1  0
  5  6  2  0
  6  7  1  0
  7  8  2  0
  8  9  1  0
  9 10  2  0
 10 11  1  0
 11 16  1  0
 11 17  1  0
 11 18  1  0
M  END
>  <i_m_ct_stereo_status>  (326) 
1

>  <s_m_source_file>  (326) 
/var/tmp/pbs.5076255.sched01/tmp0kxp0nim/126xlotvanm.sdf

>  <i_m_source_file_index>  (326) 
15

>  <i_lp_mmshare_version>  (326) 
48012

>  <i_f3d_flags>  (326) 
0

>  <s_epik_input>  (326) 
W0NIM11jKFtjSF0xKWMoW0NIM10pbmMobjEyKW5ubjI=

>  <s_epik_cmdline>  (326) 
J2VwaWtfcHl0aG9uJywgJy1waHQnLCAnMi4wJywgJy1waCcsICc3LjAnLCAnLXRuJywgJzgnLCAnLW1hJywgJzIwMCcsICctaW1hZScsICc8aW5maWxlLm1hZT4nLCAnLW9tYWUnLCAnPG91dGZpbGUubWFlPic=

>  <r_lp_tautomer_probability>  (326) 
1

>  <r_epik_Ionization_Penalty>  (326) 
1.39594e-10

>  <r_epik_Ionization_Penalty_Charging>  (326) 
0

>  <r_epik_Ionization_Penalty_Neutral>  (326) 
1.39594e-10

>  <r_epik_State_Penalty>  (326) 
-0

>  <r_epik_Charging_Adjusted_Penalty>  (326) 
0

>  <i_epik_Tot_Q>  (326) 
0

>  <i_epik_Tot_abs_Q>  (326) 
0

>  <s_lp_Force_Field>  (326) 
OPLS3e

>  <r_lp_Energy>  (326) 
12.2494

>  <b_lp_Chiralities_Consistent>  (326) 
1

>  <s_lp_Variant>  (326) 
99:0-1

>  <s_i_glide_gridfile>  (326) 
pfpi4k_grid

>  <i_i_glide_lignum>  (326) 
15

>  <i_i_glide_rotatable_bonds>  (326) 
0

>  <r_i_docking_score>  (326) 
-3.598

>  <r_i_glide_ligand_efficiency>  (326) 
-0.327091

>  <r_i_glide_ligand_efficiency_sa>  (326) 
-0.727444

>  <r_i_glide_ligand_efficiency_ln>  (326) 
-1.05889

>  <r_i_glide_gscore>  (326) 
-3.598

>  <r_i_glide_lipo>  (326) 
0

>  <r_i_glide_hbond>  (326) 
0

>  <r_i_glide_metal>  (326) 
-0

>  <r_i_glide_rewards>  (326) 
-2.25

>  <r_i_glide_evdw>  (326) 
-13.7056

>  <r_i_glide_ecoul>  (326) 
-3.46206

>  <r_i_glide_erotb>  (326) 
0

>  <r_i_glide_esite>  (326) 
-0.143413

>  <r_i_glide_emodel>  (326) 
-23.2703

>  <r_i_glide_energy>  (326) 
-17.1676

>  <r_i_glide_einternal>  (326) 
0

>  <r_i_glide_intrahb_reward>  (326) 
-0

>  <i_i_glide_confnum>  (326) 
2

>  <i_i_glide_posenum>  (326) 
27

>  <r_i_glide_eff_state_penalty>  (326) 
0

>  <ligand_id>  (326) 
99

>  <original_smiles>  (326) 
Cc1cn2nnnc2nc1C

>  <smiles>  (326) 
[H]c1c(C([H])([H])[H])c(C([H])([H])[H])nc2nnnn12

$$$$
99:0:2
     RDKit          3D

 18 19  0  0  1  0  0  0  0  0999 V2000
    0.8642    1.5134    1.7000 C   0  0  0  0  0  0  0  0  0  0  0  0
    0.2216    0.7285    2.8343 C   0  0  0  0  0  0  0  0  0  0  0  0
    0.7555   -0.5484    3.1350 C   0  0  0  0  0  0  0  0  0  0  0  0
    0.0866   -1.1755    4.1816 N   0  0  0  0  0  0  0  0  0  0  0  0
    0.3661   -2.4012    4.6706 N   0  0  0  0  0  0  0  0  0  0  0  0
   -0.5051   -2.5718    5.6217 N   0  0  0  0  0  0  0  0  0  0  0  0
   -1.3766   -1.4965    5.7649 N   0  0  0  0  0  0  0  0  0  0  0  0
   -0.9881   -0.6047    4.8597 C   0  0  0  0  0  0  0  0  0  0  0  0
   -1.4877    0.6205    4.5858 N   0  0  0  0  0  0  0  0  0  0  0  0
   -0.8729    1.2579    3.5701 C   0  0  0  0  0  0  0  0  0  0  0  0
   -1.4734    2.6242    3.2856 C   0  0  0  0  0  0  0  0  0  0  0  0
    1.6830    0.9543    1.2496 H   0  0  0  0  0  0  0  0  0  0  0  0
    1.2716    2.4580    2.0606 H   0  0  0  0  0  0  0  0  0  0  0  0
    0.1448    1.7280    0.9100 H   0  0  0  0  0  0  0  0  0  0  0  0
    1.5761   -1.0422    2.6335 H   0  0  0  0  0  0  0  0  0  0  0  0
   -0.9774    3.1591    2.4794 H   0  0  0  0  0  0  0  0  0  0  0  0
   -1.4053    3.2482    4.1758 H   0  0  0  0  0  0  0  0  0  0  0  0
   -2.5265    2.5229    3.0210 H   0  0  0  0  0  0  0  0  0  0  0  0
  1  2  1  0
  1 12  1  0
  1 13  1  0
  1 14  1  0
  2 10  1  0
  2  3  2  0
  3  4  1  0
  3 15  1  0
  4  8  1  0
  4  5  1  0
  5  6  2  0
  6  7  1  0
  7  8  2  0
  8  9  1  0
  9 10  2  0
 10 11  1  0
 11 16  1  0
 11 17  1  0
 11 18  1  0
M  END
>  <i_m_ct_stereo_status>  (327) 
1

>  <s_m_source_file>  (327) 
/var/tmp/pbs.5076255.sched01/tmp0kxp0nim/126xlotvanm.sdf

>  <i_m_source_file_index>  (327) 
15

>  <i_lp_mmshare_version>  (327) 
48012

>  <i_f3d_flags>  (327) 
0

>  <s_epik_input>  (327) 
W0NIM11jKFtjSF0xKWMoW0NIM10pbmMobjEyKW5ubjI=

>  <s_epik_cmdline>  (327) 
J2VwaWtfcHl0aG9uJywgJy1waHQnLCAnMi4wJywgJy1waCcsICc3LjAnLCAnLXRuJywgJzgnLCAnLW1hJywgJzIwMCcsICctaW1hZScsICc8aW5maWxlLm1hZT4nLCAnLW9tYWUnLCAnPG91dGZpbGUubWFlPic=

>  <r_lp_tautomer_probability>  (327) 
1

>  <r_epik_Ionization_Penalty>  (327) 
1.39594e-10

>  <r_epik_Ionization_Penalty_Charging>  (327) 
0

>  <r_epik_Ionization_Penalty_Neutral>  (327) 
1.39594e-10

>  <r_epik_State_Penalty>  (327) 
-0

>  <r_epik_Charging_Adjusted_Penalty>  (327) 
0

>  <i_epik_Tot_Q>  (327) 
0

>  <i_epik_Tot_abs_Q>  (327) 
0

>  <s_lp_Force_Field>  (327) 
OPLS3e

>  <r_lp_Energy>  (327) 
12.2494

>  <b_lp_Chiralities_Consistent>  (327) 
1

>  <s_lp_Variant>  (327) 
99:0-1

>  <s_i_glide_gridfile>  (327) 
pfpi4k_grid

>  <i_i_glide_lignum>  (327) 
15

>  <i_i_glide_rotatable_bonds>  (327) 
0

>  <r_i_docking_score>  (327) 
-3.55211

>  <r_i_glide_ligand_efficiency>  (327) 
-0.322919

>  <r_i_glide_ligand_efficiency_sa>  (327) 
-0.718166

>  <r_i_glide_ligand_efficiency_ln>  (327) 
-1.04539

>  <r_i_glide_gscore>  (327) 
-3.55211

>  <r_i_glide_lipo>  (327) 
0

>  <r_i_glide_hbond>  (327) 
0

>  <r_i_glide_metal>  (327) 
-0

>  <r_i_glide_rewards>  (327) 
-2.25

>  <r_i_glide_evdw>  (327) 
-14.5306

>  <r_i_glide_ecoul>  (327) 
-2.99731

>  <r_i_glide_erotb>  (327) 
0

>  <r_i_glide_esite>  (327) 
-0.125986

>  <r_i_glide_emodel>  (327) 
-23.5511

>  <r_i_glide_energy>  (327) 
-17.5279

>  <r_i_glide_einternal>  (327) 
0

>  <r_i_glide_intrahb_reward>  (327) 
-0

>  <i_i_glide_confnum>  (327) 
2

>  <i_i_glide_posenum>  (327) 
16

>  <r_i_glide_eff_state_penalty>  (327) 
0

>  <ligand_id>  (327) 
99

>  <original_smiles>  (327) 
Cc1cn2nnnc2nc1C

>  <smiles>  (327) 
[H]c1c(C([H])([H])[H])c(C([H])([H])[H])nc2nnnn12

$$$$
101:0:0
     RDKit          3D

 28 33  0  0  1  0  0  0  0  0999 V2000
    3.8890   -2.7655   -2.9286 C   0  0  0  0  0  0  0  0  0  0  0  0
    5.3495   -3.2866   -2.6967 C   0  0  0  0  0  0  0  0  0  0  0  0
    5.5641   -2.3722   -1.5377 C   0  0  1  0  0  0  0  0  0  0  0  0
    5.0869   -1.1911   -2.1028 O   0  0  0  0  0  0  0  0  0  0  0  0
    3.7642   -1.4658   -2.0269 C   0  0  2  0  0  0  0  0  0  0  0  0
    3.7559   -1.6169   -0.4749 C   0  0  2  0  0  0  0  0  0  0  0  0
    4.6747   -0.8711    0.4989 C   0  0  1  0  0  0  0  0  0  0  0  0
    4.7624   -1.8893    1.7101 C   0  0  1  0  0  0  0  0  0  0  0  0
    3.8671   -3.1947    1.7568 C   0  0  0  0  0  0  0  0  0  0  0  0
    4.0774   -3.9308    0.3452 C   0  0  0  0  0  0  0  0  0  0  0  0
    4.7290   -2.7199   -0.3098 C   0  0  1  0  0  0  0  0  0  0  0  0
    5.7096   -2.3911    0.7310 C   0  0  1  0  0  0  0  0  0  0  0  0
    6.2466   -1.1433    0.2224 C   0  0  1  0  0  0  0  0  0  0  0  0
    6.7456   -1.8896   -0.9798 O   0  0  0  0  0  0  0  0  0  0  0  0
    3.1299   -3.5038   -2.6641 H   0  0  0  0  0  0  0  0  0  0  0  0
    3.7439   -2.5106   -3.9796 H   0  0  0  0  0  0  0  0  0  0  0  0
    5.4169   -4.3359   -2.4098 H   0  0  0  0  0  0  0  0  0  0  0  0
    6.0330   -3.0447   -3.5132 H   0  0  0  0  0  0  0  0  0  0  0  0
    3.1277   -0.6705   -2.4128 H   0  0  0  0  0  0  0  0  0  0  0  0
    2.7577   -1.8115   -0.0814 H   0  0  0  0  0  0  0  0  0  0  0  0
    4.4029    0.1499    0.7650 H   0  0  0  0  0  0  0  0  0  0  0  0
    5.2178   -1.5128    2.6283 H   0  0  0  0  0  0  0  0  0  0  0  0
    4.1485   -3.8493    2.5816 H   0  0  0  0  0  0  0  0  0  0  0  0
    2.8198   -2.9352    1.9155 H   0  0  0  0  0  0  0  0  0  0  0  0
    4.7553   -4.7838    0.4259 H   0  0  0  0  0  0  0  0  0  0  0  0
    3.1491   -4.2461   -0.1321 H   0  0  0  0  0  0  0  0  0  0  0  0
    6.4364   -3.1377    1.0607 H   0  0  0  0  0  0  0  0  0  0  0  0
    6.9723   -0.6912    0.9022 H   0  0  0  0  0  0  0  0  0  0  0  0
  1  5  1  0
  1  2  1  0
  1 15  1  0
  1 16  1  0
  2  3  1  0
  2 17  1  0
  2 18  1  0
  3 11  1  0
  3 14  1  1
  3  4  1  0
  4  5  1  0
  5  6  1  0
  5 19  1  6
  6 11  1  0
  6  7  1  0
  6 20  1  1
  7 13  1  0
  7  8  1  0
  7 21  1  1
  8 12  1  0
  8  9  1  0
  8 22  1  1
  9 10  1  0
  9 23  1  0
  9 24  1  0
 11 10  1  6
 10 25  1  0
 10 26  1  0
 11 12  1  0
 12 13  1  0
 12 27  1  1
 13 14  1  0
 13 28  1  1
M  END
>  <i_m_ct_stereo_status>  (328) 
1

>  <s_m_source_file>  (328) 
/var/tmp/pbs.5076255.sched01/tmp0kxp0nim/126xlotvanm.sdf

>  <i_m_source_file_index>  (328) 
18

>  <i_lp_mmshare_version>  (328) 
48012

>  <i_f3d_flags>  (328) 
0

>  <s_epik_input>  (328) 
W0NIMl0xW0NIMl1bQ0BIXShPMilbQ0BASF0oW0NAXTM0W0NAQF0xMjUpW0NASF02W0NAQEhdKFtDSDJdW0NIMl0zKVtDQEBIXTRbQ0BIXTZPNQ==

>  <s_epik_cmdline>  (328) 
J2VwaWtfcHl0aG9uJywgJy1waHQnLCAnMi4wJywgJy1waCcsICc3LjAnLCAnLXRuJywgJzgnLCAnLW1hJywgJzIwMCcsICctaW1hZScsICc8aW5maWxlLm1hZT4nLCAnLW9tYWUnLCAnPG91dGZpbGUubWFlPic=

>  <r_lp_tautomer_probability>  (328) 
1

>  <r_epik_Ionization_Penalty>  (328) 
2.26977e-12

>  <r_epik_Ionization_Penalty_Charging>  (328) 
0

>  <r_epik_Ionization_Penalty_Neutral>  (328) 
2.26977e-12

>  <r_epik_State_Penalty>  (328) 
-0

>  <r_epik_Charging_Adjusted_Penalty>  (328) 
0

>  <i_epik_Tot_Q>  (328) 
0

>  <i_epik_Tot_abs_Q>  (328) 
0

>  <s_lp_Force_Field>  (328) 
OPLS3e

>  <r_lp_Energy>  (328) 
155.445

>  <b_lp_Chiralities_Consistent>  (328) 
1

>  <s_lp_Variant>  (328) 
101:0-1

>  <s_i_glide_gridfile>  (328) 
pfpi4k_grid

>  <i_i_glide_lignum>  (328) 
18

>  <i_i_glide_rotatable_bonds>  (328) 
0

>  <r_i_docking_score>  (328) 
-4.40303

>  <r_i_glide_ligand_efficiency>  (328) 
-0.314502

>  <r_i_glide_ligand_efficiency_sa>  (328) 
-0.757995

>  <r_i_glide_ligand_efficiency_ln>  (328) 
-1.20994

>  <r_i_glide_gscore>  (328) 
-4.40303

>  <r_i_glide_lipo>  (328) 
-0.515799

>  <r_i_glide_hbond>  (328) 
-0.16

>  <r_i_glide_metal>  (328) 
-0

>  <r_i_glide_rewards>  (328) 
-2.11201

>  <r_i_glide_evdw>  (328) 
-19.2347

>  <r_i_glide_ecoul>  (328) 
-4.1568

>  <r_i_glide_erotb>  (328) 
0

>  <r_i_glide_esite>  (328) 
-0.029964

>  <r_i_glide_emodel>  (328) 
-30.3565

>  <r_i_glide_energy>  (328) 
-23.3915

>  <r_i_glide_einternal>  (328) 
0

>  <r_i_glide_intrahb_reward>  (328) 
-0

>  <i_i_glide_confnum>  (328) 
2

>  <i_i_glide_posenum>  (328) 
28

>  <r_i_glide_eff_state_penalty>  (328) 
0

>  <ligand_id>  (328) 
101

>  <original_smiles>  (328) 
C1CC23OC1C1C4C5CCC12C5C4O3

>  <smiles>  (328) 
[H]C1([H])C([H])([H])C23OC4([H])C5([H])C6([H])C([H])([H])C([H])([H])C2(C46[H])C5([H])C1([H])O3

$$$$
101:0:1
     RDKit          3D

 28 33  0  0  1  0  0  0  0  0999 V2000
    3.8640   -1.5453    0.8721 C   0  0  0  0  0  0  0  0  0  0  0  0
    4.8764   -0.6572    0.0727 C   0  0  0  0  0  0  0  0  0  0  0  0
    5.3458   -1.7882   -0.7616 C   0  0  1  0  0  0  0  0  0  0  0  0
    5.5607   -2.7222    0.2496 O   0  0  0  0  0  0  0  0  0  0  0  0
    4.2575   -3.0284    0.4978 C   0  0  2  0  0  0  0  0  0  0  0  0
    3.9710   -3.5373   -0.9418 C   0  0  2  0  0  0  0  0  0  0  0  0
    5.0129   -4.1872   -1.8491 C   0  0  1  0  0  0  0  0  0  0  0  0
    4.4826   -3.8355   -3.2892 C   0  0  1  0  0  0  0  0  0  0  0  0
    3.0837   -3.1233   -3.5046 C   0  0  0  0  0  0  0  0  0  0  0  0
    3.1106   -1.8528   -2.5364 C   0  0  0  0  0  0  0  0  0  0  0  0
    4.2976   -2.3284   -1.7253 C   0  0  1  0  0  0  0  0  0  0  0  0
    5.1859   -2.6582   -2.8416 C   0  0  1  0  0  0  0  0  0  0  0  0
    6.3033   -3.2504   -2.1338 C   0  0  1  0  0  0  0  0  0  0  0  0
    6.5302   -1.9212   -1.4839 O   0  0  0  0  0  0  0  0  0  0  0  0
    2.8248   -1.3273    0.6229 H   0  0  0  0  0  0  0  0  0  0  0  0
    3.9997   -1.3708    1.9379 H   0  0  0  0  0  0  0  0  0  0  0  0
    4.4111    0.1229   -0.5275 H   0  0  0  0  0  0  0  0  0  0  0  0
    5.6888   -0.2698    0.6829 H   0  0  0  0  0  0  0  0  0  0  0  0
    4.1335   -3.7726    1.2839 H   0  0  0  0  0  0  0  0  0  0  0  0
    2.9576   -3.9431   -1.0682 H   0  0  0  0  0  0  0  0  0  0  0  0
    5.2015   -5.2368   -1.6877 H   0  0  0  0  0  0  0  0  0  0  0  0
    4.9510   -4.3584   -4.1261 H   0  0  0  0  0  0  0  0  0  0  0  0
    2.8977   -2.8290   -4.5365 H   0  0  0  0  0  0  0  0  0  0  0  0
    2.2640   -3.7991   -3.2422 H   0  0  0  0  0  0  0  0  0  0  0  0
    3.2778   -0.9155   -3.0628 H   0  0  0  0  0  0  0  0  0  0  0  0
    2.2373   -1.8032   -1.9268 H   0  0  0  0  0  0  0  0  0  0  0  0
    5.4177   -1.9163   -3.5880 H   0  0  0  0  0  0  0  0  0  0  0  0
    7.0608   -3.6568   -2.8071 H   0  0  0  0  0  0  0  0  0  0  0  0
  1  5  1  0
  1  2  1  0
  1 15  1  0
  1 16  1  0
  2  3  1  0
  2 17  1  0
  2 18  1  0
  3 11  1  0
  3 14  1  6
  3  4  1  0
  4  5  1  0
  5  6  1  0
  5 19  1  1
  6 11  1  0
  6  7  1  0
  6 20  1  1
  7 13  1  0
  7  8  1  0
  7 21  1  6
  8 12  1  0
  8  9  1  0
  8 22  1  6
  9 10  1  0
  9 23  1  0
  9 24  1  0
 11 10  1  6
 10 25  1  0
 10 26  1  0
 11 12  1  0
 12 13  1  0
 12 27  1  6
 13 14  1  0
 13 28  1  6
M  END
>  <i_m_ct_stereo_status>  (329) 
1

>  <s_m_source_file>  (329) 
/var/tmp/pbs.5076255.sched01/tmp0kxp0nim/126xlotvanm.sdf

>  <i_m_source_file_index>  (329) 
18

>  <i_lp_mmshare_version>  (329) 
48012

>  <i_f3d_flags>  (329) 
0

>  <s_epik_input>  (329) 
W0NIMl0xW0NIMl1bQ0BIXShPMilbQ0BASF0oW0NAXTM0W0NAQF0xMjUpW0NASF02W0NAQEhdKFtDSDJdW0NIMl0zKVtDQEBIXTRbQ0BIXTZPNQ==

>  <s_epik_cmdline>  (329) 
J2VwaWtfcHl0aG9uJywgJy1waHQnLCAnMi4wJywgJy1waCcsICc3LjAnLCAnLXRuJywgJzgnLCAnLW1hJywgJzIwMCcsICctaW1hZScsICc8aW5maWxlLm1hZT4nLCAnLW9tYWUnLCAnPG91dGZpbGUubWFlPic=

>  <r_lp_tautomer_probability>  (329) 
1

>  <r_epik_Ionization_Penalty>  (329) 
2.26977e-12

>  <r_epik_Ionization_Penalty_Charging>  (329) 
0

>  <r_epik_Ionization_Penalty_Neutral>  (329) 
2.26977e-12

>  <r_epik_State_Penalty>  (329) 
-0

>  <r_epik_Charging_Adjusted_Penalty>  (329) 
0

>  <i_epik_Tot_Q>  (329) 
0

>  <i_epik_Tot_abs_Q>  (329) 
0

>  <s_lp_Force_Field>  (329) 
OPLS3e

>  <r_lp_Energy>  (329) 
155.445

>  <b_lp_Chiralities_Consistent>  (329) 
1

>  <s_lp_Variant>  (329) 
101:0-1

>  <s_i_glide_gridfile>  (329) 
pfpi4k_grid

>  <i_i_glide_lignum>  (329) 
18

>  <i_i_glide_rotatable_bonds>  (329) 
0

>  <r_i_docking_score>  (329) 
-4.23512

>  <r_i_glide_ligand_efficiency>  (329) 
-0.302509

>  <r_i_glide_ligand_efficiency_sa>  (329) 
-0.729089

>  <r_i_glide_ligand_efficiency_ln>  (329) 
-1.1638

>  <r_i_glide_gscore>  (329) 
-4.23512

>  <r_i_glide_lipo>  (329) 
-0.568254

>  <r_i_glide_hbond>  (329) 
-0.16

>  <r_i_glide_metal>  (329) 
-0

>  <r_i_glide_rewards>  (329) 
-2.11201

>  <r_i_glide_evdw>  (329) 
-15.4928

>  <r_i_glide_ecoul>  (329) 
-3.91957

>  <r_i_glide_erotb>  (329) 
0

>  <r_i_glide_esite>  (329) 
-0.0322834

>  <r_i_glide_emodel>  (329) 
-26.0292

>  <r_i_glide_energy>  (329) 
-19.4123

>  <r_i_glide_einternal>  (329) 
0

>  <r_i_glide_intrahb_reward>  (329) 
-0

>  <i_i_glide_confnum>  (329) 
1

>  <i_i_glide_posenum>  (329) 
2

>  <r_i_glide_eff_state_penalty>  (329) 
0

>  <ligand_id>  (329) 
101

>  <original_smiles>  (329) 
C1CC23OC1C1C4C5CCC12C5C4O3

>  <smiles>  (329) 
[H]C1([H])C([H])([H])C23OC4([H])C5([H])C6([H])C([H])([H])C([H])([H])C2(C46[H])C5([H])C1([H])O3

$$$$
101:0:2
     RDKit          3D

 28 33  0  0  1  0  0  0  0  0999 V2000
    3.0270   -2.0394   -3.7095 C   0  0  0  0  0  0  0  0  0  0  0  0
    3.9101   -3.3333   -3.8026 C   0  0  0  0  0  0  0  0  0  0  0  0
    4.7419   -2.9342   -2.6324 C   0  0  1  0  0  0  0  0  0  0  0  0
    4.9991   -1.6191   -3.0001 O   0  0  0  0  0  0  0  0  0  0  0  0
    3.7915   -1.0843   -2.7038 C   0  0  2  0  0  0  0  0  0  0  0  0
    3.8687   -1.4641   -1.1920 C   0  0  2  0  0  0  0  0  0  0  0  0
    5.1539   -1.5643   -0.3635 C   0  0  1  0  0  0  0  0  0  0  0  0
    4.7454   -2.6357    0.7287 C   0  0  1  0  0  0  0  0  0  0  0  0
    3.2604   -3.1726    0.8491 C   0  0  0  0  0  0  0  0  0  0  0  0
    2.8330   -3.6416   -0.6247 C   0  0  0  0  0  0  0  0  0  0  0  0
    4.0041   -2.9398   -1.2976 C   0  0  1  0  0  0  0  0  0  0  0  0
    5.0977   -3.4160   -0.4426 C   0  0  1  0  0  0  0  0  0  0  0  0
    6.2132   -2.6389   -0.9524 C   0  0  1  0  0  0  0  0  0  0  0  0
    6.0284   -3.3233   -2.2740 O   0  0  0  0  0  0  0  0  0  0  0  0
    2.0148   -2.2587   -3.3657 H   0  0  0  0  0  0  0  0  0  0  0  0
    2.9534   -1.5678   -4.6879 H   0  0  0  0  0  0  0  0  0  0  0  0
    3.3619   -4.2489   -3.6321 H   0  0  0  0  0  0  0  0  0  0  0  0
    4.5213   -3.3841   -4.7026 H   0  0  0  0  0  0  0  0  0  0  0  0
    3.7292   -0.0166   -2.9072 H   0  0  0  0  0  0  0  0  0  0  0  0
    3.0145   -1.0990   -0.6233 H   0  0  0  0  0  0  0  0  0  0  0  0
    5.5725   -0.6417    0.0323 H   0  0  0  0  0  0  0  0  0  0  0  0
    5.4310   -2.7544    1.5683 H   0  0  0  0  0  0  0  0  0  0  0  0
    3.1802   -4.0012    1.5541 H   0  0  0  0  0  0  0  0  0  0  0  0
    2.5937   -2.3924    1.2204 H   0  0  0  0  0  0  0  0  0  0  0  0
    2.8773   -4.7240   -0.7230 H   0  0  0  0  0  0  0  0  0  0  0  0
    1.8585   -3.2776   -0.9453 H   0  0  0  0  0  0  0  0  0  0  0  0
    5.2631   -4.4887   -0.3142 H   0  0  0  0  0  0  0  0  0  0  0  0
    7.1357   -2.8085   -0.3937 H   0  0  0  0  0  0  0  0  0  0  0  0
  1  5  1  0
  1  2  1  0
  1 15  1  0
  1 16  1  0
  2  3  1  0
  2 17  1  0
  2 18  1  0
  3 11  1  0
  3 14  1  1
  3  4  1  0
  4  5  1  0
  5  6  1  0
  5 19  1  1
  6 11  1  0
  6  7  1  0
  6 20  1  1
  7 13  1  0
  7  8  1  0
  7 21  1  1
  8 12  1  0
  8  9  1  0
  8 22  1  1
  9 10  1  0
  9 23  1  0
  9 24  1  0
 11 10  1  6
 10 25  1  0
 10 26  1  0
 11 12  1  0
 12 13  1  0
 12 27  1  1
 13 14  1  0
 13 28  1  1
M  END
>  <i_m_ct_stereo_status>  (330) 
1

>  <s_m_source_file>  (330) 
/var/tmp/pbs.5076255.sched01/tmp0kxp0nim/126xlotvanm.sdf

>  <i_m_source_file_index>  (330) 
18

>  <i_lp_mmshare_version>  (330) 
48012

>  <i_f3d_flags>  (330) 
0

>  <s_epik_input>  (330) 
W0NIMl0xW0NIMl1bQ0BIXShPMilbQ0BASF0oW0NAXTM0W0NAQF0xMjUpW0NASF02W0NAQEhdKFtDSDJdW0NIMl0zKVtDQEBIXTRbQ0BIXTZPNQ==

>  <s_epik_cmdline>  (330) 
J2VwaWtfcHl0aG9uJywgJy1waHQnLCAnMi4wJywgJy1waCcsICc3LjAnLCAnLXRuJywgJzgnLCAnLW1hJywgJzIwMCcsICctaW1hZScsICc8aW5maWxlLm1hZT4nLCAnLW9tYWUnLCAnPG91dGZpbGUubWFlPic=

>  <r_lp_tautomer_probability>  (330) 
1

>  <r_epik_Ionization_Penalty>  (330) 
2.26977e-12

>  <r_epik_Ionization_Penalty_Charging>  (330) 
0

>  <r_epik_Ionization_Penalty_Neutral>  (330) 
2.26977e-12

>  <r_epik_State_Penalty>  (330) 
-0

>  <r_epik_Charging_Adjusted_Penalty>  (330) 
0

>  <i_epik_Tot_Q>  (330) 
0

>  <i_epik_Tot_abs_Q>  (330) 
0

>  <s_lp_Force_Field>  (330) 
OPLS3e

>  <r_lp_Energy>  (330) 
155.445

>  <b_lp_Chiralities_Consistent>  (330) 
1

>  <s_lp_Variant>  (330) 
101:0-1

>  <s_i_glide_gridfile>  (330) 
pfpi4k_grid

>  <i_i_glide_lignum>  (330) 
18

>  <i_i_glide_rotatable_bonds>  (330) 
0

>  <r_i_docking_score>  (330) 
-4.04626

>  <r_i_glide_ligand_efficiency>  (330) 
-0.289019

>  <r_i_glide_ligand_efficiency_sa>  (330) 
-0.696576

>  <r_i_glide_ligand_efficiency_ln>  (330) 
-1.1119

>  <r_i_glide_gscore>  (330) 
-4.04626

>  <r_i_glide_lipo>  (330) 
-0.404692

>  <r_i_glide_hbond>  (330) 
0

>  <r_i_glide_metal>  (330) 
-0

>  <r_i_glide_rewards>  (330) 
-2.26833

>  <r_i_glide_evdw>  (330) 
-21.385

>  <r_i_glide_ecoul>  (330) 
-2.02657

>  <r_i_glide_erotb>  (330) 
0

>  <r_i_glide_esite>  (330) 
0

>  <r_i_glide_emodel>  (330) 
-29.7873

>  <r_i_glide_energy>  (330) 
-23.4116

>  <r_i_glide_einternal>  (330) 
0

>  <r_i_glide_intrahb_reward>  (330) 
-0

>  <i_i_glide_confnum>  (330) 
2

>  <i_i_glide_posenum>  (330) 
36

>  <r_i_glide_eff_state_penalty>  (330) 
0

>  <ligand_id>  (330) 
101

>  <original_smiles>  (330) 
C1CC23OC1C1C4C5CCC12C5C4O3

>  <smiles>  (330) 
[H]C1([H])C([H])([H])C23OC4([H])C5([H])C6([H])C([H])([H])C([H])([H])C2(C46[H])C5([H])C1([H])O3

$$$$
102:0:0
     RDKit          3D

 70 75  0  0  1  0  0  0  0  0999 V2000
   -3.3994    2.9446    8.8415 C   0  0  0  0  0  0  0  0  0  0  0  0
   -1.9289    3.3342    9.0663 C   0  0  2  0  0  0  0  0  0  0  0  0
   -1.4572    4.3980    8.0675 C   0  0  0  0  0  0  0  0  0  0  0  0
   -1.3392    3.7985    6.6596 C   0  0  0  0  0  0  0  0  0  0  0  0
   -0.4200    2.5498    6.6890 C   0  0  2  0  0  0  0  0  0  0  0  0
    1.0728    2.9124    6.9617 C   0  0  0  0  0  0  0  0  0  0  0  0
    1.9230    1.8893    6.2097 C   0  0  2  0  0  0  0  0  0  0  0  0
    2.9315    2.6417    5.5615 O   0  0  0  0  0  0  0  0  0  0  0  0
    0.9955    1.1402    5.2774 C   0  0  2  0  0  0  0  0  0  0  0  0
   -0.3563    1.8266    5.3127 C   0  0  1  0  0  0  0  0  0  0  0  0
   -1.5404    0.9110    4.9243 C   0  0  0  0  0  0  0  0  0  0  0  0
    1.2384   -0.1535    6.0759 C   0  0  1  0  0  0  0  0  0  0  0  0
    1.4541   -1.4399    5.2530 C   0  0  2  0  0  0  0  0  0  0  0  0
    0.5043   -2.5874    5.6731 C   0  0  0  0  0  0  0  0  0  0  0  0
    0.8456   -3.9107    5.0238 C   0  0  0  0  0  0  0  0  0  0  0  0
    2.0088   -4.1672    4.3615 C   0  0  0  0  0  0  0  0  0  0  0  0
    2.1758   -5.4674    3.5964 C   0  0  0  0  0  0  0  0  0  0  0  0
    2.2079   -5.1187    2.1033 C   0  0  0  0  0  0  0  0  0  0  0  0
    1.5700   -5.7968    1.2846 O   0  0  0  0  0  0  0  0  0  0  0  0
    3.0732   -3.9225    1.6540 C   0  0  0  0  0  0  0  0  0  0  0  0
    3.0111   -2.7682    2.6778 C   0  0  0  0  0  0  0  0  0  0  0  0
    2.8961   -1.6014    2.2850 O   0  0  0  0  0  0  0  0  0  0  0  0
    3.1285   -3.1294    4.1813 C   0  0  2  0  0  0  0  0  0  0  0  0
    4.5242   -3.7719    4.4030 C   0  0  0  0  0  0  0  0  0  0  0  0
    2.9263   -1.9402    5.2120 C   0  0  2  0  0  0  0  0  0  0  0  0
    3.1270   -2.5159    6.4062 F   0  0  0  0  0  0  0  0  0  0  0  0
    3.9517   -0.7581    5.2250 C   0  0  1  0  0  0  0  0  0  0  0  0
    3.8618    0.1378    4.1320 O   0  0  0  0  0  0  0  0  0  0  0  0
    3.8199    0.0837    6.5174 C   0  0  0  0  0  0  0  0  0  0  0  0
    2.3871    0.5395    6.8549 C   0  0  1  0  0  0  0  0  0  0  0  0
    2.2780    0.4701    8.3897 C   0  0  0  0  0  0  0  0  0  0  0  0
   -0.8962    1.6193    7.6729 O   0  0  0  0  0  0  0  0  0  0  0  0
   -1.0229    2.1007    9.0207 C   0  0  0  0  0  0  0  0  0  0  0  0
   -3.5292    2.4539    7.8780 H   0  0  0  0  0  0  0  0  0  0  0  0
   -4.0579    3.8167    8.8673 H   0  0  0  0  0  0  0  0  0  0  0  0
   -3.7246    2.2558    9.6144 H   0  0  0  0  0  0  0  0  0  0  0  0
   -1.8467    3.7585   10.0657 H   0  0  0  0  0  0  0  0  0  0  0  0
   -2.1270    5.2600    8.0752 H   0  0  0  0  0  0  0  0  0  0  0  0
   -0.4844    4.7840    8.3740 H   0  0  0  0  0  0  0  0  0  0  0  0
   -2.3264    3.5483    6.2729 H   0  0  0  0  0  0  0  0  0  0  0  0
   -0.9487    4.5469    5.9590 H   0  0  0  0  0  0  0  0  0  0  0  0
    1.2524    3.8964    6.5120 H   0  0  0  0  0  0  0  0  0  0  0  0
    1.3604    2.9944    8.0098 H   0  0  0  0  0  0  0  0  0  0  0  0
    3.3337    2.0423    4.9506 H   0  0  0  0  0  0  0  0  0  0  0  0
    1.4163    1.0568    4.2688 H   0  0  0  0  0  0  0  0  0  0  0  0
   -0.3353    2.6022    4.5351 H   0  0  0  0  0  0  0  0  0  0  0  0
   -1.6791    0.0909    5.6193 H   0  0  0  0  0  0  0  0  0  0  0  0
   -1.3718    0.4708    3.9361 H   0  0  0  0  0  0  0  0  0  0  0  0
   -2.4742    1.4766    4.8552 H   0  0  0  0  0  0  0  0  0  0  0  0
    0.4057   -0.2861    6.7792 H   0  0  0  0  0  0  0  0  0  0  0  0
    1.1795   -1.2188    4.2171 H   0  0  0  0  0  0  0  0  0  0  0  0
    0.5211   -2.7372    6.7535 H   0  0  0  0  0  0  0  0  0  0  0  0
   -0.5157   -2.3260    5.3952 H   0  0  0  0  0  0  0  0  0  0  0  0
    0.0846   -4.6705    5.0834 H   0  0  0  0  0  0  0  0  0  0  0  0
    3.0865   -5.9883    3.8953 H   0  0  0  0  0  0  0  0  0  0  0  0
    1.3420   -6.1289    3.7932 H   0  0  0  0  0  0  0  0  0  0  0  0
    4.1012   -4.2367    1.5038 H   0  0  0  0  0  0  0  0  0  0  0  0
    2.7076   -3.5732    0.6884 H   0  0  0  0  0  0  0  0  0  0  0  0
    4.7368   -4.5853    3.7098 H   0  0  0  0  0  0  0  0  0  0  0  0
    4.6281   -4.1772    5.4077 H   0  0  0  0  0  0  0  0  0  0  0  0
    5.3276   -3.0481    4.2498 H   0  0  0  0  0  0  0  0  0  0  0  0
    4.9636   -1.1486    5.2137 H   0  0  0  0  0  0  0  0  0  0  0  0
    3.8174   -0.3650    3.3291 H   0  0  0  0  0  0  0  0  0  0  0  0
    4.2161   -0.5232    7.3264 H   0  0  0  0  0  0  0  0  0  0  0  0
    4.5064    0.9286    6.4808 H   0  0  0  0  0  0  0  0  0  0  0  0
    2.5347   -0.5214    8.7764 H   0  0  0  0  0  0  0  0  0  0  0  0
    1.2683    0.6702    8.7280 H   0  0  0  0  0  0  0  0  0  0  0  0
    2.9363    1.1958    8.8674 H   0  0  0  0  0  0  0  0  0  0  0  0
   -0.0568    2.3396    9.4639 H   0  0  0  0  0  0  0  0  0  0  0  0
   -1.4573    1.2947    9.6285 H   0  0  0  0  0  0  0  0  0  0  0  0
  1  2  1  0
  1 34  1  0
  1 35  1  0
  1 36  1  0
  2 33  1  0
  2  3  1  0
  2 37  1  1
  3  4  1  0
  3 38  1  0
  3 39  1  0
  4  5  1  0
  4 40  1  0
  4 41  1  0
  5 10  1  0
  5  6  1  0
  5 32  1  1
  6  7  1  0
  6 42  1  0
  6 43  1  0
  7 30  1  0
  7  8  1  6
  7  9  1  0
  8 44  1  0
  9 10  1  0
  9 12  1  0
  9 45  1  6
 10 11  1  0
 10 46  1  6
 11 47  1  0
 11 48  1  0
 11 49  1  0
 12 30  1  0
 12 13  1  0
 12 50  1  1
 13 25  1  0
 13 14  1  0
 13 51  1  6
 14 15  1  0
 14 52  1  0
 14 53  1  0
 15 16  2  0
 15 54  1  0
 16 23  1  0
 16 17  1  0
 17 18  1  0
 17 55  1  0
 17 56  1  0
 18 19  2  0
 18 20  1  0
 20 21  1  0
 20 57  1  0
 20 58  1  0
 21 22  2  0
 21 23  1  0
 23 24  1  6
 23 25  1  0
 24 59  1  0
 24 60  1  0
 24 61  1  0
 25 26  1  1
 25 27  1  0
 27 28  1  0
 27 29  1  0
 27 62  1  1
 28 63  1  0
 29 30  1  0
 29 64  1  0
 29 65  1  0
 30 31  1  1
 31 66  1  0
 31 67  1  0
 31 68  1  0
 32 33  1  0
 33 69  1  0
 33 70  1  0
M  END
>  <i_m_ct_stereo_status>  (331) 
1

>  <s_m_source_file>  (331) 
/var/tmp/pbs.5076255.sched01/tmp0kxp0nim/126xlotvanm.sdf

>  <i_m_source_file_index>  (331) 
19

>  <i_lp_mmshare_version>  (331) 
48012

>  <i_f3d_flags>  (331) 
0

>  <s_epik_input>  (331) 
TzFbQ0gyXVtDQEhdKFtDSDNdKVtDSDJdW0NIMl1bQ0BAXTEyW0NIMl1bQ0BdMyhbT0hdKVtDQEhdKFtDQEhdMltDSDNdKVtDQEhdNFtDQEhdNVtDQF0oRikoW0NAQEhdKFtPSF0pW0NIMl1bQ0BAXTM0W0NIM10pW0NAQF02KFtDSDNdKUMoPVtDSF1bQ0gyXTUpW0NIMl1DKD1PKVtDSDJdQzY9Tw==

>  <s_epik_cmdline>  (331) 
J2VwaWtfcHl0aG9uJywgJy1waHQnLCAnMi4wJywgJy1waCcsICc3LjAnLCAnLXRuJywgJzgnLCAnLW1hJywgJzIwMCcsICctaW1hZScsICc8aW5maWxlLm1hZT4nLCAnLW9tYWUnLCAnPG91dGZpbGUubWFlPic=

>  <r_epik_Ionization_Penalty>  (331) 
0.00830239

>  <r_epik_Ionization_Penalty_Charging>  (331) 
0

>  <r_epik_Ionization_Penalty_Neutral>  (331) 
0.00830239

>  <r_epik_State_Penalty>  (331) 
0.0146609

>  <r_epik_Charging_Adjusted_Penalty>  (331) 
0.0146609

>  <i_epik_Tot_Q>  (331) 
0

>  <i_epik_Tot_abs_Q>  (331) 
0

>  <s_lp_Force_Field>  (331) 
OPLS3e

>  <r_lp_Energy>  (331) 
67.1142

>  <b_lp_Chiralities_Consistent>  (331) 
1

>  <s_lp_Variant>  (331) 
102:0-1

>  <s_i_glide_gridfile>  (331) 
pfpi4k_grid

>  <i_i_glide_lignum>  (331) 
19

>  <i_i_glide_rotatable_bonds>  (331) 
2

>  <r_i_docking_score>  (331) 
-2.66582

>  <r_i_glide_ligand_efficiency>  (331) 
-0.0807825

>  <r_i_glide_ligand_efficiency_sa>  (331) 
-0.259113

>  <r_i_glide_ligand_efficiency_ln>  (331) 
-0.592865

>  <r_i_glide_gscore>  (331) 
-2.66582

>  <r_i_glide_lipo>  (331) 
-0.0320074

>  <r_i_glide_hbond>  (331) 
-0.116832

>  <r_i_glide_metal>  (331) 
-0

>  <r_i_glide_rewards>  (331) 
-1.26879

>  <r_i_glide_evdw>  (331) 
-17.1409

>  <r_i_glide_ecoul>  (331) 
-2.47117

>  <r_i_glide_erotb>  (331) 
0

>  <r_i_glide_esite>  (331) 
-0.0204797

>  <r_i_glide_emodel>  (331) 
-33.594

>  <r_i_glide_energy>  (331) 
-19.612

>  <r_i_glide_einternal>  (331) 
0.371887

>  <r_i_glide_intrahb_reward>  (331) 
-1

>  <i_i_glide_confnum>  (331) 
3

>  <i_i_glide_posenum>  (331) 
22

>  <r_i_glide_eff_state_penalty>  (331) 
0

>  <ligand_id>  (331) 
102

>  <original_smiles>  (331) 
CC1CCC2(CC3(O)C(C2C)C2C4CC=C5CC(=O)CC(=O)C5(C)C4(F)C(O)CC23C)OC1

>  <smiles>  (331) 
[H]OC1([H])C([H])([H])C2(C([H])([H])[H])C([H])(C3([H])C([H])([H])C([H])=C4C([H])([H])C(=O)C([H])([H])C(=O)C4(C([H])([H])[H])C13F)C1([H])C([H])(C([H])([H])[H])C3(OC([H])([H])C([H])(C([H])([H])[H])C([H])([H])C3([H])[H])C([H])([H])C12O[H]

$$$$
102:0:1
     RDKit          3D

 70 75  0  0  1  0  0  0  0  0999 V2000
   -3.8142    3.5360    8.9734 C   0  0  0  0  0  0  0  0  0  0  0  0
   -2.3546    3.7999    9.3811 C   0  0  2  0  0  0  0  0  0  0  0  0
   -1.6594    4.7933    8.4410 C   0  0  0  0  0  0  0  0  0  0  0  0
   -1.4323    4.1537    7.0644 C   0  0  0  0  0  0  0  0  0  0  0  0
   -0.6519    2.8288    7.2122 C   0  0  2  0  0  0  0  0  0  0  0  0
    0.8170    3.0515    7.6700 C   0  0  0  0  0  0  0  0  0  0  0  0
    1.6591    1.9392    7.0355 C   0  0  2  0  0  0  0  0  0  0  0  0
    2.8103    2.5841    6.5359 O   0  0  0  0  0  0  0  0  0  0  0  0
    0.7852    1.2655    5.9928 C   0  0  2  0  0  0  0  0  0  0  0  0
   -0.4927    2.0790    5.8563 C   0  0  1  0  0  0  0  0  0  0  0  0
   -1.7092    1.2771    5.3332 C   0  0  0  0  0  0  0  0  0  0  0  0
    0.7929   -0.0305    6.8210 C   0  0  1  0  0  0  0  0  0  0  0  0
    0.9825   -1.3480    6.0353 C   0  0  2  0  0  0  0  0  0  0  0  0
   -0.1195   -2.3913    6.3444 C   0  0  0  0  0  0  0  0  0  0  0  0
    0.1700   -3.7501    5.7490 C   0  0  0  0  0  0  0  0  0  0  0  0
    1.3663   -4.1322    5.2329 C   0  0  0  0  0  0  0  0  0  0  0  0
    1.4926   -5.4520    4.4986 C   0  0  0  0  0  0  0  0  0  0  0  0
    1.7383   -5.1401    3.0179 C   0  0  0  0  0  0  0  0  0  0  0  0
    1.1475   -5.7683    2.1350 O   0  0  0  0  0  0  0  0  0  0  0  0
    2.7616   -4.0392    2.6699 C   0  0  0  0  0  0  0  0  0  0  0  0
    2.6929   -2.8653    3.6714 C   0  0  0  0  0  0  0  0  0  0  0  0
    2.7376   -1.7081    3.2570 O   0  0  0  0  0  0  0  0  0  0  0  0
    2.5970   -3.2117    5.1818 C   0  0  2  0  0  0  0  0  0  0  0  0
    3.8847   -3.9816    5.5754 C   0  0  0  0  0  0  0  0  0  0  0  0
    2.3892   -1.9930    6.1766 C   0  0  2  0  0  0  0  0  0  0  0  0
    2.3873   -2.5634    7.3900 F   0  0  0  0  0  0  0  0  0  0  0  0
    3.5171   -0.9175    6.3054 C   0  0  1  0  0  0  0  0  0  0  0  0
    3.6595   -0.0592    5.1922 O   0  0  0  0  0  0  0  0  0  0  0  0
    3.3124   -0.0378    7.5643 C   0  0  0  0  0  0  0  0  0  0  0  0
    1.9008    0.5565    7.7281 C   0  0  1  0  0  0  0  0  0  0  0  0
    1.6035    0.5242    9.2391 C   0  0  0  0  0  0  0  0  0  0  0  0
   -1.3347    1.9663    8.1365 O   0  0  0  0  0  0  0  0  0  0  0  0
   -1.5735    2.4852    9.4579 C   0  0  0  0  0  0  0  0  0  0  0  0
   -3.8701    3.0263    8.0109 H   0  0  0  0  0  0  0  0  0  0  0  0
   -4.3772    4.4662    8.8924 H   0  0  0  0  0  0  0  0  0  0  0  0
   -4.3120    2.8949    9.6990 H   0  0  0  0  0  0  0  0  0  0  0  0
   -2.3492    4.2279   10.3803 H   0  0  0  0  0  0  0  0  0  0  0  0
   -2.2344    5.7156    8.3571 H   0  0  0  0  0  0  0  0  0  0  0  0
   -0.6996    5.0876    8.8655 H   0  0  0  0  0  0  0  0  0  0  0  0
   -2.3864    3.9890    6.5635 H   0  0  0  0  0  0  0  0  0  0  0  0
   -0.8897    4.8495    6.4119 H   0  0  0  0  0  0  0  0  0  0  0  0
    1.1446    4.0150    7.2528 H   0  0  0  0  0  0  0  0  0  0  0  0
    0.9743    3.1168    8.7476 H   0  0  0  0  0  0  0  0  0  0  0  0
    2.4988    3.1878    5.8794 H   0  0  0  0  0  0  0  0  0  0  0  0
    1.3215    1.1252    5.0522 H   0  0  0  0  0  0  0  0  0  0  0  0
   -0.3044    2.8358    5.0821 H   0  0  0  0  0  0  0  0  0  0  0  0
   -2.0090    0.4839    6.0114 H   0  0  0  0  0  0  0  0  0  0  0  0
   -1.4704    0.8064    4.3749 H   0  0  0  0  0  0  0  0  0  0  0  0
   -2.5715    1.9280    5.1567 H   0  0  0  0  0  0  0  0  0  0  0  0
   -0.1229   -0.0655    7.4174 H   0  0  0  0  0  0  0  0  0  0  0  0
    0.8575   -1.1191    4.9740 H   0  0  0  0  0  0  0  0  0  0  0  0
   -0.2445   -2.5244    7.4186 H   0  0  0  0  0  0  0  0  0  0  0  0
   -1.0667   -2.0390    5.9411 H   0  0  0  0  0  0  0  0  0  0  0  0
   -0.6585   -4.4389    5.7249 H   0  0  0  0  0  0  0  0  0  0  0  0
    2.3059   -6.0546    4.9024 H   0  0  0  0  0  0  0  0  0  0  0  0
    0.5777   -6.0285    4.6003 H   0  0  0  0  0  0  0  0  0  0  0  0
    3.7627   -4.4576    2.6519 H   0  0  0  0  0  0  0  0  0  0  0  0
    2.5554   -3.6708    1.6630 H   0  0  0  0  0  0  0  0  0  0  0  0
    4.0975   -4.8237    4.9184 H   0  0  0  0  0  0  0  0  0  0  0  0
    3.8262   -4.3783    6.5882 H   0  0  0  0  0  0  0  0  0  0  0  0
    4.7685   -3.3426    5.5186 H   0  0  0  0  0  0  0  0  0  0  0  0
    4.4785   -1.4044    6.4305 H   0  0  0  0  0  0  0  0  0  0  0  0
    3.6919   -0.5809    4.3985 H   0  0  0  0  0  0  0  0  0  0  0  0
    3.5461   -0.6597    8.4221 H   0  0  0  0  0  0  0  0  0  0  0  0
    4.0753    0.7371    7.6023 H   0  0  0  0  0  0  0  0  0  0  0  0
    1.7130   -0.4794    9.6572 H   0  0  0  0  0  0  0  0  0  0  0  0
    0.5853    0.8271    9.4536 H   0  0  0  0  0  0  0  0  0  0  0  0
    2.2671    1.1915    9.7890 H   0  0  0  0  0  0  0  0  0  0  0  0
   -0.6386    2.6440   10.0033 H   0  0  0  0  0  0  0  0  0  0  0  0
   -2.1667    1.7657   10.0270 H   0  0  0  0  0  0  0  0  0  0  0  0
  1  2  1  0
  1 34  1  0
  1 35  1  0
  1 36  1  0
  2 33  1  0
  2  3  1  0
  2 37  1  1
  3  4  1  0
  3 38  1  0
  3 39  1  0
  4  5  1  0
  4 40  1  0
  4 41  1  0
  5 10  1  0
  5  6  1  0
  5 32  1  1
  6  7  1  0
  6 42  1  0
  6 43  1  0
  7 30  1  0
  7  8  1  6
  7  9  1  0
  8 44  1  0
  9 10  1  0
  9 12  1  0
  9 45  1  6
 10 11  1  0
 10 46  1  6
 11 47  1  0
 11 48  1  0
 11 49  1  0
 12 30  1  0
 12 13  1  0
 12 50  1  1
 13 25  1  0
 13 14  1  0
 13 51  1  6
 14 15  1  0
 14 52  1  0
 14 53  1  0
 15 16  2  0
 15 54  1  0
 16 23  1  0
 16 17  1  0
 17 18  1  0
 17 55  1  0
 17 56  1  0
 18 19  2  0
 18 20  1  0
 20 21  1  0
 20 57  1  0
 20 58  1  0
 21 22  2  0
 21 23  1  0
 23 24  1  1
 23 25  1  0
 24 59  1  0
 24 60  1  0
 24 61  1  0
 25 26  1  1
 25 27  1  0
 27 28  1  0
 27 29  1  0
 27 62  1  1
 28 63  1  0
 29 30  1  0
 29 64  1  0
 29 65  1  0
 30 31  1  1
 31 66  1  0
 31 67  1  0
 31 68  1  0
 32 33  1  0
 33 69  1  0
 33 70  1  0
M  END
>  <i_m_ct_stereo_status>  (332) 
1

>  <s_m_source_file>  (332) 
/var/tmp/pbs.5076255.sched01/tmp0kxp0nim/126xlotvanm.sdf

>  <i_m_source_file_index>  (332) 
19

>  <i_lp_mmshare_version>  (332) 
48012

>  <i_f3d_flags>  (332) 
0

>  <s_epik_input>  (332) 
TzFbQ0gyXVtDQEhdKFtDSDNdKVtDSDJdW0NIMl1bQ0BAXTEyW0NIMl1bQ0BdMyhbT0hdKVtDQEhdKFtDQEhdMltDSDNdKVtDQEhdNFtDQEhdNVtDQF0oRikoW0NAQEhdKFtPSF0pW0NIMl1bQ0BAXTM0W0NIM10pW0NAQF02KFtDSDNdKUMoPVtDSF1bQ0gyXTUpW0NIMl1DKD1PKVtDSDJdQzY9Tw==

>  <s_epik_cmdline>  (332) 
J2VwaWtfcHl0aG9uJywgJy1waHQnLCAnMi4wJywgJy1waCcsICc3LjAnLCAnLXRuJywgJzgnLCAnLW1hJywgJzIwMCcsICctaW1hZScsICc8aW5maWxlLm1hZT4nLCAnLW9tYWUnLCAnPG91dGZpbGUubWFlPic=

>  <r_epik_Ionization_Penalty>  (332) 
0.00830239

>  <r_epik_Ionization_Penalty_Charging>  (332) 
0

>  <r_epik_Ionization_Penalty_Neutral>  (332) 
0.00830239

>  <r_epik_State_Penalty>  (332) 
0.0146609

>  <r_epik_Charging_Adjusted_Penalty>  (332) 
0.0146609

>  <i_epik_Tot_Q>  (332) 
0

>  <i_epik_Tot_abs_Q>  (332) 
0

>  <s_lp_Force_Field>  (332) 
OPLS3e

>  <r_lp_Energy>  (332) 
67.1142

>  <b_lp_Chiralities_Consistent>  (332) 
1

>  <s_lp_Variant>  (332) 
102:0-1

>  <s_i_glide_gridfile>  (332) 
pfpi4k_grid

>  <i_i_glide_lignum>  (332) 
19

>  <i_i_glide_rotatable_bonds>  (332) 
2

>  <r_i_docking_score>  (332) 
-2.15155

>  <r_i_glide_ligand_efficiency>  (332) 
-0.0651984

>  <r_i_glide_ligand_efficiency_sa>  (332) 
-0.209126

>  <r_i_glide_ligand_efficiency_ln>  (332) 
-0.478493

>  <r_i_glide_gscore>  (332) 
-2.15155

>  <r_i_glide_lipo>  (332) 
-0.117421

>  <r_i_glide_hbond>  (332) 
-0.067144

>  <r_i_glide_metal>  (332) 
-0

>  <r_i_glide_rewards>  (332) 
-0.769655

>  <r_i_glide_evdw>  (332) 
-16.8747

>  <r_i_glide_ecoul>  (332) 
-2.24884

>  <r_i_glide_erotb>  (332) 
0

>  <r_i_glide_esite>  (332) 
-0.0162666

>  <r_i_glide_emodel>  (332) 
-26.7934

>  <r_i_glide_energy>  (332) 
-19.1235

>  <r_i_glide_einternal>  (332) 
1.25934

>  <r_i_glide_intrahb_reward>  (332) 
-0.5

>  <i_i_glide_confnum>  (332) 
3

>  <i_i_glide_posenum>  (332) 
3

>  <r_i_glide_eff_state_penalty>  (332) 
0

>  <ligand_id>  (332) 
102

>  <original_smiles>  (332) 
CC1CCC2(CC3(O)C(C2C)C2C4CC=C5CC(=O)CC(=O)C5(C)C4(F)C(O)CC23C)OC1

>  <smiles>  (332) 
[H]OC1([H])C([H])([H])C2(C([H])([H])[H])C([H])(C3([H])C([H])([H])C([H])=C4C([H])([H])C(=O)C([H])([H])C(=O)C4(C([H])([H])[H])C13F)C1([H])C([H])(C([H])([H])[H])C3(OC([H])([H])C([H])(C([H])([H])[H])C([H])([H])C3([H])[H])C([H])([H])C12O[H]

$$$$
102:0:2
     RDKit          3D

 70 75  0  0  1  0  0  0  0  0999 V2000
    2.8803  -10.7288    2.6612 C   0  0  0  0  0  0  0  0  0  0  0  0
    3.0738  -10.4672    4.1642 C   0  0  2  0  0  0  0  0  0  0  0  0
    1.8301  -10.8492    4.9799 C   0  0  0  0  0  0  0  0  0  0  0  0
    0.6843   -9.8719    4.7023 C   0  0  0  0  0  0  0  0  0  0  0  0
    1.1545   -8.4209    4.9672 C   0  0  2  0  0  0  0  0  0  0  0  0
    1.3962   -8.1328    6.4796 C   0  0  0  0  0  0  0  0  0  0  0  0
    1.0506   -6.6566    6.7036 C   0  0  2  0  0  0  0  0  0  0  0  0
    0.2784   -6.6380    7.8877 O   0  0  0  0  0  0  0  0  0  0  0  0
    0.3382   -6.1703    5.4648 C   0  0  2  0  0  0  0  0  0  0  0  0
    0.0760   -7.3729    4.5802 C   0  0  1  0  0  0  0  0  0  0  0  0
   -0.0818   -7.0255    3.0828 C   0  0  0  0  0  0  0  0  0  0  0  0
    1.5071   -5.2144    5.1689 C   0  0  1  0  0  0  0  0  0  0  0  0
    1.1390   -3.7892    4.7112 C   0  0  2  0  0  0  0  0  0  0  0  0
    1.8289   -3.3831    3.3851 C   0  0  0  0  0  0  0  0  0  0  0  0
    1.6398   -1.9224    3.0398 C   0  0  0  0  0  0  0  0  0  0  0  0
    1.1623   -0.9822    3.9012 C   0  0  0  0  0  0  0  0  0  0  0  0
    0.8475    0.4153    3.3962 C   0  0  0  0  0  0  0  0  0  0  0  0
   -0.6701    0.6000    3.4637 C   0  0  0  0  0  0  0  0  0  0  0  0
   -1.2779    1.1569    2.5463 O   0  0  0  0  0  0  0  0  0  0  0  0
   -1.4101    0.1240    4.7319 C   0  0  0  0  0  0  0  0  0  0  0  0
   -0.8070   -1.1796    5.2808 C   0  0  0  0  0  0  0  0  0  0  0  0
   -1.5766   -2.0641    5.6779 O   0  0  0  0  0  0  0  0  0  0  0  0
    0.7416   -1.2909    5.3493 C   0  0  2  0  0  0  0  0  0  0  0  0
    1.2445   -0.1858    6.3179 C   0  0  0  0  0  0  0  0  0  0  0  0
    1.3479   -2.6884    5.7899 C   0  0  2  0  0  0  0  0  0  0  0  0
    2.6722   -2.4746    5.8111 F   0  0  0  0  0  0  0  0  0  0  0  0
    1.0651   -3.2169    7.2333 C   0  0  1  0  0  0  0  0  0  0  0  0
   -0.2560   -3.6607    7.4553 O   0  0  0  0  0  0  0  0  0  0  0  0
    2.0239   -4.3748    7.6060 C   0  0  0  0  0  0  0  0  0  0  0  0
    2.1103   -5.5112    6.5663 C   0  0  1  0  0  0  0  0  0  0  0  0
    3.5838   -5.9662    6.5640 C   0  0  0  0  0  0  0  0  0  0  0  0
    2.3418   -8.1422    4.2158 O   0  0  0  0  0  0  0  0  0  0  0  0
    3.4705   -9.0093    4.4107 C   0  0  0  0  0  0  0  0  0  0  0  0
    2.1031  -10.0889    2.2457 H   0  0  0  0  0  0  0  0  0  0  0  0
    2.5992  -11.7678    2.4779 H   0  0  0  0  0  0  0  0  0  0  0  0
    3.7916  -10.5257    2.1077 H   0  0  0  0  0  0  0  0  0  0  0  0
    3.8943  -11.0928    4.5130 H   0  0  0  0  0  0  0  0  0  0  0  0
    1.5140  -11.8760    4.7763 H   0  0  0  0  0  0  0  0  0  0  0  0
    2.0711  -10.8237    6.0430 H   0  0  0  0  0  0  0  0  0  0  0  0
    0.3237   -9.9943    3.6802 H   0  0  0  0  0  0  0  0  0  0  0  0
   -0.1813  -10.1138    5.3305 H   0  0  0  0  0  0  0  0  0  0  0  0
    0.6870   -8.7563    7.0381 H   0  0  0  0  0  0  0  0  0  0  0  0
    2.3839   -8.3920    6.8544 H   0  0  0  0  0  0  0  0  0  0  0  0
    0.7963   -7.1322    8.5020 H   0  0  0  0  0  0  0  0  0  0  0  0
   -0.5692   -5.6105    5.7177 H   0  0  0  0  0  0  0  0  0  0  0  0
   -0.8985   -7.7804    4.8786 H   0  0  0  0  0  0  0  0  0  0  0  0
    0.8194   -6.6006    2.6529 H   0  0  0  0  0  0  0  0  0  0  0  0
   -0.8763   -6.2900    2.9689 H   0  0  0  0  0  0  0  0  0  0  0  0
   -0.3684   -7.8986    2.4860 H   0  0  0  0  0  0  0  0  0  0  0  0
    2.1641   -5.6916    4.4273 H   0  0  0  0  0  0  0  0  0  0  0  0
    0.0692   -3.7833    4.4790 H   0  0  0  0  0  0  0  0  0  0  0  0
    2.9026   -3.5769    3.4223 H   0  0  0  0  0  0  0  0  0  0  0  0
    1.4194   -3.9797    2.5723 H   0  0  0  0  0  0  0  0  0  0  0  0
    1.8724   -1.6449    2.0240 H   0  0  0  0  0  0  0  0  0  0  0  0
    1.3463    1.1770    3.9947 H   0  0  0  0  0  0  0  0  0  0  0  0
    1.1799    0.5329    2.3711 H   0  0  0  0  0  0  0  0  0  0  0  0
   -1.3754    0.8997    5.4855 H   0  0  0  0  0  0  0  0  0  0  0  0
   -2.4592   -0.0403    4.4885 H   0  0  0  0  0  0  0  0  0  0  0  0
    0.8523    0.8033    6.0836 H   0  0  0  0  0  0  0  0  0  0  0  0
    2.3295   -0.1011    6.3108 H   0  0  0  0  0  0  0  0  0  0  0  0
    0.9343   -0.3810    7.3472 H   0  0  0  0  0  0  0  0  0  0  0  0
    1.2458   -2.4282    7.9573 H   0  0  0  0  0  0  0  0  0  0  0  0
   -0.3671   -4.4821    6.9962 H   0  0  0  0  0  0  0  0  0  0  0  0
    3.0078   -3.9343    7.7510 H   0  0  0  0  0  0  0  0  0  0  0  0
    1.7782   -4.7612    8.5948 H   0  0  0  0  0  0  0  0  0  0  0  0
    4.2713   -5.1346    6.3751 H   0  0  0  0  0  0  0  0  0  0  0  0
    3.7812   -6.6909    5.7828 H   0  0  0  0  0  0  0  0  0  0  0  0
    3.8682   -6.4203    7.5134 H   0  0  0  0  0  0  0  0  0  0  0  0
    3.8921   -8.9125    5.4106 H   0  0  0  0  0  0  0  0  0  0  0  0
    4.2557   -8.7037    3.6988 H   0  0  0  0  0  0  0  0  0  0  0  0
  1  2  1  0
  1 34  1  0
  1 35  1  0
  1 36  1  0
  2 33  1  0
  2  3  1  0
  2 37  1  1
  3  4  1  0
  3 38  1  0
  3 39  1  0
  4  5  1  0
  4 40  1  0
  4 41  1  0
  5 10  1  0
  5  6  1  0
  5 32  1  6
  6  7  1  0
  6 42  1  0
  6 43  1  0
  7 30  1  0
  7  8  1  1
  7  9  1  0
  8 44  1  0
  9 10  1  0
  9 12  1  0
  9 45  1  1
 10 11  1  0
 10 46  1  1
 11 47  1  0
 11 48  1  0
 11 49  1  0
 12 30  1  0
 12 13  1  0
 12 50  1  6
 13 25  1  0
 13 14  1  0
 13 51  1  6
 14 15  1  0
 14 52  1  0
 14 53  1  0
 15 16  2  0
 15 54  1  0
 16 23  1  0
 16 17  1  0
 17 18  1  0
 17 55  1  0
 17 56  1  0
 18 19  2  0
 18 20  1  0
 20 21  1  0
 20 57  1  0
 20 58  1  0
 21 22  2  0
 21 23  1  0
 23 24  1  1
 23 25  1  0
 24 59  1  0
 24 60  1  0
 24 61  1  0
 25 26  1  1
 25 27  1  0
 27 28  1  0
 27 29  1  0
 27 62  1  1
 28 63  1  0
 29 30  1  0
 29 64  1  0
 29 65  1  0
 30 31  1  6
 31 66  1  0
 31 67  1  0
 31 68  1  0
 32 33  1  0
 33 69  1  0
 33 70  1  0
M  END
>  <i_m_ct_stereo_status>  (333) 
1

>  <s_m_source_file>  (333) 
/var/tmp/pbs.5076255.sched01/tmp0kxp0nim/126xlotvanm.sdf

>  <i_m_source_file_index>  (333) 
19

>  <i_lp_mmshare_version>  (333) 
48012

>  <i_f3d_flags>  (333) 
0

>  <s_epik_input>  (333) 
TzFbQ0gyXVtDQEhdKFtDSDNdKVtDSDJdW0NIMl1bQ0BAXTEyW0NIMl1bQ0BdMyhbT0hdKVtDQEhdKFtDQEhdMltDSDNdKVtDQEhdNFtDQEhdNVtDQF0oRikoW0NAQEhdKFtPSF0pW0NIMl1bQ0BAXTM0W0NIM10pW0NAQF02KFtDSDNdKUMoPVtDSF1bQ0gyXTUpW0NIMl1DKD1PKVtDSDJdQzY9Tw==

>  <s_epik_cmdline>  (333) 
J2VwaWtfcHl0aG9uJywgJy1waHQnLCAnMi4wJywgJy1waCcsICc3LjAnLCAnLXRuJywgJzgnLCAnLW1hJywgJzIwMCcsICctaW1hZScsICc8aW5maWxlLm1hZT4nLCAnLW9tYWUnLCAnPG91dGZpbGUubWFlPic=

>  <r_epik_Ionization_Penalty>  (333) 
0.00830239

>  <r_epik_Ionization_Penalty_Charging>  (333) 
0

>  <r_epik_Ionization_Penalty_Neutral>  (333) 
0.00830239

>  <r_epik_State_Penalty>  (333) 
0.0146609

>  <r_epik_Charging_Adjusted_Penalty>  (333) 
0.0146609

>  <i_epik_Tot_Q>  (333) 
0

>  <i_epik_Tot_abs_Q>  (333) 
0

>  <s_lp_Force_Field>  (333) 
OPLS3e

>  <r_lp_Energy>  (333) 
67.1142

>  <b_lp_Chiralities_Consistent>  (333) 
1

>  <s_lp_Variant>  (333) 
102:0-1

>  <s_i_glide_gridfile>  (333) 
pfpi4k_grid

>  <i_i_glide_lignum>  (333) 
19

>  <i_i_glide_rotatable_bonds>  (333) 
2

>  <r_i_docking_score>  (333) 
-1.97376

>  <r_i_glide_ligand_efficiency>  (333) 
-0.0598109

>  <r_i_glide_ligand_efficiency_sa>  (333) 
-0.191846

>  <r_i_glide_ligand_efficiency_ln>  (333) 
-0.438954

>  <r_i_glide_gscore>  (333) 
-1.97376

>  <r_i_glide_lipo>  (333) 
-0.0292626

>  <r_i_glide_hbond>  (333) 
0

>  <r_i_glide_metal>  (333) 
-0

>  <r_i_glide_rewards>  (333) 
-0.268786

>  <r_i_glide_evdw>  (333) 
-22.4346

>  <r_i_glide_ecoul>  (333) 
-3.28955

>  <r_i_glide_erotb>  (333) 
0

>  <r_i_glide_esite>  (333) 
-0.0605482

>  <r_i_glide_emodel>  (333) 
-28.2746

>  <r_i_glide_energy>  (333) 
-25.7242

>  <r_i_glide_einternal>  (333) 
0.857655

>  <r_i_glide_intrahb_reward>  (333) 
-0

>  <i_i_glide_confnum>  (333) 
3

>  <i_i_glide_posenum>  (333) 
14

>  <r_i_glide_eff_state_penalty>  (333) 
0

>  <ligand_id>  (333) 
102

>  <original_smiles>  (333) 
CC1CCC2(CC3(O)C(C2C)C2C4CC=C5CC(=O)CC(=O)C5(C)C4(F)C(O)CC23C)OC1

>  <smiles>  (333) 
[H]OC1([H])C([H])([H])C2(C([H])([H])[H])C([H])(C3([H])C([H])([H])C([H])=C4C([H])([H])C(=O)C([H])([H])C(=O)C4(C([H])([H])[H])C13F)C1([H])C([H])(C([H])([H])[H])C3(OC([H])([H])C([H])(C([H])([H])[H])C([H])([H])C3([H])[H])C([H])([H])C12O[H]

$$$$
102:1:0
     RDKit          3D

 69 74  0  0  1  0  0  0  0  0999 V2000
   -1.2177    3.4400    6.4412 C   0  0  0  0  0  0  0  0  0  0  0  0
   -0.8684    2.0538    6.9802 C   0  0  2  0  0  0  0  0  0  0  0  0
    0.6536    1.9002    7.0379 C   0  0  0  0  0  0  0  0  0  0  0  0
    1.0267    0.4446    7.3282 C   0  0  0  0  0  0  0  0  0  0  0  0
    0.3526   -0.5487    6.3408 C   0  0  2  0  0  0  0  0  0  0  0  0
    0.6658   -2.0021    6.8019 C   0  0  0  0  0  0  0  0  0  0  0  0
    2.0334   -2.3506    6.1958 C   0  0  2  0  0  0  0  0  0  0  0  0
    2.9952   -2.0405    7.1597 O   0  0  0  0  0  0  0  0  0  0  0  0
    2.1035   -1.5260    4.9285 C   0  0  2  0  0  0  0  0  0  0  0  0
    0.9729   -0.4893    4.8982 C   0  0  1  0  0  0  0  0  0  0  0  0
    0.0012   -0.6773    3.7097 C   0  0  0  0  0  0  0  0  0  0  0  0
    2.0392   -2.8126    4.1033 C   0  0  1  0  0  0  0  0  0  0  0  0
    2.9587   -2.8329    2.8582 C   0  0  2  0  0  0  0  0  0  0  0  0
    2.1843   -3.2565    1.6088 C   0  0  0  0  0  0  0  0  0  0  0  0
    3.0384   -3.4932    0.4015 C   0  0  0  0  0  0  0  0  0  0  0  0
    4.3849   -3.6207    0.4522 C   0  0  0  0  0  0  0  0  0  0  0  0
    5.2049   -3.6435   -0.8229 C   0  0  0  0  0  0  0  0  0  0  0  0
    6.2361   -2.5163   -0.7924 C   0  0  0  0  0  0  0  0  0  0  0  0
    6.7260   -2.3667   -1.9145 O   0  0  0  0  0  0  0  0  0  0  0  0
    6.5130   -1.8369    0.3880 C   0  0  0  0  0  0  0  0  0  0  0  0
    5.8783   -2.1726    1.6653 C   0  0  0  0  0  0  0  0  0  0  0  0
    5.8437   -1.3543    2.5831 O   0  0  0  0  0  0  0  0  0  0  0  0
    5.1873   -3.5495    1.7675 C   0  0  2  0  0  0  0  0  0  0  0  0
    6.2525   -4.6803    1.7954 C   0  0  0  0  0  0  0  0  0  0  0  0
    4.2143   -3.7184    3.0051 C   0  0  2  0  0  0  0  0  0  0  0  0
    3.7709   -4.9760    2.9054 F   0  0  0  0  0  0  0  0  0  0  0  0
    4.7848   -3.6587    4.4556 C   0  0  1  0  0  0  0  0  0  0  0  0
    5.1608   -2.3814    4.9242 O   0  0  0  0  0  0  0  0  0  0  0  0
    3.7701   -4.2201    5.4760 C   0  0  0  0  0  0  0  0  0  0  0  0
    2.3336   -3.6473    5.3746 C   0  0  1  0  0  0  0  0  0  0  0  0
    1.3764   -4.8107    5.6442 C   0  0  0  0  0  0  0  0  0  0  0  0
   -1.0609   -0.3121    6.3950 O   0  0  0  0  0  0  0  0  0  0  0  0
   -1.4760    0.9988    6.0418 C   0  0  0  0  0  0  0  0  0  0  0  0
   -0.8218    3.5857    5.4314 H   0  0  0  0  0  0  0  0  0  0  0  0
   -0.8077    4.2462    7.0479 H   0  0  0  0  0  0  0  0  0  0  0  0
   -2.2968    3.5855    6.3616 H   0  0  0  0  0  0  0  0  0  0  0  0
   -1.2527    1.9435    8.0002 H   0  0  0  0  0  0  0  0  0  0  0  0
    1.1055    2.1977    6.0855 H   0  0  0  0  0  0  0  0  0  0  0  0
    1.1102    2.5510    7.7929 H   0  0  0  0  0  0  0  0  0  0  0  0
    2.1177    0.3682    7.3203 H   0  0  0  0  0  0  0  0  0  0  0  0
    0.7280    0.2040    8.3480 H   0  0  0  0  0  0  0  0  0  0  0  0
    0.6647   -2.1521    7.8868 H   0  0  0  0  0  0  0  0  0  0  0  0
   -0.0988   -2.6713    6.4062 H   0  0  0  0  0  0  0  0  0  0  0  0
    3.8171   -2.0661    6.6734 H   0  0  0  0  0  0  0  0  0  0  0  0
    3.0785   -1.0459    4.8477 H   0  0  0  0  0  0  0  0  0  0  0  0
    1.4271    0.4847    4.7150 H   0  0  0  0  0  0  0  0  0  0  0  0
   -0.6745   -1.5088    3.8678 H   0  0  0  0  0  0  0  0  0  0  0  0
    0.5647   -0.9199    2.8086 H   0  0  0  0  0  0  0  0  0  0  0  0
   -0.5986    0.2078    3.5514 H   0  0  0  0  0  0  0  0  0  0  0  0
    1.0017   -3.0176    3.8392 H   0  0  0  0  0  0  0  0  0  0  0  0
    3.2905   -1.8038    2.6433 H   0  0  0  0  0  0  0  0  0  0  0  0
    1.6381   -4.1764    1.8010 H   0  0  0  0  0  0  0  0  0  0  0  0
    1.4992   -2.4578    1.3461 H   0  0  0  0  0  0  0  0  0  0  0  0
    2.5433   -3.5382   -0.5546 H   0  0  0  0  0  0  0  0  0  0  0  0
    5.7056   -4.6125   -0.9015 H   0  0  0  0  0  0  0  0  0  0  0  0
    4.5431   -3.5365   -1.6913 H   0  0  0  0  0  0  0  0  0  0  0  0
    7.2257   -1.0306    0.4091 H   0  0  0  0  0  0  0  0  0  0  0  0
    6.9807   -4.5685    0.9940 H   0  0  0  0  0  0  0  0  0  0  0  0
    5.7904   -5.6598    1.6797 H   0  0  0  0  0  0  0  0  0  0  0  0
    6.8274   -4.7025    2.7206 H   0  0  0  0  0  0  0  0  0  0  0  0
    5.6738   -4.2756    4.5154 H   0  0  0  0  0  0  0  0  0  0  0  0
    5.6487   -1.9620    4.2156 H   0  0  0  0  0  0  0  0  0  0  0  0
    3.7354   -5.3007    5.3266 H   0  0  0  0  0  0  0  0  0  0  0  0
    4.1671   -4.1168    6.4875 H   0  0  0  0  0  0  0  0  0  0  0  0
    1.5955   -5.6779    5.0156 H   0  0  0  0  0  0  0  0  0  0  0  0
    0.3437   -4.5358    5.4454 H   0  0  0  0  0  0  0  0  0  0  0  0
    1.4421   -5.1136    6.6890 H   0  0  0  0  0  0  0  0  0  0  0  0
   -2.5601    1.0161    6.1608 H   0  0  0  0  0  0  0  0  0  0  0  0
   -1.2271    1.2030    5.0088 H   0  0  0  0  0  0  0  0  0  0  0  0
  1  2  1  0
  1 34  1  0
  1 35  1  0
  1 36  1  0
  2 33  1  0
  2  3  1  0
  2 37  1  1
  3  4  1  0
  3 38  1  0
  3 39  1  0
  4  5  1  0
  4 40  1  0
  4 41  1  0
  5 10  1  0
  5  6  1  0
  5 32  1  6
  6  7  1  0
  6 42  1  0
  6 43  1  0
  7 30  1  0
  7  8  1  1
  7  9  1  0
  8 44  1  0
  9 10  1  0
  9 12  1  0
  9 45  1  1
 10 11  1  0
 10 46  1  6
 11 47  1  0
 11 48  1  0
 11 49  1  0
 12 30  1  0
 12 13  1  0
 12 50  1  6
 13 25  1  0
 13 14  1  0
 13 51  1  6
 14 15  1  0
 14 52  1  0
 14 53  1  0
 15 16  2  0
 15 54  1  0
 16 23  1  0
 16 17  1  0
 17 18  1  0
 17 55  1  0
 17 56  1  0
 18 19  1  0
 18 20  2  0
 20 21  1  0
 20 57  1  0
 21 22  2  0
 21 23  1  0
 23 24  1  6
 23 25  1  0
 24 58  1  0
 24 59  1  0
 24 60  1  0
 25 26  1  6
 25 27  1  0
 27 28  1  0
 27 29  1  0
 27 61  1  6
 28 62  1  0
 29 30  1  0
 29 63  1  0
 29 64  1  0
 30 31  1  1
 31 65  1  0
 31 66  1  0
 31 67  1  0
 32 33  1  0
 33 68  1  0
 33 69  1  0
M  CHG  1  19  -1
M  END
>  <i_m_ct_stereo_status>  (334) 
1

>  <s_m_source_file>  (334) 
/var/tmp/pbs.5076255.sched01/tmp0kxp0nim/126xlotvanm.sdf

>  <i_m_source_file_index>  (334) 
20

>  <i_lp_mmshare_version>  (334) 
48012

>  <i_f3d_flags>  (334) 
0

>  <s_epik_input>  (334) 
TzFbQ0gyXVtDQEhdKFtDSDNdKVtDSDJdW0NIMl1bQ0BAXTEyW0NIMl1bQ0BdMyhbT0hdKVtDQEhdKFtDQEhdMltDSDNdKVtDQEhdNFtDQEhdNVtDQF0oRikoW0NAQEhdKFtPSF0pW0NIMl1bQ0BAXTM0W0NIM10pW0NAQF02KFtDSDNdKUMoPVtDSF1bQ0gyXTUpW0NIMl1DKD1PKVtDSDJdQzY9Tw==

>  <s_epik_cmdline>  (334) 
J2VwaWtfcHl0aG9uJywgJy1waHQnLCAnMi4wJywgJy1waCcsICc3LjAnLCAnLXRuJywgJzgnLCAnLW1hJywgJzIwMCcsICctaW1hZScsICc8aW5maWxlLm1hZT4nLCAnLW9tYWUnLCAnPG91dGZpbGUubWFlPic=

>  <r_epik_Ionization_Penalty>  (334) 
1.61327

>  <r_epik_Ionization_Penalty_Charging>  (334) 
0.00324402

>  <r_epik_Ionization_Penalty_Neutral>  (334) 
1.61003

>  <r_epik_State_Penalty>  (334) 
2.199

>  <r_epik_Charging_Adjusted_Penalty>  (334) 
2.20225

>  <i_epik_Tot_Q>  (334) 
-1

>  <i_epik_Tot_abs_Q>  (334) 
1

>  <s_lp_Force_Field>  (334) 
OPLS3e

>  <r_lp_Energy>  (334) 
58.8906

>  <b_lp_Chiralities_Consistent>  (334) 
1

>  <s_lp_Variant>  (334) 
102:0-2

>  <s_i_glide_gridfile>  (334) 
pfpi4k_grid

>  <i_i_glide_lignum>  (334) 
20

>  <i_i_glide_rotatable_bonds>  (334) 
2

>  <r_i_docking_score>  (334) 
-3.14709

>  <r_i_glide_ligand_efficiency>  (334) 
-0.0953665

>  <r_i_glide_ligand_efficiency_sa>  (334) 
-0.305891

>  <r_i_glide_ligand_efficiency_ln>  (334) 
-0.699898

>  <r_i_glide_gscore>  (334) 
-3.14709

>  <r_i_glide_lipo>  (334) 
-0.268947

>  <r_i_glide_hbond>  (334) 
-0.287878

>  <r_i_glide_metal>  (334) 
-0

>  <r_i_glide_rewards>  (334) 
-1.4073

>  <r_i_glide_evdw>  (334) 
-17.617

>  <r_i_glide_ecoul>  (334) 
-2.01413

>  <r_i_glide_erotb>  (334) 
0

>  <r_i_glide_esite>  (334) 
0

>  <r_i_glide_emodel>  (334) 
-35.0688

>  <r_i_glide_energy>  (334) 
-19.6312

>  <r_i_glide_einternal>  (334) 
0.360613

>  <r_i_glide_intrahb_reward>  (334) 
-1

>  <i_i_glide_confnum>  (334) 
4

>  <i_i_glide_posenum>  (334) 
34

>  <r_i_glide_eff_state_penalty>  (334) 
0

>  <ligand_id>  (334) 
102

>  <original_smiles>  (334) 
CC1CCC2(CC3(O)C(C2C)C2C4CC=C5CC(=O)CC(=O)C5(C)C4(F)C(O)CC23C)OC1

>  <smiles>  (334) 
[H]OC1([H])C([H])([H])C2(C([H])([H])[H])C([H])(C3([H])C([H])([H])C([H])=C4C([H])([H])C([O-])=C([H])C(=O)C4(C([H])([H])[H])C13F)C1([H])C([H])(C([H])([H])[H])C3(OC([H])([H])C([H])(C([H])([H])[H])C([H])([H])C3([H])[H])C([H])([H])C12O[H]

$$$$
102:1:1
     RDKit          3D

 69 74  0  0  1  0  0  0  0  0999 V2000
   10.5454   -5.2680    7.7824 C   0  0  0  0  0  0  0  0  0  0  0  0
   10.0801   -6.7197    7.9681 C   0  0  2  0  0  0  0  0  0  0  0  0
    9.7940   -7.3384    6.5899 C   0  0  0  0  0  0  0  0  0  0  0  0
    9.0873   -8.6828    6.7567 C   0  0  0  0  0  0  0  0  0  0  0  0
    7.8060   -8.5700    7.6370 C   0  0  2  0  0  0  0  0  0  0  0  0
    7.2317  -10.0013    7.8654 C   0  0  0  0  0  0  0  0  0  0  0  0
    6.3517  -10.2931    6.6515 C   0  0  2  0  0  0  0  0  0  0  0  0
    7.1554  -10.9824    5.7138 O   0  0  0  0  0  0  0  0  0  0  0  0
    5.8694   -8.9318    6.1951 C   0  0  2  0  0  0  0  0  0  0  0  0
    6.6392   -7.8135    6.9091 C   0  0  1  0  0  0  0  0  0  0  0  0
    5.7204   -6.9037    7.7755 C   0  0  0  0  0  0  0  0  0  0  0  0
    4.4437   -9.3201    6.6174 C   0  0  1  0  0  0  0  0  0  0  0  0
    3.3226   -8.8401    5.6691 C   0  0  2  0  0  0  0  0  0  0  0  0
    2.1977   -8.1175    6.4458 C   0  0  0  0  0  0  0  0  0  0  0  0
    0.9954   -7.8280    5.5775 C   0  0  0  0  0  0  0  0  0  0  0  0
    0.7839   -8.3580    4.3607 C   0  0  0  0  0  0  0  0  0  0  0  0
   -0.3490   -7.8458    3.4853 C   0  0  0  0  0  0  0  0  0  0  0  0
    0.2409   -7.3433    2.1556 C   0  0  0  0  0  0  0  0  0  0  0  0
   -0.5915   -6.5725    1.6157 O   0  0  0  0  0  0  0  0  0  0  0  0
    1.4940   -7.7148    1.7660 C   0  0  0  0  0  0  0  0  0  0  0  0
    2.3777   -8.6010    2.5148 C   0  0  0  0  0  0  0  0  0  0  0  0
    3.5651   -8.7050    2.2422 O   0  0  0  0  0  0  0  0  0  0  0  0
    1.7343   -9.3831    3.6924 C   0  0  2  0  0  0  0  0  0  0  0  0
    0.9239  -10.5430    3.0596 C   0  0  0  0  0  0  0  0  0  0  0  0
    2.7373   -9.9503    4.7669 C   0  0  2  0  0  0  0  0  0  0  0  0
    1.9397  -10.6484    5.5804 F   0  0  0  0  0  0  0  0  0  0  0  0
    3.8148  -11.0204    4.3545 C   0  0  1  0  0  0  0  0  0  0  0  0
    4.9296  -10.5873    3.5936 O   0  0  0  0  0  0  0  0  0  0  0  0
    4.3954  -11.7345    5.5905 C   0  0  0  0  0  0  0  0  0  0  0  0
    4.8833  -10.8049    6.7284 C   0  0  1  0  0  0  0  0  0  0  0  0
    4.5216  -11.5051    8.0446 C   0  0  0  0  0  0  0  0  0  0  0  0
    8.1885   -7.9947    8.8939 O   0  0  0  0  0  0  0  0  0  0  0  0
    8.8053   -6.7080    8.8272 C   0  0  0  0  0  0  0  0  0  0  0  0
    9.7890   -4.6608    7.2748 H   0  0  0  0  0  0  0  0  0  0  0  0
   11.4539   -5.2054    7.1823 H   0  0  0  0  0  0  0  0  0  0  0  0
   10.7298   -4.7858    8.7420 H   0  0  0  0  0  0  0  0  0  0  0  0
   10.8576   -7.3119    8.4611 H   0  0  0  0  0  0  0  0  0  0  0  0
    9.1716   -6.6752    5.9828 H   0  0  0  0  0  0  0  0  0  0  0  0
   10.7135   -7.4737    6.0135 H   0  0  0  0  0  0  0  0  0  0  0  0
    8.8666   -9.0790    5.7642 H   0  0  0  0  0  0  0  0  0  0  0  0
    9.7822   -9.3959    7.2075 H   0  0  0  0  0  0  0  0  0  0  0  0
    7.9883  -10.7755    8.0317 H   0  0  0  0  0  0  0  0  0  0  0  0
    6.6276   -9.9773    8.7706 H   0  0  0  0  0  0  0  0  0  0  0  0
    6.6380  -10.9951    4.9301 H   0  0  0  0  0  0  0  0  0  0  0  0
    5.9430   -8.8392    5.1107 H   0  0  0  0  0  0  0  0  0  0  0  0
    7.0395   -7.1584    6.1411 H   0  0  0  0  0  0  0  0  0  0  0  0
    5.4486   -7.3872    8.7193 H   0  0  0  0  0  0  0  0  0  0  0  0
    4.7931   -6.7001    7.2251 H   0  0  0  0  0  0  0  0  0  0  0  0
    6.1721   -5.9308    8.0171 H   0  0  0  0  0  0  0  0  0  0  0  0
    4.2704   -8.9816    7.6383 H   0  0  0  0  0  0  0  0  0  0  0  0
    3.7392   -8.0809    4.9979 H   0  0  0  0  0  0  0  0  0  0  0  0
    1.8596   -8.6857    7.3131 H   0  0  0  0  0  0  0  0  0  0  0  0
    2.5607   -7.1624    6.8162 H   0  0  0  0  0  0  0  0  0  0  0  0
    0.2850   -7.1147    5.9781 H   0  0  0  0  0  0  0  0  0  0  0  0
   -1.0780   -8.6437    3.3166 H   0  0  0  0  0  0  0  0  0  0  0  0
   -0.8755   -7.0363    3.9946 H   0  0  0  0  0  0  0  0  0  0  0  0
    1.9026   -7.3158    0.8446 H   0  0  0  0  0  0  0  0  0  0  0  0
    0.2412  -10.2055    2.2830 H   0  0  0  0  0  0  0  0  0  0  0  0
    0.3223  -11.0705    3.7997 H   0  0  0  0  0  0  0  0  0  0  0  0
    1.5744  -11.2696    2.5776 H   0  0  0  0  0  0  0  0  0  0  0  0
    3.3419  -11.7852    3.7424 H   0  0  0  0  0  0  0  0  0  0  0  0
    4.6008  -10.3400    2.7376 H   0  0  0  0  0  0  0  0  0  0  0  0
    3.6160  -12.3960    5.9660 H   0  0  0  0  0  0  0  0  0  0  0  0
    5.1832  -12.4162    5.2745 H   0  0  0  0  0  0  0  0  0  0  0  0
    3.4720  -11.7987    8.0789 H   0  0  0  0  0  0  0  0  0  0  0  0
    4.6824  -10.8622    8.9074 H   0  0  0  0  0  0  0  0  0  0  0  0
    5.1323  -12.3956    8.1832 H   0  0  0  0  0  0  0  0  0  0  0  0
    9.0328   -6.4000    9.8540 H   0  0  0  0  0  0  0  0  0  0  0  0
    8.1251   -5.9644    8.3918 H   0  0  0  0  0  0  0  0  0  0  0  0
  1  2  1  0
  1 34  1  0
  1 35  1  0
  1 36  1  0
  2 33  1  0
  2  3  1  0
  2 37  1  1
  3  4  1  0
  3 38  1  0
  3 39  1  0
  4  5  1  0
  4 40  1  0
  4 41  1  0
  5 10  1  0
  5  6  1  0
  5 32  1  1
  6  7  1  0
  6 42  1  0
  6 43  1  0
  7 30  1  0
  7  8  1  6
  7  9  1  0
  8 44  1  0
  9 10  1  0
  9 12  1  0
  9 45  1  6
 10 11  1  0
 10 46  1  6
 11 47  1  0
 11 48  1  0
 11 49  1  0
 12 30  1  0
 12 13  1  0
 12 50  1  1
 13 25  1  0
 13 14  1  0
 13 51  1  6
 14 15  1  0
 14 52  1  0
 14 53  1  0
 15 16  2  0
 15 54  1  0
 16 23  1  0
 16 17  1  0
 17 18  1  0
 17 55  1  0
 17 56  1  0
 18 19  1  0
 18 20  2  0
 20 21  1  0
 20 57  1  0
 21 22  2  0
 21 23  1  0
 23 24  1  6
 23 25  1  0
 24 58  1  0
 24 59  1  0
 24 60  1  0
 25 26  1  1
 25 27  1  0
 27 28  1  0
 27 29  1  0
 27 61  1  6
 28 62  1  0
 29 30  1  0
 29 63  1  0
 29 64  1  0
 30 31  1  1
 31 65  1  0
 31 66  1  0
 31 67  1  0
 32 33  1  0
 33 68  1  0
 33 69  1  0
M  CHG  1  19  -1
M  END
>  <i_m_ct_stereo_status>  (335) 
1

>  <s_m_source_file>  (335) 
/var/tmp/pbs.5076255.sched01/tmp0kxp0nim/126xlotvanm.sdf

>  <i_m_source_file_index>  (335) 
20

>  <i_lp_mmshare_version>  (335) 
48012

>  <i_f3d_flags>  (335) 
0

>  <s_epik_input>  (335) 
TzFbQ0gyXVtDQEhdKFtDSDNdKVtDSDJdW0NIMl1bQ0BAXTEyW0NIMl1bQ0BdMyhbT0hdKVtDQEhdKFtDQEhdMltDSDNdKVtDQEhdNFtDQEhdNVtDQF0oRikoW0NAQEhdKFtPSF0pW0NIMl1bQ0BAXTM0W0NIM10pW0NAQF02KFtDSDNdKUMoPVtDSF1bQ0gyXTUpW0NIMl1DKD1PKVtDSDJdQzY9Tw==

>  <s_epik_cmdline>  (335) 
J2VwaWtfcHl0aG9uJywgJy1waHQnLCAnMi4wJywgJy1waCcsICc3LjAnLCAnLXRuJywgJzgnLCAnLW1hJywgJzIwMCcsICctaW1hZScsICc8aW5maWxlLm1hZT4nLCAnLW9tYWUnLCAnPG91dGZpbGUubWFlPic=

>  <r_epik_Ionization_Penalty>  (335) 
1.61327

>  <r_epik_Ionization_Penalty_Charging>  (335) 
0.00324402

>  <r_epik_Ionization_Penalty_Neutral>  (335) 
1.61003

>  <r_epik_State_Penalty>  (335) 
2.199

>  <r_epik_Charging_Adjusted_Penalty>  (335) 
2.20225

>  <i_epik_Tot_Q>  (335) 
-1

>  <i_epik_Tot_abs_Q>  (335) 
1

>  <s_lp_Force_Field>  (335) 
OPLS3e

>  <r_lp_Energy>  (335) 
58.8906

>  <b_lp_Chiralities_Consistent>  (335) 
1

>  <s_lp_Variant>  (335) 
102:0-2

>  <s_i_glide_gridfile>  (335) 
pfpi4k_grid

>  <i_i_glide_lignum>  (335) 
20

>  <i_i_glide_rotatable_bonds>  (335) 
2

>  <r_i_docking_score>  (335) 
-2.74496

>  <r_i_glide_ligand_efficiency>  (335) 
-0.0831806

>  <r_i_glide_ligand_efficiency_sa>  (335) 
-0.266804

>  <r_i_glide_ligand_efficiency_ln>  (335) 
-0.610465

>  <r_i_glide_gscore>  (335) 
-2.74496

>  <r_i_glide_lipo>  (335) 
-0.138281

>  <r_i_glide_hbond>  (335) 
-0.306396

>  <r_i_glide_metal>  (335) 
-0

>  <r_i_glide_rewards>  (335) 
-1.27566

>  <r_i_glide_evdw>  (335) 
-16.3773

>  <r_i_glide_ecoul>  (335) 
-0.776352

>  <r_i_glide_erotb>  (335) 
0

>  <r_i_glide_esite>  (335) 
-0.0893072

>  <r_i_glide_emodel>  (335) 
-31.6225

>  <r_i_glide_energy>  (335) 
-17.1536

>  <r_i_glide_einternal>  (335) 
0.791243

>  <r_i_glide_intrahb_reward>  (335) 
-1

>  <i_i_glide_confnum>  (335) 
4

>  <i_i_glide_posenum>  (335) 
9

>  <r_i_glide_eff_state_penalty>  (335) 
0

>  <ligand_id>  (335) 
102

>  <original_smiles>  (335) 
CC1CCC2(CC3(O)C(C2C)C2C4CC=C5CC(=O)CC(=O)C5(C)C4(F)C(O)CC23C)OC1

>  <smiles>  (335) 
[H]OC1([H])C([H])([H])C2(C([H])([H])[H])C([H])(C3([H])C([H])([H])C([H])=C4C([H])([H])C([O-])=C([H])C(=O)C4(C([H])([H])[H])C13F)C1([H])C([H])(C([H])([H])[H])C3(OC([H])([H])C([H])(C([H])([H])[H])C([H])([H])C3([H])[H])C([H])([H])C12O[H]

$$$$
102:1:2
     RDKit          3D

 69 74  0  0  1  0  0  0  0  0999 V2000
   10.9769   -6.1258    5.6627 C   0  0  0  0  0  0  0  0  0  0  0  0
   10.5571   -7.5986    5.7888 C   0  0  2  0  0  0  0  0  0  0  0  0
    9.8820   -8.0447    4.4825 C   0  0  0  0  0  0  0  0  0  0  0  0
    9.2224   -9.4096    4.6638 C   0  0  0  0  0  0  0  0  0  0  0  0
    8.2351   -9.4232    5.8695 C   0  0  2  0  0  0  0  0  0  0  0  0
    7.7163  -10.8809    6.0693 C   0  0  0  0  0  0  0  0  0  0  0  0
    6.5291  -11.0295    5.1176 C   0  0  2  0  0  0  0  0  0  0  0  0
    7.0346  -11.5830    3.9247 O   0  0  0  0  0  0  0  0  0  0  0  0
    5.9722   -9.6260    4.9909 C   0  0  2  0  0  0  0  0  0  0  0  0
    6.9294   -8.5961    5.5928 C   0  0  1  0  0  0  0  0  0  0  0  0
    6.2920   -7.8117    6.7844 C   0  0  0  0  0  0  0  0  0  0  0  0
    4.7076  -10.0865    5.7284 C   0  0  1  0  0  0  0  0  0  0  0  0
    3.3810   -9.5067    5.2008 C   0  0  2  0  0  0  0  0  0  0  0  0
    2.5293   -8.9025    6.3366 C   0  0  0  0  0  0  0  0  0  0  0  0
    1.1428   -8.5174    5.8774 C   0  0  0  0  0  0  0  0  0  0  0  0
    0.6002   -8.8892    4.7040 C   0  0  0  0  0  0  0  0  0  0  0  0
   -0.7302   -8.2990    4.2547 C   0  0  0  0  0  0  0  0  0  0  0  0
   -0.5746   -7.6646    2.8806 C   0  0  0  0  0  0  0  0  0  0  0  0
   -1.6080   -6.9740    2.6777 O   0  0  0  0  0  0  0  0  0  0  0  0
    0.5389   -7.9008    2.1212 C   0  0  0  0  0  0  0  0  0  0  0  0
    1.6168   -8.8488    2.4893 C   0  0  0  0  0  0  0  0  0  0  0  0
    2.6624   -8.8966    1.8808 O   0  0  0  0  0  0  0  0  0  0  0  0
    1.3037   -9.7973    3.6825 C   0  0  2  0  0  0  0  0  0  0  0  0
    0.3198  -10.8858    3.1895 C   0  0  0  0  0  0  0  0  0  0  0  0
    2.5538  -10.4974    4.3577 C   0  0  2  0  0  0  0  0  0  0  0  0
    2.0016  -11.3147    5.2570 F   0  0  0  0  0  0  0  0  0  0  0  0
    3.4553  -11.4837    3.5363 C   0  0  1  0  0  0  0  0  0  0  0  0
    4.3679  -10.9109    2.6128 O   0  0  0  0  0  0  0  0  0  0  0  0
    4.3275  -12.3525    4.4664 C   0  0  0  0  0  0  0  0  0  0  0  0
    5.1278  -11.5669    5.5353 C   0  0  1  0  0  0  0  0  0  0  0  0
    5.1219  -12.4272    6.8014 C   0  0  0  0  0  0  0  0  0  0  0  0
    8.9615   -9.0075    7.0327 O   0  0  0  0  0  0  0  0  0  0  0  0
    9.5804   -7.7164    6.9612 C   0  0  0  0  0  0  0  0  0  0  0  0
   10.1189   -5.4711    5.4610 H   0  0  0  0  0  0  0  0  0  0  0  0
   11.6846   -5.9871    4.8429 H   0  0  0  0  0  0  0  0  0  0  0  0
   11.4298   -5.7643    6.5866 H   0  0  0  0  0  0  0  0  0  0  0  0
   11.4227   -8.2387    5.9689 H   0  0  0  0  0  0  0  0  0  0  0  0
    9.1392   -7.3175    4.1422 H   0  0  0  0  0  0  0  0  0  0  0  0
   10.6135   -8.0939    3.6764 H   0  0  0  0  0  0  0  0  0  0  0  0
    8.7330   -9.6795    3.7274 H   0  0  0  0  0  0  0  0  0  0  0  0
    9.9993  -10.1632    4.8141 H   0  0  0  0  0  0  0  0  0  0  0  0
    8.4726  -11.6596    5.9268 H   0  0  0  0  0  0  0  0  0  0  0  0
    7.3817  -10.9720    7.0991 H   0  0  0  0  0  0  0  0  0  0  0  0
    6.3243  -11.4832    3.3055 H   0  0  0  0  0  0  0  0  0  0  0  0
    5.7474   -9.3952    3.9470 H   0  0  0  0  0  0  0  0  0  0  0  0
    7.1119   -7.8479    4.8273 H   0  0  0  0  0  0  0  0  0  0  0  0
    6.2931   -8.4165    7.6989 H   0  0  0  0  0  0  0  0  0  0  0  0
    5.2563   -7.5548    6.5280 H   0  0  0  0  0  0  0  0  0  0  0  0
    6.7744   -6.8547    7.0124 H   0  0  0  0  0  0  0  0  0  0  0  0
    4.8334   -9.8806    6.7908 H   0  0  0  0  0  0  0  0  0  0  0  0
    3.6107   -8.6675    4.5362 H   0  0  0  0  0  0  0  0  0  0  0  0
    2.4272   -9.5767    7.1893 H   0  0  0  0  0  0  0  0  0  0  0  0
    2.9991   -7.9931    6.7054 H   0  0  0  0  0  0  0  0  0  0  0  0
    0.5847   -7.8756    6.5402 H   0  0  0  0  0  0  0  0  0  0  0  0
   -1.4999   -9.0633    4.2051 H   0  0  0  0  0  0  0  0  0  0  0  0
   -1.0610   -7.5525    4.9736 H   0  0  0  0  0  0  0  0  0  0  0  0
    0.6784   -7.4514    1.1457 H   0  0  0  0  0  0  0  0  0  0  0  0
   -0.5341  -10.4648    2.6543 H   0  0  0  0  0  0  0  0  0  0  0  0
   -0.0685  -11.4856    4.0149 H   0  0  0  0  0  0  0  0  0  0  0  0
    0.7961  -11.5869    2.5121 H   0  0  0  0  0  0  0  0  0  0  0  0
    2.8217  -12.1625    2.9699 H   0  0  0  0  0  0  0  0  0  0  0  0
    4.2158  -11.3192    1.7573 H   0  0  0  0  0  0  0  0  0  0  0  0
    3.6666  -13.0654    4.9575 H   0  0  0  0  0  0  0  0  0  0  0  0
    4.9825  -12.9797    3.8655 H   0  0  0  0  0  0  0  0  0  0  0  0
    4.1157  -12.7364    7.0880 H   0  0  0  0  0  0  0  0  0  0  0  0
    5.5283  -11.8950    7.6594 H   0  0  0  0  0  0  0  0  0  0  0  0
    5.7297  -13.3185    6.6628 H   0  0  0  0  0  0  0  0  0  0  0  0
   10.0737   -7.5236    7.9215 H   0  0  0  0  0  0  0  0  0  0  0  0
    8.8516   -6.9179    6.8095 H   0  0  0  0  0  0  0  0  0  0  0  0
  1  2  1  0
  1 34  1  0
  1 35  1  0
  1 36  1  0
  2 33  1  0
  2  3  1  0
  2 37  1  1
  3  4  1  0
  3 38  1  0
  3 39  1  0
  4  5  1  0
  4 40  1  0
  4 41  1  0
  5 10  1  0
  5  6  1  0
  5 32  1  1
  6  7  1  0
  6 42  1  0
  6 43  1  0
  7 30  1  0
  7  8  1  6
  7  9  1  0
  8 44  1  0
  9 10  1  0
  9 12  1  0
  9 45  1  6
 10 11  1  0
 10 46  1  6
 11 47  1  0
 11 48  1  0
 11 49  1  0
 12 30  1  0
 12 13  1  0
 12 50  1  1
 13 25  1  0
 13 14  1  0
 13 51  1  6
 14 15  1  0
 14 52  1  0
 14 53  1  0
 15 16  2  0
 15 54  1  0
 16 23  1  0
 16 17  1  0
 17 18  1  0
 17 55  1  0
 17 56  1  0
 18 19  1  0
 18 20  2  0
 20 21  1  0
 20 57  1  0
 21 22  2  0
 21 23  1  0
 23 24  1  6
 23 25  1  0
 24 58  1  0
 24 59  1  0
 24 60  1  0
 25 26  1  1
 25 27  1  0
 27 28  1  0
 27 29  1  0
 27 61  1  6
 28 62  1  0
 29 30  1  0
 29 63  1  0
 29 64  1  0
 30 31  1  1
 31 65  1  0
 31 66  1  0
 31 67  1  0
 32 33  1  0
 33 68  1  0
 33 69  1  0
M  CHG  1  19  -1
M  END
>  <i_m_ct_stereo_status>  (336) 
1

>  <s_m_source_file>  (336) 
/var/tmp/pbs.5076255.sched01/tmp0kxp0nim/126xlotvanm.sdf

>  <i_m_source_file_index>  (336) 
20

>  <i_lp_mmshare_version>  (336) 
48012

>  <i_f3d_flags>  (336) 
0

>  <s_epik_input>  (336) 
TzFbQ0gyXVtDQEhdKFtDSDNdKVtDSDJdW0NIMl1bQ0BAXTEyW0NIMl1bQ0BdMyhbT0hdKVtDQEhdKFtDQEhdMltDSDNdKVtDQEhdNFtDQEhdNVtDQF0oRikoW0NAQEhdKFtPSF0pW0NIMl1bQ0BAXTM0W0NIM10pW0NAQF02KFtDSDNdKUMoPVtDSF1bQ0gyXTUpW0NIMl1DKD1PKVtDSDJdQzY9Tw==

>  <s_epik_cmdline>  (336) 
J2VwaWtfcHl0aG9uJywgJy1waHQnLCAnMi4wJywgJy1waCcsICc3LjAnLCAnLXRuJywgJzgnLCAnLW1hJywgJzIwMCcsICctaW1hZScsICc8aW5maWxlLm1hZT4nLCAnLW9tYWUnLCAnPG91dGZpbGUubWFlPic=

>  <r_epik_Ionization_Penalty>  (336) 
1.61327

>  <r_epik_Ionization_Penalty_Charging>  (336) 
0.00324402

>  <r_epik_Ionization_Penalty_Neutral>  (336) 
1.61003

>  <r_epik_State_Penalty>  (336) 
2.199

>  <r_epik_Charging_Adjusted_Penalty>  (336) 
2.20225

>  <i_epik_Tot_Q>  (336) 
-1

>  <i_epik_Tot_abs_Q>  (336) 
1

>  <s_lp_Force_Field>  (336) 
OPLS3e

>  <r_lp_Energy>  (336) 
58.8906

>  <b_lp_Chiralities_Consistent>  (336) 
1

>  <s_lp_Variant>  (336) 
102:0-2

>  <s_i_glide_gridfile>  (336) 
pfpi4k_grid

>  <i_i_glide_lignum>  (336) 
20

>  <i_i_glide_rotatable_bonds>  (336) 
2

>  <r_i_docking_score>  (336) 
-2.70605

>  <r_i_glide_ligand_efficiency>  (336) 
-0.0820014

>  <r_i_glide_ligand_efficiency_sa>  (336) 
-0.263022

>  <r_i_glide_ligand_efficiency_ln>  (336) 
-0.601811

>  <r_i_glide_gscore>  (336) 
-2.70605

>  <r_i_glide_lipo>  (336) 
-0.0260434

>  <r_i_glide_hbond>  (336) 
-0.2

>  <r_i_glide_metal>  (336) 
-0

>  <r_i_glide_rewards>  (336) 
-0.777489

>  <r_i_glide_evdw>  (336) 
-18.8197

>  <r_i_glide_ecoul>  (336) 
-4.41019

>  <r_i_glide_erotb>  (336) 
0

>  <r_i_glide_esite>  (336) 
-0.1

>  <r_i_glide_emodel>  (336) 
-32.0689

>  <r_i_glide_energy>  (336) 
-23.2299

>  <r_i_glide_einternal>  (336) 
1.23678

>  <r_i_glide_intrahb_reward>  (336) 
-0.5

>  <i_i_glide_confnum>  (336) 
4

>  <i_i_glide_posenum>  (336) 
17

>  <r_i_glide_eff_state_penalty>  (336) 
0

>  <ligand_id>  (336) 
102

>  <original_smiles>  (336) 
CC1CCC2(CC3(O)C(C2C)C2C4CC=C5CC(=O)CC(=O)C5(C)C4(F)C(O)CC23C)OC1

>  <smiles>  (336) 
[H]OC1([H])C([H])([H])C2(C([H])([H])[H])C([H])(C3([H])C([H])([H])C([H])=C4C([H])([H])C([O-])=C([H])C(=O)C4(C([H])([H])[H])C13F)C1([H])C([H])(C([H])([H])[H])C3(OC([H])([H])C([H])(C([H])([H])[H])C([H])([H])C3([H])[H])C([H])([H])C12O[H]

$$$$
103:0:0
     RDKit          3D

 34 37  0  0  1  0  0  0  0  0999 V2000
    2.9328   -6.4485    2.8356 C   0  0  0  0  0  0  0  0  0  0  0  0
    2.7198   -5.7219    1.5616 C   0  0  0  0  0  0  0  0  0  0  0  0
    1.6421   -5.9167    0.7621 N   0  0  0  0  0  0  0  0  0  0  0  0
    1.8154   -5.1312   -0.2449 N   0  0  0  0  0  0  0  0  0  0  0  0
    2.9698   -4.4626   -0.0266 N   0  0  0  0  0  0  0  0  0  0  0  0
    3.5008   -3.4479   -0.9425 C   0  0  2  0  0  0  0  0  0  0  0  0
    4.9216   -3.8696   -1.4175 C   0  0  0  0  0  0  0  0  0  0  0  0
    5.5053   -2.7994   -2.3594 C   0  0  1  0  0  0  0  0  0  0  0  0
    4.5884   -2.6431   -3.5910 C   0  0  0  0  0  0  0  0  0  0  0  0
    3.1938   -2.1878   -3.1375 C   0  0  2  0  0  0  0  0  0  0  0  0
    3.3146   -0.8437   -2.4090 C   0  0  0  0  0  0  0  0  0  0  0  0
    4.1991   -1.0230   -1.1521 C   0  0  2  0  0  0  0  0  0  0  0  0
    5.6011   -1.4670   -1.5918 C   0  0  0  0  0  0  0  0  0  0  0  0
    3.6072   -2.0857   -0.2039 C   0  0  0  0  0  0  0  0  0  0  0  0
    2.5862   -3.2351   -2.1906 C   0  0  0  0  0  0  0  0  0  0  0  0
    3.5749   -4.8125    1.1204 N   0  0  0  0  0  0  0  0  0  0  0  0
    2.1074   -7.1400    3.0105 H   0  0  0  0  0  0  0  0  0  0  0  0
    2.9742   -5.7342    3.6595 H   0  0  0  0  0  0  0  0  0  0  0  0
    3.8623   -7.0188    2.7817 H   0  0  0  0  0  0  0  0  0  0  0  0
    5.5958   -4.0038   -0.5680 H   0  0  0  0  0  0  0  0  0  0  0  0
    4.8810   -4.8309   -1.9303 H   0  0  0  0  0  0  0  0  0  0  0  0
    6.4997   -3.1057   -2.6877 H   0  0  0  0  0  0  0  0  0  0  0  0
    4.9886   -1.9009   -4.2786 H   0  0  0  0  0  0  0  0  0  0  0  0
    4.5189   -3.5919   -4.1263 H   0  0  0  0  0  0  0  0  0  0  0  0
    2.5433   -2.0708   -4.0040 H   0  0  0  0  0  0  0  0  0  0  0  0
    3.7181   -0.0732   -3.0670 H   0  0  0  0  0  0  0  0  0  0  0  0
    2.3154   -0.5067   -2.1600 H   0  0  0  0  0  0  0  0  0  0  0  0
    4.2757   -0.0791   -0.6145 H   0  0  0  0  0  0  0  0  0  0  0  0
    6.2556   -1.5712   -0.7244 H   0  0  0  0  0  0  0  0  0  0  0  0
    6.0081   -0.6986   -2.2365 H   0  0  0  0  0  0  0  0  0  0  0  0
    2.6239   -1.7631    0.1443 H   0  0  0  0  0  0  0  0  0  0  0  0
    4.2373   -2.1619    0.6870 H   0  0  0  0  0  0  0  0  0  0  0  0
    2.4333   -4.1454   -2.7598 H   0  0  0  0  0  0  0  0  0  0  0  0
    1.5866   -2.9246   -1.8923 H   0  0  0  0  0  0  0  0  0  0  0  0
  1  2  1  0
  1 17  1  0
  1 18  1  0
  1 19  1  0
  2 16  2  0
  2  3  1  0
  3  4  2  0
  4  5  1  0
  6  5  1  1
  5 16  1  0
  6 14  1  0
  6 15  1  0
  6  7  1  0
  7  8  1  0
  7 20  1  0
  7 21  1  0
  8 13  1  0
  8  9  1  0
  8 22  1  6
  9 10  1  0
  9 23  1  0
  9 24  1  0
 10 11  1  0
 10 15  1  0
 10 25  1  6
 11 12  1  0
 11 26  1  0
 11 27  1  0
 12 13  1  0
 12 14  1  0
 12 28  1  1
 13 29  1  0
 13 30  1  0
 14 31  1  0
 14 32  1  0
 15 33  1  0
 15 34  1  0
M  END
>  <i_m_ct_stereo_status>  (337) 
1

>  <s_m_source_file>  (337) 
/var/tmp/pbs.5076255.sched01/tmp0kxp0nim/126xlotvanm.sdf

>  <i_m_source_file_index>  (337) 
21

>  <i_lp_mmshare_version>  (337) 
48012

>  <i_f3d_flags>  (337) 
0

>  <s_epik_input>  (337) 
W0NIM11jMW5ubihuMSlDMjNbQ0gyXVtDQEhdNFtDSDJdW0NAQEhdKFtDSDJdMylbQ0gyXVtDQEhdKFtDSDJdNClbQ0gyXTI=

>  <s_epik_cmdline>  (337) 
J2VwaWtfcHl0aG9uJywgJy1waHQnLCAnMi4wJywgJy1waCcsICc3LjAnLCAnLXRuJywgJzgnLCAnLW1hJywgJzIwMCcsICctaW1hZScsICc8aW5maWxlLm1hZT4nLCAnLW9tYWUnLCAnPG91dGZpbGUubWFlPic=

>  <r_lp_tautomer_probability>  (337) 
1

>  <r_epik_Ionization_Penalty>  (337) 
1.34834e-05

>  <r_epik_Ionization_Penalty_Charging>  (337) 
0

>  <r_epik_Ionization_Penalty_Neutral>  (337) 
1.34834e-05

>  <r_epik_State_Penalty>  (337) 
-0

>  <r_epik_Charging_Adjusted_Penalty>  (337) 
0

>  <i_epik_Tot_Q>  (337) 
0

>  <i_epik_Tot_abs_Q>  (337) 
0

>  <s_lp_Force_Field>  (337) 
OPLS3e

>  <r_lp_Energy>  (337) 
0.053916

>  <b_lp_Chiralities_Consistent>  (337) 
1

>  <s_lp_Variant>  (337) 
103:0-1

>  <s_i_glide_gridfile>  (337) 
pfpi4k_grid

>  <i_i_glide_lignum>  (337) 
21

>  <i_i_glide_rotatable_bonds>  (337) 
1

>  <r_i_docking_score>  (337) 
-3.37737

>  <r_i_glide_ligand_efficiency>  (337) 
-0.211086

>  <r_i_glide_ligand_efficiency_sa>  (337) 
-0.531902

>  <r_i_glide_ligand_efficiency_ln>  (337) 
-0.895239

>  <r_i_glide_gscore>  (337) 
-3.37737

>  <r_i_glide_lipo>  (337) 
-0.428693

>  <r_i_glide_hbond>  (337) 
0

>  <r_i_glide_metal>  (337) 
-0

>  <r_i_glide_rewards>  (337) 
-1.92069

>  <r_i_glide_evdw>  (337) 
-12.8684

>  <r_i_glide_ecoul>  (337) 
-3.40962

>  <r_i_glide_erotb>  (337) 
0.3526

>  <r_i_glide_esite>  (337) 
-0.225716

>  <r_i_glide_emodel>  (337) 
-19.3982

>  <r_i_glide_energy>  (337) 
-16.2781

>  <r_i_glide_einternal>  (337) 
0.349927

>  <r_i_glide_intrahb_reward>  (337) 
-0

>  <i_i_glide_confnum>  (337) 
6

>  <i_i_glide_posenum>  (337) 
4

>  <r_i_glide_eff_state_penalty>  (337) 
0

>  <ligand_id>  (337) 
103

>  <original_smiles>  (337) 
Cc1nnn(C23CC4CC(CC(C4)C2)C3)n1

>  <smiles>  (337) 
[H]C([H])([H])c1nnn(C23C([H])([H])C4([H])C([H])([H])C([H])(C([H])([H])C([H])(C4([H])[H])C2([H])[H])C3([H])[H])n1

$$$$
103:0:1
     RDKit          3D

 34 37  0  0  1  0  0  0  0  0999 V2000
    3.4283   -4.1609    3.9574 C   0  0  0  0  0  0  0  0  0  0  0  0
    3.1983   -4.2615    2.4998 C   0  0  0  0  0  0  0  0  0  0  0  0
    2.4796   -5.2777    1.9173 N   0  0  0  0  0  0  0  0  0  0  0  0
    2.5130   -5.0349    0.6509 N   0  0  0  0  0  0  0  0  0  0  0  0
    3.1795   -3.8526    0.5070 N   0  0  0  0  0  0  0  0  0  0  0  0
    3.4378   -3.2246   -0.7882 C   0  0  2  0  0  0  0  0  0  0  0  0
    2.1939   -3.3461   -1.7225 C   0  0  0  0  0  0  0  0  0  0  0  0
    2.4251   -2.6316   -3.0682 C   0  0  1  0  0  0  0  0  0  0  0  0
    2.8250   -1.1450   -2.8903 C   0  0  0  0  0  0  0  0  0  0  0  0
    4.0445   -1.0508   -1.9829 C   0  0  2  0  0  0  0  0  0  0  0  0
    5.1800   -1.7730   -2.6737 C   0  0  0  0  0  0  0  0  0  0  0  0
    4.8511   -3.2513   -2.8807 C   0  0  2  0  0  0  0  0  0  0  0  0
    3.5817   -3.3474   -3.7663 C   0  0  0  0  0  0  0  0  0  0  0  0
    4.6484   -3.8989   -1.4936 C   0  0  0  0  0  0  0  0  0  0  0  0
    3.7783   -1.7078   -0.6183 C   0  0  0  0  0  0  0  0  0  0  0  0
    3.6774   -3.3778    1.6722 N   0  0  0  0  0  0  0  0  0  0  0  0
    2.9603   -4.9977    4.4712 H   0  0  0  0  0  0  0  0  0  0  0  0
    2.9938   -3.2270    4.3311 H   0  0  0  0  0  0  0  0  0  0  0  0
    4.5054   -4.1796    4.1522 H   0  0  0  0  0  0  0  0  0  0  0  0
    1.8802   -4.3670   -1.9216 H   0  0  0  0  0  0  0  0  0  0  0  0
    1.3173   -2.9971   -1.2099 H   0  0  0  0  0  0  0  0  0  0  0  0
    1.5271   -2.7123   -3.6793 H   0  0  0  0  0  0  0  0  0  0  0  0
    2.9866   -0.6668   -3.8564 H   0  0  0  0  0  0  0  0  0  0  0  0
    2.0989   -0.5145   -2.4076 H   0  0  0  0  0  0  0  0  0  0  0  0
    4.2920    0.0041   -1.8638 H   0  0  0  0  0  0  0  0  0  0  0  0
    5.2280   -1.3254   -3.6514 H   0  0  0  0  0  0  0  0  0  0  0  0
    6.1086   -1.6422   -2.1194 H   0  0  0  0  0  0  0  0  0  0  0  0
    5.6894   -3.7283   -3.4004 H   0  0  0  0  0  0  0  0  0  0  0  0
    3.3397   -4.3796   -3.9802 H   0  0  0  0  0  0  0  0  0  0  0  0
    3.7565   -2.8685   -4.7207 H   0  0  0  0  0  0  0  0  0  0  0  0
    5.5582   -3.7912   -0.8950 H   0  0  0  0  0  0  0  0  0  0  0  0
    4.5087   -4.9744   -1.5800 H   0  0  0  0  0  0  0  0  0  0  0  0
    2.9859   -1.1708   -0.0893 H   0  0  0  0  0  0  0  0  0  0  0  0
    4.6818   -1.5705   -0.0183 H   0  0  0  0  0  0  0  0  0  0  0  0
  1  2  1  0
  1 17  1  0
  1 18  1  0
  1 19  1  0
  2 16  2  0
  2  3  1  0
  3  4  2  0
  4  5  1  0
  6  5  1  1
  5 16  1  0
  6 14  1  0
  6 15  1  0
  6  7  1  0
  7  8  1  0
  7 20  1  0
  7 21  1  0
  8 13  1  0
  8  9  1  0
  8 22  1  6
  9 10  1  0
  9 23  1  0
  9 24  1  0
 10 11  1  0
 10 15  1  0
 10 25  1  1
 11 12  1  0
 11 26  1  0
 11 27  1  0
 12 13  1  0
 12 14  1  0
 12 28  1  6
 13 29  1  0
 13 30  1  0
 14 31  1  0
 14 32  1  0
 15 33  1  0
 15 34  1  0
M  END
>  <i_m_ct_stereo_status>  (338) 
1

>  <s_m_source_file>  (338) 
/var/tmp/pbs.5076255.sched01/tmp0kxp0nim/126xlotvanm.sdf

>  <i_m_source_file_index>  (338) 
21

>  <i_lp_mmshare_version>  (338) 
48012

>  <i_f3d_flags>  (338) 
0

>  <s_epik_input>  (338) 
W0NIM11jMW5ubihuMSlDMjNbQ0gyXVtDQEhdNFtDSDJdW0NAQEhdKFtDSDJdMylbQ0gyXVtDQEhdKFtDSDJdNClbQ0gyXTI=

>  <s_epik_cmdline>  (338) 
J2VwaWtfcHl0aG9uJywgJy1waHQnLCAnMi4wJywgJy1waCcsICc3LjAnLCAnLXRuJywgJzgnLCAnLW1hJywgJzIwMCcsICctaW1hZScsICc8aW5maWxlLm1hZT4nLCAnLW9tYWUnLCAnPG91dGZpbGUubWFlPic=

>  <r_lp_tautomer_probability>  (338) 
1

>  <r_epik_Ionization_Penalty>  (338) 
1.34834e-05

>  <r_epik_Ionization_Penalty_Charging>  (338) 
0

>  <r_epik_Ionization_Penalty_Neutral>  (338) 
1.34834e-05

>  <r_epik_State_Penalty>  (338) 
-0

>  <r_epik_Charging_Adjusted_Penalty>  (338) 
0

>  <i_epik_Tot_Q>  (338) 
0

>  <i_epik_Tot_abs_Q>  (338) 
0

>  <s_lp_Force_Field>  (338) 
OPLS3e

>  <r_lp_Energy>  (338) 
0.053916

>  <b_lp_Chiralities_Consistent>  (338) 
1

>  <s_lp_Variant>  (338) 
103:0-1

>  <s_i_glide_gridfile>  (338) 
pfpi4k_grid

>  <i_i_glide_lignum>  (338) 
21

>  <i_i_glide_rotatable_bonds>  (338) 
1

>  <r_i_docking_score>  (338) 
-2.92821

>  <r_i_glide_ligand_efficiency>  (338) 
-0.183013

>  <r_i_glide_ligand_efficiency_sa>  (338) 
-0.461164

>  <r_i_glide_ligand_efficiency_ln>  (338) 
-0.776181

>  <r_i_glide_gscore>  (338) 
-2.92821

>  <r_i_glide_lipo>  (338) 
-0.596902

>  <r_i_glide_hbond>  (338) 
0

>  <r_i_glide_metal>  (338) 
-0

>  <r_i_glide_rewards>  (338) 
-1.92072

>  <r_i_glide_evdw>  (338) 
-11.3999

>  <r_i_glide_ecoul>  (338) 
-0.834818

>  <r_i_glide_erotb>  (338) 
0.3526

>  <r_i_glide_esite>  (338) 
-0.0679679

>  <r_i_glide_emodel>  (338) 
-14.5132

>  <r_i_glide_energy>  (338) 
-12.2347

>  <r_i_glide_einternal>  (338) 
0.21097

>  <r_i_glide_intrahb_reward>  (338) 
-0

>  <i_i_glide_confnum>  (338) 
4

>  <i_i_glide_posenum>  (338) 
17

>  <r_i_glide_eff_state_penalty>  (338) 
0

>  <ligand_id>  (338) 
103

>  <original_smiles>  (338) 
Cc1nnn(C23CC4CC(CC(C4)C2)C3)n1

>  <smiles>  (338) 
[H]C([H])([H])c1nnn(C23C([H])([H])C4([H])C([H])([H])C([H])(C([H])([H])C([H])(C4([H])[H])C2([H])[H])C3([H])[H])n1

$$$$
103:0:2
     RDKit          3D

 34 37  0  0  1  0  0  0  0  0999 V2000
    1.3230   -7.2804    2.2173 C   0  0  0  0  0  0  0  0  0  0  0  0
    2.1746   -6.0899    1.9604 C   0  0  0  0  0  0  0  0  0  0  0  0
    2.7508   -5.3523    2.9459 N   0  0  0  0  0  0  0  0  0  0  0  0
    3.4109   -4.4162    2.3471 N   0  0  0  0  0  0  0  0  0  0  0  0
    3.1894   -4.5835    1.0205 N   0  0  0  0  0  0  0  0  0  0  0  0
    3.7846   -3.7388   -0.0216 C   0  0  2  0  0  0  0  0  0  0  0  0
    2.7114   -3.3781   -1.0865 C   0  0  0  0  0  0  0  0  0  0  0  0
    3.3162   -2.4998   -2.1979 C   0  0  1  0  0  0  0  0  0  0  0  0
    3.8443   -1.1919   -1.5761 C   0  0  0  0  0  0  0  0  0  0  0  0
    4.9353   -1.5239   -0.5397 C   0  0  2  0  0  0  0  0  0  0  0  0
    6.0918   -2.2793   -1.2212 C   0  0  0  0  0  0  0  0  0  0  0  0
    5.5477   -3.5819   -1.8362 C   0  0  2  0  0  0  0  0  0  0  0  0
    4.4658   -3.2656   -2.8831 C   0  0  0  0  0  0  0  0  0  0  0  0
    4.9585   -4.4784   -0.7203 C   0  0  0  0  0  0  0  0  0  0  0  0
    4.3349   -2.4085    0.5702 C   0  0  0  0  0  0  0  0  0  0  0  0
    2.4111   -5.6519    0.7367 N   0  0  0  0  0  0  0  0  0  0  0  0
    1.2381   -7.4641    3.2900 H   0  0  0  0  0  0  0  0  0  0  0  0
    1.7619   -8.1601    1.7421 H   0  0  0  0  0  0  0  0  0  0  0  0
    0.3255   -7.1151    1.8077 H   0  0  0  0  0  0  0  0  0  0  0  0
    2.2793   -4.2633   -1.5441 H   0  0  0  0  0  0  0  0  0  0  0  0
    1.8763   -2.8701   -0.6048 H   0  0  0  0  0  0  0  0  0  0  0  0
    2.5453   -2.2693   -2.9351 H   0  0  0  0  0  0  0  0  0  0  0  0
    4.2321   -0.5235   -2.3438 H   0  0  0  0  0  0  0  0  0  0  0  0
    3.0223   -0.6712   -1.0859 H   0  0  0  0  0  0  0  0  0  0  0  0
    5.3096   -0.5981   -0.1003 H   0  0  0  0  0  0  0  0  0  0  0  0
    6.5382   -1.6650   -1.9969 H   0  0  0  0  0  0  0  0  0  0  0  0
    6.8805   -2.4994   -0.5005 H   0  0  0  0  0  0  0  0  0  0  0  0
    6.3570   -4.0868   -2.3515 H   0  0  0  0  0  0  0  0  0  0  0  0
    4.1006   -4.1941   -3.3235 H   0  0  0  0  0  0  0  0  0  0  0  0
    4.8850   -2.6852   -3.7020 H   0  0  0  0  0  0  0  0  0  0  0  0
    5.7343   -4.7330    0.0063 H   0  0  0  0  0  0  0  0  0  0  0  0
    4.6180   -5.4282   -1.1366 H   0  0  0  0  0  0  0  0  0  0  0  0
    3.5356   -1.8662    1.0825 H   0  0  0  0  0  0  0  0  0  0  0  0
    5.1051   -2.6097    1.3192 H   0  0  0  0  0  0  0  0  0  0  0  0
  1  2  1  0
  1 17  1  0
  1 18  1  0
  1 19  1  0
  2 16  2  0
  2  3  1  0
  3  4  2  0
  4  5  1  0
  6  5  1  1
  5 16  1  0
  6 14  1  0
  6 15  1  0
  6  7  1  0
  7  8  1  0
  7 20  1  0
  7 21  1  0
  8 13  1  0
  8  9  1  0
  8 22  1  6
  9 10  1  0
  9 23  1  0
  9 24  1  0
 10 11  1  0
 10 15  1  0
 10 25  1  1
 11 12  1  0
 11 26  1  0
 11 27  1  0
 12 13  1  0
 12 14  1  0
 12 28  1  6
 13 29  1  0
 13 30  1  0
 14 31  1  0
 14 32  1  0
 15 33  1  0
 15 34  1  0
M  END
>  <i_m_ct_stereo_status>  (339) 
1

>  <s_m_source_file>  (339) 
/var/tmp/pbs.5076255.sched01/tmp0kxp0nim/126xlotvanm.sdf

>  <i_m_source_file_index>  (339) 
21

>  <i_lp_mmshare_version>  (339) 
48012

>  <i_f3d_flags>  (339) 
0

>  <s_epik_input>  (339) 
W0NIM11jMW5ubihuMSlDMjNbQ0gyXVtDQEhdNFtDSDJdW0NAQEhdKFtDSDJdMylbQ0gyXVtDQEhdKFtDSDJdNClbQ0gyXTI=

>  <s_epik_cmdline>  (339) 
J2VwaWtfcHl0aG9uJywgJy1waHQnLCAnMi4wJywgJy1waCcsICc3LjAnLCAnLXRuJywgJzgnLCAnLW1hJywgJzIwMCcsICctaW1hZScsICc8aW5maWxlLm1hZT4nLCAnLW9tYWUnLCAnPG91dGZpbGUubWFlPic=

>  <r_lp_tautomer_probability>  (339) 
1

>  <r_epik_Ionization_Penalty>  (339) 
1.34834e-05

>  <r_epik_Ionization_Penalty_Charging>  (339) 
0

>  <r_epik_Ionization_Penalty_Neutral>  (339) 
1.34834e-05

>  <r_epik_State_Penalty>  (339) 
-0

>  <r_epik_Charging_Adjusted_Penalty>  (339) 
0

>  <i_epik_Tot_Q>  (339) 
0

>  <i_epik_Tot_abs_Q>  (339) 
0

>  <s_lp_Force_Field>  (339) 
OPLS3e

>  <r_lp_Energy>  (339) 
0.053916

>  <b_lp_Chiralities_Consistent>  (339) 
1

>  <s_lp_Variant>  (339) 
103:0-1

>  <s_i_glide_gridfile>  (339) 
pfpi4k_grid

>  <i_i_glide_lignum>  (339) 
21

>  <i_i_glide_rotatable_bonds>  (339) 
1

>  <r_i_docking_score>  (339) 
-2.67098

>  <r_i_glide_ligand_efficiency>  (339) 
-0.166937

>  <r_i_glide_ligand_efficiency_sa>  (339) 
-0.420654

>  <r_i_glide_ligand_efficiency_ln>  (339) 
-0.707998

>  <r_i_glide_gscore>  (339) 
-2.67098

>  <r_i_glide_lipo>  (339) 
-0.220148

>  <r_i_glide_hbond>  (339) 
0

>  <r_i_glide_metal>  (339) 
-0

>  <r_i_glide_rewards>  (339) 
-1.92069

>  <r_i_glide_evdw>  (339) 
-15.4797

>  <r_i_glide_ecoul>  (339) 
-0.555598

>  <r_i_glide_erotb>  (339) 
0.3526

>  <r_i_glide_esite>  (339) 
-0.0254187

>  <r_i_glide_emodel>  (339) 
-18.4704

>  <r_i_glide_energy>  (339) 
-16.0353

>  <r_i_glide_einternal>  (339) 
0.302523

>  <r_i_glide_intrahb_reward>  (339) 
-0

>  <i_i_glide_confnum>  (339) 
5

>  <i_i_glide_posenum>  (339) 
16

>  <r_i_glide_eff_state_penalty>  (339) 
0

>  <ligand_id>  (339) 
103

>  <original_smiles>  (339) 
Cc1nnn(C23CC4CC(CC(C4)C2)C3)n1

>  <smiles>  (339) 
[H]C([H])([H])c1nnn(C23C([H])([H])C4([H])C([H])([H])C([H])(C([H])([H])C([H])(C4([H])[H])C2([H])[H])C3([H])[H])n1

$$$$
104:0:0
     RDKit          3D

 61 66  0  0  1  0  0  0  0  0999 V2000
    4.7254   -0.3673   -2.4463 C   0  0  0  0  0  0  0  0  0  0  0  0
    4.4117   -1.7412   -2.3164 O   0  0  0  0  0  0  0  0  0  0  0  0
    4.8782   -2.3291   -1.1006 C   0  0  2  0  0  0  0  0  0  0  0  0
    4.4531   -3.9253   -1.2608 C   0  0  0  0  0  0  0  0  0  0  0  0
    3.2225   -4.3982   -0.3141 C   0  0  1  0  0  0  0  0  0  0  0  0
    1.9220   -4.1119   -1.2101 C   0  0  0  0  0  0  0  0  0  0  0  0
    2.9528   -5.7590    0.1172 O   0  0  0  0  0  0  0  0  0  0  0  0
    1.8109   -6.0854    0.9140 C   0  0  0  0  0  0  0  0  0  0  0  0
    0.6772   -6.2787    0.4705 O   0  0  0  0  0  0  0  0  0  0  0  0
    2.1089   -6.3355    2.4048 C   0  0  2  0  0  0  0  0  0  0  0  0
    1.3841   -5.5171    3.5627 C   0  0  0  0  0  0  0  0  0  0  0  0
    0.2818   -5.8407    3.9777 O   0  0  0  0  0  0  0  0  0  0  0  0
    2.1673   -4.2314    4.1640 C   0  0  1  0  0  0  0  0  0  0  0  0
    3.7262   -3.9200    4.2348 C   0  0  0  0  0  0  0  0  0  0  0  0
    4.2844   -3.4940    2.6081 C   0  0  2  0  0  0  0  0  0  0  0  0
    5.5612   -4.3582    2.6455 C   0  0  0  0  0  0  0  0  0  0  0  0
    4.8148   -5.6868    2.2451 C   0  0  0  0  0  0  0  0  0  0  0  0
    3.2416   -5.5532    2.6271 C   0  0  1  0  0  0  0  0  0  0  0  0
    2.6055   -3.8071    2.8953 C   0  0  2  0  0  0  0  0  0  0  0  0
    3.6012   -2.3035    2.8917 C   0  0  1  0  0  0  0  0  0  0  0  0
    3.5047   -1.5290    4.1117 O   0  0  0  0  0  0  0  0  0  0  0  0
    2.2326   -0.9404    4.3632 C   0  0  0  0  0  0  0  0  0  0  0  0
    4.3777   -1.2098    1.8508 C   0  0  1  0  0  0  0  0  0  0  0  0
    3.7040    0.2039    1.9193 C   0  0  0  0  0  0  0  0  0  0  0  0
    5.8277   -0.9469    2.4194 C   0  0  0  0  0  0  0  0  0  0  0  0
    5.8707   -0.2601    3.6622 O   0  0  0  0  0  0  0  0  0  0  0  0
    4.3655   -1.4289    0.2211 C   0  0  2  0  0  0  0  0  0  0  0  0
    3.1061   -2.1379    0.3783 C   0  0  0  0  0  0  0  0  0  0  0  0
    3.6847   -3.4802    0.8924 C   0  0  2  0  0  0  0  0  0  0  0  0
    4.3959    0.0696   -3.3936 H   0  0  0  0  0  0  0  0  0  0  0  0
    5.7920   -0.1723   -2.3100 H   0  0  0  0  0  0  0  0  0  0  0  0
    4.2179    0.1489   -1.6674 H   0  0  0  0  0  0  0  0  0  0  0  0
    5.9620   -2.2861   -1.2361 H   0  0  0  0  0  0  0  0  0  0  0  0
    4.2226   -4.1243   -2.3094 H   0  0  0  0  0  0  0  0  0  0  0  0
    5.3257   -4.5757   -1.0708 H   0  0  0  0  0  0  0  0  0  0  0  0
    2.1576   -3.4687   -2.0681 H   0  0  0  0  0  0  0  0  0  0  0  0
    1.1173   -3.5862   -0.7251 H   0  0  0  0  0  0  0  0  0  0  0  0
    1.3985   -4.9973   -1.5794 H   0  0  0  0  0  0  0  0  0  0  0  0
    2.2114   -7.3971    2.6446 H   0  0  0  0  0  0  0  0  0  0  0  0
    1.5307   -3.4921    4.6339 H   0  0  0  0  0  0  0  0  0  0  0  0
    4.0371   -3.3262    5.0885 H   0  0  0  0  0  0  0  0  0  0  0  0
    4.2524   -4.7671    4.6788 H   0  0  0  0  0  0  0  0  0  0  0  0
    6.3440   -4.0956    1.9261 H   0  0  0  0  0  0  0  0  0  0  0  0
    6.0314   -4.4091    3.6285 H   0  0  0  0  0  0  0  0  0  0  0  0
    5.0093   -5.9235    1.1971 H   0  0  0  0  0  0  0  0  0  0  0  0
    5.2782   -6.5222    2.7794 H   0  0  0  0  0  0  0  0  0  0  0  0
    3.5259   -6.1478    3.5162 H   0  0  0  0  0  0  0  0  0  0  0  0
    1.7114   -3.5695    2.2894 H   0  0  0  0  0  0  0  0  0  0  0  0
    2.3846    0.0778    4.7234 H   0  0  0  0  0  0  0  0  0  0  0  0
    1.7050   -1.4728    5.1548 H   0  0  0  0  0  0  0  0  0  0  0  0
    1.5903   -0.9004    3.4787 H   0  0  0  0  0  0  0  0  0  0  0  0
    4.1538    0.8751    1.1813 H   0  0  0  0  0  0  0  0  0  0  0  0
    3.8000    0.7065    2.8837 H   0  0  0  0  0  0  0  0  0  0  0  0
    2.6323    0.1937    1.7154 H   0  0  0  0  0  0  0  0  0  0  0  0
    6.3592   -1.8860    2.5421 H   0  0  0  0  0  0  0  0  0  0  0  0
    6.4236   -0.3668    1.7133 H   0  0  0  0  0  0  0  0  0  0  0  0
    5.2821   -0.7153    4.2544 H   0  0  0  0  0  0  0  0  0  0  0  0
    5.3445   -1.8081    0.4796 H   0  0  0  0  0  0  0  0  0  0  0  0
    2.2887   -1.7219    0.9663 H   0  0  0  0  0  0  0  0  0  0  0  0
    2.6600   -2.0341   -0.5912 H   0  0  0  0  0  0  0  0  0  0  0  0
    4.7417   -3.6331    0.7673 H   0  0  0  0  0  0  0  0  0  0  0  0
  1  2  1  0
  1 30  1  0
  1 31  1  0
  1 32  1  0
  2  3  1  0
  3 27  1  0
  3  4  1  0
  3 33  1  6
  4  5  1  0
  4 34  1  0
  4 35  1  0
  5 29  1  0
  5  6  1  6
  5  7  1  0
  6 36  1  0
  6 37  1  0
  6 38  1  0
  7  8  1  0
  8  9  2  0
  8 10  1  0
 10 18  1  0
 10 11  1  0
 10 39  1  1
 11 12  2  0
 11 13  1  0
 13 19  1  0
 13 14  1  0
 13 40  1  1
 15 14  1  1
 14 41  1  0
 14 42  1  0
 15 20  1  0
 15 29  1  0
 15 16  1  0
 16 17  1  0
 16 43  1  0
 16 44  1  0
 17 18  1  0
 17 45  1  0
 17 46  1  0
 18 19  1  0
 18 47  1  1
 19 20  1  0
 19 48  1  6
 20 21  1  1
 20 23  1  0
 21 22  1  0
 22 49  1  0
 22 50  1  0
 22 51  1  0
 23 24  1  6
 23 25  1  0
 23 27  1  0
 24 52  1  0
 24 53  1  0
 24 54  1  0
 25 26  1  0
 25 55  1  0
 25 56  1  0
 26 57  1  0
 27 28  1  0
 27 58  1  6
 28 29  1  0
 28 59  1  0
 28 60  1  0
 29 61  1  6
M  END
>  <i_m_ct_stereo_status>  (340) 
1

>  <s_m_source_file>  (340) 
/var/tmp/pbs.5076255.sched01/tmp0kxp0nim/126xlotvanm.sdf

>  <i_m_source_file_index>  (340) 
22

>  <i_lp_mmshare_version>  (340) 
48012

>  <i_f3d_flags>  (340) 
0

>  <s_epik_input>  (340) 
W0NIM11PW0NASF0oW0NIMl0xKVtDQEBIXShbQ0BdMihbQ0gzXSlbQ0gyXVtPSF0pW0NIMl1bQ0BASF0zW0NAXTEoW0NIM10pT0MoPU8pW0NAQEhdKFtDQEhdNFtDSDJdW0NIMl01KUMoPU8pW0NAQEhdKFtDSDJdNilbQ0BIXTRbQ0BdMihDMzU2KU9bQ0gzXQ==

>  <s_epik_cmdline>  (340) 
J2VwaWtfcHl0aG9uJywgJy1waHQnLCAnMi4wJywgJy1waCcsICc3LjAnLCAnLXRuJywgJzgnLCAnLW1hJywgJzIwMCcsICctaW1hZScsICc8aW5maWxlLm1hZT4nLCAnLW9tYWUnLCAnPG91dGZpbGUubWFlPic=

>  <r_lp_tautomer_probability>  (340) 
1

>  <r_epik_Ionization_Penalty>  (340) 
4.58844e-07

>  <r_epik_Ionization_Penalty_Charging>  (340) 
0

>  <r_epik_Ionization_Penalty_Neutral>  (340) 
4.58844e-07

>  <r_epik_State_Penalty>  (340) 
-0

>  <r_epik_Charging_Adjusted_Penalty>  (340) 
0

>  <i_epik_Tot_Q>  (340) 
0

>  <i_epik_Tot_abs_Q>  (340) 
0

>  <s_epik_Chemistry_Notes>  (340) 
This compound has an ester and may undergo hydrolysis at high or low pH.

>  <s_lp_Force_Field>  (340) 
OPLS3e

>  <r_lp_Energy>  (340) 
754.489

>  <b_lp_Chiralities_Consistent>  (340) 
1

>  <s_lp_Variant>  (340) 
104:0-1

>  <s_i_glide_gridfile>  (340) 
pfpi4k_grid

>  <i_i_glide_lignum>  (340) 
22

>  <i_i_glide_rotatable_bonds>  (340) 
4

>  <r_i_docking_score>  (340) 
-3.1775

>  <r_i_glide_ligand_efficiency>  (340) 
-0.109569

>  <r_i_glide_ligand_efficiency_sa>  (340) 
-0.336631

>  <r_i_glide_ligand_efficiency_ln>  (340) 
-0.727567

>  <r_i_glide_gscore>  (340) 
-3.1775

>  <r_i_glide_lipo>  (340) 
-0.181979

>  <r_i_glide_hbond>  (340) 
-0.242164

>  <r_i_glide_metal>  (340) 
-0

>  <r_i_glide_rewards>  (340) 
-1.15116

>  <r_i_glide_evdw>  (340) 
-18.5015

>  <r_i_glide_ecoul>  (340) 
-4.83198

>  <r_i_glide_erotb>  (340) 
0.120059

>  <r_i_glide_esite>  (340) 
-0.0723823

>  <r_i_glide_emodel>  (340) 
-31.2143

>  <r_i_glide_energy>  (340) 
-23.3335

>  <r_i_glide_einternal>  (340) 
2.00284

>  <r_i_glide_intrahb_reward>  (340) 
-0.5

>  <i_i_glide_confnum>  (340) 
3

>  <i_i_glide_posenum>  (340) 
31

>  <r_i_glide_eff_state_penalty>  (340) 
0

>  <ligand_id>  (340) 
104

>  <original_smiles>  (340) 
COC1CC2(C)OC(=O)C3C(=O)C4CC56CCC3C4C5(OC)C(C)(CO)C1CC26

>  <smiles>  (340) 
[H]OC([H])([H])C1(C([H])([H])[H])C2([H])C([H])([H])C3([H])C(C([H])([H])[H])(OC(=O)C4([H])C(=O)C5([H])C([H])([H])C36C([H])([H])C([H])([H])C4([H])C5([H])C16OC([H])([H])[H])C([H])([H])C2([H])OC([H])([H])[H]

$$$$
104:0:1
     RDKit          3D

 61 66  0  0  1  0  0  0  0  0999 V2000
    5.8400   -2.7653   -2.4955 C   0  0  0  0  0  0  0  0  0  0  0  0
    4.8566   -2.3506   -1.5478 O   0  0  0  0  0  0  0  0  0  0  0  0
    5.1189   -2.7310   -0.1932 C   0  0  2  0  0  0  0  0  0  0  0  0
    4.8085   -4.3630   -0.0434 C   0  0  0  0  0  0  0  0  0  0  0  0
    3.4982   -4.7162    0.8126 C   0  0  1  0  0  0  0  0  0  0  0  0
    2.3812   -4.7800   -0.3058 C   0  0  0  0  0  0  0  0  0  0  0  0
    3.1934   -5.9674    1.4819 O   0  0  0  0  0  0  0  0  0  0  0  0
    1.9240   -6.1716    2.1232 C   0  0  0  0  0  0  0  0  0  0  0  0
    0.8490   -6.3815    1.5485 O   0  0  0  0  0  0  0  0  0  0  0  0
    1.9892   -6.1147    3.6657 C   0  0  2  0  0  0  0  0  0  0  0  0
    1.0534   -5.1385    4.4854 C   0  0  0  0  0  0  0  0  0  0  0  0
   -0.0952   -5.4666    4.8016 O   0  0  0  0  0  0  0  0  0  0  0  0
    1.6270   -3.6719    4.8709 C   0  0  1  0  0  0  0  0  0  0  0  0
    3.1261   -3.2124    5.1143 C   0  0  0  0  0  0  0  0  0  0  0  0
    3.9296   -3.0915    3.5543 C   0  0  2  0  0  0  0  0  0  0  0  0
    5.2281   -3.7825    3.9820 C   0  0  0  0  0  0  0  0  0  0  0  0
    4.6518   -5.2461    3.8005 C   0  0  0  0  0  0  0  0  0  0  0  0
    3.0342   -5.1775    3.8749 C   0  0  1  0  0  0  0  0  0  0  0  0
    2.2513   -3.5111    3.6292 C   0  0  2  0  0  0  0  0  0  0  0  0
    3.1376   -1.9343    3.4226 C   0  0  1  0  0  0  0  0  0  0  0  0
    2.7439   -0.9490    4.3953 O   0  0  0  0  0  0  0  0  0  0  0  0
    1.4254   -0.4285    4.3011 C   0  0  0  0  0  0  0  0  0  0  0  0
    4.0271   -1.0286    2.2902 C   0  0  1  0  0  0  0  0  0  0  0  0
    3.2683    0.3009    1.9459 C   0  0  0  0  0  0  0  0  0  0  0  0
    5.3397   -0.5012    3.0065 C   0  0  0  0  0  0  0  0  0  0  0  0
    5.1869    0.3576    4.1194 O   0  0  0  0  0  0  0  0  0  0  0  0
    4.3164   -1.5997    0.7582 C   0  0  2  0  0  0  0  0  0  0  0  0
    3.0924   -2.3772    0.8918 C   0  0  0  0  0  0  0  0  0  0  0  0
    3.6512   -3.5061    1.8083 C   0  0  2  0  0  0  0  0  0  0  0  0
    5.5031   -2.5100   -3.5006 H   0  0  0  0  0  0  0  0  0  0  0  0
    6.0321   -3.8383   -2.5011 H   0  0  0  0  0  0  0  0  0  0  0  0
    6.7926   -2.2646   -2.3150 H   0  0  0  0  0  0  0  0  0  0  0  0
    6.2007   -2.6148   -0.0959 H   0  0  0  0  0  0  0  0  0  0  0  0
    4.7437   -4.8467   -1.0066 H   0  0  0  0  0  0  0  0  0  0  0  0
    5.6748   -4.8480    0.4242 H   0  0  0  0  0  0  0  0  0  0  0  0
    2.6019   -4.2206   -1.2138 H   0  0  0  0  0  0  0  0  0  0  0  0
    1.4127   -4.4470    0.0363 H   0  0  0  0  0  0  0  0  0  0  0  0
    2.2243   -5.8022   -0.6417 H   0  0  0  0  0  0  0  0  0  0  0  0
    2.1276   -7.0875    4.1472 H   0  0  0  0  0  0  0  0  0  0  0  0
    0.8706   -2.9241    5.0753 H   0  0  0  0  0  0  0  0  0  0  0  0
    3.2481   -2.4086    5.8285 H   0  0  0  0  0  0  0  0  0  0  0  0
    3.6260   -3.8713    5.8271 H   0  0  0  0  0  0  0  0  0  0  0  0
    6.0869   -3.6311    3.3323 H   0  0  0  0  0  0  0  0  0  0  0  0
    5.5423   -3.5538    4.9984 H   0  0  0  0  0  0  0  0  0  0  0  0
    5.0409   -5.6777    2.8804 H   0  0  0  0  0  0  0  0  0  0  0  0
    5.0687   -5.8847    4.5780 H   0  0  0  0  0  0  0  0  0  0  0  0
    3.1827   -5.5416    4.9184 H   0  0  0  0  0  0  0  0  0  0  0  0
    1.4615   -3.4992    2.8582 H   0  0  0  0  0  0  0  0  0  0  0  0
    1.4659    0.6528    4.4384 H   0  0  0  0  0  0  0  0  0  0  0  0
    0.8016   -0.8214    5.1018 H   0  0  0  0  0  0  0  0  0  0  0  0
    0.9463   -0.6369    3.3449 H   0  0  0  0  0  0  0  0  0  0  0  0
    3.7844    0.8499    1.1559 H   0  0  0  0  0  0  0  0  0  0  0  0
    3.1735    0.9977    2.7806 H   0  0  0  0  0  0  0  0  0  0  0  0
    2.2514    0.1458    1.5901 H   0  0  0  0  0  0  0  0  0  0  0  0
    5.9369   -1.3295    3.3732 H   0  0  0  0  0  0  0  0  0  0  0  0
    5.9691    0.0363    2.2966 H   0  0  0  0  0  0  0  0  0  0  0  0
    4.6297    1.0867    3.8560 H   0  0  0  0  0  0  0  0  0  0  0  0
    5.2612   -1.7708    1.2582 H   0  0  0  0  0  0  0  0  0  0  0  0
    2.1623   -1.9143    1.2322 H   0  0  0  0  0  0  0  0  0  0  0  0
    2.8056   -2.5238   -0.1327 H   0  0  0  0  0  0  0  0  0  0  0  0
    4.7134   -3.5620    1.8747 H   0  0  0  0  0  0  0  0  0  0  0  0
  1  2  1  0
  1 30  1  0
  1 31  1  0
  1 32  1  0
  2  3  1  0
  3 27  1  0
  3  4  1  0
  3 33  1  1
  4  5  1  0
  4 34  1  0
  4 35  1  0
  5 29  1  0
  5  6  1  6
  5  7  1  0
  6 36  1  0
  6 37  1  0
  6 38  1  0
  7  8  1  0
  8  9  2  0
  8 10  1  0
 10 18  1  0
 10 11  1  0
 10 39  1  1
 11 12  2  0
 11 13  1  0
 13 19  1  0
 13 14  1  0
 13 40  1  6
 15 14  1  1
 14 41  1  0
 14 42  1  0
 15 20  1  0
 15 29  1  0
 15 16  1  0
 16 17  1  0
 16 43  1  0
 16 44  1  0
 17 18  1  0
 17 45  1  0
 17 46  1  0
 18 19  1  0
 18 47  1  1
 19 20  1  0
 19 48  1  6
 20 21  1  1
 20 23  1  0
 21 22  1  0
 22 49  1  0
 22 50  1  0
 22 51  1  0
 23 24  1  6
 23 25  1  0
 23 27  1  0
 24 52  1  0
 24 53  1  0
 24 54  1  0
 25 26  1  0
 25 55  1  0
 25 56  1  0
 26 57  1  0
 27 28  1  0
 27 58  1  6
 28 29  1  0
 28 59  1  0
 28 60  1  0
 29 61  1  6
M  END
>  <i_m_ct_stereo_status>  (341) 
1

>  <s_m_source_file>  (341) 
/var/tmp/pbs.5076255.sched01/tmp0kxp0nim/126xlotvanm.sdf

>  <i_m_source_file_index>  (341) 
22

>  <i_lp_mmshare_version>  (341) 
48012

>  <i_f3d_flags>  (341) 
0

>  <s_epik_input>  (341) 
W0NIM11PW0NASF0oW0NIMl0xKVtDQEBIXShbQ0BdMihbQ0gzXSlbQ0gyXVtPSF0pW0NIMl1bQ0BASF0zW0NAXTEoW0NIM10pT0MoPU8pW0NAQEhdKFtDQEhdNFtDSDJdW0NIMl01KUMoPU8pW0NAQEhdKFtDSDJdNilbQ0BIXTRbQ0BdMihDMzU2KU9bQ0gzXQ==

>  <s_epik_cmdline>  (341) 
J2VwaWtfcHl0aG9uJywgJy1waHQnLCAnMi4wJywgJy1waCcsICc3LjAnLCAnLXRuJywgJzgnLCAnLW1hJywgJzIwMCcsICctaW1hZScsICc8aW5maWxlLm1hZT4nLCAnLW9tYWUnLCAnPG91dGZpbGUubWFlPic=

>  <r_lp_tautomer_probability>  (341) 
1

>  <r_epik_Ionization_Penalty>  (341) 
4.58844e-07

>  <r_epik_Ionization_Penalty_Charging>  (341) 
0

>  <r_epik_Ionization_Penalty_Neutral>  (341) 
4.58844e-07

>  <r_epik_State_Penalty>  (341) 
-0

>  <r_epik_Charging_Adjusted_Penalty>  (341) 
0

>  <i_epik_Tot_Q>  (341) 
0

>  <i_epik_Tot_abs_Q>  (341) 
0

>  <s_epik_Chemistry_Notes>  (341) 
This compound has an ester and may undergo hydrolysis at high or low pH.

>  <s_lp_Force_Field>  (341) 
OPLS3e

>  <r_lp_Energy>  (341) 
754.489

>  <b_lp_Chiralities_Consistent>  (341) 
1

>  <s_lp_Variant>  (341) 
104:0-1

>  <s_i_glide_gridfile>  (341) 
pfpi4k_grid

>  <i_i_glide_lignum>  (341) 
22

>  <i_i_glide_rotatable_bonds>  (341) 
4

>  <r_i_docking_score>  (341) 
-2.54559

>  <r_i_glide_ligand_efficiency>  (341) 
-0.087779

>  <r_i_glide_ligand_efficiency_sa>  (341) 
-0.269685

>  <r_i_glide_ligand_efficiency_ln>  (341) 
-0.582876

>  <r_i_glide_gscore>  (341) 
-2.54559

>  <r_i_glide_lipo>  (341) 
-0.389436

>  <r_i_glide_hbond>  (341) 
-0.122047

>  <r_i_glide_metal>  (341) 
-0

>  <r_i_glide_rewards>  (341) 
-0.65116

>  <r_i_glide_evdw>  (341) 
-18.342

>  <r_i_glide_ecoul>  (341) 
-3.71171

>  <r_i_glide_erotb>  (341) 
0.120059

>  <r_i_glide_esite>  (341) 
-0.0291525

>  <r_i_glide_emodel>  (341) 
-24.734

>  <r_i_glide_energy>  (341) 
-22.0537

>  <r_i_glide_einternal>  (341) 
2.17143

>  <r_i_glide_intrahb_reward>  (341) 
-0

>  <i_i_glide_confnum>  (341) 
1

>  <i_i_glide_posenum>  (341) 
33

>  <r_i_glide_eff_state_penalty>  (341) 
0

>  <ligand_id>  (341) 
104

>  <original_smiles>  (341) 
COC1CC2(C)OC(=O)C3C(=O)C4CC56CCC3C4C5(OC)C(C)(CO)C1CC26

>  <smiles>  (341) 
[H]OC([H])([H])C1(C([H])([H])[H])C2([H])C([H])([H])C3([H])C(C([H])([H])[H])(OC(=O)C4([H])C(=O)C5([H])C([H])([H])C36C([H])([H])C([H])([H])C4([H])C5([H])C16OC([H])([H])[H])C([H])([H])C2([H])OC([H])([H])[H]

$$$$
104:0:2
     RDKit          3D

 61 66  0  0  1  0  0  0  0  0999 V2000
    4.7261   -0.4434   -2.3619 C   0  0  0  0  0  0  0  0  0  0  0  0
    4.4492   -1.8408   -2.1973 O   0  0  0  0  0  0  0  0  0  0  0  0
    4.9379   -2.3641   -0.9546 C   0  0  2  0  0  0  0  0  0  0  0  0
    4.5489   -3.9705   -1.0521 C   0  0  0  0  0  0  0  0  0  0  0  0
    3.3380   -4.4084   -0.1058 C   0  0  1  0  0  0  0  0  0  0  0  0
    2.1020   -4.1500   -1.0538 C   0  0  0  0  0  0  0  0  0  0  0  0
    3.0109   -5.7391    0.3801 O   0  0  0  0  0  0  0  0  0  0  0  0
    1.8669   -6.0185    1.1784 C   0  0  0  0  0  0  0  0  0  0  0  0
    0.7315   -6.2721    0.7108 O   0  0  0  0  0  0  0  0  0  0  0  0
    2.1266   -6.2255    2.6760 C   0  0  2  0  0  0  0  0  0  0  0  0
    1.4125   -5.3423    3.7876 C   0  0  0  0  0  0  0  0  0  0  0  0
    0.3027   -5.6482    4.2116 O   0  0  0  0  0  0  0  0  0  0  0  0
    2.1908   -4.0371    4.3593 C   0  0  1  0  0  0  0  0  0  0  0  0
    3.7556   -3.7510    4.4168 C   0  0  0  0  0  0  0  0  0  0  0  0
    4.3221   -3.3847    2.7866 C   0  0  2  0  0  0  0  0  0  0  0  0
    5.5926   -4.2444    2.8666 C   0  0  0  0  0  0  0  0  0  0  0  0
    4.8440   -5.5905    2.5032 C   0  0  0  0  0  0  0  0  0  0  0  0
    3.2739   -5.4253    2.8807 C   0  0  1  0  0  0  0  0  0  0  0  0
    2.6293   -3.6942    3.0660 C   0  0  2  0  0  0  0  0  0  0  0  0
    3.6248   -2.1802    3.0331 C   0  0  1  0  0  0  0  0  0  0  0  0
    3.5020   -1.3623    4.2172 O   0  0  0  0  0  0  0  0  0  0  0  0
    2.2553   -0.7073    4.4085 C   0  0  0  0  0  0  0  0  0  0  0  0
    4.4187   -1.1229    1.9549 C   0  0  1  0  0  0  0  0  0  0  0  0
    3.7490    0.2941    1.9189 C   0  0  0  0  0  0  0  0  0  0  0  0
    5.8690   -0.8387    2.5104 C   0  0  0  0  0  0  0  0  0  0  0  0
    5.9276   -0.0606    3.6916 O   0  0  0  0  0  0  0  0  0  0  0  0
    4.4156   -1.4093    0.3367 C   0  0  2  0  0  0  0  0  0  0  0  0
    3.1585   -2.1044    0.5159 C   0  0  0  0  0  0  0  0  0  0  0  0
    3.7379   -3.4349    1.0818 C   0  0  2  0  0  0  0  0  0  0  0  0
    4.4032   -0.0343   -3.3371 H   0  0  0  0  0  0  0  0  0  0  0  0
    5.7775   -0.2153   -2.2385 H   0  0  0  0  0  0  0  0  0  0  0  0
    4.1977    0.0983   -1.5994 H   0  0  0  0  0  0  0  0  0  0  0  0
    6.0166   -2.2980   -1.0857 H   0  0  0  0  0  0  0  0  0  0  0  0
    4.3045   -4.1886   -2.0848 H   0  0  0  0  0  0  0  0  0  0  0  0
    5.4134   -4.6167   -0.8386 H   0  0  0  0  0  0  0  0  0  0  0  0
    2.2860   -3.4568   -1.8870 H   0  0  0  0  0  0  0  0  0  0  0  0
    1.4123   -3.6162   -0.4517 H   0  0  0  0  0  0  0  0  0  0  0  0
    1.5888   -5.0476   -1.4513 H   0  0  0  0  0  0  0  0  0  0  0  0
    2.2453   -7.2703    2.9626 H   0  0  0  0  0  0  0  0  0  0  0  0
    1.5564   -3.2720    4.7952 H   0  0  0  0  0  0  0  0  0  0  0  0
    4.0575   -3.1245    5.2582 H   0  0  0  0  0  0  0  0  0  0  0  0
    4.2646   -4.5788    4.9093 H   0  0  0  0  0  0  0  0  0  0  0  0
    6.3747   -4.0062    2.1419 H   0  0  0  0  0  0  0  0  0  0  0  0
    6.0436   -4.2771    3.8511 H   0  0  0  0  0  0  0  0  0  0  0  0
    5.0551   -5.8621    1.4685 H   0  0  0  0  0  0  0  0  0  0  0  0
    5.2985   -6.3897    3.0817 H   0  0  0  0  0  0  0  0  0  0  0  0
    3.5534   -5.9939    3.7954 H   0  0  0  0  0  0  0  0  0  0  0  0
    1.7427   -3.4573    2.4470 H   0  0  0  0  0  0  0  0  0  0  0  0
    2.4781    0.3074    4.7365 H   0  0  0  0  0  0  0  0  0  0  0  0
    1.6560   -1.1819    5.1857 H   0  0  0  0  0  0  0  0  0  0  0  0
    1.6474   -0.6499    3.5048 H   0  0  0  0  0  0  0  0  0  0  0  0
    4.2323    0.8967    1.1463 H   0  0  0  0  0  0  0  0  0  0  0  0
    3.7919    0.8568    2.8487 H   0  0  0  0  0  0  0  0  0  0  0  0
    2.6926    0.2793    1.6633 H   0  0  0  0  0  0  0  0  0  0  0  0
    6.3551   -1.7706    2.7673 H   0  0  0  0  0  0  0  0  0  0  0  0
    6.4956   -0.3562    1.7560 H   0  0  0  0  0  0  0  0  0  0  0  0
    5.3436    0.6752    3.5968 H   0  0  0  0  0  0  0  0  0  0  0  0
    5.3820   -1.8035    0.6173 H   0  0  0  0  0  0  0  0  0  0  0  0
    2.3279   -1.6678    1.0890 H   0  0  0  0  0  0  0  0  0  0  0  0
    2.7261   -2.0274   -0.4558 H   0  0  0  0  0  0  0  0  0  0  0  0
    4.7944   -3.5947    0.9727 H   0  0  0  0  0  0  0  0  0  0  0  0
  1  2  1  0
  1 30  1  0
  1 31  1  0
  1 32  1  0
  2  3  1  0
  3 27  1  0
  3  4  1  0
  3 33  1  6
  4  5  1  0
  4 34  1  0
  4 35  1  0
  5 29  1  0
  5  6  1  6
  5  7  1  0
  6 36  1  0
  6 37  1  0
  6 38  1  0
  7  8  1  0
  8  9  2  0
  8 10  1  0
 10 18  1  0
 10 11  1  0
 10 39  1  1
 11 12  2  0
 11 13  1  0
 13 19  1  0
 13 14  1  0
 13 40  1  1
 15 14  1  1
 14 41  1  0
 14 42  1  0
 15 20  1  0
 15 29  1  0
 15 16  1  0
 16 17  1  0
 16 43  1  0
 16 44  1  0
 17 18  1  0
 17 45  1  0
 17 46  1  0
 18 19  1  0
 18 47  1  1
 19 20  1  0
 19 48  1  6
 20 21  1  1
 20 23  1  0
 21 22  1  0
 22 49  1  0
 22 50  1  0
 22 51  1  0
 23 24  1  6
 23 25  1  0
 23 27  1  0
 24 52  1  0
 24 53  1  0
 24 54  1  0
 25 26  1  0
 25 55  1  0
 25 56  1  0
 26 57  1  0
 27 28  1  0
 27 58  1  6
 28 29  1  0
 28 59  1  0
 28 60  1  0
 29 61  1  6
M  END
>  <i_m_ct_stereo_status>  (342) 
1

>  <s_m_source_file>  (342) 
/var/tmp/pbs.5076255.sched01/tmp0kxp0nim/126xlotvanm.sdf

>  <i_m_source_file_index>  (342) 
22

>  <i_lp_mmshare_version>  (342) 
48012

>  <i_f3d_flags>  (342) 
0

>  <s_epik_input>  (342) 
W0NIM11PW0NASF0oW0NIMl0xKVtDQEBIXShbQ0BdMihbQ0gzXSlbQ0gyXVtPSF0pW0NIMl1bQ0BASF0zW0NAXTEoW0NIM10pT0MoPU8pW0NAQEhdKFtDQEhdNFtDSDJdW0NIMl01KUMoPU8pW0NAQEhdKFtDSDJdNilbQ0BIXTRbQ0BdMihDMzU2KU9bQ0gzXQ==

>  <s_epik_cmdline>  (342) 
J2VwaWtfcHl0aG9uJywgJy1waHQnLCAnMi4wJywgJy1waCcsICc3LjAnLCAnLXRuJywgJzgnLCAnLW1hJywgJzIwMCcsICctaW1hZScsICc8aW5maWxlLm1hZT4nLCAnLW9tYWUnLCAnPG91dGZpbGUubWFlPic=

>  <r_lp_tautomer_probability>  (342) 
1

>  <r_epik_Ionization_Penalty>  (342) 
4.58844e-07

>  <r_epik_Ionization_Penalty_Charging>  (342) 
0

>  <r_epik_Ionization_Penalty_Neutral>  (342) 
4.58844e-07

>  <r_epik_State_Penalty>  (342) 
-0

>  <r_epik_Charging_Adjusted_Penalty>  (342) 
0

>  <i_epik_Tot_Q>  (342) 
0

>  <i_epik_Tot_abs_Q>  (342) 
0

>  <s_epik_Chemistry_Notes>  (342) 
This compound has an ester and may undergo hydrolysis at high or low pH.

>  <s_lp_Force_Field>  (342) 
OPLS3e

>  <r_lp_Energy>  (342) 
754.489

>  <b_lp_Chiralities_Consistent>  (342) 
1

>  <s_lp_Variant>  (342) 
104:0-1

>  <s_i_glide_gridfile>  (342) 
pfpi4k_grid

>  <i_i_glide_lignum>  (342) 
22

>  <i_i_glide_rotatable_bonds>  (342) 
4

>  <r_i_docking_score>  (342) 
-2.52131

>  <r_i_glide_ligand_efficiency>  (342) 
-0.0869417

>  <r_i_glide_ligand_efficiency_sa>  (342) 
-0.267112

>  <r_i_glide_ligand_efficiency_ln>  (342) 
-0.577316

>  <r_i_glide_gscore>  (342) 
-2.52131

>  <r_i_glide_lipo>  (342) 
-0.173926

>  <r_i_glide_hbond>  (342) 
-0.16

>  <r_i_glide_metal>  (342) 
-0

>  <r_i_glide_rewards>  (342) 
-0.65116

>  <r_i_glide_evdw>  (342) 
-17.8375

>  <r_i_glide_ecoul>  (342) 
-4.67415

>  <r_i_glide_erotb>  (342) 
0.120059

>  <r_i_glide_esite>  (342) 
-0.0632828

>  <r_i_glide_emodel>  (342) 
-23.2193

>  <r_i_glide_energy>  (342) 
-22.5117

>  <r_i_glide_einternal>  (342) 
3.2269

>  <r_i_glide_intrahb_reward>  (342) 
-0

>  <i_i_glide_confnum>  (342) 
1

>  <i_i_glide_posenum>  (342) 
5

>  <r_i_glide_eff_state_penalty>  (342) 
0

>  <ligand_id>  (342) 
104

>  <original_smiles>  (342) 
COC1CC2(C)OC(=O)C3C(=O)C4CC56CCC3C4C5(OC)C(C)(CO)C1CC26

>  <smiles>  (342) 
[H]OC([H])([H])C1(C([H])([H])[H])C2([H])C([H])([H])C3([H])C(C([H])([H])[H])(OC(=O)C4([H])C(=O)C5([H])C([H])([H])C36C([H])([H])C([H])([H])C4([H])C5([H])C16OC([H])([H])[H])C([H])([H])C2([H])OC([H])([H])[H]

$$$$
105:0:0
     RDKit          3D

 31 33  0  0  1  0  0  0  0  0999 V2000
    1.8284   -3.4613   -2.5229 C   0  0  0  0  0  0  0  0  0  0  0  0
    2.8512   -2.8045   -1.6654 N   0  0  2  0  0  0  0  0  0  0  0  0
    3.5888   -1.6944   -2.2621 C   0  0  2  0  0  0  0  0  0  0  0  0
    4.4828   -2.3972   -3.3036 C   0  0  0  0  0  0  0  0  0  0  0  0
    4.7937   -3.7504   -2.6471 C   0  0  0  0  0  0  0  0  0  0  0  0
    4.0429   -3.5989   -1.3032 C   0  0  1  0  0  0  0  0  0  0  0  0
    4.8094   -2.6083   -0.3836 C   0  0  1  0  0  0  0  0  0  0  0  0
    6.2887   -2.8770   -0.2243 C   0  0  0  0  0  0  0  0  0  0  0  0
    7.2244   -2.2568   -0.9447 N   0  0  0  0  0  0  0  0  0  0  0  0
    8.3503   -2.9088   -0.5129 C   0  0  0  0  0  0  0  0  0  0  0  0
    8.1237   -3.9045    0.3453 N   0  0  0  0  0  0  0  0  0  0  0  0
    6.7853   -3.8786    0.5177 N   0  0  0  0  0  0  0  0  0  0  0  0
    6.1581   -4.8672    1.3722 C   0  0  0  0  0  0  0  0  0  0  0  0
    4.4569   -1.2518   -1.0588 C   0  0  0  0  0  0  0  0  0  0  0  0
    2.1992   -3.8575   -3.4717 H   0  0  0  0  0  0  0  0  0  0  0  0
    1.0453   -2.7629   -2.7802 H   0  0  0  0  0  0  0  0  0  0  0  0
    1.3675   -4.2912   -1.9945 H   0  0  0  0  0  0  0  0  0  0  0  0
    2.9719   -0.8866   -2.6653 H   0  0  0  0  0  0  0  0  0  0  0  0
    3.9769   -2.5314   -4.2538 H   0  0  0  0  0  0  0  0  0  0  0  0
    5.4020   -1.8439   -3.5026 H   0  0  0  0  0  0  0  0  0  0  0  0
    4.4206   -4.5693   -3.2545 H   0  0  0  0  0  0  0  0  0  0  0  0
    5.8619   -3.9496   -2.5537 H   0  0  0  0  0  0  0  0  0  0  0  0
    3.8038   -4.5528   -0.8224 H   0  0  0  0  0  0  0  0  0  0  0  0
    4.3536   -2.6213    0.6051 H   0  0  0  0  0  0  0  0  0  0  0  0
    9.3415   -2.6267   -0.8205 H   0  0  0  0  0  0  0  0  0  0  0  0
    5.0918   -4.9463    1.1691 H   0  0  0  0  0  0  0  0  0  0  0  0
    6.3067   -4.5816    2.4075 H   0  0  0  0  0  0  0  0  0  0  0  0
    6.6170   -5.8368    1.2010 H   0  0  0  0  0  0  0  0  0  0  0  0
    5.2949   -0.6346   -1.3933 H   0  0  0  0  0  0  0  0  0  0  0  0
    3.8758   -0.6273   -0.3741 H   0  0  0  0  0  0  0  0  0  0  0  0
    2.4223   -2.4069   -0.8332 H   0  0  0  0  0  0  0  0  0  0  0  0
  1  2  1  0
  1 15  1  0
  1 16  1  0
  1 17  1  0
  2  6  1  0
  2  3  1  0
  2 31  1  1
  3 14  1  0
  3  4  1  0
  3 18  1  6
  4  5  1  0
  4 19  1  0
  4 20  1  0
  5  6  1  0
  5 21  1  0
  5 22  1  0
  6  7  1  0
  6 23  1  1
  7  8  1  0
  7 14  1  0
  7 24  1  1
  8 12  1  0
  8  9  2  0
  9 10  1  0
 10 11  2  0
 10 25  1  0
 11 12  1  0
 12 13  1  0
 13 26  1  0
 13 27  1  0
 13 28  1  0
 14 29  1  0
 14 30  1  0
M  CHG  1   2   1
M  END
>  <i_m_ct_stereo_status>  (343) 
1

>  <s_m_source_file>  (343) 
/var/tmp/pbs.5076255.sched01/tmp0kxp0nim/126xlotvanm.sdf

>  <i_m_source_file_index>  (343) 
23

>  <i_lp_mmshare_version>  (343) 
48012

>  <i_f3d_flags>  (343) 
0

>  <s_epik_input>  (343) 
W0NIM11OKFtDQEhdMTIpW0NAQEhdKFtDSDJdW0NIMl0xKVtDQEhdKFtDSDJdMiljM25bY0hdbm4zW0NIM10=

>  <s_epik_cmdline>  (343) 
J2VwaWtfcHl0aG9uJywgJy1waHQnLCAnMi4wJywgJy1waCcsICc3LjAnLCAnLXRuJywgJzgnLCAnLW1hJywgJzIwMCcsICctaW1hZScsICc8aW5maWxlLm1hZT4nLCAnLW9tYWUnLCAnPG91dGZpbGUubWFlPic=

>  <r_lp_tautomer_probability>  (343) 
1

>  <r_epik_Ionization_Penalty>  (343) 
0.00310289

>  <r_epik_Ionization_Penalty_Charging>  (343) 
0.00310128

>  <r_epik_Ionization_Penalty_Neutral>  (343) 
1.61026e-06

>  <r_epik_State_Penalty>  (343) 
-0

>  <r_epik_Charging_Adjusted_Penalty>  (343) 
0.00310128

>  <i_epik_Tot_Q>  (343) 
1

>  <i_epik_Tot_abs_Q>  (343) 
1

>  <s_lp_Force_Field>  (343) 
OPLS3e

>  <r_lp_Energy>  (343) 
35.2897

>  <b_lp_Chiralities_Consistent>  (343) 
1

>  <s_lp_Variant>  (343) 
105:0-1

>  <s_i_glide_gridfile>  (343) 
pfpi4k_grid

>  <i_i_glide_lignum>  (343) 
23

>  <i_i_glide_rotatable_bonds>  (343) 
1

>  <r_i_docking_score>  (343) 
-4.53798

>  <r_i_glide_ligand_efficiency>  (343) 
-0.324142

>  <r_i_glide_ligand_efficiency_sa>  (343) 
-0.781228

>  <r_i_glide_ligand_efficiency_ln>  (343) 
-1.24702

>  <r_i_glide_gscore>  (343) 
-4.53798

>  <r_i_glide_lipo>  (343) 
-0.357529

>  <r_i_glide_hbond>  (343) 
-0.218807

>  <r_i_glide_metal>  (343) 
-0

>  <r_i_glide_rewards>  (343) 
-2.2999

>  <r_i_glide_evdw>  (343) 
-16.6133

>  <r_i_glide_ecoul>  (343) 
-8.18412

>  <r_i_glide_erotb>  (343) 
0.432254

>  <r_i_glide_esite>  (343) 
-0.0357144

>  <r_i_glide_emodel>  (343) 
-33.2035

>  <r_i_glide_energy>  (343) 
-24.7974

>  <r_i_glide_einternal>  (343) 
0.406705

>  <r_i_glide_intrahb_reward>  (343) 
-0

>  <i_i_glide_confnum>  (343) 
3

>  <i_i_glide_posenum>  (343) 
31

>  <r_i_glide_eff_state_penalty>  (343) 
0

>  <ligand_id>  (343) 
105

>  <original_smiles>  (343) 
CN1C2CCC1C(c1ncnn1C)C2

>  <smiles>  (343) 
[H]c1nc(C2([H])C([H])([H])C3([H])C([H])([H])C([H])([H])C2([H])[N+]3([H])C([H])([H])[H])n(C([H])([H])[H])n1

$$$$
105:0:1
     RDKit          3D

 31 33  0  0  1  0  0  0  0  0999 V2000
    2.3281   -2.3054   -3.0075 C   0  0  0  0  0  0  0  0  0  0  0  0
    3.2730   -3.0944   -2.1854 N   0  0  2  0  0  0  0  0  0  0  0  0
    3.1677   -2.9209   -0.7377 C   0  0  2  0  0  0  0  0  0  0  0  0
    3.7364   -1.5035   -0.4770 C   0  0  0  0  0  0  0  0  0  0  0  0
    4.7781   -1.3456   -1.5915 C   0  0  0  0  0  0  0  0  0  0  0  0
    4.6991   -2.7414   -2.2686 C   0  0  1  0  0  0  0  0  0  0  0  0
    5.3134   -3.8240   -1.3411 C   0  0  1  0  0  0  0  0  0  0  0  0
    6.6887   -3.4832   -0.8149 C   0  0  0  0  0  0  0  0  0  0  0  0
    7.5381   -2.6881   -1.4502 N   0  0  0  0  0  0  0  0  0  0  0  0
    8.5790   -2.6895   -0.5803 C   0  0  0  0  0  0  0  0  0  0  0  0
    8.4546   -3.4766    0.4718 N   0  0  0  0  0  0  0  0  0  0  0  0
    7.2290   -4.0161    0.3012 N   0  0  0  0  0  0  0  0  0  0  0  0
    6.7288   -4.9613    1.2836 C   0  0  0  0  0  0  0  0  0  0  0  0
    4.2031   -3.9468   -0.2652 C   0  0  0  0  0  0  0  0  0  0  0  0
    2.3657   -1.2387   -2.7988 H   0  0  0  0  0  0  0  0  0  0  0  0
    1.3227   -2.6517   -2.7892 H   0  0  0  0  0  0  0  0  0  0  0  0
    2.5096   -2.4411   -4.0705 H   0  0  0  0  0  0  0  0  0  0  0  0
    2.1783   -3.1013   -0.3140 H   0  0  0  0  0  0  0  0  0  0  0  0
    2.9829   -0.7270   -0.5614 H   0  0  0  0  0  0  0  0  0  0  0  0
    4.1796   -1.4232    0.5124 H   0  0  0  0  0  0  0  0  0  0  0  0
    4.4770   -0.5683   -2.2998 H   0  0  0  0  0  0  0  0  0  0  0  0
    5.7549   -1.0715   -1.1825 H   0  0  0  0  0  0  0  0  0  0  0  0
    5.1040   -2.7762   -3.2819 H   0  0  0  0  0  0  0  0  0  0  0  0
    5.4029   -4.7634   -1.8876 H   0  0  0  0  0  0  0  0  0  0  0  0
    9.4105   -2.0337   -0.6892 H   0  0  0  0  0  0  0  0  0  0  0  0
    5.9120   -5.5516    0.8781 H   0  0  0  0  0  0  0  0  0  0  0  0
    6.3809   -4.4304    2.1686 H   0  0  0  0  0  0  0  0  0  0  0  0
    7.5196   -5.6459    1.5744 H   0  0  0  0  0  0  0  0  0  0  0  0
    4.5141   -3.7044    0.7516 H   0  0  0  0  0  0  0  0  0  0  0  0
    3.7948   -4.9610   -0.2703 H   0  0  0  0  0  0  0  0  0  0  0  0
    3.1434   -4.0760   -2.4026 H   0  0  0  0  0  0  0  0  0  0  0  0
  1  2  1  0
  1 15  1  0
  1 16  1  0
  1 17  1  0
  2  6  1  0
  2  3  1  0
  2 31  1  1
  3 14  1  0
  3  4  1  0
  3 18  1  1
  4  5  1  0
  4 19  1  0
  4 20  1  0
  5  6  1  0
  5 21  1  0
  5 22  1  0
  6  7  1  0
  6 23  1  6
  7  8  1  0
  7 14  1  0
  7 24  1  6
  8 12  1  0
  8  9  2  0
  9 10  1  0
 10 11  2  0
 10 25  1  0
 11 12  1  0
 12 13  1  0
 13 26  1  0
 13 27  1  0
 13 28  1  0
 14 29  1  0
 14 30  1  0
M  CHG  1   2   1
M  END
>  <i_m_ct_stereo_status>  (344) 
1

>  <s_m_source_file>  (344) 
/var/tmp/pbs.5076255.sched01/tmp0kxp0nim/126xlotvanm.sdf

>  <i_m_source_file_index>  (344) 
23

>  <i_lp_mmshare_version>  (344) 
48012

>  <i_f3d_flags>  (344) 
0

>  <s_epik_input>  (344) 
W0NIM11OKFtDQEhdMTIpW0NAQEhdKFtDSDJdW0NIMl0xKVtDQEhdKFtDSDJdMiljM25bY0hdbm4zW0NIM10=

>  <s_epik_cmdline>  (344) 
J2VwaWtfcHl0aG9uJywgJy1waHQnLCAnMi4wJywgJy1waCcsICc3LjAnLCAnLXRuJywgJzgnLCAnLW1hJywgJzIwMCcsICctaW1hZScsICc8aW5maWxlLm1hZT4nLCAnLW9tYWUnLCAnPG91dGZpbGUubWFlPic=

>  <r_lp_tautomer_probability>  (344) 
1

>  <r_epik_Ionization_Penalty>  (344) 
0.00310289

>  <r_epik_Ionization_Penalty_Charging>  (344) 
0.00310128

>  <r_epik_Ionization_Penalty_Neutral>  (344) 
1.61026e-06

>  <r_epik_State_Penalty>  (344) 
-0

>  <r_epik_Charging_Adjusted_Penalty>  (344) 
0.00310128

>  <i_epik_Tot_Q>  (344) 
1

>  <i_epik_Tot_abs_Q>  (344) 
1

>  <s_lp_Force_Field>  (344) 
OPLS3e

>  <r_lp_Energy>  (344) 
35.2897

>  <b_lp_Chiralities_Consistent>  (344) 
1

>  <s_lp_Variant>  (344) 
105:0-1

>  <s_i_glide_gridfile>  (344) 
pfpi4k_grid

>  <i_i_glide_lignum>  (344) 
23

>  <i_i_glide_rotatable_bonds>  (344) 
1

>  <r_i_docking_score>  (344) 
-4.28185

>  <r_i_glide_ligand_efficiency>  (344) 
-0.305846

>  <r_i_glide_ligand_efficiency_sa>  (344) 
-0.737133

>  <r_i_glide_ligand_efficiency_ln>  (344) 
-1.17664

>  <r_i_glide_gscore>  (344) 
-4.28185

>  <r_i_glide_lipo>  (344) 
-0.188853

>  <r_i_glide_hbond>  (344) 
-0.136199

>  <r_i_glide_metal>  (344) 
-0

>  <r_i_glide_rewards>  (344) 
-2.45572

>  <r_i_glide_evdw>  (344) 
-16.6422

>  <r_i_glide_ecoul>  (344) 
-6.77277

>  <r_i_glide_erotb>  (344) 
0.432254

>  <r_i_glide_esite>  (344) 
-0.0853013

>  <r_i_glide_emodel>  (344) 
-28.9726

>  <r_i_glide_energy>  (344) 
-23.415

>  <r_i_glide_einternal>  (344) 
4.35392

>  <r_i_glide_intrahb_reward>  (344) 
-0

>  <i_i_glide_confnum>  (344) 
6

>  <i_i_glide_posenum>  (344) 
9

>  <r_i_glide_eff_state_penalty>  (344) 
0

>  <ligand_id>  (344) 
105

>  <original_smiles>  (344) 
CN1C2CCC1C(c1ncnn1C)C2

>  <smiles>  (344) 
[H]c1nc(C2([H])C([H])([H])C3([H])C([H])([H])C([H])([H])C2([H])[N+]3([H])C([H])([H])[H])n(C([H])([H])[H])n1

$$$$
105:0:2
     RDKit          3D

 31 33  0  0  1  0  0  0  0  0999 V2000
    2.1617   -3.1856   -3.7072 C   0  0  0  0  0  0  0  0  0  0  0  0
    2.8435   -2.7776   -2.4592 N   0  0  2  0  0  0  0  0  0  0  0  0
    3.1855   -1.3613   -2.3552 C   0  0  2  0  0  0  0  0  0  0  0  0
    4.3227   -1.1761   -3.3876 C   0  0  0  0  0  0  0  0  0  0  0  0
    5.0222   -2.5468   -3.3465 C   0  0  0  0  0  0  0  0  0  0  0  0
    4.2141   -3.2735   -2.2498 C   0  0  1  0  0  0  0  0  0  0  0  0
    4.5416   -2.6878   -0.8527 C   0  0  1  0  0  0  0  0  0  0  0  0
    6.0233   -2.5975   -0.5286 C   0  0  0  0  0  0  0  0  0  0  0  0
    6.9386   -3.4265   -1.0235 N   0  0  0  0  0  0  0  0  0  0  0  0
    8.0820   -2.8926   -0.5108 C   0  0  0  0  0  0  0  0  0  0  0  0
    7.9110   -1.8513    0.2913 N   0  0  0  0  0  0  0  0  0  0  0  0
    6.5662   -1.7088    0.3205 N   0  0  0  0  0  0  0  0  0  0  0  0
    5.9859   -0.6665    1.1504 C   0  0  0  0  0  0  0  0  0  0  0  0
    3.7968   -1.3271   -0.9503 C   0  0  0  0  0  0  0  0  0  0  0  0
    2.7059   -2.9332   -4.6177 H   0  0  0  0  0  0  0  0  0  0  0  0
    1.1887   -2.6999   -3.7754 H   0  0  0  0  0  0  0  0  0  0  0  0
    2.0224   -4.2576   -3.7098 H   0  0  0  0  0  0  0  0  0  0  0  0
    2.3539   -0.6656   -2.4728 H   0  0  0  0  0  0  0  0  0  0  0  0
    3.9327   -0.9570   -4.3824 H   0  0  0  0  0  0  0  0  0  0  0  0
    4.9946   -0.3698   -3.0966 H   0  0  0  0  0  0  0  0  0  0  0  0
    4.9197   -3.0776   -4.2978 H   0  0  0  0  0  0  0  0  0  0  0  0
    6.0846   -2.4734   -3.1122 H   0  0  0  0  0  0  0  0  0  0  0  0
    4.3250   -4.3560   -2.2816 H   0  0  0  0  0  0  0  0  0  0  0  0
    4.0850   -3.3083   -0.0794 H   0  0  0  0  0  0  0  0  0  0  0  0
    9.0569   -3.2415   -0.7759 H   0  0  0  0  0  0  0  0  0  0  0  0
    4.9208   -0.8312    1.3090 H   0  0  0  0  0  0  0  0  0  0  0  0
    6.1203    0.2981    0.6674 H   0  0  0  0  0  0  0  0  0  0  0  0
    6.4675   -0.6526    2.1235 H   0  0  0  0  0  0  0  0  0  0  0  0
    4.4253   -0.4407   -0.8595 H   0  0  0  0  0  0  0  0  0  0  0  0
    3.0173   -1.2748   -0.1856 H   0  0  0  0  0  0  0  0  0  0  0  0
    2.2549   -3.0293   -1.6775 H   0  0  0  0  0  0  0  0  0  0  0  0
  1  2  1  0
  1 15  1  0
  1 16  1  0
  1 17  1  0
  2  6  1  0
  2  3  1  0
  2 31  1  1
  3 14  1  0
  3  4  1  0
  3 18  1  1
  4  5  1  0
  4 19  1  0
  4 20  1  0
  5  6  1  0
  5 21  1  0
  5 22  1  0
  6  7  1  0
  6 23  1  1
  7  8  1  0
  7 14  1  0
  7 24  1  1
  8 12  1  0
  8  9  2  0
  9 10  1  0
 10 11  2  0
 10 25  1  0
 11 12  1  0
 12 13  1  0
 13 26  1  0
 13 27  1  0
 13 28  1  0
 14 29  1  0
 14 30  1  0
M  CHG  1   2   1
M  END
>  <i_m_ct_stereo_status>  (345) 
1

>  <s_m_source_file>  (345) 
/var/tmp/pbs.5076255.sched01/tmp0kxp0nim/126xlotvanm.sdf

>  <i_m_source_file_index>  (345) 
23

>  <i_lp_mmshare_version>  (345) 
48012

>  <i_f3d_flags>  (345) 
0

>  <s_epik_input>  (345) 
W0NIM11OKFtDQEhdMTIpW0NAQEhdKFtDSDJdW0NIMl0xKVtDQEhdKFtDSDJdMiljM25bY0hdbm4zW0NIM10=

>  <s_epik_cmdline>  (345) 
J2VwaWtfcHl0aG9uJywgJy1waHQnLCAnMi4wJywgJy1waCcsICc3LjAnLCAnLXRuJywgJzgnLCAnLW1hJywgJzIwMCcsICctaW1hZScsICc8aW5maWxlLm1hZT4nLCAnLW9tYWUnLCAnPG91dGZpbGUubWFlPic=

>  <r_lp_tautomer_probability>  (345) 
1

>  <r_epik_Ionization_Penalty>  (345) 
0.00310289

>  <r_epik_Ionization_Penalty_Charging>  (345) 
0.00310128

>  <r_epik_Ionization_Penalty_Neutral>  (345) 
1.61026e-06

>  <r_epik_State_Penalty>  (345) 
-0

>  <r_epik_Charging_Adjusted_Penalty>  (345) 
0.00310128

>  <i_epik_Tot_Q>  (345) 
1

>  <i_epik_Tot_abs_Q>  (345) 
1

>  <s_lp_Force_Field>  (345) 
OPLS3e

>  <r_lp_Energy>  (345) 
35.2897

>  <b_lp_Chiralities_Consistent>  (345) 
1

>  <s_lp_Variant>  (345) 
105:0-1

>  <s_i_glide_gridfile>  (345) 
pfpi4k_grid

>  <i_i_glide_lignum>  (345) 
23

>  <i_i_glide_rotatable_bonds>  (345) 
1

>  <r_i_docking_score>  (345) 
-4.00334

>  <r_i_glide_ligand_efficiency>  (345) 
-0.285953

>  <r_i_glide_ligand_efficiency_sa>  (345) 
-0.689188

>  <r_i_glide_ligand_efficiency_ln>  (345) 
-1.1001

>  <r_i_glide_gscore>  (345) 
-4.00334

>  <r_i_glide_lipo>  (345) 
-0.460364

>  <r_i_glide_hbond>  (345) 
-0.0299497

>  <r_i_glide_metal>  (345) 
-0

>  <r_i_glide_rewards>  (345) 
-2.16531

>  <r_i_glide_evdw>  (345) 
-18.2171

>  <r_i_glide_ecoul>  (345) 
-5.53079

>  <r_i_glide_erotb>  (345) 
0.432254

>  <r_i_glide_esite>  (345) 
-0.0394978

>  <r_i_glide_emodel>  (345) 
-28.8758

>  <r_i_glide_energy>  (345) 
-23.7479

>  <r_i_glide_einternal>  (345) 
4.18455

>  <r_i_glide_intrahb_reward>  (345) 
-0

>  <i_i_glide_confnum>  (345) 
6

>  <i_i_glide_posenum>  (345) 
4

>  <r_i_glide_eff_state_penalty>  (345) 
0

>  <ligand_id>  (345) 
105

>  <original_smiles>  (345) 
CN1C2CCC1C(c1ncnn1C)C2

>  <smiles>  (345) 
[H]c1nc(C2([H])C([H])([H])C3([H])C([H])([H])C([H])([H])C2([H])[N+]3([H])C([H])([H])[H])n(C([H])([H])[H])n1

$$$$
106:0:0
     RDKit          3D

 44 47  0  0  1  0  0  0  0  0999 V2000
    5.6465   -0.6556    2.1802 C   0  0  0  0  0  0  0  0  0  0  0  0
    4.6916   -1.5325    1.3528 C   0  0  2  0  0  0  0  0  0  0  0  0
    3.6032   -0.6652    0.6704 C   0  0  0  0  0  0  0  0  0  0  0  0
    2.5731   -0.0821    1.6588 C   0  0  0  0  0  0  0  0  0  0  0  0
    1.8643   -1.1920    2.4611 C   0  0  2  0  0  0  0  0  0  0  0  0
    0.8516   -0.6941    3.4991 C   0  0  0  0  0  0  0  0  0  0  0  0
    0.4389    0.6553    3.5953 C   0  0  0  0  0  0  0  0  0  0  0  0
   -0.4733    1.0473    4.5957 C   0  0  0  0  0  0  0  0  0  0  0  0
   -0.9906    0.0981    5.5021 C   0  0  0  0  0  0  0  0  0  0  0  0
   -1.8664    0.4839    6.4786 O   0  0  0  0  0  0  0  0  0  0  0  0
   -0.5881   -1.2449    5.4038 C   0  0  0  0  0  0  0  0  0  0  0  0
    0.3302   -1.6372    4.4080 C   0  0  0  0  0  0  0  0  0  0  0  0
    0.7545   -3.0853    4.2715 C   0  0  0  0  0  0  0  0  0  0  0  0
    2.2555   -3.2597    3.9883 C   0  0  0  0  0  0  0  0  0  0  0  0
    2.8972   -2.1206    3.1513 C   0  0  1  0  0  0  0  0  0  0  0  0
    4.0272   -2.6297    2.2099 C   0  0  1  0  0  0  0  0  0  0  0  0
    3.6437   -3.7372    1.2066 C   0  0  0  0  0  0  0  0  0  0  0  0
    4.6014   -3.5890    0.0103 C   0  0  0  0  0  0  0  0  0  0  0  0
    5.4902   -2.3803    0.3347 C   0  0  1  0  0  0  0  0  0  0  0  0
    5.9086   -1.6723   -0.8178 O   0  0  0  0  0  0  0  0  0  0  0  0
    6.1343    0.0705    1.5318 H   0  0  0  0  0  0  0  0  0  0  0  0
    6.4269   -1.2552    2.6471 H   0  0  0  0  0  0  0  0  0  0  0  0
    5.1333   -0.1160    2.9758 H   0  0  0  0  0  0  0  0  0  0  0  0
    4.0774    0.1442    0.1161 H   0  0  0  0  0  0  0  0  0  0  0  0
    3.0621   -1.2552   -0.0714 H   0  0  0  0  0  0  0  0  0  0  0  0
    3.0561    0.6334    2.3249 H   0  0  0  0  0  0  0  0  0  0  0  0
    1.8326    0.4785    1.0859 H   0  0  0  0  0  0  0  0  0  0  0  0
    1.3029   -1.7922    1.7477 H   0  0  0  0  0  0  0  0  0  0  0  0
    0.8162    1.4078    2.9189 H   0  0  0  0  0  0  0  0  0  0  0  0
   -0.7689    2.0840    4.6653 H   0  0  0  0  0  0  0  0  0  0  0  0
   -2.0305    1.4171    6.4481 H   0  0  0  0  0  0  0  0  0  0  0  0
   -0.9799   -1.9789    6.0919 H   0  0  0  0  0  0  0  0  0  0  0  0
    0.4425   -3.6718    5.1354 H   0  0  0  0  0  0  0  0  0  0  0  0
    0.2168   -3.4779    3.4141 H   0  0  0  0  0  0  0  0  0  0  0  0
    2.7746   -3.2922    4.9435 H   0  0  0  0  0  0  0  0  0  0  0  0
    2.4227   -4.2402    3.5430 H   0  0  0  0  0  0  0  0  0  0  0  0
    3.3911   -1.4753    3.8805 H   0  0  0  0  0  0  0  0  0  0  0  0
    4.8044   -3.0552    2.8476 H   0  0  0  0  0  0  0  0  0  0  0  0
    3.7340   -4.7252    1.6621 H   0  0  0  0  0  0  0  0  0  0  0  0
    2.6094   -3.6247    0.8719 H   0  0  0  0  0  0  0  0  0  0  0  0
    5.2008   -4.4884   -0.1415 H   0  0  0  0  0  0  0  0  0  0  0  0
    4.0209   -3.4331   -0.9002 H   0  0  0  0  0  0  0  0  0  0  0  0
    6.3886   -2.7610    0.8235 H   0  0  0  0  0  0  0  0  0  0  0  0
    5.1293   -1.3889   -1.2781 H   0  0  0  0  0  0  0  0  0  0  0  0
  2  1  1  1
  1 21  1  0
  1 22  1  0
  1 23  1  0
  2 16  1  0
  2 19  1  0
  2  3  1  0
  3  4  1  0
  3 24  1  0
  3 25  1  0
  4  5  1  0
  4 26  1  0
  4 27  1  0
  5 15  1  0
  5  6  1  0
  5 28  1  6
  6 12  2  0
  6  7  1  0
  7  8  2  0
  7 29  1  0
  8  9  1  0
  8 30  1  0
  9 10  1  0
  9 11  2  0
 10 31  1  0
 11 12  1  0
 11 32  1  0
 12 13  1  0
 13 14  1  0
 13 33  1  0
 13 34  1  0
 14 15  1  0
 14 35  1  0
 14 36  1  0
 15 16  1  0
 15 37  1  1
 16 17  1  0
 16 38  1  1
 17 18  1  0
 17 39  1  0
 17 40  1  0
 18 19  1  0
 18 41  1  0
 18 42  1  0
 19 20  1  0
 19 43  1  1
 20 44  1  0
M  END
>  <i_m_ct_stereo_status>  (346) 
1

>  <s_m_source_file>  (346) 
/var/tmp/pbs.5076255.sched01/tmp0kxp0nim/126xlotvanm.sdf

>  <i_m_source_file_index>  (346) 
24

>  <i_lp_mmshare_version>  (346) 
48012

>  <i_f3d_flags>  (346) 
0

>  <s_epik_input>  (346) 
W09IXVtDQEBIXTFbQ0gyXVtDSDJdW0NAQEhdKFtDQEBdMTJbQ0gzXSlbQ0BIXTNbQ0BIXShbQ0gyXVtDSDJdMiljNGMoW0NIMl1bQ0gyXTMpW2NIXWMoW09IXSlbY0hdW2NIXTQ=

>  <s_epik_cmdline>  (346) 
J2VwaWtfcHl0aG9uJywgJy1waHQnLCAnMi4wJywgJy1waCcsICc3LjAnLCAnLXRuJywgJzgnLCAnLW1hJywgJzIwMCcsICctaW1hZScsICc8aW5maWxlLm1hZT4nLCAnLW9tYWUnLCAnPG91dGZpbGUubWFlPic=

>  <r_lp_tautomer_probability>  (346) 
1

>  <r_epik_Ionization_Penalty>  (346) 
0.000144805

>  <r_epik_Ionization_Penalty_Charging>  (346) 
0

>  <r_epik_Ionization_Penalty_Neutral>  (346) 
0.000144805

>  <r_epik_State_Penalty>  (346) 
-0

>  <r_epik_Charging_Adjusted_Penalty>  (346) 
0

>  <i_epik_Tot_Q>  (346) 
0

>  <i_epik_Tot_abs_Q>  (346) 
0

>  <s_lp_Force_Field>  (346) 
OPLS3e

>  <r_lp_Energy>  (346) 
35.5411

>  <b_lp_Chiralities_Consistent>  (346) 
1

>  <s_lp_Variant>  (346) 
106:0-1

>  <s_i_glide_gridfile>  (346) 
pfpi4k_grid

>  <i_i_glide_lignum>  (346) 
24

>  <i_i_glide_rotatable_bonds>  (346) 
2

>  <r_i_docking_score>  (346) 
-3.67883

>  <r_i_glide_ligand_efficiency>  (346) 
-0.183941

>  <r_i_glide_ligand_efficiency_sa>  (346) 
-0.499294

>  <r_i_glide_ligand_efficiency_ln>  (346) 
-0.920689

>  <r_i_glide_gscore>  (346) 
-3.67883

>  <r_i_glide_lipo>  (346) 
-0.211598

>  <r_i_glide_hbond>  (346) 
-0.200182

>  <r_i_glide_metal>  (346) 
-0

>  <r_i_glide_rewards>  (346) 
-1.55194

>  <r_i_glide_evdw>  (346) 
-20.1101

>  <r_i_glide_ecoul>  (346) 
-4.73066

>  <r_i_glide_erotb>  (346) 
0

>  <r_i_glide_esite>  (346) 
0

>  <r_i_glide_emodel>  (346) 
-31.1471

>  <r_i_glide_energy>  (346) 
-24.8408

>  <r_i_glide_einternal>  (346) 
0.00188345

>  <r_i_glide_intrahb_reward>  (346) 
-0

>  <i_i_glide_confnum>  (346) 
2

>  <i_i_glide_posenum>  (346) 
29

>  <r_i_glide_eff_state_penalty>  (346) 
0

>  <ligand_id>  (346) 
106

>  <original_smiles>  (346) 
CC12CCC3c4ccc(O)cc4CCC3C1CCC2O

>  <smiles>  (346) 
[H]Oc1c([H])c([H])c2c(c1[H])C([H])([H])C([H])([H])C1([H])C2([H])C([H])([H])C([H])([H])C2(C([H])([H])[H])C([H])(O[H])C([H])([H])C([H])([H])C12[H]

$$$$
106:0:1
     RDKit          3D

 44 47  0  0  1  0  0  0  0  0999 V2000
    4.0077   -1.2935    1.3691 C   0  0  0  0  0  0  0  0  0  0  0  0
    3.7713   -1.5761    2.8690 C   0  0  2  0  0  0  0  0  0  0  0  0
    2.3359   -2.1184    3.1159 C   0  0  0  0  0  0  0  0  0  0  0  0
    1.2410   -1.0520    2.9245 C   0  0  0  0  0  0  0  0  0  0  0  0
    1.4627    0.1643    3.8466 C   0  0  2  0  0  0  0  0  0  0  0  0
    0.4357    1.2914    3.6904 C   0  0  0  0  0  0  0  0  0  0  0  0
   -0.7288    1.1751    2.9003 C   0  0  0  0  0  0  0  0  0  0  0  0
   -1.6146    2.2607    2.7807 C   0  0  0  0  0  0  0  0  0  0  0  0
   -1.3455    3.4780    3.4355 C   0  0  0  0  0  0  0  0  0  0  0  0
   -2.1938    4.5353    3.2804 O   0  0  0  0  0  0  0  0  0  0  0  0
   -0.1874    3.6002    4.2241 C   0  0  0  0  0  0  0  0  0  0  0  0
    0.6950    2.5098    4.3526 C   0  0  0  0  0  0  0  0  0  0  0  0
    1.9339    2.6123    5.2196 C   0  0  0  0  0  0  0  0  0  0  0  0
    3.1793    1.9725    4.5762 C   0  0  0  0  0  0  0  0  0  0  0  0
    2.8923    0.7422    3.6731 C   0  0  1  0  0  0  0  0  0  0  0  0
    4.0192   -0.3266    3.7407 C   0  0  1  0  0  0  0  0  0  0  0  0
    4.3601   -0.8766    5.1420 C   0  0  0  0  0  0  0  0  0  0  0  0
    4.9174   -2.2914    4.9265 C   0  0  0  0  0  0  0  0  0  0  0  0
    4.8587   -2.5297    3.4147 C   0  0  1  0  0  0  0  0  0  0  0  0
    4.6380   -3.8911    3.1117 O   0  0  0  0  0  0  0  0  0  0  0  0
    3.8750   -2.1981    0.7746 H   0  0  0  0  0  0  0  0  0  0  0  0
    5.0194   -0.9272    1.1891 H   0  0  0  0  0  0  0  0  0  0  0  0
    3.3206   -0.5427    0.9813 H   0  0  0  0  0  0  0  0  0  0  0  0
    2.1390   -2.9642    2.4567 H   0  0  0  0  0  0  0  0  0  0  0  0
    2.2569   -2.5133    4.1302 H   0  0  0  0  0  0  0  0  0  0  0  0
    1.2043   -0.7409    1.8799 H   0  0  0  0  0  0  0  0  0  0  0  0
    0.2756   -1.5051    3.1468 H   0  0  0  0  0  0  0  0  0  0  0  0
    1.3685   -0.1870    4.8717 H   0  0  0  0  0  0  0  0  0  0  0  0
   -0.9556    0.2697    2.3615 H   0  0  0  0  0  0  0  0  0  0  0  0
   -2.4916    2.1629    2.1590 H   0  0  0  0  0  0  0  0  0  0  0  0
   -2.7646    4.3971    2.5375 H   0  0  0  0  0  0  0  0  0  0  0  0
    0.0276    4.5358    4.7172 H   0  0  0  0  0  0  0  0  0  0  0  0
    2.1279    3.6480    5.4977 H   0  0  0  0  0  0  0  0  0  0  0  0
    1.7006    2.0793    6.1433 H   0  0  0  0  0  0  0  0  0  0  0  0
    3.6614    2.7238    3.9506 H   0  0  0  0  0  0  0  0  0  0  0  0
    3.9047    1.7495    5.3569 H   0  0  0  0  0  0  0  0  0  0  0  0
    2.9093    1.1249    2.6502 H   0  0  0  0  0  0  0  0  0  0  0  0
    4.9306    0.1477    3.3718 H   0  0  0  0  0  0  0  0  0  0  0  0
    5.0914   -0.2432    5.6459 H   0  0  0  0  0  0  0  0  0  0  0  0
    3.4721   -0.9240    5.7774 H   0  0  0  0  0  0  0  0  0  0  0  0
    5.9338   -2.3962    5.3073 H   0  0  0  0  0  0  0  0  0  0  0  0
    4.3025   -3.0130    5.4652 H   0  0  0  0  0  0  0  0  0  0  0  0
    5.8218   -2.2430    2.9902 H   0  0  0  0  0  0  0  0  0  0  0  0
    5.3847   -4.3884    3.4131 H   0  0  0  0  0  0  0  0  0  0  0  0
  2  1  1  6
  1 21  1  0
  1 22  1  0
  1 23  1  0
  2 16  1  0
  2 19  1  0
  2  3  1  0
  3  4  1  0
  3 24  1  0
  3 25  1  0
  4  5  1  0
  4 26  1  0
  4 27  1  0
  5 15  1  0
  5  6  1  0
  5 28  1  1
  6 12  2  0
  6  7  1  0
  7  8  2  0
  7 29  1  0
  8  9  1  0
  8 30  1  0
  9 10  1  0
  9 11  2  0
 10 31  1  0
 11 12  1  0
 11 32  1  0
 12 13  1  0
 13 14  1  0
 13 33  1  0
 13 34  1  0
 14 15  1  0
 14 35  1  0
 14 36  1  0
 15 16  1  0
 15 37  1  6
 16 17  1  0
 16 38  1  6
 17 18  1  0
 17 39  1  0
 17 40  1  0
 18 19  1  0
 18 41  1  0
 18 42  1  0
 19 20  1  0
 19 43  1  6
 20 44  1  0
M  END
>  <i_m_ct_stereo_status>  (347) 
1

>  <s_m_source_file>  (347) 
/var/tmp/pbs.5076255.sched01/tmp0kxp0nim/126xlotvanm.sdf

>  <i_m_source_file_index>  (347) 
24

>  <i_lp_mmshare_version>  (347) 
48012

>  <i_f3d_flags>  (347) 
0

>  <s_epik_input>  (347) 
W09IXVtDQEBIXTFbQ0gyXVtDSDJdW0NAQEhdKFtDQEBdMTJbQ0gzXSlbQ0BIXTNbQ0BIXShbQ0gyXVtDSDJdMiljNGMoW0NIMl1bQ0gyXTMpW2NIXWMoW09IXSlbY0hdW2NIXTQ=

>  <s_epik_cmdline>  (347) 
J2VwaWtfcHl0aG9uJywgJy1waHQnLCAnMi4wJywgJy1waCcsICc3LjAnLCAnLXRuJywgJzgnLCAnLW1hJywgJzIwMCcsICctaW1hZScsICc8aW5maWxlLm1hZT4nLCAnLW9tYWUnLCAnPG91dGZpbGUubWFlPic=

>  <r_lp_tautomer_probability>  (347) 
1

>  <r_epik_Ionization_Penalty>  (347) 
0.000144805

>  <r_epik_Ionization_Penalty_Charging>  (347) 
0

>  <r_epik_Ionization_Penalty_Neutral>  (347) 
0.000144805

>  <r_epik_State_Penalty>  (347) 
-0

>  <r_epik_Charging_Adjusted_Penalty>  (347) 
0

>  <i_epik_Tot_Q>  (347) 
0

>  <i_epik_Tot_abs_Q>  (347) 
0

>  <s_lp_Force_Field>  (347) 
OPLS3e

>  <r_lp_Energy>  (347) 
35.5411

>  <b_lp_Chiralities_Consistent>  (347) 
1

>  <s_lp_Variant>  (347) 
106:0-1

>  <s_i_glide_gridfile>  (347) 
pfpi4k_grid

>  <i_i_glide_lignum>  (347) 
24

>  <i_i_glide_rotatable_bonds>  (347) 
2

>  <r_i_docking_score>  (347) 
-3.04216

>  <r_i_glide_ligand_efficiency>  (347) 
-0.152108

>  <r_i_glide_ligand_efficiency_sa>  (347) 
-0.412885

>  <r_i_glide_ligand_efficiency_ln>  (347) 
-0.761352

>  <r_i_glide_gscore>  (347) 
-3.04216

>  <r_i_glide_lipo>  (347) 
-0.102092

>  <r_i_glide_hbond>  (347) 
-0.16

>  <r_i_glide_metal>  (347) 
-0

>  <r_i_glide_rewards>  (347) 
-1.55194

>  <r_i_glide_evdw>  (347) 
-17.9181

>  <r_i_glide_ecoul>  (347) 
-2.21479

>  <r_i_glide_erotb>  (347) 
0

>  <r_i_glide_esite>  (347) 
0

>  <r_i_glide_emodel>  (347) 
-25.0075

>  <r_i_glide_energy>  (347) 
-20.1329

>  <r_i_glide_einternal>  (347) 
0.569644

>  <r_i_glide_intrahb_reward>  (347) 
-0

>  <i_i_glide_confnum>  (347) 
2

>  <i_i_glide_posenum>  (347) 
32

>  <r_i_glide_eff_state_penalty>  (347) 
0

>  <ligand_id>  (347) 
106

>  <original_smiles>  (347) 
CC12CCC3c4ccc(O)cc4CCC3C1CCC2O

>  <smiles>  (347) 
[H]Oc1c([H])c([H])c2c(c1[H])C([H])([H])C([H])([H])C1([H])C2([H])C([H])([H])C([H])([H])C2(C([H])([H])[H])C([H])(O[H])C([H])([H])C([H])([H])C12[H]

$$$$
106:0:2
     RDKit          3D

 44 47  0  0  1  0  0  0  0  0999 V2000
    4.9100   -0.5882    3.5559 C   0  0  0  0  0  0  0  0  0  0  0  0
    4.1158   -1.2024    4.7294 C   0  0  2  0  0  0  0  0  0  0  0  0
    2.8626   -1.9677    4.2225 C   0  0  0  0  0  0  0  0  0  0  0  0
    1.7571   -1.0411    3.6823 C   0  0  0  0  0  0  0  0  0  0  0  0
    1.3006   -0.0183    4.7459 C   0  0  2  0  0  0  0  0  0  0  0  0
    0.2314    0.9736    4.2718 C   0  0  0  0  0  0  0  0  0  0  0  0
   -0.4242    0.8709    3.0248 C   0  0  0  0  0  0  0  0  0  0  0  0
   -1.3812    1.8327    2.6419 C   0  0  0  0  0  0  0  0  0  0  0  0
   -1.6743    2.9206    3.4919 C   0  0  0  0  0  0  0  0  0  0  0  0
   -2.5752    3.8720    3.1083 O   0  0  0  0  0  0  0  0  0  0  0  0
   -1.0277    3.0255    4.7370 C   0  0  0  0  0  0  0  0  0  0  0  0
   -0.0818    2.0534    5.1257 C   0  0  0  0  0  0  0  0  0  0  0  0
    0.6085    2.1392    6.4694 C   0  0  0  0  0  0  0  0  0  0  0  0
    2.1132    1.8157    6.3957 C   0  0  0  0  0  0  0  0  0  0  0  0
    2.5099    0.7670    5.3195 C   0  0  1  0  0  0  0  0  0  0  0  0
    3.6959   -0.1340    5.7635 C   0  0  1  0  0  0  0  0  0  0  0  0
    3.5127   -0.9069    7.0865 C   0  0  0  0  0  0  0  0  0  0  0  0
    4.3948   -2.1622    6.9800 C   0  0  0  0  0  0  0  0  0  0  0  0
    5.0364   -2.0983    5.5898 C   0  0  1  0  0  0  0  0  0  0  0  0
    5.2997   -3.3752    5.0451 O   0  0  0  0  0  0  0  0  0  0  0  0
    5.2425   -1.3597    2.8617 H   0  0  0  0  0  0  0  0  0  0  0  0
    5.7982   -0.0619    3.9064 H   0  0  0  0  0  0  0  0  0  0  0  0
    4.3155    0.1304    2.9917 H   0  0  0  0  0  0  0  0  0  0  0  0
    3.1504   -2.6777    3.4477 H   0  0  0  0  0  0  0  0  0  0  0  0
    2.4406   -2.5648    5.0326 H   0  0  0  0  0  0  0  0  0  0  0  0
    2.1076   -0.5293    2.7856 H   0  0  0  0  0  0  0  0  0  0  0  0
    0.9094   -1.6539    3.3739 H   0  0  0  0  0  0  0  0  0  0  0  0
    0.8507   -0.5810    5.5625 H   0  0  0  0  0  0  0  0  0  0  0  0
   -0.2003    0.0714    2.3364 H   0  0  0  0  0  0  0  0  0  0  0  0
   -1.8733    1.7362    1.6859 H   0  0  0  0  0  0  0  0  0  0  0  0
   -2.8574    3.7421    2.2152 H   0  0  0  0  0  0  0  0  0  0  0  0
   -1.2575    3.8557    5.3904 H   0  0  0  0  0  0  0  0  0  0  0  0
    0.4418    3.1130    6.9303 H   0  0  0  0  0  0  0  0  0  0  0  0
    0.1221    1.4024    7.1096 H   0  0  0  0  0  0  0  0  0  0  0  0
    2.6466    2.7346    6.1608 H   0  0  0  0  0  0  0  0  0  0  0  0
    2.4625    1.5364    7.3899 H   0  0  0  0  0  0  0  0  0  0  0  0
    2.8808    1.3491    4.4731 H   0  0  0  0  0  0  0  0  0  0  0  0
    4.5532    0.5232    5.9168 H   0  0  0  0  0  0  0  0  0  0  0  0
    3.8013   -0.2975    7.9449 H   0  0  0  0  0  0  0  0  0  0  0  0
    2.4701   -1.1996    7.2344 H   0  0  0  0  0  0  0  0  0  0  0  0
    5.1583   -2.1897    7.7588 H   0  0  0  0  0  0  0  0  0  0  0  0
    3.7802   -3.0543    7.0998 H   0  0  0  0  0  0  0  0  0  0  0  0
    5.9987   -1.5970    5.7045 H   0  0  0  0  0  0  0  0  0  0  0  0
    4.4855   -3.8497    4.9757 H   0  0  0  0  0  0  0  0  0  0  0  0
  2  1  1  6
  1 21  1  0
  1 22  1  0
  1 23  1  0
  2 16  1  0
  2 19  1  0
  2  3  1  0
  3  4  1  0
  3 24  1  0
  3 25  1  0
  4  5  1  0
  4 26  1  0
  4 27  1  0
  5 15  1  0
  5  6  1  0
  5 28  1  1
  6 12  2  0
  6  7  1  0
  7  8  2  0
  7 29  1  0
  8  9  1  0
  8 30  1  0
  9 10  1  0
  9 11  2  0
 10 31  1  0
 11 12  1  0
 11 32  1  0
 12 13  1  0
 13 14  1  0
 13 33  1  0
 13 34  1  0
 14 15  1  0
 14 35  1  0
 14 36  1  0
 15 16  1  0
 15 37  1  6
 16 17  1  0
 16 38  1  1
 17 18  1  0
 17 39  1  0
 17 40  1  0
 18 19  1  0
 18 41  1  0
 18 42  1  0
 19 20  1  0
 19 43  1  1
 20 44  1  0
M  END
>  <i_m_ct_stereo_status>  (348) 
1

>  <s_m_source_file>  (348) 
/var/tmp/pbs.5076255.sched01/tmp0kxp0nim/126xlotvanm.sdf

>  <i_m_source_file_index>  (348) 
24

>  <i_lp_mmshare_version>  (348) 
48012

>  <i_f3d_flags>  (348) 
0

>  <s_epik_input>  (348) 
W09IXVtDQEBIXTFbQ0gyXVtDSDJdW0NAQEhdKFtDQEBdMTJbQ0gzXSlbQ0BIXTNbQ0BIXShbQ0gyXVtDSDJdMiljNGMoW0NIMl1bQ0gyXTMpW2NIXWMoW09IXSlbY0hdW2NIXTQ=

>  <s_epik_cmdline>  (348) 
J2VwaWtfcHl0aG9uJywgJy1waHQnLCAnMi4wJywgJy1waCcsICc3LjAnLCAnLXRuJywgJzgnLCAnLW1hJywgJzIwMCcsICctaW1hZScsICc8aW5maWxlLm1hZT4nLCAnLW9tYWUnLCAnPG91dGZpbGUubWFlPic=

>  <r_lp_tautomer_probability>  (348) 
1

>  <r_epik_Ionization_Penalty>  (348) 
0.000144805

>  <r_epik_Ionization_Penalty_Charging>  (348) 
0

>  <r_epik_Ionization_Penalty_Neutral>  (348) 
0.000144805

>  <r_epik_State_Penalty>  (348) 
-0

>  <r_epik_Charging_Adjusted_Penalty>  (348) 
0

>  <i_epik_Tot_Q>  (348) 
0

>  <i_epik_Tot_abs_Q>  (348) 
0

>  <s_lp_Force_Field>  (348) 
OPLS3e

>  <r_lp_Energy>  (348) 
35.5411

>  <b_lp_Chiralities_Consistent>  (348) 
1

>  <s_lp_Variant>  (348) 
106:0-1

>  <s_i_glide_gridfile>  (348) 
pfpi4k_grid

>  <i_i_glide_lignum>  (348) 
24

>  <i_i_glide_rotatable_bonds>  (348) 
2

>  <r_i_docking_score>  (348) 
-2.65359

>  <r_i_glide_ligand_efficiency>  (348) 
-0.132679

>  <r_i_glide_ligand_efficiency_sa>  (348) 
-0.360147

>  <r_i_glide_ligand_efficiency_ln>  (348) 
-0.664105

>  <r_i_glide_gscore>  (348) 
-2.65359

>  <r_i_glide_lipo>  (348) 
-0.128027

>  <r_i_glide_hbond>  (348) 
0

>  <r_i_glide_metal>  (348) 
-0

>  <r_i_glide_rewards>  (348) 
-1.55194

>  <r_i_glide_evdw>  (348) 
-15.5634

>  <r_i_glide_ecoul>  (348) 
-1.30299

>  <r_i_glide_erotb>  (348) 
0

>  <r_i_glide_esite>  (348) 
0

>  <r_i_glide_emodel>  (348) 
-21.3815

>  <r_i_glide_energy>  (348) 
-16.8664

>  <r_i_glide_einternal>  (348) 
0.0527607

>  <r_i_glide_intrahb_reward>  (348) 
-0

>  <i_i_glide_confnum>  (348) 
1

>  <i_i_glide_posenum>  (348) 
14

>  <r_i_glide_eff_state_penalty>  (348) 
0

>  <ligand_id>  (348) 
106

>  <original_smiles>  (348) 
CC12CCC3c4ccc(O)cc4CCC3C1CCC2O

>  <smiles>  (348) 
[H]Oc1c([H])c([H])c2c(c1[H])C([H])([H])C([H])([H])C1([H])C2([H])C([H])([H])C([H])([H])C2(C([H])([H])[H])C([H])(O[H])C([H])([H])C([H])([H])C12[H]

$$$$
108:0:0
     RDKit          3D

 51 55  0  0  1  0  0  0  0  0999 V2000
    2.6195   -2.7182   -3.9189 C   0  0  0  0  0  0  0  0  0  0  0  0
    3.3152   -2.5426   -2.5909 C   0  0  0  0  0  0  0  0  0  0  0  0
    3.0519   -3.2085   -1.4719 C   0  0  0  0  0  0  0  0  0  0  0  0
    3.9460   -2.8197   -0.3182 C   0  0  1  0  0  0  0  0  0  0  0  0
    4.7555   -4.0332    0.1898 C   0  0  2  0  0  0  0  0  0  0  0  0
    3.9722   -5.2243    0.7604 C   0  0  0  0  0  0  0  0  0  0  0  0
    2.7186   -5.1332    1.2623 C   0  0  0  0  0  0  0  0  0  0  0  0
    2.1536   -5.8306    2.5201 C   0  0  1  0  0  0  0  0  0  0  0  0
    1.4883   -4.8330    3.2728 O   0  0  0  0  0  0  0  0  0  0  0  0
    1.1102   -6.8595    2.0372 C   0  0  0  0  0  0  0  0  0  0  0  0
   -0.0824   -6.5725    1.8769 O   0  0  0  0  0  0  0  0  0  0  0  0
    1.6449   -8.2509    1.7211 C   0  0  0  0  0  0  0  0  0  0  0  0
    2.3573   -8.8677    2.9365 C   0  0  0  0  0  0  0  0  0  0  0  0
    3.2394   -7.8694    3.6570 C   0  0  0  0  0  0  0  0  0  0  0  0
    3.1893   -6.5369    3.4578 C   0  0  0  0  0  0  0  0  0  0  0  0
    4.1100   -5.7675    4.1472 O   0  0  0  0  0  0  0  0  0  0  0  0
    4.9243   -4.8395    3.5225 C   0  0  0  0  0  0  0  0  0  0  0  0
    5.4287   -4.9727    2.2627 C   0  0  0  0  0  0  0  0  0  0  0  0
    5.0369   -6.0942    1.3395 C   0  0  0  0  0  0  0  0  0  0  0  0
    5.7992   -3.7875    1.3537 C   0  0  1  0  0  0  0  0  0  0  0  0
    7.2625   -3.8874    0.8552 C   0  0  0  0  0  0  0  0  0  0  0  0
    5.6274   -2.4651    2.1040 C   0  0  0  0  0  0  0  0  0  0  0  0
    5.3091   -2.3572    3.4074 C   0  0  0  0  0  0  0  0  0  0  0  0
    5.0071   -3.5461    4.2172 C   0  0  0  0  0  0  0  0  0  0  0  0
    4.8014   -3.4537    5.4259 O   0  0  0  0  0  0  0  0  0  0  0  0
    4.8464   -1.7180   -0.9465 C   0  0  0  0  0  0  0  0  0  0  0  0
    4.4288   -1.5527   -2.4214 C   0  0  0  0  0  0  0  0  0  0  0  0
    2.1741   -1.7760   -4.2328 H   0  0  0  0  0  0  0  0  0  0  0  0
    1.8269   -3.4597   -3.8397 H   0  0  0  0  0  0  0  0  0  0  0  0
    3.3207   -3.0427   -4.6872 H   0  0  0  0  0  0  0  0  0  0  0  0
    2.2965   -3.9741   -1.3856 H   0  0  0  0  0  0  0  0  0  0  0  0
    3.3262   -2.3879    0.4732 H   0  0  0  0  0  0  0  0  0  0  0  0
    5.2961   -4.4300   -0.6687 H   0  0  0  0  0  0  0  0  0  0  0  0
    2.1107   -4.3071    0.9298 H   0  0  0  0  0  0  0  0  0  0  0  0
    2.1327   -4.2679    3.6738 H   0  0  0  0  0  0  0  0  0  0  0  0
    0.8356   -8.8931    1.3903 H   0  0  0  0  0  0  0  0  0  0  0  0
    2.3474   -8.1442    0.8946 H   0  0  0  0  0  0  0  0  0  0  0  0
    1.6343   -9.2633    3.6511 H   0  0  0  0  0  0  0  0  0  0  0  0
    2.9731   -9.7044    2.6010 H   0  0  0  0  0  0  0  0  0  0  0  0
    3.9766   -8.2804    4.3324 H   0  0  0  0  0  0  0  0  0  0  0  0
    4.7591   -7.0635    1.7361 H   0  0  0  0  0  0  0  0  0  0  0  0
    5.8122   -6.2962    0.5981 H   0  0  0  0  0  0  0  0  0  0  0  0
    7.9736   -3.8672    1.6800 H   0  0  0  0  0  0  0  0  0  0  0  0
    7.5210   -3.0568    0.2086 H   0  0  0  0  0  0  0  0  0  0  0  0
    7.4541   -4.8005    0.2981 H   0  0  0  0  0  0  0  0  0  0  0  0
    5.8695   -1.5667    1.5635 H   0  0  0  0  0  0  0  0  0  0  0  0
    5.2754   -1.3965    3.9032 H   0  0  0  0  0  0  0  0  0  0  0  0
    4.7344   -0.7774   -0.4057 H   0  0  0  0  0  0  0  0  0  0  0  0
    5.9000   -1.9864   -0.9064 H   0  0  0  0  0  0  0  0  0  0  0  0
    5.2479   -1.8006   -3.0966 H   0  0  0  0  0  0  0  0  0  0  0  0
    4.0833   -0.5395   -2.6294 H   0  0  0  0  0  0  0  0  0  0  0  0
  1  2  1  0
  1 28  1  0
  1 29  1  0
  1 30  1  0
  2 27  1  0
  2  3  2  0
  3  4  1  0
  3 31  1  0
  4  5  1  0
  4 26  1  0
  4 32  1  1
  5 20  1  0
  5  6  1  0
  5 33  1  6
  6 19  1  0
  6  7  2  3
  7  8  1  0
  7 34  1  0
  8 15  1  0
  8  9  1  1
  8 10  1  0
  9 35  1  0
 10 11  2  0
 10 12  1  0
 12 13  1  0
 12 36  1  0
 12 37  1  0
 13 14  1  0
 13 38  1  0
 13 39  1  0
 14 15  2  0
 14 40  1  0
 15 16  1  0
 16 17  1  0
 17 24  1  0
 17 18  2  0
 18 19  1  0
 18 20  1  0
 19 41  1  0
 19 42  1  0
 20 21  1  6
 20 22  1  0
 21 43  1  0
 21 44  1  0
 21 45  1  0
 22 23  2  0
 22 46  1  0
 23 24  1  0
 23 47  1  0
 24 25  2  0
 26 27  1  0
 26 48  1  0
 26 49  1  0
 27 50  1  0
 27 51  1  0
M  END
>  <i_m_ct_stereo_status>  (349) 
1

>  <s_m_source_file>  (349) 
/var/tmp/pbs.5076255.sched01/tmp0kxp0nim/126xlotvanm.sdf

>  <i_m_source_file_index>  (349) 
26

>  <i_lp_mmshare_version>  (349) 
48012

>  <i_f3d_flags>  (349) 
0

>  <s_epik_input>  (349) 
W0NIM11DMT1bQ0hdW0NASF0oW0NIMl1bQ0gyXTEpW0NASF0oL0MoPVtDSF0vMilbQ0gyXTMpW0NAQF0oW0NIM10pKFtDSF09W0NIXUM0PU8pQzM9QzRPQyhbQ0BAXTI1W09IXSk9W0NIXVtDSDJdW0NIMl1DNT1P

>  <s_epik_cmdline>  (349) 
J2VwaWtfcHl0aG9uJywgJy1waHQnLCAnMi4wJywgJy1waCcsICc3LjAnLCAnLXRuJywgJzgnLCAnLW1hJywgJzIwMCcsICctaW1hZScsICc8aW5maWxlLm1hZT4nLCAnLW9tYWUnLCAnPG91dGZpbGUubWFlPic=

>  <r_lp_tautomer_probability>  (349) 
1

>  <r_epik_Ionization_Penalty>  (349) 
8.61125e-05

>  <r_epik_Ionization_Penalty_Charging>  (349) 
0

>  <r_epik_Ionization_Penalty_Neutral>  (349) 
8.61125e-05

>  <r_epik_State_Penalty>  (349) 
-0

>  <r_epik_Charging_Adjusted_Penalty>  (349) 
0

>  <i_epik_Tot_Q>  (349) 
0

>  <i_epik_Tot_abs_Q>  (349) 
0

>  <s_lp_Force_Field>  (349) 
OPLS3e

>  <r_lp_Energy>  (349) 
60.707

>  <b_lp_Chiralities_Consistent>  (349) 
1

>  <s_lp_Variant>  (349) 
108:0-1

>  <s_i_glide_gridfile>  (349) 
pfpi4k_grid

>  <i_i_glide_lignum>  (349) 
26

>  <i_i_glide_rotatable_bonds>  (349) 
2

>  <r_i_docking_score>  (349) 
-3.52098

>  <r_i_glide_ligand_efficiency>  (349) 
-0.130407

>  <r_i_glide_ligand_efficiency_sa>  (349) 
-0.39122

>  <r_i_glide_ligand_efficiency_ln>  (349) 
-0.819626

>  <r_i_glide_gscore>  (349) 
-3.52098

>  <r_i_glide_lipo>  (349) 
-0.657034

>  <r_i_glide_hbond>  (349) 
-0.230743

>  <r_i_glide_metal>  (349) 
-0

>  <r_i_glide_rewards>  (349) 
-0.964858

>  <r_i_glide_evdw>  (349) 
-27.7319

>  <r_i_glide_ecoul>  (349) 
-2.51725

>  <r_i_glide_erotb>  (349) 
0.144751

>  <r_i_glide_esite>  (349) 
-0.0489108

>  <r_i_glide_emodel>  (349) 
-37.2962

>  <r_i_glide_energy>  (349) 
-30.2492

>  <r_i_glide_einternal>  (349) 
0.0430328

>  <r_i_glide_intrahb_reward>  (349) 
-0

>  <i_i_glide_confnum>  (349) 
1

>  <i_i_glide_posenum>  (349) 
1

>  <r_i_glide_eff_state_penalty>  (349) 
0

>  <ligand_id>  (349) 
108

>  <original_smiles>  (349) 
CC1=CC(C2C3=CC4(O)C(=O)CCC=C4OC4=C(C3)C2(C)C=CC4=O)CC1

>  <smiles>  (349) 
[H]OC12C(=O)C([H])([H])C([H])([H])C([H])=C1OC1=C3C([H])([H])C(=C2[H])C([H])(C2([H])C([H])=C(C([H])([H])[H])C([H])([H])C2([H])[H])C3(C([H])([H])[H])C([H])=C([H])C1=O

$$$$
108:0:1
     RDKit          3D

 51 55  0  0  1  0  0  0  0  0999 V2000
   -0.2561   -7.5123    2.8490 C   0  0  0  0  0  0  0  0  0  0  0  0
    1.0428   -6.9839    2.2946 C   0  0  0  0  0  0  0  0  0  0  0  0
    1.4302   -5.7158    2.2525 C   0  0  0  0  0  0  0  0  0  0  0  0
    2.7981   -5.5117    1.6423 C   0  0  1  0  0  0  0  0  0  0  0  0
    3.7568   -4.8343    2.6373 C   0  0  2  0  0  0  0  0  0  0  0  0
    3.3940   -3.4393    3.1452 C   0  0  0  0  0  0  0  0  0  0  0  0
    2.6002   -2.5720    2.4480 C   0  0  0  0  0  0  0  0  0  0  0  0
    2.7947   -1.0559    2.2651 C   0  0  1  0  0  0  0  0  0  0  0  0
    2.6919   -0.7904    0.8857 O   0  0  0  0  0  0  0  0  0  0  0  0
    1.6751   -0.3404    3.0298 C   0  0  0  0  0  0  0  0  0  0  0  0
    0.5905   -0.0776    2.4928 O   0  0  0  0  0  0  0  0  0  0  0  0
    1.9291   -0.0272    4.4937 C   0  0  0  0  0  0  0  0  0  0  0  0
    3.1891    0.8451    4.6511 C   0  0  0  0  0  0  0  0  0  0  0  0
    4.3217    0.3920    3.7513 C   0  0  0  0  0  0  0  0  0  0  0  0
    4.1682   -0.4646    2.7269 C   0  0  0  0  0  0  0  0  0  0  0  0
    5.3291   -0.7971    2.0320 O   0  0  0  0  0  0  0  0  0  0  0  0
    5.6684   -2.1144    1.7872 C   0  0  0  0  0  0  0  0  0  0  0  0
    5.4187   -3.1672    2.6372 C   0  0  0  0  0  0  0  0  0  0  0  0
    4.5987   -2.9909    3.8882 C   0  0  0  0  0  0  0  0  0  0  0  0
    5.2630   -4.6142    2.1948 C   0  0  1  0  0  0  0  0  0  0  0  0
    6.2344   -5.5536    2.9510 C   0  0  0  0  0  0  0  0  0  0  0  0
    5.5322   -4.7519    0.6989 C   0  0  0  0  0  0  0  0  0  0  0  0
    5.9747   -3.7663   -0.1044 C   0  0  0  0  0  0  0  0  0  0  0  0
    6.1339   -2.4002    0.4174 C   0  0  0  0  0  0  0  0  0  0  0  0
    6.6250   -1.5062   -0.2910 O   0  0  0  0  0  0  0  0  0  0  0  0
    3.2239   -6.9663    1.2974 C   0  0  0  0  0  0  0  0  0  0  0  0
    2.0827   -7.9122    1.7230 C   0  0  0  0  0  0  0  0  0  0  0  0
   -0.8067   -8.0522    2.0784 H   0  0  0  0  0  0  0  0  0  0  0  0
   -0.8807   -6.6967    3.2167 H   0  0  0  0  0  0  0  0  0  0  0  0
   -0.0710   -8.1934    3.6807 H   0  0  0  0  0  0  0  0  0  0  0  0
    0.8501   -4.8854    2.6337 H   0  0  0  0  0  0  0  0  0  0  0  0
    2.6978   -4.9264    0.7256 H   0  0  0  0  0  0  0  0  0  0  0  0
    3.7594   -5.4617    3.5388 H   0  0  0  0  0  0  0  0  0  0  0  0
    1.9035   -2.9899    1.7387 H   0  0  0  0  0  0  0  0  0  0  0  0
    1.7945   -0.8958    0.5599 H   0  0  0  0  0  0  0  0  0  0  0  0
    1.0677    0.4514    4.9497 H   0  0  0  0  0  0  0  0  0  0  0  0
    2.0866   -0.9792    5.0036 H   0  0  0  0  0  0  0  0  0  0  0  0
    2.9718    1.8912    4.4160 H   0  0  0  0  0  0  0  0  0  0  0  0
    3.5374    0.8087    5.6882 H   0  0  0  0  0  0  0  0  0  0  0  0
    5.3056    0.7748    3.9906 H   0  0  0  0  0  0  0  0  0  0  0  0
    4.5818   -2.0705    4.4323 H   0  0  0  0  0  0  0  0  0  0  0  0
    4.8683   -3.7585    4.6363 H   0  0  0  0  0  0  0  0  0  0  0  0
    7.2731   -5.2983    2.7428 H   0  0  0  0  0  0  0  0  0  0  0  0
    6.1092   -6.5905    2.6507 H   0  0  0  0  0  0  0  0  0  0  0  0
    6.1040   -5.5251    4.0311 H   0  0  0  0  0  0  0  0  0  0  0  0
    5.4364   -5.7426    0.2815 H   0  0  0  0  0  0  0  0  0  0  0  0
    6.2017   -3.9310   -1.1402 H   0  0  0  0  0  0  0  0  0  0  0  0
    3.4406   -7.0452    0.2340 H   0  0  0  0  0  0  0  0  0  0  0  0
    4.1364   -7.2584    1.8154 H   0  0  0  0  0  0  0  0  0  0  0  0
    2.4197   -8.6188    2.4836 H   0  0  0  0  0  0  0  0  0  0  0  0
    1.6824   -8.4719    0.8774 H   0  0  0  0  0  0  0  0  0  0  0  0
  1  2  1  0
  1 28  1  0
  1 29  1  0
  1 30  1  0
  2 27  1  0
  2  3  2  0
  3  4  1  0
  3 31  1  0
  4  5  1  0
  4 26  1  0
  4 32  1  6
  5 20  1  0
  5  6  1  0
  5 33  1  1
  6 19  1  0
  6  7  2  3
  7  8  1  0
  7 34  1  0
  8 15  1  0
  8  9  1  6
  8 10  1  0
  9 35  1  0
 10 11  2  0
 10 12  1  0
 12 13  1  0
 12 36  1  0
 12 37  1  0
 13 14  1  0
 13 38  1  0
 13 39  1  0
 14 15  2  0
 14 40  1  0
 15 16  1  0
 16 17  1  0
 17 24  1  0
 17 18  2  0
 18 19  1  0
 18 20  1  0
 19 41  1  0
 19 42  1  0
 20 21  1  1
 20 22  1  0
 21 43  1  0
 21 44  1  0
 21 45  1  0
 22 23  2  0
 22 46  1  0
 23 24  1  0
 23 47  1  0
 24 25  2  0
 26 27  1  0
 26 48  1  0
 26 49  1  0
 27 50  1  0
 27 51  1  0
M  END
>  <i_m_ct_stereo_status>  (350) 
1

>  <s_m_source_file>  (350) 
/var/tmp/pbs.5076255.sched01/tmp0kxp0nim/126xlotvanm.sdf

>  <i_m_source_file_index>  (350) 
26

>  <i_lp_mmshare_version>  (350) 
48012

>  <i_f3d_flags>  (350) 
0

>  <s_epik_input>  (350) 
W0NIM11DMT1bQ0hdW0NASF0oW0NIMl1bQ0gyXTEpW0NASF0oL0MoPVtDSF0vMilbQ0gyXTMpW0NAQF0oW0NIM10pKFtDSF09W0NIXUM0PU8pQzM9QzRPQyhbQ0BAXTI1W09IXSk9W0NIXVtDSDJdW0NIMl1DNT1P

>  <s_epik_cmdline>  (350) 
J2VwaWtfcHl0aG9uJywgJy1waHQnLCAnMi4wJywgJy1waCcsICc3LjAnLCAnLXRuJywgJzgnLCAnLW1hJywgJzIwMCcsICctaW1hZScsICc8aW5maWxlLm1hZT4nLCAnLW9tYWUnLCAnPG91dGZpbGUubWFlPic=

>  <r_lp_tautomer_probability>  (350) 
1

>  <r_epik_Ionization_Penalty>  (350) 
8.61125e-05

>  <r_epik_Ionization_Penalty_Charging>  (350) 
0

>  <r_epik_Ionization_Penalty_Neutral>  (350) 
8.61125e-05

>  <r_epik_State_Penalty>  (350) 
-0

>  <r_epik_Charging_Adjusted_Penalty>  (350) 
0

>  <i_epik_Tot_Q>  (350) 
0

>  <i_epik_Tot_abs_Q>  (350) 
0

>  <s_lp_Force_Field>  (350) 
OPLS3e

>  <r_lp_Energy>  (350) 
60.707

>  <b_lp_Chiralities_Consistent>  (350) 
1

>  <s_lp_Variant>  (350) 
108:0-1

>  <s_i_glide_gridfile>  (350) 
pfpi4k_grid

>  <i_i_glide_lignum>  (350) 
26

>  <i_i_glide_rotatable_bonds>  (350) 
2

>  <r_i_docking_score>  (350) 
-3.31868

>  <r_i_glide_ligand_efficiency>  (350) 
-0.122914

>  <r_i_glide_ligand_efficiency_sa>  (350) 
-0.368742

>  <r_i_glide_ligand_efficiency_ln>  (350) 
-0.772534

>  <r_i_glide_gscore>  (350) 
-3.31868

>  <r_i_glide_lipo>  (350) 
-0.444081

>  <r_i_glide_hbond>  (350) 
-0.117459

>  <r_i_glide_metal>  (350) 
-0

>  <r_i_glide_rewards>  (350) 
-1.01221

>  <r_i_glide_evdw>  (350) 
-23.2083

>  <r_i_glide_ecoul>  (350) 
-4.75632

>  <r_i_glide_erotb>  (350) 
0.144751

>  <r_i_glide_esite>  (350) 
-0.0158217

>  <r_i_glide_emodel>  (350) 
-33.3979

>  <r_i_glide_energy>  (350) 
-27.9646

>  <r_i_glide_einternal>  (350) 
1.99408

>  <r_i_glide_intrahb_reward>  (350) 
-0

>  <i_i_glide_confnum>  (350) 
1

>  <i_i_glide_posenum>  (350) 
2

>  <r_i_glide_eff_state_penalty>  (350) 
0

>  <ligand_id>  (350) 
108

>  <original_smiles>  (350) 
CC1=CC(C2C3=CC4(O)C(=O)CCC=C4OC4=C(C3)C2(C)C=CC4=O)CC1

>  <smiles>  (350) 
[H]OC12C(=O)C([H])([H])C([H])([H])C([H])=C1OC1=C3C([H])([H])C(=C2[H])C([H])(C2([H])C([H])=C(C([H])([H])[H])C([H])([H])C2([H])[H])C3(C([H])([H])[H])C([H])=C([H])C1=O

$$$$
108:0:2
     RDKit          3D

 51 55  0  0  1  0  0  0  0  0999 V2000
   -0.5992   -7.0654    3.7938 C   0  0  0  0  0  0  0  0  0  0  0  0
    0.5435   -6.6145    2.9208 C   0  0  0  0  0  0  0  0  0  0  0  0
    1.0916   -5.4045    2.8797 C   0  0  0  0  0  0  0  0  0  0  0  0
    2.2285   -5.2850    1.8902 C   0  0  1  0  0  0  0  0  0  0  0  0
    3.5374   -4.8693    2.5847 C   0  0  2  0  0  0  0  0  0  0  0  0
    3.6027   -3.4722    3.2041 C   0  0  0  0  0  0  0  0  0  0  0  0
    2.8378   -2.4260    2.7738 C   0  0  0  0  0  0  0  0  0  0  0  0
    3.2785   -0.9579    2.5719 C   0  0  1  0  0  0  0  0  0  0  0  0
    2.8711   -0.5804    1.2725 O   0  0  0  0  0  0  0  0  0  0  0  0
    2.5618   -0.1162    3.6424 C   0  0  0  0  0  0  0  0  0  0  0  0
    1.4384    0.3715    3.4466 O   0  0  0  0  0  0  0  0  0  0  0  0
    3.2617    0.0332    4.9907 C   0  0  0  0  0  0  0  0  0  0  0  0
    4.6641    0.6443    4.8128 C   0  0  0  0  0  0  0  0  0  0  0  0
    5.4026    0.0629    3.6253 C   0  0  0  0  0  0  0  0  0  0  0  0
    4.8132   -0.6687    2.6581 C   0  0  0  0  0  0  0  0  0  0  0  0
    5.6551   -1.1526    1.6639 O   0  0  0  0  0  0  0  0  0  0  0  0
    5.6535   -2.4845    1.2975 C   0  0  0  0  0  0  0  0  0  0  0  0
    5.4380   -3.5368    2.1576 C   0  0  0  0  0  0  0  0  0  0  0  0
    5.0222   -3.3111    3.5903 C   0  0  0  0  0  0  0  0  0  0  0  0
    4.8819   -4.8914    1.7411 C   0  0  1  0  0  0  0  0  0  0  0  0
    5.8215   -6.0457    2.1751 C   0  0  0  0  0  0  0  0  0  0  0  0
    4.7061   -4.9557    0.2255 C   0  0  0  0  0  0  0  0  0  0  0  0
    5.0979   -4.0048   -0.6436 C   0  0  0  0  0  0  0  0  0  0  0  0
    5.6642   -2.7371   -0.1552 C   0  0  0  0  0  0  0  0  0  0  0  0
    6.1242   -1.8944   -0.9434 O   0  0  0  0  0  0  0  0  0  0  0  0
    2.2808   -6.7125    1.2906 C   0  0  0  0  0  0  0  0  0  0  0  0
    1.1957   -7.5656    1.9565 C   0  0  0  0  0  0  0  0  0  0  0  0
   -1.4287   -7.4243    3.1844 H   0  0  0  0  0  0  0  0  0  0  0  0
   -0.9532   -6.2433    4.4173 H   0  0  0  0  0  0  0  0  0  0  0  0
   -0.2794   -7.8764    4.4490 H   0  0  0  0  0  0  0  0  0  0  0  0
    0.7799   -4.5666    3.4911 H   0  0  0  0  0  0  0  0  0  0  0  0
    1.9589   -4.5780    1.1037 H   0  0  0  0  0  0  0  0  0  0  0  0
    3.6689   -5.5564    3.4285 H   0  0  0  0  0  0  0  0  0  0  0  0
    1.8987   -2.6593    2.2924 H   0  0  0  0  0  0  0  0  0  0  0  0
    1.9651   -0.7863    1.1038 H   0  0  0  0  0  0  0  0  0  0  0  0
    2.6667    0.6266    5.6794 H   0  0  0  0  0  0  0  0  0  0  0  0
    3.3579   -0.9669    5.4180 H   0  0  0  0  0  0  0  0  0  0  0  0
    4.6007    1.7268    4.6704 H   0  0  0  0  0  0  0  0  0  0  0  0
    5.2627    0.4670    5.7111 H   0  0  0  0  0  0  0  0  0  0  0  0
    6.4714    0.2374    3.5905 H   0  0  0  0  0  0  0  0  0  0  0  0
    5.3366   -2.4474    4.1446 H   0  0  0  0  0  0  0  0  0  0  0  0
    5.3316   -4.1659    4.2216 H   0  0  0  0  0  0  0  0  0  0  0  0
    6.7955   -5.9642    1.6949 H   0  0  0  0  0  0  0  0  0  0  0  0
    5.4190   -7.0159    1.8994 H   0  0  0  0  0  0  0  0  0  0  0  0
    5.9889   -6.0753    3.2499 H   0  0  0  0  0  0  0  0  0  0  0  0
    4.3184   -5.8759   -0.1808 H   0  0  0  0  0  0  0  0  0  0  0  0
    4.9944   -4.1385   -1.7056 H   0  0  0  0  0  0  0  0  0  0  0  0
    2.1152   -6.6472    0.2156 H   0  0  0  0  0  0  0  0  0  0  0  0
    3.2443   -7.1935    1.4467 H   0  0  0  0  0  0  0  0  0  0  0  0
    1.6339   -8.4128    2.4870 H   0  0  0  0  0  0  0  0  0  0  0  0
    0.4797   -7.9407    1.2262 H   0  0  0  0  0  0  0  0  0  0  0  0
  1  2  1  0
  1 28  1  0
  1 29  1  0
  1 30  1  0
  2 27  1  0
  2  3  2  0
  3  4  1  0
  3 31  1  0
  4  5  1  0
  4 26  1  0
  4 32  1  6
  5 20  1  0
  5  6  1  0
  5 33  1  1
  6 19  1  0
  6  7  2  3
  7  8  1  0
  7 34  1  0
  8 15  1  0
  8  9  1  6
  8 10  1  0
  9 35  1  0
 10 11  2  0
 10 12  1  0
 12 13  1  0
 12 36  1  0
 12 37  1  0
 13 14  1  0
 13 38  1  0
 13 39  1  0
 14 15  2  0
 14 40  1  0
 15 16  1  0
 16 17  1  0
 17 24  1  0
 17 18  2  0
 18 19  1  0
 18 20  1  0
 19 41  1  0
 19 42  1  0
 20 21  1  1
 20 22  1  0
 21 43  1  0
 21 44  1  0
 21 45  1  0
 22 23  2  0
 22 46  1  0
 23 24  1  0
 23 47  1  0
 24 25  2  0
 26 27  1  0
 26 48  1  0
 26 49  1  0
 27 50  1  0
 27 51  1  0
M  END
>  <i_m_ct_stereo_status>  (351) 
1

>  <s_m_source_file>  (351) 
/var/tmp/pbs.5076255.sched01/tmp0kxp0nim/126xlotvanm.sdf

>  <i_m_source_file_index>  (351) 
26

>  <i_lp_mmshare_version>  (351) 
48012

>  <i_f3d_flags>  (351) 
0

>  <s_epik_input>  (351) 
W0NIM11DMT1bQ0hdW0NASF0oW0NIMl1bQ0gyXTEpW0NASF0oL0MoPVtDSF0vMilbQ0gyXTMpW0NAQF0oW0NIM10pKFtDSF09W0NIXUM0PU8pQzM9QzRPQyhbQ0BAXTI1W09IXSk9W0NIXVtDSDJdW0NIMl1DNT1P

>  <s_epik_cmdline>  (351) 
J2VwaWtfcHl0aG9uJywgJy1waHQnLCAnMi4wJywgJy1waCcsICc3LjAnLCAnLXRuJywgJzgnLCAnLW1hJywgJzIwMCcsICctaW1hZScsICc8aW5maWxlLm1hZT4nLCAnLW9tYWUnLCAnPG91dGZpbGUubWFlPic=

>  <r_lp_tautomer_probability>  (351) 
1

>  <r_epik_Ionization_Penalty>  (351) 
8.61125e-05

>  <r_epik_Ionization_Penalty_Charging>  (351) 
0

>  <r_epik_Ionization_Penalty_Neutral>  (351) 
8.61125e-05

>  <r_epik_State_Penalty>  (351) 
-0

>  <r_epik_Charging_Adjusted_Penalty>  (351) 
0

>  <i_epik_Tot_Q>  (351) 
0

>  <i_epik_Tot_abs_Q>  (351) 
0

>  <s_lp_Force_Field>  (351) 
OPLS3e

>  <r_lp_Energy>  (351) 
60.707

>  <b_lp_Chiralities_Consistent>  (351) 
1

>  <s_lp_Variant>  (351) 
108:0-1

>  <s_i_glide_gridfile>  (351) 
pfpi4k_grid

>  <i_i_glide_lignum>  (351) 
26

>  <i_i_glide_rotatable_bonds>  (351) 
2

>  <r_i_docking_score>  (351) 
-3.2901

>  <r_i_glide_ligand_efficiency>  (351) 
-0.121856

>  <r_i_glide_ligand_efficiency_sa>  (351) 
-0.365567

>  <r_i_glide_ligand_efficiency_ln>  (351) 
-0.765882

>  <r_i_glide_gscore>  (351) 
-3.2901

>  <r_i_glide_lipo>  (351) 
-0.560665

>  <r_i_glide_hbond>  (351) 
-0.0821816

>  <r_i_glide_metal>  (351) 
-0

>  <r_i_glide_rewards>  (351) 
-0.946633

>  <r_i_glide_evdw>  (351) 
-25.7521

>  <r_i_glide_ecoul>  (351) 
-3.71187

>  <r_i_glide_erotb>  (351) 
0.144751

>  <r_i_glide_esite>  (351) 
-0.000987928

>  <r_i_glide_emodel>  (351) 
-34.7222

>  <r_i_glide_energy>  (351) 
-29.464

>  <r_i_glide_einternal>  (351) 
2.3961

>  <r_i_glide_intrahb_reward>  (351) 
-0

>  <i_i_glide_confnum>  (351) 
1

>  <i_i_glide_posenum>  (351) 
29

>  <r_i_glide_eff_state_penalty>  (351) 
0

>  <ligand_id>  (351) 
108

>  <original_smiles>  (351) 
CC1=CC(C2C3=CC4(O)C(=O)CCC=C4OC4=C(C3)C2(C)C=CC4=O)CC1

>  <smiles>  (351) 
[H]OC12C(=O)C([H])([H])C([H])([H])C([H])=C1OC1=C3C([H])([H])C(=C2[H])C([H])(C2([H])C([H])=C(C([H])([H])[H])C([H])([H])C2([H])[H])C3(C([H])([H])[H])C([H])=C([H])C1=O

$$$$
108:1:0
     RDKit          3D

 51 55  0  0  1  0  0  0  0  0999 V2000
    5.0128   -3.6119   -1.5737 C   0  0  0  0  0  0  0  0  0  0  0  0
    4.4882   -3.2753   -0.1971 C   0  0  0  0  0  0  0  0  0  0  0  0
    3.8666   -4.1052    0.6366 C   0  0  0  0  0  0  0  0  0  0  0  0
    3.4900   -3.4564    1.9462 C   0  0  1  0  0  0  0  0  0  0  0  0
    4.1516   -4.1680    3.1509 C   0  0  2  0  0  0  0  0  0  0  0  0
    3.9613   -5.7015    3.2891 C   0  0  0  0  0  0  0  0  0  0  0  0
    2.9602   -6.5178    2.8814 C   0  0  0  0  0  0  0  0  0  0  0  0
    1.4752   -6.3595    3.2494 C   0  0  1  0  0  0  0  0  0  0  0  0
    1.0267   -5.0239    3.1649 O   0  0  0  0  0  0  0  0  0  0  0  0
    0.6715   -7.1622    2.1960 C   0  0  0  0  0  0  0  0  0  0  0  0
    0.2186   -6.6395    1.1725 O   0  0  0  0  0  0  0  0  0  0  0  0
    0.4539   -8.6447    2.4809 C   0  0  0  0  0  0  0  0  0  0  0  0
   -0.2113   -8.8446    3.8486 C   0  0  0  0  0  0  0  0  0  0  0  0
    0.4439   -8.0075    4.9271 C   0  0  0  0  0  0  0  0  0  0  0  0
    1.2105   -6.9200    4.6913 C   0  0  0  0  0  0  0  0  0  0  0  0
    1.8240   -6.3673    5.8144 O   0  0  0  0  0  0  0  0  0  0  0  0
    2.3585   -5.1016    5.8095 C   0  0  0  0  0  0  0  0  0  0  0  0
    3.5890   -4.8739    5.2903 C   0  0  0  0  0  0  0  0  0  0  0  0
    4.4231   -5.9796    4.6875 C   0  0  0  0  0  0  0  0  0  0  0  0
    3.9540   -3.5744    4.5901 C   0  0  1  0  0  0  0  0  0  0  0  0
    5.2531   -2.9685    5.1697 C   0  0  0  0  0  0  0  0  0  0  0  0
    2.8442   -2.5317    4.7227 C   0  0  0  0  0  0  0  0  0  0  0  0
    1.7192   -2.6957    5.4396 C   0  0  0  0  0  0  0  0  0  0  0  0
    1.4213   -3.9893    6.0714 C   0  0  0  0  0  0  0  0  0  0  0  0
    0.4101   -4.1425    6.7558 O   0  0  0  0  0  0  0  0  0  0  0  0
    3.9941   -1.9988    1.7686 C   0  0  0  0  0  0  0  0  0  0  0  0
    4.6425   -1.8935    0.3762 C   0  0  0  0  0  0  0  0  0  0  0  0
    4.5516   -2.9656   -2.3196 H   0  0  0  0  0  0  0  0  0  0  0  0
    4.7809   -4.6469   -1.8242 H   0  0  0  0  0  0  0  0  0  0  0  0
    6.0937   -3.4824   -1.6133 H   0  0  0  0  0  0  0  0  0  0  0  0
    3.6513   -5.1414    0.4238 H   0  0  0  0  0  0  0  0  0  0  0  0
    2.4048   -3.4278    2.0047 H   0  0  0  0  0  0  0  0  0  0  0  0
    5.2222   -4.0892    2.9485 H   0  0  0  0  0  0  0  0  0  0  0  0
    3.1782   -7.5412    3.1548 H   0  0  0  0  0  0  0  0  0  0  0  0
    1.5542   -4.4911    3.7438 H   0  0  0  0  0  0  0  0  0  0  0  0
   -0.1439   -9.0962    1.6907 H   0  0  0  0  0  0  0  0  0  0  0  0
    1.4259   -9.1356    2.4674 H   0  0  0  0  0  0  0  0  0  0  0  0
   -1.2783   -8.6144    3.8050 H   0  0  0  0  0  0  0  0  0  0  0  0
   -0.1349   -9.8961    4.1347 H   0  0  0  0  0  0  0  0  0  0  0  0
    0.2864   -8.3434    5.9384 H   0  0  0  0  0  0  0  0  0  0  0  0
    4.2186   -6.9835    5.0696 H   0  0  0  0  0  0  0  0  0  0  0  0
    5.4909   -5.7709    4.7797 H   0  0  0  0  0  0  0  0  0  0  0  0
    5.1338   -2.7006    6.2185 H   0  0  0  0  0  0  0  0  0  0  0  0
    5.5283   -2.0614    4.6389 H   0  0  0  0  0  0  0  0  0  0  0  0
    6.1046   -3.6439    5.1000 H   0  0  0  0  0  0  0  0  0  0  0  0
    3.0305   -1.5721    4.2730 H   0  0  0  0  0  0  0  0  0  0  0  0
    0.9962   -1.8986    5.5457 H   0  0  0  0  0  0  0  0  0  0  0  0
    3.1614   -1.2990    1.8634 H   0  0  0  0  0  0  0  0  0  0  0  0
    4.7254   -1.7227    2.5271 H   0  0  0  0  0  0  0  0  0  0  0  0
    5.6963   -1.6238    0.4555 H   0  0  0  0  0  0  0  0  0  0  0  0
    4.1310   -1.1543   -0.2425 H   0  0  0  0  0  0  0  0  0  0  0  0
  1  2  1  0
  1 28  1  0
  1 29  1  0
  1 30  1  0
  2 27  1  0
  2  3  2  0
  3  4  1  0
  3 31  1  0
  4  5  1  0
  4 26  1  0
  4 32  1  1
  5 20  1  0
  5  6  1  0
  5 33  1  6
  6 19  1  0
  6  7  2  3
  7  8  1  0
  7 34  1  0
  8 15  1  0
  8  9  1  1
  8 10  1  0
  9 35  1  0
 10 11  2  0
 10 12  1  0
 12 13  1  0
 12 36  1  0
 12 37  1  0
 13 14  1  0
 13 38  1  0
 13 39  1  0
 14 15  2  0
 14 40  1  0
 15 16  1  0
 16 17  1  0
 17 24  1  0
 17 18  2  0
 18 19  1  0
 18 20  1  0
 19 41  1  0
 19 42  1  0
 20 21  1  1
 20 22  1  0
 21 43  1  0
 21 44  1  0
 21 45  1  0
 22 23  2  0
 22 46  1  0
 23 24  1  0
 23 47  1  0
 24 25  2  0
 26 27  1  0
 26 48  1  0
 26 49  1  0
 27 50  1  0
 27 51  1  0
M  END
>  <i_m_ct_stereo_status>  (352) 
1

>  <s_m_source_file>  (352) 
/var/tmp/pbs.5076255.sched01/tmp0kxp0nim/126xlotvanm.sdf

>  <i_m_source_file_index>  (352) 
27

>  <i_lp_mmshare_version>  (352) 
48012

>  <i_f3d_flags>  (352) 
0

>  <s_epik_input>  (352) 
W0NIM11DMT1bQ0hdW0NASF0oW0NIMl1bQ0gyXTEpW0NASF0oL0MoPVtDSF0vMilbQ0gyXTMpW0NAQF0oW0NIM10pKFtDSF09W0NIXUM0PU8pQzM9QzRPQyhbQ0BAXTI1W09IXSk9W0NIXVtDSDJdW0NIMl1DNT1P

>  <s_epik_cmdline>  (352) 
J2VwaWtfcHl0aG9uJywgJy1waHQnLCAnMi4wJywgJy1waCcsICc3LjAnLCAnLXRuJywgJzgnLCAnLW1hJywgJzIwMCcsICctaW1hZScsICc8aW5maWxlLm1hZT4nLCAnLW9tYWUnLCAnPG91dGZpbGUubWFlPic=

>  <r_lp_tautomer_probability>  (352) 
1

>  <r_epik_Ionization_Penalty>  (352) 
8.61125e-05

>  <r_epik_Ionization_Penalty_Charging>  (352) 
0

>  <r_epik_Ionization_Penalty_Neutral>  (352) 
8.61125e-05

>  <r_epik_State_Penalty>  (352) 
-0

>  <r_epik_Charging_Adjusted_Penalty>  (352) 
0

>  <i_epik_Tot_Q>  (352) 
0

>  <i_epik_Tot_abs_Q>  (352) 
0

>  <s_lp_Force_Field>  (352) 
OPLS3e

>  <r_lp_Energy>  (352) 
86.6157

>  <b_lp_Chiralities_Consistent>  (352) 
1

>  <s_lp_Variant>  (352) 
108:0-2

>  <s_i_glide_gridfile>  (352) 
pfpi4k_grid

>  <i_i_glide_lignum>  (352) 
27

>  <i_i_glide_rotatable_bonds>  (352) 
2

>  <r_i_docking_score>  (352) 
-2.71966

>  <r_i_glide_ligand_efficiency>  (352) 
-0.100728

>  <r_i_glide_ligand_efficiency_sa>  (352) 
-0.302185

>  <r_i_glide_ligand_efficiency_ln>  (352) 
-0.633092

>  <r_i_glide_gscore>  (352) 
-2.71966

>  <r_i_glide_lipo>  (352) 
-0.0935237

>  <r_i_glide_hbond>  (352) 
-0.151035

>  <r_i_glide_metal>  (352) 
-0

>  <r_i_glide_rewards>  (352) 
-0.924312

>  <r_i_glide_evdw>  (352) 
-22.3342

>  <r_i_glide_ecoul>  (352) 
-3.4846

>  <r_i_glide_erotb>  (352) 
0.144751

>  <r_i_glide_esite>  (352) 
-0.0561433

>  <r_i_glide_emodel>  (352) 
-30.8622

>  <r_i_glide_energy>  (352) 
-25.8188

>  <r_i_glide_einternal>  (352) 
0.0578387

>  <r_i_glide_intrahb_reward>  (352) 
-0

>  <i_i_glide_confnum>  (352) 
3

>  <i_i_glide_posenum>  (352) 
7

>  <r_i_glide_eff_state_penalty>  (352) 
0

>  <ligand_id>  (352) 
108

>  <original_smiles>  (352) 
CC1=CC(C2C3=CC4(O)C(=O)CCC=C4OC4=C(C3)C2(C)C=CC4=O)CC1

>  <smiles>  (352) 
[H]OC12C(=O)C([H])([H])C([H])([H])C([H])=C1OC1=C3C([H])([H])C(=C2[H])C([H])(C2([H])C([H])=C(C([H])([H])[H])C([H])([H])C2([H])[H])C3(C([H])([H])[H])C([H])=C([H])C1=O

$$$$
108:1:1
     RDKit          3D

 51 55  0  0  1  0  0  0  0  0999 V2000
   -3.6832    3.2612    2.4725 C   0  0  0  0  0  0  0  0  0  0  0  0
   -2.3978    3.0930    3.2390 C   0  0  0  0  0  0  0  0  0  0  0  0
   -1.6035    2.0263    3.3078 C   0  0  0  0  0  0  0  0  0  0  0  0
   -0.3884    2.2458    4.1795 C   0  0  1  0  0  0  0  0  0  0  0  0
    0.9250    2.0553    3.3892 C   0  0  2  0  0  0  0  0  0  0  0  0
    1.2238    0.6513    2.8173 C   0  0  0  0  0  0  0  0  0  0  0  0
    0.8793   -0.5825    3.2800 C   0  0  0  0  0  0  0  0  0  0  0  0
    1.1747   -1.1425    4.6803 C   0  0  1  0  0  0  0  0  0  0  0  0
    0.9328   -0.2084    5.7125 O   0  0  0  0  0  0  0  0  0  0  0  0
    0.2079   -2.3270    4.8956 C   0  0  0  0  0  0  0  0  0  0  0  0
   -0.9159   -2.1731    5.4141 O   0  0  0  0  0  0  0  0  0  0  0  0
    0.6437   -3.6969    4.4047 C   0  0  0  0  0  0  0  0  0  0  0  0
    2.0037   -4.0758    5.0057 C   0  0  0  0  0  0  0  0  0  0  0  0
    2.9987   -2.9361    4.9256 C   0  0  0  0  0  0  0  0  0  0  0  0
    2.6598   -1.6447    4.7561 C   0  0  0  0  0  0  0  0  0  0  0  0
    3.7459   -0.7721    4.5840 O   0  0  0  0  0  0  0  0  0  0  0  0
    3.6102    0.5847    4.7274 C   0  0  0  0  0  0  0  0  0  0  0  0
    3.1060    1.3560    3.7209 C   0  0  0  0  0  0  0  0  0  0  0  0
    2.6650    0.7155    2.4186 C   0  0  0  0  0  0  0  0  0  0  0  0
    2.2831    2.5950    3.9717 C   0  0  1  0  0  0  0  0  0  0  0  0
    2.8110    3.8102    3.1697 C   0  0  0  0  0  0  0  0  0  0  0  0
    2.2732    2.9694    5.4528 C   0  0  0  0  0  0  0  0  0  0  0  0
    2.9511    2.3353    6.4181 C   0  0  0  0  0  0  0  0  0  0  0  0
    3.7071    1.1188    6.1021 C   0  0  0  0  0  0  0  0  0  0  0  0
    4.3777    0.5444    6.9678 O   0  0  0  0  0  0  0  0  0  0  0  0
   -0.5872    3.7064    4.6643 C   0  0  0  0  0  0  0  0  0  0  0  0
   -1.8739    4.2216    4.0616 C   0  0  0  0  0  0  0  0  0  0  0  0
   -4.5101    3.4807    3.1449 H   0  0  0  0  0  0  0  0  0  0  0  0
   -3.9117    2.3445    1.9317 H   0  0  0  0  0  0  0  0  0  0  0  0
   -3.6138    4.0557    1.7372 H   0  0  0  0  0  0  0  0  0  0  0  0
   -1.7844    1.0885    2.8015 H   0  0  0  0  0  0  0  0  0  0  0  0
   -0.4947    1.5981    5.0379 H   0  0  0  0  0  0  0  0  0  0  0  0
    0.7725    2.6398    2.4743 H   0  0  0  0  0  0  0  0  0  0  0  0
    1.2727   -1.3391    2.6146 H   0  0  0  0  0  0  0  0  0  0  0  0
    1.4565    0.5550    5.5749 H   0  0  0  0  0  0  0  0  0  0  0  0
   -0.1053   -4.4493    4.6321 H   0  0  0  0  0  0  0  0  0  0  0  0
    0.7303   -3.6486    3.3162 H   0  0  0  0  0  0  0  0  0  0  0  0
    1.8945   -4.3918    6.0466 H   0  0  0  0  0  0  0  0  0  0  0  0
    2.4148   -4.9270    4.4587 H   0  0  0  0  0  0  0  0  0  0  0  0
    4.0390   -3.2174    4.9967 H   0  0  0  0  0  0  0  0  0  0  0  0
    3.1470   -0.2112    2.1448 H   0  0  0  0  0  0  0  0  0  0  0  0
    2.7776    1.4354    1.5853 H   0  0  0  0  0  0  0  0  0  0  0  0
    3.8085    4.0752    3.4910 H   0  0  0  0  0  0  0  0  0  0  0  0
    2.1855    4.6872    3.3063 H   0  0  0  0  0  0  0  0  0  0  0  0
    2.8492    3.6285    2.0961 H   0  0  0  0  0  0  0  0  0  0  0  0
    1.7697    3.8802    5.7342 H   0  0  0  0  0  0  0  0  0  0  0  0
    2.9362    2.6819    7.4360 H   0  0  0  0  0  0  0  0  0  0  0  0
   -0.6140    3.7431    5.7573 H   0  0  0  0  0  0  0  0  0  0  0  0
    0.1944    4.3830    4.3188 H   0  0  0  0  0  0  0  0  0  0  0  0
   -1.6610    5.0743    3.4149 H   0  0  0  0  0  0  0  0  0  0  0  0
   -2.5817    4.4851    4.8481 H   0  0  0  0  0  0  0  0  0  0  0  0
  1  2  1  0
  1 28  1  0
  1 29  1  0
  1 30  1  0
  2 27  1  0
  2  3  2  0
  3  4  1  0
  3 31  1  0
  4  5  1  0
  4 26  1  0
  4 32  1  1
  5 20  1  0
  5  6  1  0
  5 33  1  6
  6 19  1  0
  6  7  2  3
  7  8  1  0
  7 34  1  0
  8 15  1  0
  8  9  1  1
  8 10  1  0
  9 35  1  0
 10 11  2  0
 10 12  1  0
 12 13  1  0
 12 36  1  0
 12 37  1  0
 13 14  1  0
 13 38  1  0
 13 39  1  0
 14 15  2  0
 14 40  1  0
 15 16  1  0
 16 17  1  0
 17 24  1  0
 17 18  2  0
 18 19  1  0
 18 20  1  0
 19 41  1  0
 19 42  1  0
 20 21  1  6
 20 22  1  0
 21 43  1  0
 21 44  1  0
 21 45  1  0
 22 23  2  0
 22 46  1  0
 23 24  1  0
 23 47  1  0
 24 25  2  0
 26 27  1  0
 26 48  1  0
 26 49  1  0
 27 50  1  0
 27 51  1  0
M  END
>  <i_m_ct_stereo_status>  (353) 
1

>  <s_m_source_file>  (353) 
/var/tmp/pbs.5076255.sched01/tmp0kxp0nim/126xlotvanm.sdf

>  <i_m_source_file_index>  (353) 
27

>  <i_lp_mmshare_version>  (353) 
48012

>  <i_f3d_flags>  (353) 
0

>  <s_epik_input>  (353) 
W0NIM11DMT1bQ0hdW0NASF0oW0NIMl1bQ0gyXTEpW0NASF0oL0MoPVtDSF0vMilbQ0gyXTMpW0NAQF0oW0NIM10pKFtDSF09W0NIXUM0PU8pQzM9QzRPQyhbQ0BAXTI1W09IXSk9W0NIXVtDSDJdW0NIMl1DNT1P

>  <s_epik_cmdline>  (353) 
J2VwaWtfcHl0aG9uJywgJy1waHQnLCAnMi4wJywgJy1waCcsICc3LjAnLCAnLXRuJywgJzgnLCAnLW1hJywgJzIwMCcsICctaW1hZScsICc8aW5maWxlLm1hZT4nLCAnLW9tYWUnLCAnPG91dGZpbGUubWFlPic=

>  <r_lp_tautomer_probability>  (353) 
1

>  <r_epik_Ionization_Penalty>  (353) 
8.61125e-05

>  <r_epik_Ionization_Penalty_Charging>  (353) 
0

>  <r_epik_Ionization_Penalty_Neutral>  (353) 
8.61125e-05

>  <r_epik_State_Penalty>  (353) 
-0

>  <r_epik_Charging_Adjusted_Penalty>  (353) 
0

>  <i_epik_Tot_Q>  (353) 
0

>  <i_epik_Tot_abs_Q>  (353) 
0

>  <s_lp_Force_Field>  (353) 
OPLS3e

>  <r_lp_Energy>  (353) 
86.6157

>  <b_lp_Chiralities_Consistent>  (353) 
1

>  <s_lp_Variant>  (353) 
108:0-2

>  <s_i_glide_gridfile>  (353) 
pfpi4k_grid

>  <i_i_glide_lignum>  (353) 
27

>  <i_i_glide_rotatable_bonds>  (353) 
2

>  <r_i_docking_score>  (353) 
-2.50482

>  <r_i_glide_ligand_efficiency>  (353) 
-0.0927713

>  <r_i_glide_ligand_efficiency_sa>  (353) 
-0.278314

>  <r_i_glide_ligand_efficiency_ln>  (353) 
-0.583082

>  <r_i_glide_gscore>  (353) 
-2.50482

>  <r_i_glide_lipo>  (353) 
-0.122199

>  <r_i_glide_hbond>  (353) 
0

>  <r_i_glide_metal>  (353) 
-0

>  <r_i_glide_rewards>  (353) 
-0.954133

>  <r_i_glide_evdw>  (353) 
-22.2418

>  <r_i_glide_ecoul>  (353) 
-3.07435

>  <r_i_glide_erotb>  (353) 
0.144751

>  <r_i_glide_esite>  (353) 
0

>  <r_i_glide_emodel>  (353) 
-28.6687

>  <r_i_glide_energy>  (353) 
-25.3162

>  <r_i_glide_einternal>  (353) 
1.8252

>  <r_i_glide_intrahb_reward>  (353) 
-0

>  <i_i_glide_confnum>  (353) 
1

>  <i_i_glide_posenum>  (353) 
25

>  <r_i_glide_eff_state_penalty>  (353) 
0

>  <ligand_id>  (353) 
108

>  <original_smiles>  (353) 
CC1=CC(C2C3=CC4(O)C(=O)CCC=C4OC4=C(C3)C2(C)C=CC4=O)CC1

>  <smiles>  (353) 
[H]OC12C(=O)C([H])([H])C([H])([H])C([H])=C1OC1=C3C([H])([H])C(=C2[H])C([H])(C2([H])C([H])=C(C([H])([H])[H])C([H])([H])C2([H])[H])C3(C([H])([H])[H])C([H])=C([H])C1=O

$$$$
108:1:2
     RDKit          3D

 51 55  0  0  1  0  0  0  0  0999 V2000
   -4.1469    3.2227    1.9283 C   0  0  0  0  0  0  0  0  0  0  0  0
   -2.8052    3.3734    2.6272 C   0  0  0  0  0  0  0  0  0  0  0  0
   -2.0060    2.4314    3.1296 C   0  0  0  0  0  0  0  0  0  0  0  0
   -0.7888    2.9750    3.8502 C   0  0  1  0  0  0  0  0  0  0  0  0
    0.5350    2.5011    3.2063 C   0  0  2  0  0  0  0  0  0  0  0  0
    0.7384    0.9976    2.9576 C   0  0  0  0  0  0  0  0  0  0  0  0
    0.2530   -0.0749    3.6423 C   0  0  0  0  0  0  0  0  0  0  0  0
    0.4339   -0.3197    5.1389 C   0  0  1  0  0  0  0  0  0  0  0  0
    0.2277    0.8367    5.9190 O   0  0  0  0  0  0  0  0  0  0  0  0
   -0.6419   -1.3478    5.5309 C   0  0  0  0  0  0  0  0  0  0  0  0
   -1.7720   -0.9956    5.9169 O   0  0  0  0  0  0  0  0  0  0  0  0
   -0.3088   -2.8188    5.3900 C   0  0  0  0  0  0  0  0  0  0  0  0
    0.9797   -3.1635    6.1425 C   0  0  0  0  0  0  0  0  0  0  0  0
    2.0752   -2.1516    5.8799 C   0  0  0  0  0  0  0  0  0  0  0  0
    1.8648   -0.9044    5.4156 C   0  0  0  0  0  0  0  0  0  0  0  0
    3.0370   -0.1833    5.1210 O   0  0  0  0  0  0  0  0  0  0  0  0
    3.0167    1.1812    4.9590 C   0  0  0  0  0  0  0  0  0  0  0  0
    2.6316    1.7494    3.7792 C   0  0  0  0  0  0  0  0  0  0  0  0
    2.1916    0.8579    2.6348 C   0  0  0  0  0  0  0  0  0  0  0  0
    1.9019    3.0645    3.7188 C   0  0  1  0  0  0  0  0  0  0  0  0
    2.5695    4.0348    2.7201 C   0  0  0  0  0  0  0  0  0  0  0  0
    1.8321    3.7612    5.0682 C   0  0  0  0  0  0  0  0  0  0  0  0
    2.4214    3.3168    6.1897 C   0  0  0  0  0  0  0  0  0  0  0  0
    3.0888    2.0062    6.1855 C   0  0  0  0  0  0  0  0  0  0  0  0
    3.6698    1.5850    7.1934 O   0  0  0  0  0  0  0  0  0  0  0  0
   -0.9764    4.5100    3.7246 C   0  0  0  0  0  0  0  0  0  0  0  0
   -2.2454    4.7365    2.8779 C   0  0  0  0  0  0  0  0  0  0  0  0
   -4.9644    3.6874    2.4774 H   0  0  0  0  0  0  0  0  0  0  0  0
   -4.3460    2.1645    1.7740 H   0  0  0  0  0  0  0  0  0  0  0  0
   -4.1721    3.6466    0.9295 H   0  0  0  0  0  0  0  0  0  0  0  0
   -2.1836    1.3703    3.0555 H   0  0  0  0  0  0  0  0  0  0  0  0
   -0.8914    2.7301    4.9025 H   0  0  0  0  0  0  0  0  0  0  0  0
    0.4792    2.8503    2.1719 H   0  0  0  0  0  0  0  0  0  0  0  0
    0.6060   -0.9848    3.1737 H   0  0  0  0  0  0  0  0  0  0  0  0
    0.7877    1.5278    5.6278 H   0  0  0  0  0  0  0  0  0  0  0  0
   -1.1252   -3.4352    5.7474 H   0  0  0  0  0  0  0  0  0  0  0  0
   -0.1804   -3.0319    4.3265 H   0  0  0  0  0  0  0  0  0  0  0  0
    0.7963   -3.2342    7.2195 H   0  0  0  0  0  0  0  0  0  0  0  0
    1.3314   -4.1482    5.8184 H   0  0  0  0  0  0  0  0  0  0  0  0
    3.0793   -2.5024    6.0719 H   0  0  0  0  0  0  0  0  0  0  0  0
    2.5912   -0.1425    2.5952 H   0  0  0  0  0  0  0  0  0  0  0  0
    2.3955    1.3731    1.6717 H   0  0  0  0  0  0  0  0  0  0  0  0
    3.5923    4.2657    3.0066 H   0  0  0  0  0  0  0  0  0  0  0  0
    2.0284    4.9759    2.6475 H   0  0  0  0  0  0  0  0  0  0  0  0
    2.5855    3.6350    1.7125 H   0  0  0  0  0  0  0  0  0  0  0  0
    1.3529    4.7300    5.0778 H   0  0  0  0  0  0  0  0  0  0  0  0
    2.4052    3.8716    7.1105 H   0  0  0  0  0  0  0  0  0  0  0  0
   -1.0575    4.9523    4.7207 H   0  0  0  0  0  0  0  0  0  0  0  0
   -0.1468    5.0096    3.2242 H   0  0  0  0  0  0  0  0  0  0  0  0
   -2.0344    5.3178    1.9781 H   0  0  0  0  0  0  0  0  0  0  0  0
   -2.9877    5.2450    3.4366 H   0  0  0  0  0  0  0  0  0  0  0  0
  1  2  1  0
  1 28  1  0
  1 29  1  0
  1 30  1  0
  2 27  1  0
  2  3  2  0
  3  4  1  0
  3 31  1  0
  4  5  1  0
  4 26  1  0
  4 32  1  1
  5 20  1  0
  5  6  1  0
  5 33  1  6
  6 19  1  0
  6  7  2  3
  7  8  1  0
  7 34  1  0
  8 15  1  0
  8  9  1  1
  8 10  1  0
  9 35  1  0
 10 11  2  0
 10 12  1  0
 12 13  1  0
 12 36  1  0
 12 37  1  0
 13 14  1  0
 13 38  1  0
 13 39  1  0
 14 15  2  0
 14 40  1  0
 15 16  1  0
 16 17  1  0
 17 24  1  0
 17 18  2  0
 18 19  1  0
 18 20  1  0
 19 41  1  0
 19 42  1  0
 20 21  1  6
 20 22  1  0
 21 43  1  0
 21 44  1  0
 21 45  1  0
 22 23  2  0
 22 46  1  0
 23 24  1  0
 23 47  1  0
 24 25  2  0
 26 27  1  0
 26 48  1  0
 26 49  1  0
 27 50  1  0
 27 51  1  0
M  END
>  <i_m_ct_stereo_status>  (354) 
1

>  <s_m_source_file>  (354) 
/var/tmp/pbs.5076255.sched01/tmp0kxp0nim/126xlotvanm.sdf

>  <i_m_source_file_index>  (354) 
27

>  <i_lp_mmshare_version>  (354) 
48012

>  <i_f3d_flags>  (354) 
0

>  <s_epik_input>  (354) 
W0NIM11DMT1bQ0hdW0NASF0oW0NIMl1bQ0gyXTEpW0NASF0oL0MoPVtDSF0vMilbQ0gyXTMpW0NAQF0oW0NIM10pKFtDSF09W0NIXUM0PU8pQzM9QzRPQyhbQ0BAXTI1W09IXSk9W0NIXVtDSDJdW0NIMl1DNT1P

>  <s_epik_cmdline>  (354) 
J2VwaWtfcHl0aG9uJywgJy1waHQnLCAnMi4wJywgJy1waCcsICc3LjAnLCAnLXRuJywgJzgnLCAnLW1hJywgJzIwMCcsICctaW1hZScsICc8aW5maWxlLm1hZT4nLCAnLW9tYWUnLCAnPG91dGZpbGUubWFlPic=

>  <r_lp_tautomer_probability>  (354) 
1

>  <r_epik_Ionization_Penalty>  (354) 
8.61125e-05

>  <r_epik_Ionization_Penalty_Charging>  (354) 
0

>  <r_epik_Ionization_Penalty_Neutral>  (354) 
8.61125e-05

>  <r_epik_State_Penalty>  (354) 
-0

>  <r_epik_Charging_Adjusted_Penalty>  (354) 
0

>  <i_epik_Tot_Q>  (354) 
0

>  <i_epik_Tot_abs_Q>  (354) 
0

>  <s_lp_Force_Field>  (354) 
OPLS3e

>  <r_lp_Energy>  (354) 
86.6157

>  <b_lp_Chiralities_Consistent>  (354) 
1

>  <s_lp_Variant>  (354) 
108:0-2

>  <s_i_glide_gridfile>  (354) 
pfpi4k_grid

>  <i_i_glide_lignum>  (354) 
27

>  <i_i_glide_rotatable_bonds>  (354) 
2

>  <r_i_docking_score>  (354) 
-2.4995

>  <r_i_glide_ligand_efficiency>  (354) 
-0.0925742

>  <r_i_glide_ligand_efficiency_sa>  (354) 
-0.277722

>  <r_i_glide_ligand_efficiency_ln>  (354) 
-0.581843

>  <r_i_glide_gscore>  (354) 
-2.4995

>  <r_i_glide_lipo>  (354) 
-0.0902297

>  <r_i_glide_hbond>  (354) 
-0.0684498

>  <r_i_glide_metal>  (354) 
-0

>  <r_i_glide_rewards>  (354) 
-0.924312

>  <r_i_glide_evdw>  (354) 
-16.7143

>  <r_i_glide_ecoul>  (354) 
-4.60643

>  <r_i_glide_erotb>  (354) 
0.144751

>  <r_i_glide_esite>  (354) 
-0.0345824

>  <r_i_glide_emodel>  (354) 
-25.7162

>  <r_i_glide_energy>  (354) 
-21.3207

>  <r_i_glide_einternal>  (354) 
0.0982277

>  <r_i_glide_intrahb_reward>  (354) 
-0

>  <i_i_glide_confnum>  (354) 
1

>  <i_i_glide_posenum>  (354) 
4

>  <r_i_glide_eff_state_penalty>  (354) 
0

>  <ligand_id>  (354) 
108

>  <original_smiles>  (354) 
CC1=CC(C2C3=CC4(O)C(=O)CCC=C4OC4=C(C3)C2(C)C=CC4=O)CC1

>  <smiles>  (354) 
[H]OC12C(=O)C([H])([H])C([H])([H])C([H])=C1OC1=C3C([H])([H])C(=C2[H])C([H])(C2([H])C([H])=C(C([H])([H])[H])C([H])([H])C2([H])[H])C3(C([H])([H])[H])C([H])=C([H])C1=O

$$$$
111:0:0
     RDKit          3D

 35 38  0  0  1  0  0  0  0  0999 V2000
    6.2091   -1.1584    1.9285 C   0  0  0  0  0  0  0  0  0  0  0  0
    5.8188   -2.2515    1.0396 N   0  0  0  0  0  0  0  0  0  0  0  0
    5.5701   -2.1220   -0.2650 C   0  0  0  0  0  0  0  0  0  0  0  0
    5.7009   -1.0713   -0.9133 O   0  0  0  0  0  0  0  0  0  0  0  0
    5.1117   -3.2904   -0.7571 N   0  0  0  0  0  0  0  0  0  0  0  0
    4.5748   -3.5882   -2.1127 C   0  0  2  0  0  0  0  0  0  0  0  0
    5.3154   -2.8593   -3.2556 C   0  0  0  0  0  0  0  0  0  0  0  0
    4.1985   -2.0171   -3.9496 C   0  0  2  0  0  0  0  0  0  0  0  0
    3.6536   -0.8982   -3.0280 C   0  0  0  0  0  0  0  0  0  0  0  0
    3.0160   -1.7057   -1.9464 N   0  0  0  0  0  0  0  0  0  0  0  0
    3.1205   -3.1190   -2.3665 C   0  0  1  0  0  0  0  0  0  0  0  0
    3.0395   -2.9974   -3.8919 C   0  0  0  0  0  0  0  0  0  0  0  0
    5.1692   -4.2433    0.2894 C   0  0  0  0  0  0  0  0  0  0  0  0
    4.8578   -5.6170    0.2837 C   0  0  0  0  0  0  0  0  0  0  0  0
    5.0663   -6.2740    1.5165 C   0  0  0  0  0  0  0  0  0  0  0  0
    5.5341   -5.5352    2.6371 C   0  0  0  0  0  0  0  0  0  0  0  0
    5.7829   -4.2113    2.6169 N   0  0  0  0  0  0  0  0  0  0  0  0
    5.6141   -3.6003    1.4360 C   0  0  0  0  0  0  0  0  0  0  0  0
    6.0823   -0.1960    1.4293 H   0  0  0  0  0  0  0  0  0  0  0  0
    7.2755   -1.1871    2.0720 H   0  0  0  0  0  0  0  0  0  0  0  0
    5.6375   -1.1455    2.8573 H   0  0  0  0  0  0  0  0  0  0  0  0
    4.6497   -4.6422   -2.3337 H   0  0  0  0  0  0  0  0  0  0  0  0
    6.1593   -2.2810   -2.9188 H   0  0  0  0  0  0  0  0  0  0  0  0
    5.7452   -3.6160   -3.9126 H   0  0  0  0  0  0  0  0  0  0  0  0
    4.4813   -1.6253   -4.9281 H   0  0  0  0  0  0  0  0  0  0  0  0
    4.4656   -0.2437   -2.7047 H   0  0  0  0  0  0  0  0  0  0  0  0
    2.8824   -0.2793   -3.5305 H   0  0  0  0  0  0  0  0  0  0  0  0
    2.0231   -1.4537   -1.7982 H   0  0  0  0  0  0  0  0  0  0  0  0
    2.3599   -3.7806   -1.9401 H   0  0  0  0  0  0  0  0  0  0  0  0
    2.0977   -2.5639   -4.2485 H   0  0  0  0  0  0  0  0  0  0  0  0
    3.2216   -3.9459   -4.4094 H   0  0  0  0  0  0  0  0  0  0  0  0
    4.5001   -6.1488   -0.5972 H   0  0  0  0  0  0  0  0  0  0  0  0
    4.8735   -7.3281    1.6297 H   0  0  0  0  0  0  0  0  0  0  0  0
    5.7157   -5.9915    3.6017 H   0  0  0  0  0  0  0  0  0  0  0  0
    3.4674   -1.5955   -1.0657 H   0  0  0  0  0  0  0  0  0  0  0  0
  1  2  1  0
  1 19  1  0
  1 20  1  0
  1 21  1  0
  2 18  1  0
  2  3  1  0
  3  4  2  0
  3  5  1  0
  5  6  1  0
  5 13  1  0
  6 11  1  0
  6  7  1  0
  6 22  1  6
  7  8  1  0
  7 23  1  0
  7 24  1  0
  8 12  1  0
  8  9  1  0
  8 25  1  6
  9 10  1  0
  9 26  1  0
  9 27  1  0
 10 11  1  0
 10 28  1  0
 10 35  1  0
 11 12  1  0
 11 29  1  1
 12 30  1  0
 12 31  1  0
 13 18  2  0
 13 14  1  0
 14 15  2  0
 14 32  1  0
 15 16  1  0
 15 33  1  0
 16 17  2  0
 16 34  1  0
 17 18  1  0
M  CHG  1  10   1
M  END
>  <i_m_ct_stereo_status>  (355) 
1

>  <s_m_source_file>  (355) 
/var/tmp/pbs.5076255.sched01/tmp0kxp0nim/126xlotvanm.sdf

>  <i_m_source_file_index>  (355) 
30

>  <i_lp_mmshare_version>  (355) 
48012

>  <i_f3d_flags>  (355) 
0

>  <s_epik_input>  (355) 
W2NIXTFbY0hdW2NIXW5jKGMxMiluKFtDSDNdKWMoPU8pbjJbQ0BIXShbQ0gyXVtDQEhdMzQpW0NASF0oW0NIMl00KVtOSF1bQ0gyXTM=

>  <s_epik_cmdline>  (355) 
J2VwaWtfcHl0aG9uJywgJy1waHQnLCAnMi4wJywgJy1waCcsICc3LjAnLCAnLXRuJywgJzgnLCAnLW1hJywgJzIwMCcsICctaW1hZScsICc8aW5maWxlLm1hZT4nLCAnLW9tYWUnLCAnPG91dGZpbGUubWFlPic=

>  <r_epik_Ionization_Penalty>  (355) 
0.00633264

>  <r_epik_Ionization_Penalty_Charging>  (355) 
0.00633264

>  <r_epik_Ionization_Penalty_Neutral>  (355) 
3.03571e-10

>  <r_epik_State_Penalty>  (355) 
0.00467871

>  <r_epik_Charging_Adjusted_Penalty>  (355) 
0.0110114

>  <i_epik_Tot_Q>  (355) 
1

>  <i_epik_Tot_abs_Q>  (355) 
1

>  <s_lp_Force_Field>  (355) 
OPLS3e

>  <r_lp_Energy>  (355) 
46.8364

>  <b_lp_Chiralities_Consistent>  (355) 
1

>  <s_lp_Variant>  (355) 
111:0-1

>  <s_i_glide_gridfile>  (355) 
pfpi4k_grid

>  <i_i_glide_lignum>  (355) 
30

>  <i_i_glide_rotatable_bonds>  (355) 
1

>  <r_i_docking_score>  (355) 
-4.79744

>  <r_i_glide_ligand_efficiency>  (355) 
-0.266524

>  <r_i_glide_ligand_efficiency_sa>  (355) 
-0.698491

>  <r_i_glide_ligand_efficiency_ln>  (355) 
-1.23316

>  <r_i_glide_gscore>  (355) 
-4.79744

>  <r_i_glide_lipo>  (355) 
-0.647584

>  <r_i_glide_hbond>  (355) 
-0.234973

>  <r_i_glide_metal>  (355) 
-0

>  <r_i_glide_rewards>  (355) 
-2.00981

>  <r_i_glide_evdw>  (355) 
-18.8276

>  <r_i_glide_ecoul>  (355) 
-7.68385

>  <r_i_glide_erotb>  (355) 
0.289248

>  <r_i_glide_esite>  (355) 
-0.100362

>  <r_i_glide_emodel>  (355) 
-35.2687

>  <r_i_glide_energy>  (355) 
-26.5115

>  <r_i_glide_einternal>  (355) 
0.554499

>  <r_i_glide_intrahb_reward>  (355) 
-0

>  <i_i_glide_confnum>  (355) 
4

>  <i_i_glide_posenum>  (355) 
14

>  <r_i_glide_eff_state_penalty>  (355) 
0

>  <ligand_id>  (355) 
111

>  <original_smiles>  (355) 
Cn1c(=O)n(C2CC3CNC2C3)c2cccnc21

>  <smiles>  (355) 
[H]c1nc2c(c([H])c1[H])n(C1([H])C([H])([H])C3([H])C([H])([H])C1([H])[N+]([H])([H])C3([H])[H])c(=O)n2C([H])([H])[H]

$$$$
111:0:1
     RDKit          3D

 35 38  0  0  1  0  0  0  0  0999 V2000
    4.7568   -1.4272    3.9946 C   0  0  0  0  0  0  0  0  0  0  0  0
    5.0263   -2.1086    2.7321 N   0  0  0  0  0  0  0  0  0  0  0  0
    5.2384   -1.5218    1.5214 C   0  0  0  0  0  0  0  0  0  0  0  0
    5.2567   -0.3082    1.3207 O   0  0  0  0  0  0  0  0  0  0  0  0
    5.4231   -2.4902    0.6000 N   0  0  0  0  0  0  0  0  0  0  0  0
    5.5952   -2.2774   -0.8671 C   0  0  2  0  0  0  0  0  0  0  0  0
    4.7473   -1.1053   -1.4807 C   0  0  0  0  0  0  0  0  0  0  0  0
    3.8357   -1.8244   -2.4995 C   0  0  2  0  0  0  0  0  0  0  0  0
    2.8753   -2.7554   -1.7279 C   0  0  0  0  0  0  0  0  0  0  0  0
    3.7551   -3.8530   -1.2707 N   0  0  0  0  0  0  0  0  0  0  0  0
    5.1036   -3.4646   -1.7425 C   0  0  1  0  0  0  0  0  0  0  0  0
    4.7886   -2.8496   -3.0904 C   0  0  0  0  0  0  0  0  0  0  0  0
    5.4480   -3.7505    1.2729 C   0  0  0  0  0  0  0  0  0  0  0  0
    5.6498   -5.0637    0.8023 C   0  0  0  0  0  0  0  0  0  0  0  0
    5.4899   -6.0869    1.7712 C   0  0  0  0  0  0  0  0  0  0  0  0
    5.1996   -5.7606    3.1237 C   0  0  0  0  0  0  0  0  0  0  0  0
    5.0423   -4.4887    3.5420 N   0  0  0  0  0  0  0  0  0  0  0  0
    5.1663   -3.5032    2.6171 C   0  0  0  0  0  0  0  0  0  0  0  0
    4.5485   -0.3621    3.8600 H   0  0  0  0  0  0  0  0  0  0  0  0
    5.6188   -1.5113    4.6627 H   0  0  0  0  0  0  0  0  0  0  0  0
    3.8873   -1.8697    4.4900 H   0  0  0  0  0  0  0  0  0  0  0  0
    6.6534   -2.1108   -1.0602 H   0  0  0  0  0  0  0  0  0  0  0  0
    4.1191   -0.5594   -0.7817 H   0  0  0  0  0  0  0  0  0  0  0  0
    5.3964   -0.3862   -1.9889 H   0  0  0  0  0  0  0  0  0  0  0  0
    3.3367   -1.1471   -3.2078 H   0  0  0  0  0  0  0  0  0  0  0  0
    2.4293   -2.2735   -0.8641 H   0  0  0  0  0  0  0  0  0  0  0  0
    2.0759   -3.1652   -2.3447 H   0  0  0  0  0  0  0  0  0  0  0  0
    3.4461   -4.7320   -1.6716 H   0  0  0  0  0  0  0  0  0  0  0  0
    5.7962   -4.2966   -1.8297 H   0  0  0  0  0  0  0  0  0  0  0  0
    4.3150   -3.5523   -3.7807 H   0  0  0  0  0  0  0  0  0  0  0  0
    5.6807   -2.4259   -3.5281 H   0  0  0  0  0  0  0  0  0  0  0  0
    5.8668   -5.3042   -0.2257 H   0  0  0  0  0  0  0  0  0  0  0  0
    5.5613   -7.1106    1.4761 H   0  0  0  0  0  0  0  0  0  0  0  0
    5.0881   -6.5424    3.8691 H   0  0  0  0  0  0  0  0  0  0  0  0
    3.7722   -3.8806   -0.2607 H   0  0  0  0  0  0  0  0  0  0  0  0
  1  2  1  0
  1 19  1  0
  1 20  1  0
  1 21  1  0
  2 18  1  0
  2  3  1  0
  3  4  2  0
  3  5  1  0
  5  6  1  0
  5 13  1  0
  6 11  1  0
  6  7  1  0
  6 22  1  1
  7  8  1  0
  7 23  1  0
  7 24  1  0
  8 12  1  0
  8  9  1  0
  8 25  1  6
  9 10  1  0
  9 26  1  0
  9 27  1  0
 10 11  1  0
 10 28  1  0
 10 35  1  0
 11 12  1  0
 11 29  1  6
 12 30  1  0
 12 31  1  0
 13 18  2  0
 13 14  1  0
 14 15  2  0
 14 32  1  0
 15 16  1  0
 15 33  1  0
 16 17  2  0
 16 34  1  0
 17 18  1  0
M  CHG  1  10   1
M  END
>  <i_m_ct_stereo_status>  (356) 
1

>  <s_m_source_file>  (356) 
/var/tmp/pbs.5076255.sched01/tmp0kxp0nim/126xlotvanm.sdf

>  <i_m_source_file_index>  (356) 
30

>  <i_lp_mmshare_version>  (356) 
48012

>  <i_f3d_flags>  (356) 
0

>  <s_epik_input>  (356) 
W2NIXTFbY0hdW2NIXW5jKGMxMiluKFtDSDNdKWMoPU8pbjJbQ0BIXShbQ0gyXVtDQEhdMzQpW0NASF0oW0NIMl00KVtOSF1bQ0gyXTM=

>  <s_epik_cmdline>  (356) 
J2VwaWtfcHl0aG9uJywgJy1waHQnLCAnMi4wJywgJy1waCcsICc3LjAnLCAnLXRuJywgJzgnLCAnLW1hJywgJzIwMCcsICctaW1hZScsICc8aW5maWxlLm1hZT4nLCAnLW9tYWUnLCAnPG91dGZpbGUubWFlPic=

>  <r_epik_Ionization_Penalty>  (356) 
0.00633264

>  <r_epik_Ionization_Penalty_Charging>  (356) 
0.00633264

>  <r_epik_Ionization_Penalty_Neutral>  (356) 
3.03571e-10

>  <r_epik_State_Penalty>  (356) 
0.00467871

>  <r_epik_Charging_Adjusted_Penalty>  (356) 
0.0110114

>  <i_epik_Tot_Q>  (356) 
1

>  <i_epik_Tot_abs_Q>  (356) 
1

>  <s_lp_Force_Field>  (356) 
OPLS3e

>  <r_lp_Energy>  (356) 
46.8364

>  <b_lp_Chiralities_Consistent>  (356) 
1

>  <s_lp_Variant>  (356) 
111:0-1

>  <s_i_glide_gridfile>  (356) 
pfpi4k_grid

>  <i_i_glide_lignum>  (356) 
30

>  <i_i_glide_rotatable_bonds>  (356) 
1

>  <r_i_docking_score>  (356) 
-4.13725

>  <r_i_glide_ligand_efficiency>  (356) 
-0.229847

>  <r_i_glide_ligand_efficiency_sa>  (356) 
-0.602371

>  <r_i_glide_ligand_efficiency_ln>  (356) 
-1.06346

>  <r_i_glide_gscore>  (356) 
-4.13725

>  <r_i_glide_lipo>  (356) 
-0.454431

>  <r_i_glide_hbond>  (356) 
-0.102799

>  <r_i_glide_metal>  (356) 
-0

>  <r_i_glide_rewards>  (356) 
-2.07431

>  <r_i_glide_evdw>  (356) 
-17.4148

>  <r_i_glide_ecoul>  (356) 
-6.02871

>  <r_i_glide_erotb>  (356) 
0.289248

>  <r_i_glide_esite>  (356) 
-0.019917

>  <r_i_glide_emodel>  (356) 
-29.1801

>  <r_i_glide_energy>  (356) 
-23.4435

>  <r_i_glide_einternal>  (356) 
4.72759

>  <r_i_glide_intrahb_reward>  (356) 
-0

>  <i_i_glide_confnum>  (356) 
4

>  <i_i_glide_posenum>  (356) 
36

>  <r_i_glide_eff_state_penalty>  (356) 
0

>  <ligand_id>  (356) 
111

>  <original_smiles>  (356) 
Cn1c(=O)n(C2CC3CNC2C3)c2cccnc21

>  <smiles>  (356) 
[H]c1nc2c(c([H])c1[H])n(C1([H])C([H])([H])C3([H])C([H])([H])C1([H])[N+]([H])([H])C3([H])[H])c(=O)n2C([H])([H])[H]

$$$$
111:0:2
     RDKit          3D

 35 38  0  0  1  0  0  0  0  0999 V2000
    2.7269   -0.7481    3.0146 C   0  0  0  0  0  0  0  0  0  0  0  0
    3.2265   -1.6396    1.9669 N   0  0  0  0  0  0  0  0  0  0  0  0
    4.0146   -1.2792    0.9361 C   0  0  0  0  0  0  0  0  0  0  0  0
    4.4674   -0.1515    0.7355 O   0  0  0  0  0  0  0  0  0  0  0  0
    4.2474   -2.3787    0.1678 N   0  0  0  0  0  0  0  0  0  0  0  0
    5.0124   -2.4214   -1.1036 C   0  0  2  0  0  0  0  0  0  0  0  0
    4.8403   -1.1543   -2.0195 C   0  0  0  0  0  0  0  0  0  0  0  0
    4.2064   -1.7164   -3.3086 C   0  0  2  0  0  0  0  0  0  0  0  0
    2.7899   -2.2304   -2.9666 C   0  0  0  0  0  0  0  0  0  0  0  0
    3.0717   -3.4430   -2.1681 N   0  0  0  0  0  0  0  0  0  0  0  0
    4.5444   -3.5286   -2.0931 C   0  0  1  0  0  0  0  0  0  0  0  0
    4.9571   -3.0274   -3.4662 C   0  0  0  0  0  0  0  0  0  0  0  0
    3.6496   -3.4990    0.8143 C   0  0  0  0  0  0  0  0  0  0  0  0
    3.6124   -4.8769    0.4799 C   0  0  0  0  0  0  0  0  0  0  0  0
    2.8242   -5.6774    1.3253 C   0  0  0  0  0  0  0  0  0  0  0  0
    2.1795   -5.1219    2.4602 C   0  0  0  0  0  0  0  0  0  0  0  0
    2.2514   -3.8037    2.7682 N   0  0  0  0  0  0  0  0  0  0  0  0
    2.9817   -3.0252    1.9415 C   0  0  0  0  0  0  0  0  0  0  0  0
    2.9112    0.3073    2.7791 H   0  0  0  0  0  0  0  0  0  0  0  0
    3.2261   -0.9718    3.9608 H   0  0  0  0  0  0  0  0  0  0  0  0
    1.6483   -0.8774    3.1285 H   0  0  0  0  0  0  0  0  0  0  0  0
    6.0670   -2.5716   -0.8755 H   0  0  0  0  0  0  0  0  0  0  0  0
    4.2048   -0.3599   -1.6339 H   0  0  0  0  0  0  0  0  0  0  0  0
    5.8064   -0.7038   -2.2293 H   0  0  0  0  0  0  0  0  0  0  0  0
    4.2439   -1.0226   -4.1531 H   0  0  0  0  0  0  0  0  0  0  0  0
    2.2339   -1.5075   -2.3696 H   0  0  0  0  0  0  0  0  0  0  0  0
    2.1961   -2.4886   -3.8467 H   0  0  0  0  0  0  0  0  0  0  0  0
    2.6883   -4.2808   -2.5866 H   0  0  0  0  0  0  0  0  0  0  0  0
    4.9491   -4.5198   -1.9178 H   0  0  0  0  0  0  0  0  0  0  0  0
    4.5763   -3.6582   -4.2747 H   0  0  0  0  0  0  0  0  0  0  0  0
    6.0387   -2.9320   -3.5277 H   0  0  0  0  0  0  0  0  0  0  0  0
    4.0978   -5.3111   -0.3742 H   0  0  0  0  0  0  0  0  0  0  0  0
    2.7053   -6.7275    1.0816 H   0  0  0  0  0  0  0  0  0  0  0  0
    1.5810   -5.7493    3.1078 H   0  0  0  0  0  0  0  0  0  0  0  0
    2.6982   -3.3268   -1.2382 H   0  0  0  0  0  0  0  0  0  0  0  0
  1  2  1  0
  1 19  1  0
  1 20  1  0
  1 21  1  0
  2 18  1  0
  2  3  1  0
  3  4  2  0
  3  5  1  0
  5  6  1  0
  5 13  1  0
  6 11  1  0
  6  7  1  0
  6 22  1  1
  7  8  1  0
  7 23  1  0
  7 24  1  0
  8 12  1  0
  8  9  1  0
  8 25  1  6
  9 10  1  0
  9 26  1  0
  9 27  1  0
 10 11  1  0
 10 28  1  0
 10 35  1  0
 11 12  1  0
 11 29  1  1
 12 30  1  0
 12 31  1  0
 13 18  2  0
 13 14  1  0
 14 15  2  0
 14 32  1  0
 15 16  1  0
 15 33  1  0
 16 17  2  0
 16 34  1  0
 17 18  1  0
M  CHG  1  10   1
M  END
>  <i_m_ct_stereo_status>  (357) 
1

>  <s_m_source_file>  (357) 
/var/tmp/pbs.5076255.sched01/tmp0kxp0nim/126xlotvanm.sdf

>  <i_m_source_file_index>  (357) 
30

>  <i_lp_mmshare_version>  (357) 
48012

>  <i_f3d_flags>  (357) 
0

>  <s_epik_input>  (357) 
W2NIXTFbY0hdW2NIXW5jKGMxMiluKFtDSDNdKWMoPU8pbjJbQ0BIXShbQ0gyXVtDQEhdMzQpW0NASF0oW0NIMl00KVtOSF1bQ0gyXTM=

>  <s_epik_cmdline>  (357) 
J2VwaWtfcHl0aG9uJywgJy1waHQnLCAnMi4wJywgJy1waCcsICc3LjAnLCAnLXRuJywgJzgnLCAnLW1hJywgJzIwMCcsICctaW1hZScsICc8aW5maWxlLm1hZT4nLCAnLW9tYWUnLCAnPG91dGZpbGUubWFlPic=

>  <r_epik_Ionization_Penalty>  (357) 
0.00633264

>  <r_epik_Ionization_Penalty_Charging>  (357) 
0.00633264

>  <r_epik_Ionization_Penalty_Neutral>  (357) 
3.03571e-10

>  <r_epik_State_Penalty>  (357) 
0.00467871

>  <r_epik_Charging_Adjusted_Penalty>  (357) 
0.0110114

>  <i_epik_Tot_Q>  (357) 
1

>  <i_epik_Tot_abs_Q>  (357) 
1

>  <s_lp_Force_Field>  (357) 
OPLS3e

>  <r_lp_Energy>  (357) 
46.8364

>  <b_lp_Chiralities_Consistent>  (357) 
1

>  <s_lp_Variant>  (357) 
111:0-1

>  <s_i_glide_gridfile>  (357) 
pfpi4k_grid

>  <i_i_glide_lignum>  (357) 
30

>  <i_i_glide_rotatable_bonds>  (357) 
1

>  <r_i_docking_score>  (357) 
-3.61128

>  <r_i_glide_ligand_efficiency>  (357) 
-0.200627

>  <r_i_glide_ligand_efficiency_sa>  (357) 
-0.525791

>  <r_i_glide_ligand_efficiency_ln>  (357) 
-0.928261

>  <r_i_glide_gscore>  (357) 
-3.61128

>  <r_i_glide_lipo>  (357) 
-0.30498

>  <r_i_glide_hbond>  (357) 
0

>  <r_i_glide_metal>  (357) 
-0

>  <r_i_glide_rewards>  (357) 
-1.73659

>  <r_i_glide_evdw>  (357) 
-20.8409

>  <r_i_glide_ecoul>  (357) 
-5.14452

>  <r_i_glide_erotb>  (357) 
0.289248

>  <r_i_glide_esite>  (357) 
-0.0452387

>  <r_i_glide_emodel>  (357) 
-30.5162

>  <r_i_glide_energy>  (357) 
-25.9854

>  <r_i_glide_einternal>  (357) 
4.71263

>  <r_i_glide_intrahb_reward>  (357) 
-0

>  <i_i_glide_confnum>  (357) 
4

>  <i_i_glide_posenum>  (357) 
37

>  <r_i_glide_eff_state_penalty>  (357) 
0

>  <ligand_id>  (357) 
111

>  <original_smiles>  (357) 
Cn1c(=O)n(C2CC3CNC2C3)c2cccnc21

>  <smiles>  (357) 
[H]c1nc2c(c([H])c1[H])n(C1([H])C([H])([H])C3([H])C([H])([H])C1([H])[N+]([H])([H])C3([H])[H])c(=O)n2C([H])([H])[H]

$$$$
113:0:0
     RDKit          3D

 30 31  0  0  1  0  0  0  0  0999 V2000
    2.9373   -0.1432   -4.2661 C   0  0  0  0  0  0  0  0  0  0  0  0
    3.4396   -1.4268   -3.6296 C   0  0  0  0  0  0  0  0  0  0  0  0
    4.1916   -2.1536   -4.2815 O   0  0  0  0  0  0  0  0  0  0  0  0
    3.0186   -1.7160   -2.3870 N   0  0  0  0  0  0  0  0  0  0  0  0
    3.5014   -2.7793   -1.5830 C   0  0  0  0  0  0  0  0  0  0  0  0
    4.8752   -3.1182   -1.5198 C   0  0  0  0  0  0  0  0  0  0  0  0
    5.3981   -4.0783   -0.7232 N   0  0  0  0  0  0  0  0  0  0  0  0
    4.4800   -4.7529    0.0283 C   0  0  0  0  0  0  0  0  0  0  0  0
    3.0741   -4.5176    0.0653 C   0  0  0  0  0  0  0  0  0  0  0  0
    2.5951   -3.4855   -0.7733 C   0  0  0  0  0  0  0  0  0  0  0  0
    2.4327   -5.3806    0.9442 N   0  0  0  0  0  0  0  0  0  0  0  0
    3.4633   -6.0971    1.4013 C   0  0  0  0  0  0  0  0  0  0  0  0
    4.6920   -5.8096    0.9065 N   0  0  0  0  0  0  0  0  0  0  0  0
    5.9718   -6.4362    1.2436 C   0  0  0  0  0  0  0  0  0  0  0  0
    5.8266   -7.9600    1.3833 C   0  0  0  0  0  0  0  0  0  0  0  0
    6.5853   -5.7940    2.4956 C   0  0  0  0  0  0  0  0  0  0  0  0
    2.2688    0.3782   -3.5864 H   0  0  0  0  0  0  0  0  0  0  0  0
    2.3848   -0.3401   -5.1858 H   0  0  0  0  0  0  0  0  0  0  0  0
    3.7768    0.5161   -4.4982 H   0  0  0  0  0  0  0  0  0  0  0  0
    2.2671   -1.1571   -1.9892 H   0  0  0  0  0  0  0  0  0  0  0  0
    5.5975   -2.5666   -2.1005 H   0  0  0  0  0  0  0  0  0  0  0  0
    1.5459   -3.2442   -0.8110 H   0  0  0  0  0  0  0  0  0  0  0  0
    3.3287   -6.8745    2.1401 H   0  0  0  0  0  0  0  0  0  0  0  0
    6.6525   -6.2442    0.4129 H   0  0  0  0  0  0  0  0  0  0  0  0
    6.7894   -8.4445    1.5415 H   0  0  0  0  0  0  0  0  0  0  0  0
    5.3767   -8.3879    0.4868 H   0  0  0  0  0  0  0  0  0  0  0  0
    5.1904   -8.2239    2.2275 H   0  0  0  0  0  0  0  0  0  0  0  0
    7.5721   -6.2040    2.7037 H   0  0  0  0  0  0  0  0  0  0  0  0
    5.9620   -5.9607    3.3741 H   0  0  0  0  0  0  0  0  0  0  0  0
    6.7018   -4.7171    2.3697 H   0  0  0  0  0  0  0  0  0  0  0  0
  1  2  1  0
  1 17  1  0
  1 18  1  0
  1 19  1  0
  2  3  2  0
  2  4  1  0
  4  5  1  0
  4 20  1  0
  5 10  2  0
  5  6  1  0
  6  7  2  0
  6 21  1  0
  7  8  1  0
  8 13  1  0
  8  9  2  0
  9 10  1  0
  9 11  1  0
 10 22  1  0
 11 12  2  0
 12 13  1  0
 12 23  1  0
 13 14  1  0
 14 15  1  0
 14 16  1  0
 14 24  1  0
 15 25  1  0
 15 26  1  0
 15 27  1  0
 16 28  1  0
 16 29  1  0
 16 30  1  0
M  END
>  <i_m_ct_stereo_status>  (358) 
1

>  <s_m_source_file>  (358) 
/var/tmp/pbs.5076255.sched01/tmp0kxp0nim/126xlotvanm.sdf

>  <i_m_source_file_index>  (358) 
33

>  <i_lp_mmshare_version>  (358) 
48012

>  <i_f3d_flags>  (358) 
0

>  <s_epik_input>  (358) 
W0NIM11DKD1PKVtOSF1jKFtjSF1uMSlbY0hdYyhjMTIpbltjSF1uMltDSF0oW0NIM10pW0NIM10=

>  <s_epik_cmdline>  (358) 
J2VwaWtfcHl0aG9uJywgJy1waHQnLCAnMi4wJywgJy1waCcsICc3LjAnLCAnLXRuJywgJzgnLCAnLW1hJywgJzIwMCcsICctaW1hZScsICc8aW5maWxlLm1hZT4nLCAnLW9tYWUnLCAnPG91dGZpbGUubWFlPic=

>  <r_lp_tautomer_probability>  (358) 
1

>  <r_epik_Ionization_Penalty>  (358) 
0.0010131

>  <r_epik_Ionization_Penalty_Charging>  (358) 
0.00100865

>  <r_epik_Ionization_Penalty_Neutral>  (358) 
4.45049e-06

>  <r_epik_State_Penalty>  (358) 
0.000657889

>  <r_epik_Charging_Adjusted_Penalty>  (358) 
0.00166654

>  <i_epik_Tot_Q>  (358) 
0

>  <i_epik_Tot_abs_Q>  (358) 
0

>  <s_lp_Force_Field>  (358) 
OPLS3e

>  <r_lp_Energy>  (358) 
16.674

>  <b_lp_Chiralities_Consistent>  (358) 
1

>  <s_lp_Variant>  (358) 
113:0-1

>  <s_i_glide_gridfile>  (358) 
pfpi4k_grid

>  <i_i_glide_lignum>  (358) 
33

>  <i_i_glide_rotatable_bonds>  (358) 
3

>  <r_i_docking_score>  (358) 
-5.07052

>  <r_i_glide_ligand_efficiency>  (358) 
-0.316908

>  <r_i_glide_ligand_efficiency_sa>  (358) 
-0.798557

>  <r_i_glide_ligand_efficiency_ln>  (358) 
-1.34404

>  <r_i_glide_gscore>  (358) 
-5.07052

>  <r_i_glide_lipo>  (358) 
-0.420874

>  <r_i_glide_hbond>  (358) 
-0.456

>  <r_i_glide_metal>  (358) 
-0

>  <r_i_glide_rewards>  (358) 
-2.41602

>  <r_i_glide_evdw>  (358) 
-22.0356

>  <r_i_glide_ecoul>  (358) 
-6.37471

>  <r_i_glide_erotb>  (358) 
0.352717

>  <r_i_glide_esite>  (358) 
-0.0723611

>  <r_i_glide_emodel>  (358) 
-35.8858

>  <r_i_glide_energy>  (358) 
-28.4103

>  <r_i_glide_einternal>  (358) 
3.7188

>  <r_i_glide_intrahb_reward>  (358) 
-0

>  <i_i_glide_confnum>  (358) 
3

>  <i_i_glide_posenum>  (358) 
1

>  <r_i_glide_eff_state_penalty>  (358) 
0

>  <ligand_id>  (358) 
113

>  <original_smiles>  (358) 
CC(=O)Nc1cnc2c(c1)ncn2C(C)C

>  <smiles>  (358) 
[H]c1nc2c(nc([H])n2C([H])(C([H])([H])[H])C([H])([H])[H])c([H])c1N([H])C(=O)C([H])([H])[H]

$$$$
113:0:1
     RDKit          3D

 30 31  0  0  1  0  0  0  0  0999 V2000
    3.6527   -0.3430   -4.0983 C   0  0  0  0  0  0  0  0  0  0  0  0
    4.0252   -1.1525   -2.8692 C   0  0  0  0  0  0  0  0  0  0  0  0
    4.9789   -0.7816   -2.1852 O   0  0  0  0  0  0  0  0  0  0  0  0
    3.2819   -2.2398   -2.6021 N   0  0  0  0  0  0  0  0  0  0  0  0
    3.5020   -3.1569   -1.5436 C   0  0  0  0  0  0  0  0  0  0  0  0
    4.8049   -3.4837   -1.0867 C   0  0  0  0  0  0  0  0  0  0  0  0
    5.0919   -4.3631   -0.1061 N   0  0  0  0  0  0  0  0  0  0  0  0
    3.9993   -4.9649    0.4440 C   0  0  0  0  0  0  0  0  0  0  0  0
    2.6415   -4.7565    0.0794 C   0  0  0  0  0  0  0  0  0  0  0  0
    2.4024   -3.8230   -0.9584 C   0  0  0  0  0  0  0  0  0  0  0  0
    1.7927   -5.5539    0.8347 N   0  0  0  0  0  0  0  0  0  0  0  0
    2.6537   -6.1843    1.6318 C   0  0  0  0  0  0  0  0  0  0  0  0
    3.9636   -5.9034    1.4704 N   0  0  0  0  0  0  0  0  0  0  0  0
    5.0769   -6.4763    2.2154 C   0  0  0  0  0  0  0  0  0  0  0  0
    5.8433   -5.3959    2.9979 C   0  0  0  0  0  0  0  0  0  0  0  0
    5.9948   -7.2891    1.2880 C   0  0  0  0  0  0  0  0  0  0  0  0
    2.8002   -0.7699   -4.6287 H   0  0  0  0  0  0  0  0  0  0  0  0
    4.5056   -0.3018   -4.7750 H   0  0  0  0  0  0  0  0  0  0  0  0
    3.4111    0.6777   -3.8025 H   0  0  0  0  0  0  0  0  0  0  0  0
    2.4670   -2.3945   -3.1766 H   0  0  0  0  0  0  0  0  0  0  0  0
    5.6838   -3.0554   -1.5340 H   0  0  0  0  0  0  0  0  0  0  0  0
    1.4006   -3.6297   -1.3102 H   0  0  0  0  0  0  0  0  0  0  0  0
    2.3202   -6.8929    2.3837 H   0  0  0  0  0  0  0  0  0  0  0  0
    4.6564   -7.1714    2.9453 H   0  0  0  0  0  0  0  0  0  0  0  0
    6.6112   -5.8404    3.6276 H   0  0  0  0  0  0  0  0  0  0  0  0
    5.1684   -4.8335    3.6452 H   0  0  0  0  0  0  0  0  0  0  0  0
    6.3334   -4.6840    2.3328 H   0  0  0  0  0  0  0  0  0  0  0  0
    6.7679   -7.8051    1.8536 H   0  0  0  0  0  0  0  0  0  0  0  0
    6.4911   -6.6513    0.5563 H   0  0  0  0  0  0  0  0  0  0  0  0
    5.4207   -8.0420    0.7455 H   0  0  0  0  0  0  0  0  0  0  0  0
  1  2  1  0
  1 17  1  0
  1 18  1  0
  1 19  1  0
  2  3  2  0
  2  4  1  0
  4  5  1  0
  4 20  1  0
  5 10  2  0
  5  6  1  0
  6  7  2  0
  6 21  1  0
  7  8  1  0
  8 13  1  0
  8  9  2  0
  9 10  1  0
  9 11  1  0
 10 22  1  0
 11 12  2  0
 12 13  1  0
 12 23  1  0
 13 14  1  0
 14 15  1  0
 14 16  1  0
 14 24  1  0
 15 25  1  0
 15 26  1  0
 15 27  1  0
 16 28  1  0
 16 29  1  0
 16 30  1  0
M  END
>  <i_m_ct_stereo_status>  (359) 
1

>  <s_m_source_file>  (359) 
/var/tmp/pbs.5076255.sched01/tmp0kxp0nim/126xlotvanm.sdf

>  <i_m_source_file_index>  (359) 
33

>  <i_lp_mmshare_version>  (359) 
48012

>  <i_f3d_flags>  (359) 
0

>  <s_epik_input>  (359) 
W0NIM11DKD1PKVtOSF1jKFtjSF1uMSlbY0hdYyhjMTIpbltjSF1uMltDSF0oW0NIM10pW0NIM10=

>  <s_epik_cmdline>  (359) 
J2VwaWtfcHl0aG9uJywgJy1waHQnLCAnMi4wJywgJy1waCcsICc3LjAnLCAnLXRuJywgJzgnLCAnLW1hJywgJzIwMCcsICctaW1hZScsICc8aW5maWxlLm1hZT4nLCAnLW9tYWUnLCAnPG91dGZpbGUubWFlPic=

>  <r_lp_tautomer_probability>  (359) 
1

>  <r_epik_Ionization_Penalty>  (359) 
0.0010131

>  <r_epik_Ionization_Penalty_Charging>  (359) 
0.00100865

>  <r_epik_Ionization_Penalty_Neutral>  (359) 
4.45049e-06

>  <r_epik_State_Penalty>  (359) 
0.000657889

>  <r_epik_Charging_Adjusted_Penalty>  (359) 
0.00166654

>  <i_epik_Tot_Q>  (359) 
0

>  <i_epik_Tot_abs_Q>  (359) 
0

>  <s_lp_Force_Field>  (359) 
OPLS3e

>  <r_lp_Energy>  (359) 
16.674

>  <b_lp_Chiralities_Consistent>  (359) 
1

>  <s_lp_Variant>  (359) 
113:0-1

>  <s_i_glide_gridfile>  (359) 
pfpi4k_grid

>  <i_i_glide_lignum>  (359) 
33

>  <i_i_glide_rotatable_bonds>  (359) 
3

>  <r_i_docking_score>  (359) 
-3.79505

>  <r_i_glide_ligand_efficiency>  (359) 
-0.237191

>  <r_i_glide_ligand_efficiency_sa>  (359) 
-0.597684

>  <r_i_glide_ligand_efficiency_ln>  (359) 
-1.00596

>  <r_i_glide_gscore>  (359) 
-3.79505

>  <r_i_glide_lipo>  (359) 
-0.465223

>  <r_i_glide_hbond>  (359) 
-0.103974

>  <r_i_glide_metal>  (359) 
-0

>  <r_i_glide_rewards>  (359) 
-2.01307

>  <r_i_glide_evdw>  (359) 
-20.5251

>  <r_i_glide_ecoul>  (359) 
-3.34018

>  <r_i_glide_erotb>  (359) 
0.352717

>  <r_i_glide_esite>  (359) 
-0.038225

>  <r_i_glide_emodel>  (359) 
-29.5014

>  <r_i_glide_energy>  (359) 
-23.8653

>  <r_i_glide_einternal>  (359) 
2.70514

>  <r_i_glide_intrahb_reward>  (359) 
-0

>  <i_i_glide_confnum>  (359) 
2

>  <i_i_glide_posenum>  (359) 
7

>  <r_i_glide_eff_state_penalty>  (359) 
0

>  <ligand_id>  (359) 
113

>  <original_smiles>  (359) 
CC(=O)Nc1cnc2c(c1)ncn2C(C)C

>  <smiles>  (359) 
[H]c1nc2c(nc([H])n2C([H])(C([H])([H])[H])C([H])([H])[H])c([H])c1N([H])C(=O)C([H])([H])[H]

$$$$
113:0:2
     RDKit          3D

 30 31  0  0  1  0  0  0  0  0999 V2000
    2.0224    1.1704    1.6626 C   0  0  0  0  0  0  0  0  0  0  0  0
    1.2378    0.9847    2.9495 C   0  0  0  0  0  0  0  0  0  0  0  0
    1.2582   -0.1073    3.5128 O   0  0  0  0  0  0  0  0  0  0  0  0
    0.5446    2.0555    3.3719 N   0  0  0  0  0  0  0  0  0  0  0  0
   -0.1191    2.2523    4.6165 C   0  0  0  0  0  0  0  0  0  0  0  0
   -0.9710    3.3752    4.7355 C   0  0  0  0  0  0  0  0  0  0  0  0
   -1.6254    3.7378    5.8655 N   0  0  0  0  0  0  0  0  0  0  0  0
   -1.4123    2.9086    6.9356 C   0  0  0  0  0  0  0  0  0  0  0  0
   -0.5986    1.7412    6.9484 C   0  0  0  0  0  0  0  0  0  0  0  0
    0.0723    1.4227    5.7517 C   0  0  0  0  0  0  0  0  0  0  0  0
   -0.6175    1.1163    8.1829 N   0  0  0  0  0  0  0  0  0  0  0  0
   -1.4043    1.9372    8.8761 C   0  0  0  0  0  0  0  0  0  0  0  0
   -1.9274    2.9968    8.2277 N   0  0  0  0  0  0  0  0  0  0  0  0
   -2.8548    3.9732    8.7699 C   0  0  0  0  0  0  0  0  0  0  0  0
   -2.3152    4.5662   10.0800 C   0  0  0  0  0  0  0  0  0  0  0  0
   -4.2452    3.3452    8.9452 C   0  0  0  0  0  0  0  0  0  0  0  0
    1.8972    2.1874    1.2855 H   0  0  0  0  0  0  0  0  0  0  0  0
    1.6820    0.4729    0.8955 H   0  0  0  0  0  0  0  0  0  0  0  0
    3.0861    1.0076    1.8416 H   0  0  0  0  0  0  0  0  0  0  0  0
    0.5085    2.8210    2.7084 H   0  0  0  0  0  0  0  0  0  0  0  0
   -1.1079    4.0284    3.8842 H   0  0  0  0  0  0  0  0  0  0  0  0
    0.7348    0.5733    5.7488 H   0  0  0  0  0  0  0  0  0  0  0  0
   -1.6417    1.7419    9.9147 H   0  0  0  0  0  0  0  0  0  0  0  0
   -2.9382    4.7911    8.0539 H   0  0  0  0  0  0  0  0  0  0  0  0
   -2.9617    5.3604   10.4542 H   0  0  0  0  0  0  0  0  0  0  0  0
   -1.3220    4.9905    9.9296 H   0  0  0  0  0  0  0  0  0  0  0  0
   -2.2365    3.8133   10.8647 H   0  0  0  0  0  0  0  0  0  0  0  0
   -4.9695    4.0901    9.2674 H   0  0  0  0  0  0  0  0  0  0  0  0
   -4.2354    2.5480    9.6886 H   0  0  0  0  0  0  0  0  0  0  0  0
   -4.6193    2.9345    8.0098 H   0  0  0  0  0  0  0  0  0  0  0  0
  1  2  1  0
  1 17  1  0
  1 18  1  0
  1 19  1  0
  2  3  2  0
  2  4  1  0
  4  5  1  0
  4 20  1  0
  5 10  2  0
  5  6  1  0
  6  7  2  0
  6 21  1  0
  7  8  1  0
  8 13  1  0
  8  9  2  0
  9 10  1  0
  9 11  1  0
 10 22  1  0
 11 12  2  0
 12 13  1  0
 12 23  1  0
 13 14  1  0
 14 15  1  0
 14 16  1  0
 14 24  1  0
 15 25  1  0
 15 26  1  0
 15 27  1  0
 16 28  1  0
 16 29  1  0
 16 30  1  0
M  END
>  <i_m_ct_stereo_status>  (360) 
1

>  <s_m_source_file>  (360) 
/var/tmp/pbs.5076255.sched01/tmp0kxp0nim/126xlotvanm.sdf

>  <i_m_source_file_index>  (360) 
33

>  <i_lp_mmshare_version>  (360) 
48012

>  <i_f3d_flags>  (360) 
0

>  <s_epik_input>  (360) 
W0NIM11DKD1PKVtOSF1jKFtjSF1uMSlbY0hdYyhjMTIpbltjSF1uMltDSF0oW0NIM10pW0NIM10=

>  <s_epik_cmdline>  (360) 
J2VwaWtfcHl0aG9uJywgJy1waHQnLCAnMi4wJywgJy1waCcsICc3LjAnLCAnLXRuJywgJzgnLCAnLW1hJywgJzIwMCcsICctaW1hZScsICc8aW5maWxlLm1hZT4nLCAnLW9tYWUnLCAnPG91dGZpbGUubWFlPic=

>  <r_lp_tautomer_probability>  (360) 
1

>  <r_epik_Ionization_Penalty>  (360) 
0.0010131

>  <r_epik_Ionization_Penalty_Charging>  (360) 
0.00100865

>  <r_epik_Ionization_Penalty_Neutral>  (360) 
4.45049e-06

>  <r_epik_State_Penalty>  (360) 
0.000657889

>  <r_epik_Charging_Adjusted_Penalty>  (360) 
0.00166654

>  <i_epik_Tot_Q>  (360) 
0

>  <i_epik_Tot_abs_Q>  (360) 
0

>  <s_lp_Force_Field>  (360) 
OPLS3e

>  <r_lp_Energy>  (360) 
16.674

>  <b_lp_Chiralities_Consistent>  (360) 
1

>  <s_lp_Variant>  (360) 
113:0-1

>  <s_i_glide_gridfile>  (360) 
pfpi4k_grid

>  <i_i_glide_lignum>  (360) 
33

>  <i_i_glide_rotatable_bonds>  (360) 
3

>  <r_i_docking_score>  (360) 
-3.05591

>  <r_i_glide_ligand_efficiency>  (360) 
-0.190995

>  <r_i_glide_ligand_efficiency_sa>  (360) 
-0.481276

>  <r_i_glide_ligand_efficiency_ln>  (360) 
-0.810031

>  <r_i_glide_gscore>  (360) 
-3.05591

>  <r_i_glide_lipo>  (360) 
-0.0834148

>  <r_i_glide_hbond>  (360) 
0

>  <r_i_glide_metal>  (360) 
-0

>  <r_i_glide_rewards>  (360) 
-1.95955

>  <r_i_glide_evdw>  (360) 
-17.2588

>  <r_i_glide_ecoul>  (360) 
-2.61721

>  <r_i_glide_erotb>  (360) 
0.352717

>  <r_i_glide_esite>  (360) 
-0.110143

>  <r_i_glide_emodel>  (360) 
-24.9796

>  <r_i_glide_energy>  (360) 
-19.876

>  <r_i_glide_einternal>  (360) 
1.09107

>  <r_i_glide_intrahb_reward>  (360) 
-0

>  <i_i_glide_confnum>  (360) 
4

>  <i_i_glide_posenum>  (360) 
40

>  <r_i_glide_eff_state_penalty>  (360) 
0

>  <ligand_id>  (360) 
113

>  <original_smiles>  (360) 
CC(=O)Nc1cnc2c(c1)ncn2C(C)C

>  <smiles>  (360) 
[H]c1nc2c(nc([H])n2C([H])(C([H])([H])[H])C([H])([H])[H])c([H])c1N([H])C(=O)C([H])([H])[H]

$$$$
114:0:0
     RDKit          3D

 69 75  0  0  1  0  0  0  0  0999 V2000
    2.2121   -9.3146    1.4241 C   0  0  0  0  0  0  0  0  0  0  0  0
    1.3132   -9.2907    2.4220 C   0  0  0  0  0  0  0  0  0  0  0  0
    0.2115  -10.3391    2.5393 C   0  0  0  0  0  0  0  0  0  0  0  0
    1.3394   -8.2305    3.4779 C   0  0  1  0  0  0  0  0  0  0  0  0
    1.1128   -6.8940    2.9964 O   0  0  0  0  0  0  0  0  0  0  0  0
    0.0888   -7.4831    3.8199 C   0  0  2  0  0  0  0  0  0  0  0  0
    0.0823   -7.1488    5.2897 C   0  0  0  0  0  0  0  0  0  0  0  0
    1.5530   -7.3386    5.7066 C   0  0  2  0  0  0  0  0  0  0  0  0
    2.1294   -8.4061    4.7738 C   0  0  2  0  0  0  0  0  0  0  0  0
    3.6786   -8.2691    4.7529 C   0  0  1  0  0  0  0  0  0  0  0  0
    4.2620   -7.9598    6.1556 C   0  0  0  0  0  0  0  0  0  0  0  0
    3.4599   -7.8327    7.2591 C   0  0  0  0  0  0  0  0  0  0  0  0
    3.9486   -8.0504    8.6978 C   0  0  0  0  0  0  0  0  0  0  0  0
    3.2202   -9.2648    9.3215 C   0  0  1  0  0  0  0  0  0  0  0  0
    3.6232   -9.4168   10.6779 O   0  0  0  0  0  0  0  0  0  0  0  0
    3.4529  -10.7384   11.1843 C   0  0  0  0  0  0  0  0  0  0  0  0
    1.6846   -9.1200    9.2483 C   0  0  0  0  0  0  0  0  0  0  0  0
    1.2061   -8.8035    7.8217 C   0  0  0  0  0  0  0  0  0  0  0  0
    1.9352   -7.5894    7.1882 C   0  0  2  0  0  0  0  0  0  0  0  0
    1.5609   -6.2990    7.9676 C   0  0  0  0  0  0  0  0  0  0  0  0
    5.8070   -7.8915    6.2399 C   0  0  2  0  0  0  0  0  0  0  0  0
    6.3240   -6.7877    7.1725 C   0  0  0  0  0  0  0  0  0  0  0  0
    7.3197   -6.0073    6.3435 C   0  0  0  0  0  0  0  0  0  0  0  0
    7.9696   -5.0592    6.7773 O   0  0  0  0  0  0  0  0  0  0  0  0
    7.3645   -6.4907    5.1163 O   0  0  0  0  0  0  0  0  0  0  0  0
    6.5369   -7.5653    4.9398 C   0  0  0  0  0  0  0  0  0  0  0  0
    6.5061   -8.1978    3.7485 C   0  0  0  0  0  0  0  0  0  0  0  0
    7.3912   -7.7035    2.6058 C   0  0  0  0  0  0  0  0  0  0  0  0
    5.6360   -9.3824    3.4281 C   0  0  1  0  0  0  0  0  0  0  0  0
    5.7381  -10.0475    2.0550 C   0  0  0  0  0  0  0  0  0  0  0  0
    6.3845  -10.5912    3.1941 O   0  0  0  0  0  0  0  0  0  0  0  0
    4.3205   -9.5785    4.1933 C   0  0  1  0  0  0  0  0  0  0  0  0
    4.3471  -10.7646    5.1873 C   0  0  0  0  0  0  0  0  0  0  0  0
    2.2106  -10.0879    0.6703 H   0  0  0  0  0  0  0  0  0  0  0  0
    2.9857   -8.5596    1.3454 H   0  0  0  0  0  0  0  0  0  0  0  0
    0.3161  -10.9128    3.4646 H   0  0  0  0  0  0  0  0  0  0  0  0
    0.2141  -11.0385    1.7009 H   0  0  0  0  0  0  0  0  0  0  0  0
   -0.7732   -9.8717    2.5304 H   0  0  0  0  0  0  0  0  0  0  0  0
   -0.8623   -7.7039    3.3367 H   0  0  0  0  0  0  0  0  0  0  0  0
   -0.2869   -6.1360    5.4622 H   0  0  0  0  0  0  0  0  0  0  0  0
   -0.5791   -7.8501    5.7982 H   0  0  0  0  0  0  0  0  0  0  0  0
    2.0258   -6.4008    5.4156 H   0  0  0  0  0  0  0  0  0  0  0  0
    1.8513   -9.3895    5.1442 H   0  0  0  0  0  0  0  0  0  0  0  0
    3.9125   -7.4274    4.1007 H   0  0  0  0  0  0  0  0  0  0  0  0
    5.0144   -8.2744    8.7471 H   0  0  0  0  0  0  0  0  0  0  0  0
    3.7998   -7.1493    9.2933 H   0  0  0  0  0  0  0  0  0  0  0  0
    3.5319  -10.1427    8.7499 H   0  0  0  0  0  0  0  0  0  0  0  0
    3.6511  -10.7634   12.2579 H   0  0  0  0  0  0  0  0  0  0  0  0
    4.1461  -11.4240   10.6954 H   0  0  0  0  0  0  0  0  0  0  0  0
    2.4432  -11.1211   11.0383 H   0  0  0  0  0  0  0  0  0  0  0  0
    1.1978  -10.0425    9.5641 H   0  0  0  0  0  0  0  0  0  0  0  0
    1.3503   -8.3586    9.9512 H   0  0  0  0  0  0  0  0  0  0  0  0
    1.3712   -9.6980    7.2225 H   0  0  0  0  0  0  0  0  0  0  0  0
    0.1301   -8.6405    7.8338 H   0  0  0  0  0  0  0  0  0  0  0  0
    0.4985   -6.0717    7.8812 H   0  0  0  0  0  0  0  0  0  0  0  0
    2.1182   -5.4333    7.6058 H   0  0  0  0  0  0  0  0  0  0  0  0
    1.7665   -6.3710    9.0366 H   0  0  0  0  0  0  0  0  0  0  0  0
    6.1797   -8.8544    6.5869 H   0  0  0  0  0  0  0  0  0  0  0  0
    5.5484   -6.0950    7.4965 H   0  0  0  0  0  0  0  0  0  0  0  0
    6.8444   -7.1883    8.0416 H   0  0  0  0  0  0  0  0  0  0  0  0
    6.7821   -7.4179    1.7466 H   0  0  0  0  0  0  0  0  0  0  0  0
    8.1049   -8.4748    2.3075 H   0  0  0  0  0  0  0  0  0  0  0  0
    7.9823   -6.8322    2.8853 H   0  0  0  0  0  0  0  0  0  0  0  0
    4.9151  -10.6554    1.6879 H   0  0  0  0  0  0  0  0  0  0  0  0
    6.4275   -9.7026    1.2870 H   0  0  0  0  0  0  0  0  0  0  0  0
    3.6398   -9.9445    3.4384 H   0  0  0  0  0  0  0  0  0  0  0  0
    5.1163  -10.6683    5.9494 H   0  0  0  0  0  0  0  0  0  0  0  0
    4.5279  -11.6972    4.6547 H   0  0  0  0  0  0  0  0  0  0  0  0
    3.3884  -10.8866    5.6934 H   0  0  0  0  0  0  0  0  0  0  0  0
  1  2  2  0
  1 34  1  0
  1 35  1  0
  2  3  1  0
  4  2  1  6
  3 36  1  0
  3 37  1  0
  3 38  1  0
  4  6  1  0
  4  9  1  0
  4  5  1  0
  5  6  1  0
  6  7  1  0
  6 39  1  6
  7  8  1  0
  7 40  1  0
  7 41  1  0
  8 19  1  0
  8  9  1  0
  8 42  1  6
  9 10  1  0
  9 43  1  1
 10 32  1  0
 10 11  1  0
 10 44  1  6
 11 12  2  0
 11 21  1  0
 12 19  1  0
 12 13  1  0
 13 14  1  0
 13 45  1  0
 13 46  1  0
 14 15  1  0
 14 17  1  0
 14 47  1  6
 15 16  1  0
 16 48  1  0
 16 49  1  0
 16 50  1  0
 17 18  1  0
 17 51  1  0
 17 52  1  0
 18 19  1  0
 18 53  1  0
 18 54  1  0
 19 20  1  1
 20 55  1  0
 20 56  1  0
 20 57  1  0
 21 26  1  0
 21 22  1  0
 21 58  1  1
 22 23  1  0
 22 59  1  0
 22 60  1  0
 23 24  2  0
 23 25  1  0
 25 26  1  0
 26 27  2  0
 27 28  1  0
 27 29  1  0
 28 61  1  0
 28 62  1  0
 28 63  1  0
 29 31  1  1
 29 30  1  0
 29 32  1  0
 30 31  1  0
 30 64  1  0
 30 65  1  0
 32 33  1  0
 32 66  1  6
 33 67  1  0
 33 68  1  0
 33 69  1  0
M  END
>  <i_m_ct_stereo_status>  (361) 
1

>  <s_m_source_file>  (361) 
/var/tmp/pbs.5076255.sched01/tmp0kxp0nim/126xlotvanm.sdf

>  <i_m_source_file_index>  (361) 
34

>  <i_lp_mmshare_version>  (361) 
48012

>  <i_f3d_flags>  (361) 
0

>  <s_epik_input>  (361) 
W0NIMl09QyhbQ0gzXSlbQ0BAXTEoW0NASF0oTzEpW0NIMl0yKVtDQEBIXShbQ0BASF0zW0NAQEhdNFtDSDNdKVtDQEBIXTJbQ0BAXShbQ0gzXSkoW0NIMl1bQ0gyXVtDQEBIXShbQ0gyXTUpT1tDSDNdKUM1PUMzW0NASF0oW0NIMl1DKD1PKU82KUM2PUMoW0NIM10pW0NAXTQ3W0NIMl1PNw==

>  <s_epik_cmdline>  (361) 
J2VwaWtfcHl0aG9uJywgJy1waHQnLCAnMi4wJywgJy1waCcsICc3LjAnLCAnLXRuJywgJzgnLCAnLW1hJywgJzIwMCcsICctaW1hZScsICc8aW5maWxlLm1hZT4nLCAnLW9tYWUnLCAnPG91dGZpbGUubWFlPic=

>  <r_lp_tautomer_probability>  (361) 
1

>  <r_epik_Ionization_Penalty>  (361) 
2.09116e-11

>  <r_epik_Ionization_Penalty_Charging>  (361) 
0

>  <r_epik_Ionization_Penalty_Neutral>  (361) 
2.09116e-11

>  <r_epik_State_Penalty>  (361) 
-0

>  <r_epik_Charging_Adjusted_Penalty>  (361) 
0

>  <i_epik_Tot_Q>  (361) 
0

>  <i_epik_Tot_abs_Q>  (361) 
0

>  <s_lp_Force_Field>  (361) 
OPLS3e

>  <r_lp_Energy>  (361) 
44.197

>  <b_lp_Chiralities_Consistent>  (361) 
1

>  <s_lp_Variant>  (361) 
114:0-1

>  <s_i_glide_gridfile>  (361) 
pfpi4k_grid

>  <i_i_glide_lignum>  (361) 
34

>  <i_i_glide_rotatable_bonds>  (361) 
2

>  <r_i_docking_score>  (361) 
-1.58278

>  <r_i_glide_ligand_efficiency>  (361) 
-0.047963

>  <r_i_glide_ligand_efficiency_sa>  (361) 
-0.153843

>  <r_i_glide_ligand_efficiency_ln>  (361) 
-0.352001

>  <r_i_glide_gscore>  (361) 
-1.58278

>  <r_i_glide_lipo>  (361) 
-0.381013

>  <r_i_glide_hbond>  (361) 
0

>  <r_i_glide_metal>  (361) 
-0

>  <r_i_glide_rewards>  (361) 
-0.328522

>  <r_i_glide_evdw>  (361) 
-16.356

>  <r_i_glide_ecoul>  (361) 
-1.0227

>  <r_i_glide_erotb>  (361) 
0.0979651

>  <r_i_glide_esite>  (361) 
0

>  <r_i_glide_emodel>  (361) 
-18.1839

>  <r_i_glide_energy>  (361) 
-17.3787

>  <r_i_glide_einternal>  (361) 
1.43619

>  <r_i_glide_intrahb_reward>  (361) 
-0

>  <i_i_glide_confnum>  (361) 
1

>  <i_i_glide_posenum>  (361) 
3

>  <r_i_glide_eff_state_penalty>  (361) 
0

>  <ligand_id>  (361) 
114

>  <original_smiles>  (361) 
C=C(C)C12OC1CC1C2C2C(=C3CC(OC)CCC31C)C1CC(=O)OC1=C(C)C1(CO1)C2C

>  <smiles>  (361) 
[H]C([H])=C(C([H])([H])[H])C12OC1([H])C([H])([H])C1([H])C2([H])C2([H])C(=C3C([H])([H])C([H])(OC([H])([H])[H])C([H])([H])C([H])([H])C31C([H])([H])[H])C1([H])C(=C(C([H])([H])[H])C3(OC3([H])[H])C2([H])C([H])([H])[H])OC(=O)C1([H])[H]

$$$$
114:0:1
     RDKit          3D

 69 75  0  0  1  0  0  0  0  0999 V2000
    2.1367   -9.4501    1.7828 C   0  0  0  0  0  0  0  0  0  0  0  0
    1.0842   -9.4560    2.6261 C   0  0  0  0  0  0  0  0  0  0  0  0
    0.0730  -10.5960    2.7270 C   0  0  0  0  0  0  0  0  0  0  0  0
    0.8661   -8.2950    3.5310 C   0  0  1  0  0  0  0  0  0  0  0  0
    0.5259   -7.0723    2.8622 O   0  0  0  0  0  0  0  0  0  0  0  0
   -0.4920   -7.7049    3.6438 C   0  0  2  0  0  0  0  0  0  0  0  0
   -0.6879   -7.2761    5.0688 C   0  0  0  0  0  0  0  0  0  0  0  0
    0.7371   -7.1631    5.6337 C   0  0  2  0  0  0  0  0  0  0  0  0
    1.5489   -8.2137    4.8983 C   0  0  2  0  0  0  0  0  0  0  0  0
    3.0539   -7.8358    4.9814 C   0  0  1  0  0  0  0  0  0  0  0  0
    3.4390   -7.2781    6.3658 C   0  0  0  0  0  0  0  0  0  0  0  0
    2.5270   -7.1595    7.3716 C   0  0  0  0  0  0  0  0  0  0  0  0
    2.9010   -7.0916    8.8477 C   0  0  0  0  0  0  0  0  0  0  0  0
    2.2816   -8.2767    9.6306 C   0  0  1  0  0  0  0  0  0  0  0  0
    2.6311   -8.2473   11.0181 O   0  0  0  0  0  0  0  0  0  0  0  0
    2.1819   -7.1416   11.7920 C   0  0  0  0  0  0  0  0  0  0  0  0
    0.7690   -8.4684    9.3907 C   0  0  0  0  0  0  0  0  0  0  0  0
    0.4309   -8.4367    7.8921 C   0  0  0  0  0  0  0  0  0  0  0  0
    0.9938   -7.1852    7.1641 C   0  0  2  0  0  0  0  0  0  0  0  0
    0.3511   -5.8905    7.7407 C   0  0  0  0  0  0  0  0  0  0  0  0
    4.9348   -6.9461    6.5772 C   0  0  2  0  0  0  0  0  0  0  0  0
    5.1906   -5.6746    7.3960 C   0  0  0  0  0  0  0  0  0  0  0  0
    6.1354   -4.8428    6.5645 C   0  0  0  0  0  0  0  0  0  0  0  0
    6.5913   -3.7641    6.9309 O   0  0  0  0  0  0  0  0  0  0  0  0
    6.3776   -5.4502    5.4085 O   0  0  0  0  0  0  0  0  0  0  0  0
    5.7366   -6.6567    5.3140 C   0  0  0  0  0  0  0  0  0  0  0  0
    5.9181   -7.4228    4.2188 C   0  0  0  0  0  0  0  0  0  0  0  0
    6.8221   -6.9324    3.0921 C   0  0  0  0  0  0  0  0  0  0  0  0
    5.2682   -8.7623    3.9784 C   0  0  1  0  0  0  0  0  0  0  0  0
    5.5959   -9.5588    2.7140 C   0  0  0  0  0  0  0  0  0  0  0  0
    6.2047   -9.8504    3.9578 O   0  0  0  0  0  0  0  0  0  0  0  0
    3.9350   -9.0780    4.6726 C   0  0  1  0  0  0  0  0  0  0  0  0
    4.0463  -10.1169    5.8125 C   0  0  0  0  0  0  0  0  0  0  0  0
    2.3519  -10.2586    1.1151 H   0  0  0  0  0  0  0  0  0  0  0  0
    2.8273   -8.6195    1.7547 H   0  0  0  0  0  0  0  0  0  0  0  0
    0.0731  -11.0346    3.7317 H   0  0  0  0  0  0  0  0  0  0  0  0
    0.2292  -11.4055    2.0098 H   0  0  0  0  0  0  0  0  0  0  0  0
   -0.9351  -10.2288    2.5208 H   0  0  0  0  0  0  0  0  0  0  0  0
   -1.3449   -8.1456    3.1442 H   0  0  0  0  0  0  0  0  0  0  0  0
   -1.2764   -6.3581    5.1336 H   0  0  0  0  0  0  0  0  0  0  0  0
   -1.1950   -8.1217    5.5216 H   0  0  0  0  0  0  0  0  0  0  0  0
    1.0805   -6.1921    5.2691 H   0  0  0  0  0  0  0  0  0  0  0  0
    1.3762   -9.1838    5.3631 H   0  0  0  0  0  0  0  0  0  0  0  0
    3.2174   -7.0448    4.2512 H   0  0  0  0  0  0  0  0  0  0  0  0
    3.9764   -7.1602    9.0178 H   0  0  0  0  0  0  0  0  0  0  0  0
    2.5780   -6.1159    9.1977 H   0  0  0  0  0  0  0  0  0  0  0  0
    2.7552   -9.1817    9.2385 H   0  0  0  0  0  0  0  0  0  0  0  0
    2.4975   -7.2819   12.8261 H   0  0  0  0  0  0  0  0  0  0  0  0
    1.0967   -7.0515   11.7980 H   0  0  0  0  0  0  0  0  0  0  0  0
    2.6130   -6.2010   11.4515 H   0  0  0  0  0  0  0  0  0  0  0  0
    0.4555   -9.4201    9.8168 H   0  0  0  0  0  0  0  0  0  0  0  0
    0.1789   -7.7135    9.8994 H   0  0  0  0  0  0  0  0  0  0  0  0
    0.7931   -9.3499    7.4278 H   0  0  0  0  0  0  0  0  0  0  0  0
   -0.6460   -8.4749    7.8166 H   0  0  0  0  0  0  0  0  0  0  0  0
   -0.7235   -5.8433    7.5454 H   0  0  0  0  0  0  0  0  0  0  0  0
    0.7995   -4.9871    7.3197 H   0  0  0  0  0  0  0  0  0  0  0  0
    0.4551   -5.7962    8.8231 H   0  0  0  0  0  0  0  0  0  0  0  0
    5.4156   -7.7922    7.0726 H   0  0  0  0  0  0  0  0  0  0  0  0
    4.2861   -5.0817    7.5705 H   0  0  0  0  0  0  0  0  0  0  0  0
    5.6756   -5.8840    8.3561 H   0  0  0  0  0  0  0  0  0  0  0  0
    6.2572   -6.8486    2.1558 H   0  0  0  0  0  0  0  0  0  0  0  0
    7.6690   -7.6153    2.9476 H   0  0  0  0  0  0  0  0  0  0  0  0
    7.2450   -5.9480    3.3035 H   0  0  0  0  0  0  0  0  0  0  0  0
    4.9229  -10.3366    2.3691 H   0  0  0  0  0  0  0  0  0  0  0  0
    6.3019   -9.2078    1.9680 H   0  0  0  0  0  0  0  0  0  0  0  0
    3.3982   -9.6563    3.9404 H   0  0  0  0  0  0  0  0  0  0  0  0
    4.7129   -9.8196    6.6195 H   0  0  0  0  0  0  0  0  0  0  0  0
    4.4117  -11.0613    5.4123 H   0  0  0  0  0  0  0  0  0  0  0  0
    3.0683  -10.3354    6.2429 H   0  0  0  0  0  0  0  0  0  0  0  0
  1  2  2  0
  1 34  1  0
  1 35  1  0
  2  3  1  0
  4  2  1  6
  3 36  1  0
  3 37  1  0
  3 38  1  0
  4  6  1  0
  4  9  1  0
  4  5  1  0
  5  6  1  0
  6  7  1  0
  6 39  1  6
  7  8  1  0
  7 40  1  0
  7 41  1  0
  8 19  1  0
  8  9  1  0
  8 42  1  6
  9 10  1  0
  9 43  1  1
 10 32  1  0
 10 11  1  0
 10 44  1  6
 11 12  2  0
 11 21  1  0
 12 19  1  0
 12 13  1  0
 13 14  1  0
 13 45  1  0
 13 46  1  0
 14 15  1  0
 14 17  1  0
 14 47  1  6
 15 16  1  0
 16 48  1  0
 16 49  1  0
 16 50  1  0
 17 18  1  0
 17 51  1  0
 17 52  1  0
 18 19  1  0
 18 53  1  0
 18 54  1  0
 19 20  1  1
 20 55  1  0
 20 56  1  0
 20 57  1  0
 21 26  1  0
 21 22  1  0
 21 58  1  1
 22 23  1  0
 22 59  1  0
 22 60  1  0
 23 24  2  0
 23 25  1  0
 25 26  1  0
 26 27  2  0
 27 28  1  0
 27 29  1  0
 28 61  1  0
 28 62  1  0
 28 63  1  0
 29 31  1  1
 29 30  1  0
 29 32  1  0
 30 31  1  0
 30 64  1  0
 30 65  1  0
 32 33  1  0
 32 66  1  6
 33 67  1  0
 33 68  1  0
 33 69  1  0
M  END
>  <i_m_ct_stereo_status>  (362) 
1

>  <s_m_source_file>  (362) 
/var/tmp/pbs.5076255.sched01/tmp0kxp0nim/126xlotvanm.sdf

>  <i_m_source_file_index>  (362) 
34

>  <i_lp_mmshare_version>  (362) 
48012

>  <i_f3d_flags>  (362) 
0

>  <s_epik_input>  (362) 
W0NIMl09QyhbQ0gzXSlbQ0BAXTEoW0NASF0oTzEpW0NIMl0yKVtDQEBIXShbQ0BASF0zW0NAQEhdNFtDSDNdKVtDQEBIXTJbQ0BAXShbQ0gzXSkoW0NIMl1bQ0gyXVtDQEBIXShbQ0gyXTUpT1tDSDNdKUM1PUMzW0NASF0oW0NIMl1DKD1PKU82KUM2PUMoW0NIM10pW0NAXTQ3W0NIMl1PNw==

>  <s_epik_cmdline>  (362) 
J2VwaWtfcHl0aG9uJywgJy1waHQnLCAnMi4wJywgJy1waCcsICc3LjAnLCAnLXRuJywgJzgnLCAnLW1hJywgJzIwMCcsICctaW1hZScsICc8aW5maWxlLm1hZT4nLCAnLW9tYWUnLCAnPG91dGZpbGUubWFlPic=

>  <r_lp_tautomer_probability>  (362) 
1

>  <r_epik_Ionization_Penalty>  (362) 
2.09116e-11

>  <r_epik_Ionization_Penalty_Charging>  (362) 
0

>  <r_epik_Ionization_Penalty_Neutral>  (362) 
2.09116e-11

>  <r_epik_State_Penalty>  (362) 
-0

>  <r_epik_Charging_Adjusted_Penalty>  (362) 
0

>  <i_epik_Tot_Q>  (362) 
0

>  <i_epik_Tot_abs_Q>  (362) 
0

>  <s_lp_Force_Field>  (362) 
OPLS3e

>  <r_lp_Energy>  (362) 
44.197

>  <b_lp_Chiralities_Consistent>  (362) 
1

>  <s_lp_Variant>  (362) 
114:0-1

>  <s_i_glide_gridfile>  (362) 
pfpi4k_grid

>  <i_i_glide_lignum>  (362) 
34

>  <i_i_glide_rotatable_bonds>  (362) 
2

>  <r_i_docking_score>  (362) 
-1.36172

>  <r_i_glide_ligand_efficiency>  (362) 
-0.0412644

>  <r_i_glide_ligand_efficiency_sa>  (362) 
-0.132357

>  <r_i_glide_ligand_efficiency_ln>  (362) 
-0.30284

>  <r_i_glide_gscore>  (362) 
-1.36172

>  <r_i_glide_lipo>  (362) 
-0.262684

>  <r_i_glide_hbond>  (362) 
0

>  <r_i_glide_metal>  (362) 
-0

>  <r_i_glide_rewards>  (362) 
-0.323888

>  <r_i_glide_evdw>  (362) 
-15.309

>  <r_i_glide_ecoul>  (362) 
-0.717764

>  <r_i_glide_erotb>  (362) 
0.0979651

>  <r_i_glide_esite>  (362) 
0

>  <r_i_glide_emodel>  (362) 
-15.2878

>  <r_i_glide_energy>  (362) 
-16.0268

>  <r_i_glide_einternal>  (362) 
3.603

>  <r_i_glide_intrahb_reward>  (362) 
-0

>  <i_i_glide_confnum>  (362) 
1

>  <i_i_glide_posenum>  (362) 
1

>  <r_i_glide_eff_state_penalty>  (362) 
0

>  <ligand_id>  (362) 
114

>  <original_smiles>  (362) 
C=C(C)C12OC1CC1C2C2C(=C3CC(OC)CCC31C)C1CC(=O)OC1=C(C)C1(CO1)C2C

>  <smiles>  (362) 
[H]C([H])=C(C([H])([H])[H])C12OC1([H])C([H])([H])C1([H])C2([H])C2([H])C(=C3C([H])([H])C([H])(OC([H])([H])[H])C([H])([H])C([H])([H])C31C([H])([H])[H])C1([H])C(=C(C([H])([H])[H])C3(OC3([H])[H])C2([H])C([H])([H])[H])OC(=O)C1([H])[H]

$$$$
114:0:2
     RDKit          3D

 69 75  0  0  1  0  0  0  0  0999 V2000
    1.2078  -11.6046    4.7126 C   0  0  0  0  0  0  0  0  0  0  0  0
    1.3202  -10.4934    3.9470 C   0  0  0  0  0  0  0  0  0  0  0  0
    0.6535  -10.4725    2.5932 C   0  0  0  0  0  0  0  0  0  0  0  0
    2.0833   -9.2596    4.3517 C   0  0  1  0  0  0  0  0  0  0  0  0
    2.2956   -8.3034    3.2993 O   0  0  0  0  0  0  0  0  0  0  0  0
    1.3639   -7.9402    4.3389 C   0  0  2  0  0  0  0  0  0  0  0  0
    1.8630   -7.0556    5.4499 C   0  0  0  0  0  0  0  0  0  0  0  0
    3.1943   -7.7153    5.8493 C   0  0  2  0  0  0  0  0  0  0  0  0
    3.0663   -9.2057    5.5257 C   0  0  2  0  0  0  0  0  0  0  0  0
    4.4985   -9.8148    5.3672 C   0  0  1  0  0  0  0  0  0  0  0  0
    5.4916   -9.2559    6.4243 C   0  0  0  0  0  0  0  0  0  0  0  0
    5.1037   -8.3295    7.3613 C   0  0  0  0  0  0  0  0  0  0  0  0
    5.8063   -8.1333    8.7145 C   0  0  0  0  0  0  0  0  0  0  0  0
    4.8426   -8.4839    9.8730 C   0  0  1  0  0  0  0  0  0  0  0  0
    5.4854   -8.2204   11.1139 O   0  0  0  0  0  0  0  0  0  0  0  0
    4.9254   -8.9173   12.2216 C   0  0  0  0  0  0  0  0  0  0  0  0
    3.5227   -7.6860    9.7909 C   0  0  0  0  0  0  0  0  0  0  0  0
    2.8625   -7.8127    8.4097 C   0  0  0  0  0  0  0  0  0  0  0  0
    3.8206   -7.4664    7.2410 C   0  0  2  0  0  0  0  0  0  0  0  0
    4.1857   -5.9604    7.3040 C   0  0  0  0  0  0  0  0  0  0  0  0
    6.9009   -9.8978    6.4085 C   0  0  2  0  0  0  0  0  0  0  0  0
    8.0217   -8.8849    6.6737 C   0  0  0  0  0  0  0  0  0  0  0  0
    8.9995   -9.0748    5.5374 C   0  0  0  0  0  0  0  0  0  0  0  0
   10.0554   -8.4701    5.4464 O   0  0  0  0  0  0  0  0  0  0  0  0
    8.5431   -9.9710    4.6919 O   0  0  0  0  0  0  0  0  0  0  0  0
    7.3647  -10.5229    5.0962 C   0  0  0  0  0  0  0  0  0  0  0  0
    6.7876  -11.5192    4.3762 C   0  0  0  0  0  0  0  0  0  0  0  0
    7.4455  -12.0137    3.0953 C   0  0  0  0  0  0  0  0  0  0  0  0
    5.4768  -12.1685    4.7143 C   0  0  1  0  0  0  0  0  0  0  0  0
    4.9451  -13.2859    3.8174 C   0  0  0  0  0  0  0  0  0  0  0  0
    5.6137  -13.5699    5.0404 O   0  0  0  0  0  0  0  0  0  0  0  0
    4.4018  -11.3745    5.4794 C   0  0  1  0  0  0  0  0  0  0  0  0
    4.2386  -11.8995    6.9348 C   0  0  0  0  0  0  0  0  0  0  0  0
    0.6627  -12.4661    4.3639 H   0  0  0  0  0  0  0  0  0  0  0  0
    1.7060  -11.6281    5.6751 H   0  0  0  0  0  0  0  0  0  0  0  0
   -0.1999   -9.7877    2.5836 H   0  0  0  0  0  0  0  0  0  0  0  0
    0.2868  -11.4698    2.3496 H   0  0  0  0  0  0  0  0  0  0  0  0
    1.3459  -10.1882    1.7941 H   0  0  0  0  0  0  0  0  0  0  0  0
    0.3153   -7.8680    4.0613 H   0  0  0  0  0  0  0  0  0  0  0  0
    1.9761   -6.0241    5.1078 H   0  0  0  0  0  0  0  0  0  0  0  0
    1.1324   -7.0638    6.2533 H   0  0  0  0  0  0  0  0  0  0  0  0
    3.8954   -7.3176    5.1111 H   0  0  0  0  0  0  0  0  0  0  0  0
    2.5465   -9.6824    6.3557 H   0  0  0  0  0  0  0  0  0  0  0  0
    4.8796   -9.5212    4.3875 H   0  0  0  0  0  0  0  0  0  0  0  0
    6.6678   -8.7858    8.8270 H   0  0  0  0  0  0  0  0  0  0  0  0
    6.1751   -7.1117    8.8009 H   0  0  0  0  0  0  0  0  0  0  0  0
    4.6334   -9.5534    9.7920 H   0  0  0  0  0  0  0  0  0  0  0  0
    5.3745   -8.5794   13.1559 H   0  0  0  0  0  0  0  0  0  0  0  0
    5.0992   -9.9873   12.1217 H   0  0  0  0  0  0  0  0  0  0  0  0
    3.8518   -8.7661   12.3190 H   0  0  0  0  0  0  0  0  0  0  0  0
    2.8001   -8.0371   10.5252 H   0  0  0  0  0  0  0  0  0  0  0  0
    3.7041   -6.6421   10.0428 H   0  0  0  0  0  0  0  0  0  0  0  0
    2.5046   -8.8377    8.3086 H   0  0  0  0  0  0  0  0  0  0  0  0
    1.9770   -7.1766    8.3772 H   0  0  0  0  0  0  0  0  0  0  0  0
    3.3086   -5.3285    7.1579 H   0  0  0  0  0  0  0  0  0  0  0  0
    4.9249   -5.6945    6.5461 H   0  0  0  0  0  0  0  0  0  0  0  0
    4.6140   -5.6717    8.2609 H   0  0  0  0  0  0  0  0  0  0  0  0
    6.9256  -10.6743    7.1726 H   0  0  0  0  0  0  0  0  0  0  0  0
    7.6794   -7.8521    6.6495 H   0  0  0  0  0  0  0  0  0  0  0  0
    8.5430   -9.0801    7.6088 H   0  0  0  0  0  0  0  0  0  0  0  0
    6.7770  -11.8531    2.2391 H   0  0  0  0  0  0  0  0  0  0  0  0
    7.6875  -13.0813    3.1782 H   0  0  0  0  0  0  0  0  0  0  0  0
    8.3728  -11.4813    2.8874 H   0  0  0  0  0  0  0  0  0  0  0  0
    3.8854  -13.5031    3.8405 H   0  0  0  0  0  0  0  0  0  0  0  0
    5.4601  -13.6769    2.9490 H   0  0  0  0  0  0  0  0  0  0  0  0
    3.4843  -11.6082    4.9771 H   0  0  0  0  0  0  0  0  0  0  0  0
    5.1214  -11.8883    7.5903 H   0  0  0  0  0  0  0  0  0  0  0  0
    3.8759  -12.9231    6.9113 H   0  0  0  0  0  0  0  0  0  0  0  0
    3.4696  -11.3408    7.4483 H   0  0  0  0  0  0  0  0  0  0  0  0
  1  2  2  0
  1 34  1  0
  1 35  1  0
  2  3  1  0
  4  2  1  6
  3 36  1  0
  3 37  1  0
  3 38  1  0
  4  6  1  0
  4  9  1  0
  4  5  1  0
  5  6  1  0
  6  7  1  0
  6 39  1  6
  7  8  1  0
  7 40  1  0
  7 41  1  0
  8 19  1  0
  8  9  1  0
  8 42  1  6
  9 10  1  0
  9 43  1  1
 10 32  1  0
 10 11  1  0
 10 44  1  6
 11 12  2  0
 11 21  1  0
 12 19  1  0
 12 13  1  0
 13 14  1  0
 13 45  1  0
 13 46  1  0
 14 15  1  0
 14 17  1  0
 14 47  1  1
 15 16  1  0
 16 48  1  0
 16 49  1  0
 16 50  1  0
 17 18  1  0
 17 51  1  0
 17 52  1  0
 18 19  1  0
 18 53  1  0
 18 54  1  0
 19 20  1  6
 20 55  1  0
 20 56  1  0
 20 57  1  0
 21 26  1  0
 21 22  1  0
 21 58  1  1
 22 23  1  0
 22 59  1  0
 22 60  1  0
 23 24  2  0
 23 25  1  0
 25 26  1  0
 26 27  2  0
 27 28  1  0
 27 29  1  0
 28 61  1  0
 28 62  1  0
 28 63  1  0
 29 31  1  1
 29 30  1  0
 29 32  1  0
 30 31  1  0
 30 64  1  0
 30 65  1  0
 32 33  1  0
 32 66  1  6
 33 67  1  0
 33 68  1  0
 33 69  1  0
M  END
>  <i_m_ct_stereo_status>  (363) 
1

>  <s_m_source_file>  (363) 
/var/tmp/pbs.5076255.sched01/tmp0kxp0nim/126xlotvanm.sdf

>  <i_m_source_file_index>  (363) 
34

>  <i_lp_mmshare_version>  (363) 
48012

>  <i_f3d_flags>  (363) 
0

>  <s_epik_input>  (363) 
W0NIMl09QyhbQ0gzXSlbQ0BAXTEoW0NASF0oTzEpW0NIMl0yKVtDQEBIXShbQ0BASF0zW0NAQEhdNFtDSDNdKVtDQEBIXTJbQ0BAXShbQ0gzXSkoW0NIMl1bQ0gyXVtDQEBIXShbQ0gyXTUpT1tDSDNdKUM1PUMzW0NASF0oW0NIMl1DKD1PKU82KUM2PUMoW0NIM10pW0NAXTQ3W0NIMl1PNw==

>  <s_epik_cmdline>  (363) 
J2VwaWtfcHl0aG9uJywgJy1waHQnLCAnMi4wJywgJy1waCcsICc3LjAnLCAnLXRuJywgJzgnLCAnLW1hJywgJzIwMCcsICctaW1hZScsICc8aW5maWxlLm1hZT4nLCAnLW9tYWUnLCAnPG91dGZpbGUubWFlPic=

>  <r_lp_tautomer_probability>  (363) 
1

>  <r_epik_Ionization_Penalty>  (363) 
2.09116e-11

>  <r_epik_Ionization_Penalty_Charging>  (363) 
0

>  <r_epik_Ionization_Penalty_Neutral>  (363) 
2.09116e-11

>  <r_epik_State_Penalty>  (363) 
-0

>  <r_epik_Charging_Adjusted_Penalty>  (363) 
0

>  <i_epik_Tot_Q>  (363) 
0

>  <i_epik_Tot_abs_Q>  (363) 
0

>  <s_lp_Force_Field>  (363) 
OPLS3e

>  <r_lp_Energy>  (363) 
44.197

>  <b_lp_Chiralities_Consistent>  (363) 
1

>  <s_lp_Variant>  (363) 
114:0-1

>  <s_i_glide_gridfile>  (363) 
pfpi4k_grid

>  <i_i_glide_lignum>  (363) 
34

>  <i_i_glide_rotatable_bonds>  (363) 
2

>  <r_i_docking_score>  (363) 
-1.30823

>  <r_i_glide_ligand_efficiency>  (363) 
-0.0396435

>  <r_i_glide_ligand_efficiency_sa>  (363) 
-0.127158

>  <r_i_glide_ligand_efficiency_ln>  (363) 
-0.290945

>  <r_i_glide_gscore>  (363) 
-1.30823

>  <r_i_glide_lipo>  (363) 
-0.192314

>  <r_i_glide_hbond>  (363) 
0

>  <r_i_glide_metal>  (363) 
-0

>  <r_i_glide_rewards>  (363) 
-0.323302

>  <r_i_glide_evdw>  (363) 
-13.9662

>  <r_i_glide_ecoul>  (363) 
-1.28182

>  <r_i_glide_erotb>  (363) 
0.0979651

>  <r_i_glide_esite>  (363) 
0

>  <r_i_glide_emodel>  (363) 
-15.3219

>  <r_i_glide_energy>  (363) 
-15.248

>  <r_i_glide_einternal>  (363) 
0.814833

>  <r_i_glide_intrahb_reward>  (363) 
-0

>  <i_i_glide_confnum>  (363) 
2

>  <i_i_glide_posenum>  (363) 
4

>  <r_i_glide_eff_state_penalty>  (363) 
0

>  <ligand_id>  (363) 
114

>  <original_smiles>  (363) 
C=C(C)C12OC1CC1C2C2C(=C3CC(OC)CCC31C)C1CC(=O)OC1=C(C)C1(CO1)C2C

>  <smiles>  (363) 
[H]C([H])=C(C([H])([H])[H])C12OC1([H])C([H])([H])C1([H])C2([H])C2([H])C(=C3C([H])([H])C([H])(OC([H])([H])[H])C([H])([H])C([H])([H])C31C([H])([H])[H])C1([H])C(=C(C([H])([H])[H])C3(OC3([H])[H])C2([H])C([H])([H])[H])OC(=O)C1([H])[H]

$$$$
115:0:0
     RDKit          3D

 73 79  0  0  1  0  0  0  0  0999 V2000
    1.2873   -6.5043    1.2101 C   0  0  0  0  0  0  0  0  0  0  0  0
    2.3379   -6.4880    2.3452 C   0  0  2  0  0  0  0  0  0  0  0  0
    2.2157   -7.8258    3.1627 C   0  0  0  0  0  0  0  0  0  0  0  0
    3.2594   -8.1169    4.2852 C   0  0  2  0  0  0  0  0  0  0  0  0
    3.1688   -7.4758    5.6995 C   0  0  0  0  0  0  0  0  0  0  0  0
    2.8322   -5.9759    5.9458 C   0  0  2  0  0  0  0  0  0  0  0  0
    1.3282   -5.7604    5.7028 C   0  0  0  0  0  0  0  0  0  0  0  0
    0.9395   -5.4986    4.2466 C   0  0  0  0  0  0  0  0  0  0  0  0
    2.0915   -5.2625    3.2623 C   0  0  0  0  0  0  0  0  0  0  0  0
    2.7835   -4.0851    3.3332 C   0  0  0  0  0  0  0  0  0  0  0  0
    3.5685   -3.3067    2.2542 C   0  0  2  0  0  0  0  0  0  0  0  0
    3.1990   -1.8861    2.6450 C   0  0  0  0  0  0  0  0  0  0  0  0
    4.4342   -1.5736    3.3934 C   0  0  1  0  0  0  0  0  0  0  0  0
    5.1660   -0.4237    2.6889 C   0  0  0  0  0  0  0  0  0  0  0  0
    5.1436   -0.6733    1.0979 C   0  0  0  0  0  0  0  0  0  0  0  0
    5.0527   -2.1619    0.4760 C   0  0  2  0  0  0  0  0  0  0  0  0
    6.4112   -2.8643    0.7868 C   0  0  0  0  0  0  0  0  0  0  0  0
    4.9874   -2.1544   -1.0554 C   0  0  0  0  0  0  0  0  0  0  0  0
    5.4152   -1.2537   -1.7740 O   0  0  0  0  0  0  0  0  0  0  0  0
    4.3601   -3.4420   -1.5887 C   0  0  0  0  0  0  0  0  0  0  0  0
    3.9228   -4.2007   -0.3217 C   0  0  0  0  0  0  0  0  0  0  0  0
    3.7450   -3.0906    0.7202 C   0  0  1  0  0  0  0  0  0  0  0  0
    4.2892   -2.2531    4.7897 C   0  0  0  0  0  0  0  0  0  0  0  0
    3.2146   -3.5125    4.7808 C   0  0  1  0  0  0  0  0  0  0  0  0
    2.0209   -2.8241    5.5356 C   0  0  0  0  0  0  0  0  0  0  0  0
    3.8149   -4.7678    5.5816 C   0  0  2  0  0  0  0  0  0  0  0  0
    5.2889   -5.0930    5.1218 C   0  0  0  0  0  0  0  0  0  0  0  0
    5.8608   -6.4924    4.7830 C   0  0  0  0  0  0  0  0  0  0  0  0
    5.3194   -7.1323    3.4779 C   0  0  2  0  0  0  0  0  0  0  0  0
    4.6996   -6.1628    2.6906 O   0  0  0  0  0  0  0  0  0  0  0  0
    3.7869   -6.5953    1.8118 C   0  0  0  0  0  0  0  0  0  0  0  0
    4.0591   -7.1454    0.7450 O   0  0  0  0  0  0  0  0  0  0  0  0
    4.5735   -8.2696    3.7771 O   0  0  0  0  0  0  0  0  0  0  0  0
    1.3085   -5.5685    0.6544 H   0  0  0  0  0  0  0  0  0  0  0  0
    0.2804   -6.6441    1.6038 H   0  0  0  0  0  0  0  0  0  0  0  0
    1.4465   -7.3158    0.5008 H   0  0  0  0  0  0  0  0  0  0  0  0
    1.2212   -8.0100    3.5597 H   0  0  0  0  0  0  0  0  0  0  0  0
    2.3184   -8.6452    2.4478 H   0  0  0  0  0  0  0  0  0  0  0  0
    3.0482   -9.1633    4.5108 H   0  0  0  0  0  0  0  0  0  0  0  0
    2.3880   -8.0424    6.2074 H   0  0  0  0  0  0  0  0  0  0  0  0
    4.0289   -7.7647    6.2963 H   0  0  0  0  0  0  0  0  0  0  0  0
    2.8696   -5.9618    7.0367 H   0  0  0  0  0  0  0  0  0  0  0  0
    0.7606   -6.6273    6.0465 H   0  0  0  0  0  0  0  0  0  0  0  0
    0.9478   -4.9750    6.3501 H   0  0  0  0  0  0  0  0  0  0  0  0
    0.2536   -6.2625    3.8980 H   0  0  0  0  0  0  0  0  0  0  0  0
    0.2738   -4.6433    4.1794 H   0  0  0  0  0  0  0  0  0  0  0  0
    4.5288   -3.7512    2.4862 H   0  0  0  0  0  0  0  0  0  0  0  0
    2.9322   -1.1826    1.8609 H   0  0  0  0  0  0  0  0  0  0  0  0
    2.2887   -1.7779    3.2285 H   0  0  0  0  0  0  0  0  0  0  0  0
    5.3131   -2.1599    3.1550 H   0  0  0  0  0  0  0  0  0  0  0  0
    4.6847    0.5281    2.9181 H   0  0  0  0  0  0  0  0  0  0  0  0
    6.1957   -0.3385    3.0460 H   0  0  0  0  0  0  0  0  0  0  0  0
    4.3316   -0.0797    0.6717 H   0  0  0  0  0  0  0  0  0  0  0  0
    6.0298   -0.1799    0.6927 H   0  0  0  0  0  0  0  0  0  0  0  0
    6.5166   -3.2076    1.8099 H   0  0  0  0  0  0  0  0  0  0  0  0
    7.2458   -2.1839    0.6060 H   0  0  0  0  0  0  0  0  0  0  0  0
    6.6023   -3.7347    0.1591 H   0  0  0  0  0  0  0  0  0  0  0  0
    3.5025   -3.2034   -2.2215 H   0  0  0  0  0  0  0  0  0  0  0  0
    5.0709   -4.0214   -2.1799 H   0  0  0  0  0  0  0  0  0  0  0  0
    3.0146   -4.7738   -0.4920 H   0  0  0  0  0  0  0  0  0  0  0  0
    4.7243   -4.8838   -0.0436 H   0  0  0  0  0  0  0  0  0  0  0  0
    2.8507   -2.5776    0.3538 H   0  0  0  0  0  0  0  0  0  0  0  0
    5.2787   -2.5551    5.1301 H   0  0  0  0  0  0  0  0  0  0  0  0
    4.0520   -1.5048    5.5459 H   0  0  0  0  0  0  0  0  0  0  0  0
    2.0595   -3.0034    6.6086 H   0  0  0  0  0  0  0  0  0  0  0  0
    1.0357   -3.0835    5.1786 H   0  0  0  0  0  0  0  0  0  0  0  0
    2.0029   -1.7401    5.4212 H   0  0  0  0  0  0  0  0  0  0  0  0
    3.9853   -4.3240    6.5610 H   0  0  0  0  0  0  0  0  0  0  0  0
    5.5648   -4.4753    4.2742 H   0  0  0  0  0  0  0  0  0  0  0  0
    5.9350   -4.7228    5.9185 H   0  0  0  0  0  0  0  0  0  0  0  0
    6.9203   -6.3292    4.5886 H   0  0  0  0  0  0  0  0  0  0  0  0
    5.8823   -7.2010    5.6090 H   0  0  0  0  0  0  0  0  0  0  0  0
    6.1548   -7.5186    2.8901 H   0  0  0  0  0  0  0  0  0  0  0  0
  2  1  1  6
  1 34  1  0
  1 35  1  0
  1 36  1  0
  2  9  1  0
  2 31  1  0
  2  3  1  0
  3  4  1  0
  3 37  1  0
  3 38  1  0
  4 33  1  0
  4  5  1  0
  4 39  1  1
  5  6  1  0
  5 40  1  0
  5 41  1  0
  6 26  1  0
  6  7  1  0
  6 42  1  1
  7  8  1  0
  7 43  1  0
  7 44  1  0
  8  9  1  0
  8 45  1  0
  8 46  1  0
  9 10  2  0
 10 24  1  0
 10 11  1  0
 11 22  1  0
 11 12  1  0
 11 47  1  1
 12 13  1  0
 12 48  1  0
 12 49  1  0
 13 14  1  0
 13 23  1  0
 13 50  1  6
 14 15  1  0
 14 51  1  0
 14 52  1  0
 15 16  1  0
 15 53  1  0
 15 54  1  0
 16 22  1  0
 16 17  1  6
 16 18  1  0
 17 55  1  0
 17 56  1  0
 17 57  1  0
 18 19  2  0
 18 20  1  0
 20 21  1  0
 20 58  1  0
 20 59  1  0
 21 22  1  0
 21 60  1  0
 21 61  1  0
 22 62  1  6
 23 24  1  0
 23 63  1  0
 23 64  1  0
 24 25  1  1
 24 26  1  0
 25 65  1  0
 25 66  1  0
 25 67  1  0
 26 27  1  0
 26 68  1  1
 27 28  1  0
 27 69  1  0
 27 70  1  0
 28 29  1  0
 28 71  1  0
 28 72  1  0
 29 30  1  0
 29 33  1  0
 29 73  1  6
 30 31  1  0
 31 32  2  0
M  END
>  <i_m_ct_stereo_status>  (364) 
1

>  <s_m_source_file>  (364) 
/var/tmp/pbs.5076255.sched01/tmp0kxp0nim/126xlotvanm.sdf

>  <i_m_source_file_index>  (364) 
35

>  <i_lp_mmshare_version>  (364) 
48012

>  <i_f3d_flags>  (364) 
0

>  <s_epik_input>  (364) 
W0NIM11bQ0BAXTEyQzM9QzRbQ0BIXTVbQ0BIXTZbQ0BAXShbQ0gzXSkoQyg9TylbQ0gyXVtDSDJdNilbQ0gyXVtDSDJdW0NASF0oW0NIMl01KVtDSDJdW0NAXTQoW0NIM10pW0NIXTdbQ0BASF0oW0NIMl1bQ0gyXTMpW0NIMl1bQ0BASF0oW0NIMl0xKU9bQ0BIXShbQ0gyXVtDSDJdNylPQzI9Tw==

>  <s_epik_cmdline>  (364) 
J2VwaWtfcHl0aG9uJywgJy1waHQnLCAnMi4wJywgJy1waCcsICc3LjAnLCAnLXRuJywgJzgnLCAnLW1hJywgJzIwMCcsICctaW1hZScsICc8aW5maWxlLm1hZT4nLCAnLW9tYWUnLCAnPG91dGZpbGUubWFlPic=

>  <r_lp_tautomer_probability>  (364) 
1

>  <r_epik_Ionization_Penalty>  (364) 
2.21281e-13

>  <r_epik_Ionization_Penalty_Charging>  (364) 
0

>  <r_epik_Ionization_Penalty_Neutral>  (364) 
2.21281e-13

>  <r_epik_State_Penalty>  (364) 
-0

>  <r_epik_Charging_Adjusted_Penalty>  (364) 
0

>  <i_epik_Tot_Q>  (364) 
0

>  <i_epik_Tot_abs_Q>  (364) 
0

>  <s_epik_Chemistry_Notes>  (364) 
This compound has an ester and may undergo hydrolysis at high or low pH. This compound contains an acetal/aminal-like group ( X-CH(R)-Y where X, Y are N, S, or O) that may be acid/base labile, releasing an aldehyde.

>  <s_lp_Force_Field>  (364) 
OPLS3e

>  <r_lp_Energy>  (364) 
265.747

>  <b_lp_Chiralities_Consistent>  (364) 
1

>  <s_lp_Variant>  (364) 
115:0-1

>  <s_i_glide_gridfile>  (364) 
pfpi4k_grid

>  <i_i_glide_lignum>  (364) 
35

>  <i_i_glide_rotatable_bonds>  (364) 
0

>  <r_i_docking_score>  (364) 
-2.43022

>  <r_i_glide_ligand_efficiency>  (364) 
-0.0736429

>  <r_i_glide_ligand_efficiency_sa>  (364) 
-0.236212

>  <r_i_glide_ligand_efficiency_ln>  (364) 
-0.540468

>  <r_i_glide_gscore>  (364) 
-2.43022

>  <r_i_glide_lipo>  (364) 
-0.438027

>  <r_i_glide_hbond>  (364) 
-0.00327637

>  <r_i_glide_metal>  (364) 
-0

>  <r_i_glide_rewards>  (364) 
-0.374818

>  <r_i_glide_evdw>  (364) 
-28.3818

>  <r_i_glide_ecoul>  (364) 
-1.15543

>  <r_i_glide_erotb>  (364) 
0

>  <r_i_glide_esite>  (364) 
-0.021692

>  <r_i_glide_emodel>  (364) 
-33.7515

>  <r_i_glide_energy>  (364) 
-29.5372

>  <r_i_glide_einternal>  (364) 
0

>  <r_i_glide_intrahb_reward>  (364) 
-0

>  <i_i_glide_confnum>  (364) 
1

>  <i_i_glide_posenum>  (364) 
1

>  <r_i_glide_eff_state_penalty>  (364) 
0

>  <ligand_id>  (364) 
115

>  <original_smiles>  (364) 
CC12CC3CC4CCC1=C1C5CC(CCC6(C)C(=O)CCC56)CC1(C)C4CCC(OC2=O)O3

>  <smiles>  (364) 
[H]C([H])([H])C12C(=O)OC3([H])OC([H])(C1([H])[H])C([H])([H])C1([H])C([H])([H])C([H])([H])C2=C2C4([H])C([H])([H])C([H])(C([H])([H])C([H])([H])C5(C([H])([H])[H])C(=O)C([H])([H])C([H])([H])C45[H])C([H])([H])C2(C([H])([H])[H])C1([H])C([H])([H])C3([H])[H]

$$$$
115:0:1
     RDKit          3D

 73 79  0  0  1  0  0  0  0  0999 V2000
    5.1751   -0.7403    5.8498 C   0  0  0  0  0  0  0  0  0  0  0  0
    4.0610   -1.8119    5.7808 C   0  0  2  0  0  0  0  0  0  0  0  0
    3.2382   -1.7744    7.1218 C   0  0  0  0  0  0  0  0  0  0  0  0
    1.9626   -2.6642    7.2465 C   0  0  2  0  0  0  0  0  0  0  0  0
    2.0323   -4.1853    7.5634 C   0  0  0  0  0  0  0  0  0  0  0  0
    3.0497   -5.1583    6.8985 C   0  0  2  0  0  0  0  0  0  0  0  0
    4.4386   -4.9192    7.5155 C   0  0  0  0  0  0  0  0  0  0  0  0
    5.2523   -3.7978    6.8671 C   0  0  0  0  0  0  0  0  0  0  0  0
    4.6929   -3.2102    5.5661 C   0  0  0  0  0  0  0  0  0  0  0  0
    4.7470   -3.9672    4.4283 C   0  0  0  0  0  0  0  0  0  0  0  0
    4.7973   -3.5530    2.9411 C   0  0  2  0  0  0  0  0  0  0  0  0
    5.7611   -4.6037    2.4151 C   0  0  0  0  0  0  0  0  0  0  0  0
    4.7497   -5.5203    1.8525 C   0  0  1  0  0  0  0  0  0  0  0  0
    4.9485   -5.6106    0.3335 C   0  0  0  0  0  0  0  0  0  0  0  0
    5.2224   -4.1386   -0.2566 C   0  0  0  0  0  0  0  0  0  0  0  0
    4.6490   -2.8136    0.4699 C   0  0  2  0  0  0  0  0  0  0  0  0
    3.0994   -2.8381    0.2917 C   0  0  0  0  0  0  0  0  0  0  0  0
    5.0861   -1.5236   -0.2348 C   0  0  0  0  0  0  0  0  0  0  0  0
    5.4576   -1.4427   -1.4049 O   0  0  0  0  0  0  0  0  0  0  0  0
    5.0243   -0.3303    0.7170 C   0  0  0  0  0  0  0  0  0  0  0  0
    4.6635   -0.9447    2.0808 C   0  0  0  0  0  0  0  0  0  0  0  0
    5.1450   -2.3941    1.9577 C   0  0  1  0  0  0  0  0  0  0  0  0
    4.1593   -6.3163    3.0576 C   0  0  0  0  0  0  0  0  0  0  0  0
    4.3513   -5.5312    4.5030 C   0  0  1  0  0  0  0  0  0  0  0  0
    5.4984   -6.4133    5.1130 C   0  0  0  0  0  0  0  0  0  0  0  0
    2.9967   -5.5943    5.3612 C   0  0  2  0  0  0  0  0  0  0  0  0
    1.7473   -5.1779    4.4949 C   0  0  0  0  0  0  0  0  0  0  0  0
    0.6204   -4.2028    4.9171 C   0  0  0  0  0  0  0  0  0  0  0  0
    1.0304   -2.7104    5.0162 C   0  0  2  0  0  0  0  0  0  0  0  0
    2.2441   -2.5022    4.3623 O   0  0  0  0  0  0  0  0  0  0  0  0
    2.9667   -1.4446    4.7539 C   0  0  0  0  0  0  0  0  0  0  0  0
    2.7125   -0.2766    4.4553 O   0  0  0  0  0  0  0  0  0  0  0  0
    0.9422   -2.2818    6.3397 O   0  0  0  0  0  0  0  0  0  0  0  0
    5.8139   -0.7833    4.9685 H   0  0  0  0  0  0  0  0  0  0  0  0
    5.8143   -0.8924    6.7204 H   0  0  0  0  0  0  0  0  0  0  0  0
    4.7695    0.2705    5.9264 H   0  0  0  0  0  0  0  0  0  0  0  0
    3.8452   -1.9134    8.0119 H   0  0  0  0  0  0  0  0  0  0  0  0
    2.8923   -0.7470    7.2521 H   0  0  0  0  0  0  0  0  0  0  0  0
    1.5188   -2.2754    8.1641 H   0  0  0  0  0  0  0  0  0  0  0  0
    2.2363   -4.2326    8.6331 H   0  0  0  0  0  0  0  0  0  0  0  0
    1.0377   -4.6201    7.5429 H   0  0  0  0  0  0  0  0  0  0  0  0
    2.7606   -6.0867    7.3949 H   0  0  0  0  0  0  0  0  0  0  0  0
    4.3481   -4.6911    8.5794 H   0  0  0  0  0  0  0  0  0  0  0  0
    5.0088   -5.8441    7.5358 H   0  0  0  0  0  0  0  0  0  0  0  0
    5.4839   -3.0284    7.5956 H   0  0  0  0  0  0  0  0  0  0  0  0
    6.2649   -4.1313    6.6626 H   0  0  0  0  0  0  0  0  0  0  0  0
    3.7267   -3.6050    2.7861 H   0  0  0  0  0  0  0  0  0  0  0  0
    6.5478   -4.2929    1.7330 H   0  0  0  0  0  0  0  0  0  0  0  0
    6.4089   -5.0650    3.1554 H   0  0  0  0  0  0  0  0  0  0  0  0
    3.7843   -5.0934    1.6109 H   0  0  0  0  0  0  0  0  0  0  0  0
    5.7925   -6.2576    0.0967 H   0  0  0  0  0  0  0  0  0  0  0  0
    4.0767   -6.0583   -0.1493 H   0  0  0  0  0  0  0  0  0  0  0  0
    6.3008   -4.0159   -0.3756 H   0  0  0  0  0  0  0  0  0  0  0  0
    4.8718   -4.1512   -1.2915 H   0  0  0  0  0  0  0  0  0  0  0  0
    2.5796   -3.5273    0.9478 H   0  0  0  0  0  0  0  0  0  0  0  0
    2.8361   -3.1270   -0.7284 H   0  0  0  0  0  0  0  0  0  0  0  0
    2.6302   -1.8662    0.4465 H   0  0  0  0  0  0  0  0  0  0  0  0
    6.0037    0.1491    0.7439 H   0  0  0  0  0  0  0  0  0  0  0  0
    4.2866    0.4070    0.3965 H   0  0  0  0  0  0  0  0  0  0  0  0
    5.1330   -0.4032    2.9002 H   0  0  0  0  0  0  0  0  0  0  0  0
    3.5817   -0.8924    2.1948 H   0  0  0  0  0  0  0  0  0  0  0  0
    6.2317   -2.2733    1.9653 H   0  0  0  0  0  0  0  0  0  0  0  0
    3.1155   -6.5408    2.8444 H   0  0  0  0  0  0  0  0  0  0  0  0
    4.5687   -7.3264    3.0727 H   0  0  0  0  0  0  0  0  0  0  0  0
    5.1068   -7.2234    5.7262 H   0  0  0  0  0  0  0  0  0  0  0  0
    6.2417   -5.8780    5.6847 H   0  0  0  0  0  0  0  0  0  0  0  0
    6.1243   -6.8941    4.3607 H   0  0  0  0  0  0  0  0  0  0  0  0
    2.8574   -6.6707    5.4449 H   0  0  0  0  0  0  0  0  0  0  0  0
    2.0647   -4.8219    3.5208 H   0  0  0  0  0  0  0  0  0  0  0  0
    1.2289   -6.1086    4.2620 H   0  0  0  0  0  0  0  0  0  0  0  0
   -0.0938   -4.2304    4.1002 H   0  0  0  0  0  0  0  0  0  0  0  0
    0.0187   -4.5240    5.7644 H   0  0  0  0  0  0  0  0  0  0  0  0
    0.2952   -2.0974    4.4911 H   0  0  0  0  0  0  0  0  0  0  0  0
  2  1  1  1
  1 34  1  0
  1 35  1  0
  1 36  1  0
  2  9  1  0
  2 31  1  0
  2  3  1  0
  3  4  1  0
  3 37  1  0
  3 38  1  0
  4 33  1  0
  4  5  1  0
  4 39  1  1
  5  6  1  0
  5 40  1  0
  5 41  1  0
  6 26  1  0
  6  7  1  0
  6 42  1  1
  7  8  1  0
  7 43  1  0
  7 44  1  0
  8  9  1  0
  8 45  1  0
  8 46  1  0
  9 10  2  0
 10 24  1  0
 10 11  1  0
 11 22  1  0
 11 12  1  0
 11 47  1  6
 12 13  1  0
 12 48  1  0
 12 49  1  0
 13 14  1  0
 13 23  1  0
 13 50  1  6
 14 15  1  0
 14 51  1  0
 14 52  1  0
 15 16  1  0
 15 53  1  0
 15 54  1  0
 16 22  1  0
 16 17  1  1
 16 18  1  0
 17 55  1  0
 17 56  1  0
 17 57  1  0
 18 19  2  0
 18 20  1  0
 20 21  1  0
 20 58  1  0
 20 59  1  0
 21 22  1  0
 21 60  1  0
 21 61  1  0
 22 62  1  6
 23 24  1  0
 23 63  1  0
 23 64  1  0
 24 25  1  1
 24 26  1  0
 25 65  1  0
 25 66  1  0
 25 67  1  0
 26 27  1  0
 26 68  1  1
 27 28  1  0
 27 69  1  0
 27 70  1  0
 28 29  1  0
 28 71  1  0
 28 72  1  0
 29 30  1  0
 29 33  1  0
 29 73  1  6
 30 31  1  0
 31 32  2  0
M  END
>  <i_m_ct_stereo_status>  (365) 
1

>  <s_m_source_file>  (365) 
/var/tmp/pbs.5076255.sched01/tmp0kxp0nim/126xlotvanm.sdf

>  <i_m_source_file_index>  (365) 
35

>  <i_lp_mmshare_version>  (365) 
48012

>  <i_f3d_flags>  (365) 
0

>  <s_epik_input>  (365) 
W0NIM11bQ0BAXTEyQzM9QzRbQ0BIXTVbQ0BIXTZbQ0BAXShbQ0gzXSkoQyg9TylbQ0gyXVtDSDJdNilbQ0gyXVtDSDJdW0NASF0oW0NIMl01KVtDSDJdW0NAXTQoW0NIM10pW0NIXTdbQ0BASF0oW0NIMl1bQ0gyXTMpW0NIMl1bQ0BASF0oW0NIMl0xKU9bQ0BIXShbQ0gyXVtDSDJdNylPQzI9Tw==

>  <s_epik_cmdline>  (365) 
J2VwaWtfcHl0aG9uJywgJy1waHQnLCAnMi4wJywgJy1waCcsICc3LjAnLCAnLXRuJywgJzgnLCAnLW1hJywgJzIwMCcsICctaW1hZScsICc8aW5maWxlLm1hZT4nLCAnLW9tYWUnLCAnPG91dGZpbGUubWFlPic=

>  <r_lp_tautomer_probability>  (365) 
1

>  <r_epik_Ionization_Penalty>  (365) 
2.21281e-13

>  <r_epik_Ionization_Penalty_Charging>  (365) 
0

>  <r_epik_Ionization_Penalty_Neutral>  (365) 
2.21281e-13

>  <r_epik_State_Penalty>  (365) 
-0

>  <r_epik_Charging_Adjusted_Penalty>  (365) 
0

>  <i_epik_Tot_Q>  (365) 
0

>  <i_epik_Tot_abs_Q>  (365) 
0

>  <s_epik_Chemistry_Notes>  (365) 
This compound has an ester and may undergo hydrolysis at high or low pH. This compound contains an acetal/aminal-like group ( X-CH(R)-Y where X, Y are N, S, or O) that may be acid/base labile, releasing an aldehyde.

>  <s_lp_Force_Field>  (365) 
OPLS3e

>  <r_lp_Energy>  (365) 
265.747

>  <b_lp_Chiralities_Consistent>  (365) 
1

>  <s_lp_Variant>  (365) 
115:0-1

>  <s_i_glide_gridfile>  (365) 
pfpi4k_grid

>  <i_i_glide_lignum>  (365) 
35

>  <i_i_glide_rotatable_bonds>  (365) 
0

>  <r_i_docking_score>  (365) 
-2.394

>  <r_i_glide_ligand_efficiency>  (365) 
-0.0725456

>  <r_i_glide_ligand_efficiency_sa>  (365) 
-0.232693

>  <r_i_glide_ligand_efficiency_ln>  (365) 
-0.532414

>  <r_i_glide_gscore>  (365) 
-2.394

>  <r_i_glide_lipo>  (365) 
-0.595854

>  <r_i_glide_hbond>  (365) 
0

>  <r_i_glide_metal>  (365) 
-0

>  <r_i_glide_rewards>  (365) 
-0.327647

>  <r_i_glide_evdw>  (365) 
-23.2145

>  <r_i_glide_ecoul>  (365) 
-1.98977

>  <r_i_glide_erotb>  (365) 
0

>  <r_i_glide_esite>  (365) 
-0.0113119

>  <r_i_glide_emodel>  (365) 
-29.3582

>  <r_i_glide_energy>  (365) 
-25.2043

>  <r_i_glide_einternal>  (365) 
0

>  <r_i_glide_intrahb_reward>  (365) 
-0

>  <i_i_glide_confnum>  (365) 
1

>  <i_i_glide_posenum>  (365) 
2

>  <r_i_glide_eff_state_penalty>  (365) 
0

>  <ligand_id>  (365) 
115

>  <original_smiles>  (365) 
CC12CC3CC4CCC1=C1C5CC(CCC6(C)C(=O)CCC56)CC1(C)C4CCC(OC2=O)O3

>  <smiles>  (365) 
[H]C([H])([H])C12C(=O)OC3([H])OC([H])(C1([H])[H])C([H])([H])C1([H])C([H])([H])C([H])([H])C2=C2C4([H])C([H])([H])C([H])(C([H])([H])C([H])([H])C5(C([H])([H])[H])C(=O)C([H])([H])C([H])([H])C45[H])C([H])([H])C2(C([H])([H])[H])C1([H])C([H])([H])C3([H])[H]

$$$$
115:0:2
     RDKit          3D

 73 79  0  0  1  0  0  0  0  0999 V2000
    2.6827   -4.6026    4.0736 C   0  0  0  0  0  0  0  0  0  0  0  0
    3.4066   -5.8401    3.5007 C   0  0  2  0  0  0  0  0  0  0  0  0
    2.9189   -7.1154    4.2843 C   0  0  0  0  0  0  0  0  0  0  0  0
    3.3994   -8.5170    3.8029 C   0  0  2  0  0  0  0  0  0  0  0  0
    4.8066   -9.0918    4.1295 C   0  0  0  0  0  0  0  0  0  0  0  0
    6.1183   -8.2574    4.0513 C   0  0  2  0  0  0  0  0  0  0  0  0
    6.1578   -7.3046    5.2515 C   0  0  0  0  0  0  0  0  0  0  0  0
    5.4275   -5.9712    5.0428 C   0  0  0  0  0  0  0  0  0  0  0  0
    4.9254   -5.6677    3.6281 C   0  0  0  0  0  0  0  0  0  0  0  0
    5.8581   -5.3722    2.6299 C   0  0  0  0  0  0  0  0  0  0  0  0
    5.6471   -4.6177    1.3037 C   0  0  2  0  0  0  0  0  0  0  0  0
    7.0090   -3.8942    1.2818 C   0  0  0  0  0  0  0  0  0  0  0  0
    7.7303   -4.7343    0.3381 C   0  0  1  0  0  0  0  0  0  0  0  0
    8.2777   -3.7720   -0.7538 C   0  0  0  0  0  0  0  0  0  0  0  0
    6.9982   -2.8657   -1.2151 C   0  0  0  0  0  0  0  0  0  0  0  0
    5.4383   -3.2271   -0.8489 C   0  0  2  0  0  0  0  0  0  0  0  0
    5.0146   -4.4031   -1.7225 C   0  0  0  0  0  0  0  0  0  0  0  0
    4.4525   -2.1510   -1.2715 C   0  0  0  0  0  0  0  0  0  0  0  0
    4.6764   -1.3062   -2.1638 O   0  0  0  0  0  0  0  0  0  0  0  0
    3.1342   -2.2641   -0.5111 C   0  0  0  0  0  0  0  0  0  0  0  0
    3.3647   -3.3829    0.5257 C   0  0  0  0  0  0  0  0  0  0  0  0
    4.8869   -3.3977    0.6734 C   0  0  1  0  0  0  0  0  0  0  0  0
    8.1643   -5.9574    1.2106 C   0  0  0  0  0  0  0  0  0  0  0  0
    7.2157   -6.2343    2.5548 C   0  0  1  0  0  0  0  0  0  0  0  0
    8.2664   -5.8862    3.6761 C   0  0  0  0  0  0  0  0  0  0  0  0
    6.7847   -7.7690    2.6850 C   0  0  2  0  0  0  0  0  0  0  0  0
    6.1690   -8.2717    1.3507 C   0  0  0  0  0  0  0  0  0  0  0  0
    4.8863   -9.0984    1.2085 C   0  0  0  0  0  0  0  0  0  0  0  0
    3.5679   -8.3194    1.4382 C   0  0  2  0  0  0  0  0  0  0  0  0
    3.7794   -6.9486    1.3856 O   0  0  0  0  0  0  0  0  0  0  0  0
    2.8981   -6.1696    2.0580 C   0  0  0  0  0  0  0  0  0  0  0  0
    1.7928   -5.8871    1.6625 O   0  0  0  0  0  0  0  0  0  0  0  0
    2.8888   -8.8224    2.5281 O   0  0  0  0  0  0  0  0  0  0  0  0
    3.0597   -3.6902    3.6120 H   0  0  0  0  0  0  0  0  0  0  0  0
    2.8598   -4.5246    5.1437 H   0  0  0  0  0  0  0  0  0  0  0  0
    1.6032   -4.6481    3.9221 H   0  0  0  0  0  0  0  0  0  0  0  0
    3.0761   -7.0596    5.3594 H   0  0  0  0  0  0  0  0  0  0  0  0
    1.8362   -7.1467    4.2023 H   0  0  0  0  0  0  0  0  0  0  0  0
    2.7559   -9.1872    4.3792 H   0  0  0  0  0  0  0  0  0  0  0  0
    4.7315   -9.4216    5.1613 H   0  0  0  0  0  0  0  0  0  0  0  0
    4.9547  -10.0542    3.6521 H   0  0  0  0  0  0  0  0  0  0  0  0
    6.8364   -9.0179    4.3625 H   0  0  0  0  0  0  0  0  0  0  0  0
    5.7381   -7.7869    6.1369 H   0  0  0  0  0  0  0  0  0  0  0  0
    7.1825   -7.1404    5.5701 H   0  0  0  0  0  0  0  0  0  0  0  0
    4.6473   -5.8611    5.7836 H   0  0  0  0  0  0  0  0  0  0  0  0
    6.0576   -5.1469    5.3461 H   0  0  0  0  0  0  0  0  0  0  0  0
    5.4269   -5.4348    0.6239 H   0  0  0  0  0  0  0  0  0  0  0  0
    7.0467   -2.8038    1.1626 H   0  0  0  0  0  0  0  0  0  0  0  0
    7.6232   -3.8703    2.0960 H   0  0  0  0  0  0  0  0  0  0  0  0
    7.1316   -5.2797   -0.3287 H   0  0  0  0  0  0  0  0  0  0  0  0
    9.0683   -3.0943   -0.3718 H   0  0  0  0  0  0  0  0  0  0  0  0
    8.7098   -4.3541   -1.5728 H   0  0  0  0  0  0  0  0  0  0  0  0
    7.1446   -1.8749   -0.8046 H   0  0  0  0  0  0  0  0  0  0  0  0
    7.0649   -2.7185   -2.2976 H   0  0  0  0  0  0  0  0  0  0  0  0
    5.4223   -5.3506   -1.4012 H   0  0  0  0  0  0  0  0  0  0  0  0
    5.3754   -4.2861   -2.7481 H   0  0  0  0  0  0  0  0  0  0  0  0
    3.9346   -4.4939   -1.7844 H   0  0  0  0  0  0  0  0  0  0  0  0
    2.9199   -1.3144   -0.0142 H   0  0  0  0  0  0  0  0  0  0  0  0
    2.3038   -2.5212   -1.1721 H   0  0  0  0  0  0  0  0  0  0  0  0
    2.8395   -3.1942    1.4580 H   0  0  0  0  0  0  0  0  0  0  0  0
    2.9969   -4.3227    0.1101 H   0  0  0  0  0  0  0  0  0  0  0  0
    5.0650   -2.4694    1.2325 H   0  0  0  0  0  0  0  0  0  0  0  0
    8.1472   -6.8236    0.5497 H   0  0  0  0  0  0  0  0  0  0  0  0
    9.2208   -5.9328    1.4627 H   0  0  0  0  0  0  0  0  0  0  0  0
    8.8377   -6.7604    3.9972 H   0  0  0  0  0  0  0  0  0  0  0  0
    7.8640   -5.4187    4.5508 H   0  0  0  0  0  0  0  0  0  0  0  0
    8.9942   -5.1742    3.3294 H   0  0  0  0  0  0  0  0  0  0  0  0
    7.7515   -8.2566    2.7075 H   0  0  0  0  0  0  0  0  0  0  0  0
    6.0576   -7.4318    0.6848 H   0  0  0  0  0  0  0  0  0  0  0  0
    6.9563   -8.8703    0.8869 H   0  0  0  0  0  0  0  0  0  0  0  0
    4.8622   -9.3573    0.1355 H   0  0  0  0  0  0  0  0  0  0  0  0
    4.8877  -10.0945    1.6553 H   0  0  0  0  0  0  0  0  0  0  0  0
    2.9074   -8.5514    0.6143 H   0  0  0  0  0  0  0  0  0  0  0  0
  2  1  1  1
  1 34  1  0
  1 35  1  0
  1 36  1  0
  2  9  1  0
  2 31  1  0
  2  3  1  0
  3  4  1  0
  3 37  1  0
  3 38  1  0
  4 33  1  0
  4  5  1  0
  4 39  1  1
  5  6  1  0
  5 40  1  0
  5 41  1  0
  6 26  1  0
  6  7  1  0
  6 42  1  1
  7  8  1  0
  7 43  1  0
  7 44  1  0
  8  9  1  0
  8 45  1  0
  8 46  1  0
  9 10  2  0
 10 24  1  0
 10 11  1  0
 11 22  1  0
 11 12  1  0
 11 47  1  6
 12 13  1  0
 12 48  1  0
 12 49  1  0
 13 14  1  0
 13 23  1  0
 13 50  1  6
 14 15  1  0
 14 51  1  0
 14 52  1  0
 15 16  1  0
 15 53  1  0
 15 54  1  0
 16 22  1  0
 16 17  1  6
 16 18  1  0
 17 55  1  0
 17 56  1  0
 17 57  1  0
 18 19  2  0
 18 20  1  0
 20 21  1  0
 20 58  1  0
 20 59  1  0
 21 22  1  0
 21 60  1  0
 21 61  1  0
 22 62  1  1
 23 24  1  0
 23 63  1  0
 23 64  1  0
 24 25  1  1
 24 26  1  0
 25 65  1  0
 25 66  1  0
 25 67  1  0
 26 27  1  0
 26 68  1  1
 27 28  1  0
 27 69  1  0
 27 70  1  0
 28 29  1  0
 28 71  1  0
 28 72  1  0
 29 30  1  0
 29 33  1  0
 29 73  1  6
 30 31  1  0
 31 32  2  0
M  END
>  <i_m_ct_stereo_status>  (366) 
1

>  <s_m_source_file>  (366) 
/var/tmp/pbs.5076255.sched01/tmp0kxp0nim/126xlotvanm.sdf

>  <i_m_source_file_index>  (366) 
35

>  <i_lp_mmshare_version>  (366) 
48012

>  <i_f3d_flags>  (366) 
0

>  <s_epik_input>  (366) 
W0NIM11bQ0BAXTEyQzM9QzRbQ0BIXTVbQ0BIXTZbQ0BAXShbQ0gzXSkoQyg9TylbQ0gyXVtDSDJdNilbQ0gyXVtDSDJdW0NASF0oW0NIMl01KVtDSDJdW0NAXTQoW0NIM10pW0NIXTdbQ0BASF0oW0NIMl1bQ0gyXTMpW0NIMl1bQ0BASF0oW0NIMl0xKU9bQ0BIXShbQ0gyXVtDSDJdNylPQzI9Tw==

>  <s_epik_cmdline>  (366) 
J2VwaWtfcHl0aG9uJywgJy1waHQnLCAnMi4wJywgJy1waCcsICc3LjAnLCAnLXRuJywgJzgnLCAnLW1hJywgJzIwMCcsICctaW1hZScsICc8aW5maWxlLm1hZT4nLCAnLW9tYWUnLCAnPG91dGZpbGUubWFlPic=

>  <r_lp_tautomer_probability>  (366) 
1

>  <r_epik_Ionization_Penalty>  (366) 
2.21281e-13

>  <r_epik_Ionization_Penalty_Charging>  (366) 
0

>  <r_epik_Ionization_Penalty_Neutral>  (366) 
2.21281e-13

>  <r_epik_State_Penalty>  (366) 
-0

>  <r_epik_Charging_Adjusted_Penalty>  (366) 
0

>  <i_epik_Tot_Q>  (366) 
0

>  <i_epik_Tot_abs_Q>  (366) 
0

>  <s_epik_Chemistry_Notes>  (366) 
This compound has an ester and may undergo hydrolysis at high or low pH. This compound contains an acetal/aminal-like group ( X-CH(R)-Y where X, Y are N, S, or O) that may be acid/base labile, releasing an aldehyde.

>  <s_lp_Force_Field>  (366) 
OPLS3e

>  <r_lp_Energy>  (366) 
265.747

>  <b_lp_Chiralities_Consistent>  (366) 
1

>  <s_lp_Variant>  (366) 
115:0-1

>  <s_i_glide_gridfile>  (366) 
pfpi4k_grid

>  <i_i_glide_lignum>  (366) 
35

>  <i_i_glide_rotatable_bonds>  (366) 
0

>  <r_i_docking_score>  (366) 
-2.09231

>  <r_i_glide_ligand_efficiency>  (366) 
-0.0634035

>  <r_i_glide_ligand_efficiency_sa>  (366) 
-0.203369

>  <r_i_glide_ligand_efficiency_ln>  (366) 
-0.46532

>  <r_i_glide_gscore>  (366) 
-2.09231

>  <r_i_glide_lipo>  (366) 
-0.615951

>  <r_i_glide_hbond>  (366) 
-0.00268087

>  <r_i_glide_metal>  (366) 
-0

>  <r_i_glide_rewards>  (366) 
-0.323008

>  <r_i_glide_evdw>  (366) 
-17.2792

>  <r_i_glide_ecoul>  (366) 
-1.62001

>  <r_i_glide_erotb>  (366) 
0

>  <r_i_glide_esite>  (366) 
-0.0437116

>  <r_i_glide_emodel>  (366) 
-21.2342

>  <r_i_glide_energy>  (366) 
-18.8992

>  <r_i_glide_einternal>  (366) 
0

>  <r_i_glide_intrahb_reward>  (366) 
-0

>  <i_i_glide_confnum>  (366) 
2

>  <i_i_glide_posenum>  (366) 
33

>  <r_i_glide_eff_state_penalty>  (366) 
0

>  <ligand_id>  (366) 
115

>  <original_smiles>  (366) 
CC12CC3CC4CCC1=C1C5CC(CCC6(C)C(=O)CCC56)CC1(C)C4CCC(OC2=O)O3

>  <smiles>  (366) 
[H]C([H])([H])C12C(=O)OC3([H])OC([H])(C1([H])[H])C([H])([H])C1([H])C([H])([H])C([H])([H])C2=C2C4([H])C([H])([H])C([H])(C([H])([H])C([H])([H])C5(C([H])([H])[H])C(=O)C([H])([H])C([H])([H])C45[H])C([H])([H])C2(C([H])([H])[H])C1([H])C([H])([H])C3([H])[H]

$$$$
116:0:0
     RDKit          3D

 25 29  0  0  1  0  0  0  0  0999 V2000
    3.8997   -0.6778   -3.1797 C   0  0  0  0  0  0  0  0  0  0  0  0
    4.6030   -0.8901   -1.6682 C   0  0  2  0  0  0  0  0  0  0  0  0
    5.8425   -1.7889   -1.1634 C   0  0  0  0  0  0  0  0  0  0  0  0
    5.6409   -3.3445   -1.2637 C   0  0  1  0  0  0  0  0  0  0  0  0
    4.2302   -3.9585   -1.1309 C   0  0  1  0  0  0  0  0  0  0  0  0
    3.0241   -3.0824   -1.2467 C   0  0  2  0  0  0  0  0  0  0  0  0
    2.2663   -3.0575   -2.6591 C   0  0  0  0  0  0  0  0  0  0  0  0
    3.1732   -2.1259   -3.6337 C   0  0  2  0  0  0  0  0  0  0  0  0
    4.3655   -2.5545   -3.0687 C   0  0  1  0  0  0  0  0  0  0  0  0
    3.5892   -1.8533   -1.8018 C   0  0  2  0  0  0  0  0  0  0  0  0
    4.8420   -3.8048   -2.4480 C   0  0  1  0  0  0  0  0  0  0  0  0
    4.6140   -0.2880   -3.9159 H   0  0  0  0  0  0  0  0  0  0  0  0
    3.1469    0.1188   -3.1546 H   0  0  0  0  0  0  0  0  0  0  0  0
    4.3658   -0.0903   -0.9651 H   0  0  0  0  0  0  0  0  0  0  0  0
    6.7257   -1.5443   -1.7387 H   0  0  0  0  0  0  0  0  0  0  0  0
    6.0512   -1.5563   -0.1203 H   0  0  0  0  0  0  0  0  0  0  0  0
    6.4927   -3.9532   -0.9810 H   0  0  0  0  0  0  0  0  0  0  0  0
    4.1244   -4.9691   -0.7489 H   0  0  0  0  0  0  0  0  0  0  0  0
    2.4194   -3.0025   -0.3408 H   0  0  0  0  0  0  0  0  0  0  0  0
    2.1481   -4.0516   -3.0667 H   0  0  0  0  0  0  0  0  0  0  0  0
    1.2550   -2.6600   -2.5541 H   0  0  0  0  0  0  0  0  0  0  0  0
    3.0770   -2.3250   -4.7033 H   0  0  0  0  0  0  0  0  0  0  0  0
    5.2787   -2.2212   -3.6037 H   0  0  0  0  0  0  0  0  0  0  0  0
    2.6612   -1.2235   -1.6214 H   0  0  0  0  0  0  0  0  0  0  0  0
    5.1256   -4.6602   -3.0363 H   0  0  0  0  0  0  0  0  0  0  0  0
  1  8  1  0
  1  2  1  0
  1 12  1  0
  1 13  1  0
  2 10  1  0
  2  3  1  0
  2 14  1  1
  3  4  1  0
  3 15  1  0
  3 16  1  0
  4 11  1  0
  4  5  1  0
  4 17  1  1
  5 11  1  0
  5  6  1  0
  5 18  1  1
  6 10  1  0
  6  7  1  0
  6 19  1  1
  7  8  1  0
  7 20  1  0
  7 21  1  0
  8  9  1  0
  8 22  1  6
  9 10  1  0
  9 11  1  0
  9 23  1  6
 10 24  1  6
 11 25  1  6
M  END
>  <i_m_ct_stereo_status>  (367) 
1

>  <s_m_source_file>  (367) 
/var/tmp/pbs.5076255.sched01/tmp0kxp0nim/126xlotvanm.sdf

>  <i_m_source_file_index>  (367) 
36

>  <i_lp_mmshare_version>  (367) 
48012

>  <i_f3d_flags>  (367) 
0

>  <s_epik_input>  (367) 
W0NIMl0xW0NASF0oW0NIMl0yKVtDQEBIXTNbQ0BIXTRbQ0BASF0oW0NIMl01KVtDQEhdNFtDQEhdMltDSF0zW0NASF0xNQ==

>  <s_epik_cmdline>  (367) 
J2VwaWtfcHl0aG9uJywgJy1waHQnLCAnMi4wJywgJy1waCcsICc3LjAnLCAnLXRuJywgJzgnLCAnLW1hJywgJzIwMCcsICctaW1hZScsICc8aW5maWxlLm1hZT4nLCAnLW9tYWUnLCAnPG91dGZpbGUubWFlPic=

>  <r_lp_tautomer_probability>  (367) 
1

>  <r_epik_Ionization_Penalty>  (367) 
0

>  <r_epik_Ionization_Penalty_Charging>  (367) 
0

>  <r_epik_Ionization_Penalty_Neutral>  (367) 
0

>  <r_epik_State_Penalty>  (367) 
-0

>  <r_epik_Charging_Adjusted_Penalty>  (367) 
0

>  <i_epik_Tot_Q>  (367) 
0

>  <i_epik_Tot_abs_Q>  (367) 
0

>  <s_lp_Force_Field>  (367) 
OPLS3e

>  <r_lp_Energy>  (367) 
276.775

>  <b_lp_Chiralities_Consistent>  (367) 
1

>  <s_lp_Variant>  (367) 
116:0-1

>  <s_i_glide_gridfile>  (367) 
pfpi4k_grid

>  <i_i_glide_lignum>  (367) 
36

>  <i_i_glide_rotatable_bonds>  (367) 
0

>  <r_i_docking_score>  (367) 
-3.82084

>  <r_i_glide_ligand_efficiency>  (367) 
-0.347349

>  <r_i_glide_ligand_efficiency_sa>  (367) 
-0.772497

>  <r_i_glide_ligand_efficiency_ln>  (367) 
-1.12447

>  <r_i_glide_gscore>  (367) 
-3.82084

>  <r_i_glide_lipo>  (367) 
-0.752963

>  <r_i_glide_hbond>  (367) 
0

>  <r_i_glide_metal>  (367) 
-0

>  <r_i_glide_rewards>  (367) 
-2.25

>  <r_i_glide_evdw>  (367) 
-16.5911

>  <r_i_glide_ecoul>  (367) 
0.0778718

>  <r_i_glide_erotb>  (367) 
0

>  <r_i_glide_esite>  (367) 
0

>  <r_i_glide_emodel>  (367) 
-20.052

>  <r_i_glide_energy>  (367) 
-16.5133

>  <r_i_glide_einternal>  (367) 
0

>  <r_i_glide_intrahb_reward>  (367) 
-0

>  <i_i_glide_confnum>  (367) 
1

>  <i_i_glide_posenum>  (367) 
1

>  <r_i_glide_eff_state_penalty>  (367) 
0

>  <ligand_id>  (367) 
116

>  <original_smiles>  (367) 
C1C2CC3C4C5CC1C(C25)C34

>  <smiles>  (367) 
[H]C1([H])C2([H])C([H])([H])C3([H])C4([H])C5([H])C([H])([H])C1([H])C([H])(C25[H])C34[H]

$$$$
116:0:1
     RDKit          3D

 25 29  0  0  1  0  0  0  0  0999 V2000
    4.6082   -3.8955   -3.8665 C   0  0  0  0  0  0  0  0  0  0  0  0
    3.4907   -2.6643   -4.0515 C   0  0  2  0  0  0  0  0  0  0  0  0
    3.6570   -1.0686   -4.0744 C   0  0  0  0  0  0  0  0  0  0  0  0
    4.1179   -0.4427   -2.7003 C   0  0  1  0  0  0  0  0  0  0  0  0
    3.7411   -1.1226   -1.3366 C   0  0  1  0  0  0  0  0  0  0  0  0
    3.2371   -2.5247   -1.3333 C   0  0  2  0  0  0  0  0  0  0  0  0
    4.2713   -3.6712   -0.9562 C   0  0  0  0  0  0  0  0  0  0  0  0
    5.1850   -3.8548   -2.2811 C   0  0  2  0  0  0  0  0  0  0  0  0
    5.1345   -2.5332   -2.6201 C   0  0  1  0  0  0  0  0  0  0  0  0
    3.5626   -2.9545   -2.6816 C   0  0  2  0  0  0  0  0  0  0  0  0
    5.0667   -1.2722   -1.8797 C   0  0  1  0  0  0  0  0  0  0  0  0
    5.3969   -3.8625   -4.6272 H   0  0  0  0  0  0  0  0  0  0  0  0
    4.1769   -4.8677   -4.0816 H   0  0  0  0  0  0  0  0  0  0  0  0
    2.5800   -3.0046   -4.5550 H   0  0  0  0  0  0  0  0  0  0  0  0
    4.3532   -0.7541   -4.8514 H   0  0  0  0  0  0  0  0  0  0  0  0
    2.6971   -0.6128   -4.3125 H   0  0  0  0  0  0  0  0  0  0  0  0
    4.2609    0.6272   -2.7156 H   0  0  0  0  0  0  0  0  0  0  0  0
    3.6594   -0.5341   -0.4319 H   0  0  0  0  0  0  0  0  0  0  0  0
    2.2136   -2.6563   -0.9805 H   0  0  0  0  0  0  0  0  0  0  0  0
    4.8702   -3.3905   -0.0890 H   0  0  0  0  0  0  0  0  0  0  0  0
    3.7728   -4.6081   -0.7022 H   0  0  0  0  0  0  0  0  0  0  0  0
    6.2003   -4.2163   -2.1119 H   0  0  0  0  0  0  0  0  0  0  0  0
    5.8128   -2.2539   -3.4557 H   0  0  0  0  0  0  0  0  0  0  0  0
    2.9329   -3.8769   -2.6410 H   0  0  0  0  0  0  0  0  0  0  0  0
    5.9079   -0.8388   -1.3729 H   0  0  0  0  0  0  0  0  0  0  0  0
  1  8  1  0
  1  2  1  0
  1 12  1  0
  1 13  1  0
  2 10  1  0
  2  3  1  0
  2 14  1  6
  3  4  1  0
  3 15  1  0
  3 16  1  0
  4 11  1  0
  4  5  1  0
  4 17  1  1
  5 11  1  0
  5  6  1  0
  5 18  1  1
  6 10  1  0
  6  7  1  0
  6 19  1  1
  7  8  1  0
  7 20  1  0
  7 21  1  0
  8  9  1  0
  8 22  1  1
  9 10  1  0
  9 11  1  0
  9 23  1  6
 10 24  1  6
 11 25  1  1
M  END
>  <i_m_ct_stereo_status>  (368) 
1

>  <s_m_source_file>  (368) 
/var/tmp/pbs.5076255.sched01/tmp0kxp0nim/126xlotvanm.sdf

>  <i_m_source_file_index>  (368) 
36

>  <i_lp_mmshare_version>  (368) 
48012

>  <i_f3d_flags>  (368) 
0

>  <s_epik_input>  (368) 
W0NIMl0xW0NASF0oW0NIMl0yKVtDQEBIXTNbQ0BIXTRbQ0BASF0oW0NIMl01KVtDQEhdNFtDQEhdMltDSF0zW0NASF0xNQ==

>  <s_epik_cmdline>  (368) 
J2VwaWtfcHl0aG9uJywgJy1waHQnLCAnMi4wJywgJy1waCcsICc3LjAnLCAnLXRuJywgJzgnLCAnLW1hJywgJzIwMCcsICctaW1hZScsICc8aW5maWxlLm1hZT4nLCAnLW9tYWUnLCAnPG91dGZpbGUubWFlPic=

>  <r_lp_tautomer_probability>  (368) 
1

>  <r_epik_Ionization_Penalty>  (368) 
0

>  <r_epik_Ionization_Penalty_Charging>  (368) 
0

>  <r_epik_Ionization_Penalty_Neutral>  (368) 
0

>  <r_epik_State_Penalty>  (368) 
-0

>  <r_epik_Charging_Adjusted_Penalty>  (368) 
0

>  <i_epik_Tot_Q>  (368) 
0

>  <i_epik_Tot_abs_Q>  (368) 
0

>  <s_lp_Force_Field>  (368) 
OPLS3e

>  <r_lp_Energy>  (368) 
276.775

>  <b_lp_Chiralities_Consistent>  (368) 
1

>  <s_lp_Variant>  (368) 
116:0-1

>  <s_i_glide_gridfile>  (368) 
pfpi4k_grid

>  <i_i_glide_lignum>  (368) 
36

>  <i_i_glide_rotatable_bonds>  (368) 
0

>  <r_i_docking_score>  (368) 
-3.56464

>  <r_i_glide_ligand_efficiency>  (368) 
-0.324058

>  <r_i_glide_ligand_efficiency_sa>  (368) 
-0.720699

>  <r_i_glide_ligand_efficiency_ln>  (368) 
-1.04907

>  <r_i_glide_gscore>  (368) 
-3.56464

>  <r_i_glide_lipo>  (368) 
-0.513609

>  <r_i_glide_hbond>  (368) 
0

>  <r_i_glide_metal>  (368) 
-0

>  <r_i_glide_rewards>  (368) 
-2.25

>  <r_i_glide_evdw>  (368) 
-15.5766

>  <r_i_glide_ecoul>  (368) 
-0.148011

>  <r_i_glide_erotb>  (368) 
0

>  <r_i_glide_esite>  (368) 
0

>  <r_i_glide_emodel>  (368) 
-18.976

>  <r_i_glide_energy>  (368) 
-15.7246

>  <r_i_glide_einternal>  (368) 
0

>  <r_i_glide_intrahb_reward>  (368) 
-0

>  <i_i_glide_confnum>  (368) 
1

>  <i_i_glide_posenum>  (368) 
27

>  <r_i_glide_eff_state_penalty>  (368) 
0

>  <ligand_id>  (368) 
116

>  <original_smiles>  (368) 
C1C2CC3C4C5CC1C(C25)C34

>  <smiles>  (368) 
[H]C1([H])C2([H])C([H])([H])C3([H])C4([H])C5([H])C([H])([H])C1([H])C([H])(C25[H])C34[H]

$$$$
116:0:2
     RDKit          3D

 25 29  0  0  1  0  0  0  0  0999 V2000
    4.2833   -1.2398    1.2309 C   0  0  0  0  0  0  0  0  0  0  0  0
    3.4877   -2.6946    0.9467 C   0  0  2  0  0  0  0  0  0  0  0  0
    4.0162   -4.2177    0.8785 C   0  0  0  0  0  0  0  0  0  0  0  0
    4.9994   -4.5312   -0.3263 C   0  0  1  0  0  0  0  0  0  0  0  0
    4.8974   -3.7429   -1.6661 C   0  0  1  0  0  0  0  0  0  0  0  0
    4.0924   -2.4911   -1.7205 C   0  0  2  0  0  0  0  0  0  0  0  0
    4.9018   -1.1149   -1.6377 C   0  0  0  0  0  0  0  0  0  0  0  0
    5.3093   -0.9417   -0.0686 C   0  0  2  0  0  0  0  0  0  0  0  0
    5.4782   -2.2929    0.1344 C   0  0  1  0  0  0  0  0  0  0  0  0
    3.8979   -2.1871   -0.3025 C   0  0  2  0  0  0  0  0  0  0  0  0
    5.9361   -3.4159   -0.7011 C   0  0  1  0  0  0  0  0  0  0  0  0
    4.7808   -1.2397    2.2081 H   0  0  0  0  0  0  0  0  0  0  0  0
    3.5691   -0.4190    1.3432 H   0  0  0  0  0  0  0  0  0  0  0  0
    2.4130   -2.6211    1.1455 H   0  0  0  0  0  0  0  0  0  0  0  0
    4.5068   -4.4923    1.8094 H   0  0  0  0  0  0  0  0  0  0  0  0
    3.1643   -4.8822    0.7698 H   0  0  0  0  0  0  0  0  0  0  0  0
    5.3901   -5.5381   -0.3735 H   0  0  0  0  0  0  0  0  0  0  0  0
    5.2012   -4.2313   -2.5834 H   0  0  0  0  0  0  0  0  0  0  0  0
    3.2076   -2.5296   -2.3605 H   0  0  0  0  0  0  0  0  0  0  0  0
    5.7795   -1.1491   -2.2792 H   0  0  0  0  0  0  0  0  0  0  0  0
    4.3057   -0.2675   -1.9827 H   0  0  0  0  0  0  0  0  0  0  0  0
    6.1913   -0.3279    0.1392 H   0  0  0  0  0  0  0  0  0  0  0  0
    5.9225   -2.5541    1.1219 H   0  0  0  0  0  0  0  0  0  0  0  0
    3.1228   -1.3726   -0.4693 H   0  0  0  0  0  0  0  0  0  0  0  0
    6.9729   -3.6107   -0.8980 H   0  0  0  0  0  0  0  0  0  0  0  0
  1  8  1  0
  1  2  1  0
  1 12  1  0
  1 13  1  0
  2 10  1  0
  2  3  1  0
  2 14  1  6
  3  4  1  0
  3 15  1  0
  3 16  1  0
  4 11  1  0
  4  5  1  0
  4 17  1  6
  5 11  1  0
  5  6  1  0
  5 18  1  6
  6 10  1  0
  6  7  1  0
  6 19  1  6
  7  8  1  0
  7 20  1  0
  7 21  1  0
  8  9  1  0
  8 22  1  6
  9 10  1  0
  9 11  1  0
  9 23  1  1
 10 24  1  6
 11 25  1  6
M  END
>  <i_m_ct_stereo_status>  (369) 
1

>  <s_m_source_file>  (369) 
/var/tmp/pbs.5076255.sched01/tmp0kxp0nim/126xlotvanm.sdf

>  <i_m_source_file_index>  (369) 
36

>  <i_lp_mmshare_version>  (369) 
48012

>  <i_f3d_flags>  (369) 
0

>  <s_epik_input>  (369) 
W0NIMl0xW0NASF0oW0NIMl0yKVtDQEBIXTNbQ0BIXTRbQ0BASF0oW0NIMl01KVtDQEhdNFtDQEhdMltDSF0zW0NASF0xNQ==

>  <s_epik_cmdline>  (369) 
J2VwaWtfcHl0aG9uJywgJy1waHQnLCAnMi4wJywgJy1waCcsICc3LjAnLCAnLXRuJywgJzgnLCAnLW1hJywgJzIwMCcsICctaW1hZScsICc8aW5maWxlLm1hZT4nLCAnLW9tYWUnLCAnPG91dGZpbGUubWFlPic=

>  <r_lp_tautomer_probability>  (369) 
1

>  <r_epik_Ionization_Penalty>  (369) 
0

>  <r_epik_Ionization_Penalty_Charging>  (369) 
0

>  <r_epik_Ionization_Penalty_Neutral>  (369) 
0

>  <r_epik_State_Penalty>  (369) 
-0

>  <r_epik_Charging_Adjusted_Penalty>  (369) 
0

>  <i_epik_Tot_Q>  (369) 
0

>  <i_epik_Tot_abs_Q>  (369) 
0

>  <s_lp_Force_Field>  (369) 
OPLS3e

>  <r_lp_Energy>  (369) 
276.775

>  <b_lp_Chiralities_Consistent>  (369) 
1

>  <s_lp_Variant>  (369) 
116:0-1

>  <s_i_glide_gridfile>  (369) 
pfpi4k_grid

>  <i_i_glide_lignum>  (369) 
36

>  <i_i_glide_rotatable_bonds>  (369) 
0

>  <r_i_docking_score>  (369) 
-3.17648

>  <r_i_glide_ligand_efficiency>  (369) 
-0.288771

>  <r_i_glide_ligand_efficiency_sa>  (369) 
-0.642222

>  <r_i_glide_ligand_efficiency_ln>  (369) 
-0.934839

>  <r_i_glide_gscore>  (369) 
-3.17648

>  <r_i_glide_lipo>  (369) 
-0.156721

>  <r_i_glide_hbond>  (369) 
0

>  <r_i_glide_metal>  (369) 
-0

>  <r_i_glide_rewards>  (369) 
-2.25

>  <r_i_glide_evdw>  (369) 
-15.1508

>  <r_i_glide_ecoul>  (369) 
-0.081486

>  <r_i_glide_erotb>  (369) 
0

>  <r_i_glide_esite>  (369) 
0

>  <r_i_glide_emodel>  (369) 
-18.1708

>  <r_i_glide_energy>  (369) 
-15.2323

>  <r_i_glide_einternal>  (369) 
0

>  <r_i_glide_intrahb_reward>  (369) 
-0

>  <i_i_glide_confnum>  (369) 
1

>  <i_i_glide_posenum>  (369) 
34

>  <r_i_glide_eff_state_penalty>  (369) 
0

>  <ligand_id>  (369) 
116

>  <original_smiles>  (369) 
C1C2CC3C4C5CC1C(C25)C34

>  <smiles>  (369) 
[H]C1([H])C2([H])C([H])([H])C3([H])C4([H])C5([H])C([H])([H])C1([H])C([H])(C25[H])C34[H]

$$$$
117:0:0
     RDKit          3D

 32 36  0  0  1  0  0  0  0  0999 V2000
    6.1506   -1.4991    1.2728 C   0  0  0  0  0  0  0  0  0  0  0  0
    5.0878   -1.9740    1.9372 C   0  0  0  0  0  0  0  0  0  0  0  0
    4.1077   -2.5603    0.9364 C   0  0  2  0  0  0  0  0  0  0  0  0
    4.6058   -3.9755    0.4393 C   0  0  2  0  0  0  0  0  0  0  0  0
    6.1210   -4.2787    0.5733 C   0  0  0  0  0  0  0  0  0  0  0  0
    6.2366   -3.2440   -0.5740 C   0  0  2  0  0  0  0  0  0  0  0  0
    5.9449   -1.7403   -0.2097 C   0  0  1  0  0  0  0  0  0  0  0  0
    4.4033   -1.5628   -0.2122 C   0  0  1  0  0  0  0  0  0  0  0  0
    3.6915   -1.8954   -1.5347 C   0  0  1  0  0  0  0  0  0  0  0  0
    3.9914   -0.9046   -2.6693 C   0  0  0  0  0  0  0  0  0  0  0  0
    4.0165   -1.7538   -3.9290 C   0  0  0  0  0  0  0  0  0  0  0  0
    4.5849   -3.0998   -3.4675 C   0  0  0  0  0  0  0  0  0  0  0  0
    4.0365   -3.2976   -2.0465 C   0  0  1  0  0  0  0  0  0  0  0  0
    4.9766   -4.0084   -1.0760 C   0  0  2  0  0  0  0  0  0  0  0  0
    7.0210   -1.0211    1.6913 H   0  0  0  0  0  0  0  0  0  0  0  0
    4.9243   -1.9590    3.0028 H   0  0  0  0  0  0  0  0  0  0  0  0
    3.0699   -2.5411    1.2656 H   0  0  0  0  0  0  0  0  0  0  0  0
    3.9860   -4.8196    0.7516 H   0  0  0  0  0  0  0  0  0  0  0  0
    6.5964   -4.0252    1.5199 H   0  0  0  0  0  0  0  0  0  0  0  0
    6.4118   -5.2982    0.3045 H   0  0  0  0  0  0  0  0  0  0  0  0
    7.1198   -3.4079   -1.1963 H   0  0  0  0  0  0  0  0  0  0  0  0
    6.4643   -1.0342   -0.8431 H   0  0  0  0  0  0  0  0  0  0  0  0
    4.1279   -0.5462    0.0781 H   0  0  0  0  0  0  0  0  0  0  0  0
    2.6155   -1.8720   -1.3492 H   0  0  0  0  0  0  0  0  0  0  0  0
    3.2444   -0.1137   -2.7262 H   0  0  0  0  0  0  0  0  0  0  0  0
    4.9593   -0.4263   -2.5266 H   0  0  0  0  0  0  0  0  0  0  0  0
    2.9999   -1.8850   -4.3003 H   0  0  0  0  0  0  0  0  0  0  0  0
    4.6076   -1.2935   -4.7196 H   0  0  0  0  0  0  0  0  0  0  0  0
    4.2985   -3.9171   -4.1335 H   0  0  0  0  0  0  0  0  0  0  0  0
    5.6734   -3.0539   -3.4493 H   0  0  0  0  0  0  0  0  0  0  0  0
    3.1006   -3.8559   -2.1203 H   0  0  0  0  0  0  0  0  0  0  0  0
    5.1967   -5.0212   -1.4318 H   0  0  0  0  0  0  0  0  0  0  0  0
  1  7  1  0
  1  2  2  0
  1 15  1  0
  2  3  1  0
  2 16  1  0
  3  8  1  0
  3  4  1  0
  3 17  1  1
  4 14  1  0
  4  5  1  0
  4 18  1  6
  5  6  1  0
  5 19  1  0
  5 20  1  0
  6 14  1  0
  6  7  1  0
  6 21  1  6
  7  8  1  0
  7 22  1  6
  8  9  1  0
  8 23  1  1
  9 13  1  0
  9 10  1  0
  9 24  1  1
 10 11  1  0
 10 25  1  0
 10 26  1  0
 11 12  1  0
 11 27  1  0
 11 28  1  0
 12 13  1  0
 12 29  1  0
 12 30  1  0
 13 14  1  0
 13 31  1  6
 14 32  1  6
M  END
>  <i_m_ct_stereo_status>  (370) 
1

>  <s_m_source_file>  (370) 
/var/tmp/pbs.5076255.sched01/tmp0kxp0nim/126xlotvanm.sdf

>  <i_m_source_file_index>  (370) 
37

>  <i_lp_mmshare_version>  (370) 
48012

>  <i_f3d_flags>  (370) 
0

>  <s_epik_input>  (370) 
W0NASF0xMltDQEhdM1tDQEBIXTRbQ0BIXShbQ0gyXTMpW0NASF0oW0NIXT1bQ0hdMSlbQ0BIXTJbQ0BASF01W0NASF00W0NIMl1bQ0gyXVtDSDJdNQ==

>  <s_epik_cmdline>  (370) 
J2VwaWtfcHl0aG9uJywgJy1waHQnLCAnMi4wJywgJy1waCcsICc3LjAnLCAnLXRuJywgJzgnLCAnLW1hJywgJzIwMCcsICctaW1hZScsICc8aW5maWxlLm1hZT4nLCAnLW9tYWUnLCAnPG91dGZpbGUubWFlPic=

>  <r_lp_tautomer_probability>  (370) 
1

>  <r_epik_Ionization_Penalty>  (370) 
0

>  <r_epik_Ionization_Penalty_Charging>  (370) 
0

>  <r_epik_Ionization_Penalty_Neutral>  (370) 
0

>  <r_epik_State_Penalty>  (370) 
-0

>  <r_epik_Charging_Adjusted_Penalty>  (370) 
0

>  <i_epik_Tot_Q>  (370) 
0

>  <i_epik_Tot_abs_Q>  (370) 
0

>  <s_lp_Force_Field>  (370) 
OPLS3e

>  <r_lp_Energy>  (370) 
61.204

>  <b_lp_Chiralities_Consistent>  (370) 
1

>  <s_lp_Variant>  (370) 
117:0-1

>  <s_i_glide_gridfile>  (370) 
pfpi4k_grid

>  <i_i_glide_lignum>  (370) 
37

>  <i_i_glide_rotatable_bonds>  (370) 
0

>  <r_i_docking_score>  (370) 
-4.00682

>  <r_i_glide_ligand_efficiency>  (370) 
-0.286201

>  <r_i_glide_ligand_efficiency_sa>  (370) 
-0.689786

>  <r_i_glide_ligand_efficiency_ln>  (370) 
-1.10106

>  <r_i_glide_gscore>  (370) 
-4.00682

>  <r_i_glide_lipo>  (370) 
-0.722285

>  <r_i_glide_hbond>  (370) 
0

>  <r_i_glide_metal>  (370) 
-0

>  <r_i_glide_rewards>  (370) 
-2.13891

>  <r_i_glide_evdw>  (370) 
-21.7954

>  <r_i_glide_ecoul>  (370) 
-0.37234

>  <r_i_glide_erotb>  (370) 
0

>  <r_i_glide_esite>  (370) 
0

>  <r_i_glide_emodel>  (370) 
-27.4603

>  <r_i_glide_energy>  (370) 
-22.1677

>  <r_i_glide_einternal>  (370) 
0

>  <r_i_glide_intrahb_reward>  (370) 
-0

>  <i_i_glide_confnum>  (370) 
1

>  <i_i_glide_posenum>  (370) 
10

>  <r_i_glide_eff_state_penalty>  (370) 
0

>  <ligand_id>  (370) 
117

>  <original_smiles>  (370) 
C1=CC2C3CC4C1C2C1CCCC1C43

>  <smiles>  (370) 
[H]C1=C([H])C2([H])C3([H])C([H])([H])C4([H])C1([H])C2([H])C1([H])C([H])([H])C([H])([H])C([H])([H])C1([H])C43[H]

$$$$
117:0:1
     RDKit          3D

 32 36  0  0  1  0  0  0  0  0999 V2000
    3.3678   -3.5019    1.5557 C   0  0  0  0  0  0  0  0  0  0  0  0
    4.4829   -4.2266    1.4822 C   0  0  0  0  0  0  0  0  0  0  0  0
    5.1698   -3.9508    0.1490 C   0  0  2  0  0  0  0  0  0  0  0  0
    5.8847   -2.5647    0.2099 C   0  0  2  0  0  0  0  0  0  0  0  0
    5.4164   -1.5147    1.2521 C   0  0  0  0  0  0  0  0  0  0  0  0
    4.1756   -1.4623    0.3232 C   0  0  2  0  0  0  0  0  0  0  0  0
    3.2223   -2.6962    0.2820 C   0  0  1  0  0  0  0  0  0  0  0  0
    3.8715   -3.7299   -0.6766 C   0  0  1  0  0  0  0  0  0  0  0  0
    4.1152   -3.2597   -2.1183 C   0  0  1  0  0  0  0  0  0  0  0  0
    2.8172   -3.0468   -2.9265 C   0  0  0  0  0  0  0  0  0  0  0  0
    3.1252   -1.8561   -3.8227 C   0  0  0  0  0  0  0  0  0  0  0  0
    4.0390   -0.9790   -2.9872 C   0  0  0  0  0  0  0  0  0  0  0  0
    4.9128   -1.9590   -2.1746 C   0  0  1  0  0  0  0  0  0  0  0  0
    5.2891   -1.4921   -0.7791 C   0  0  2  0  0  0  0  0  0  0  0  0
    2.6530   -3.4774    2.3660 H   0  0  0  0  0  0  0  0  0  0  0  0
    4.8683   -4.9107    2.2232 H   0  0  0  0  0  0  0  0  0  0  0  0
    5.7785   -4.7681   -0.2103 H   0  0  0  0  0  0  0  0  0  0  0  0
    6.9948   -2.6011    0.1576 H   0  0  0  0  0  0  0  0  0  0  0  0
    5.2392   -1.8911    2.2680 H   0  0  0  0  0  0  0  0  0  0  0  0
    6.0015   -0.6056    1.2993 H   0  0  0  0  0  0  0  0  0  0  0  0
    3.6741   -0.4762    0.3750 H   0  0  0  0  0  0  0  0  0  0  0  0
    2.1991   -2.4496    0.0389 H   0  0  0  0  0  0  0  0  0  0  0  0
    3.2765   -4.6472   -0.7051 H   0  0  0  0  0  0  0  0  0  0  0  0
    4.6909   -4.0435   -2.6191 H   0  0  0  0  0  0  0  0  0  0  0  0
    2.5308   -3.9217   -3.5084 H   0  0  0  0  0  0  0  0  0  0  0  0
    1.9839   -2.8033   -2.2741 H   0  0  0  0  0  0  0  0  0  0  0  0
    3.6383   -2.1954   -4.7190 H   0  0  0  0  0  0  0  0  0  0  0  0
    2.2185   -1.3332   -4.1437 H   0  0  0  0  0  0  0  0  0  0  0  0
    4.6101   -0.2960   -3.6125 H   0  0  0  0  0  0  0  0  0  0  0  0
    3.4426   -0.3650   -2.3166 H   0  0  0  0  0  0  0  0  0  0  0  0
    5.8142   -2.1790   -2.7396 H   0  0  0  0  0  0  0  0  0  0  0  0
    5.8601   -0.5595   -0.8045 H   0  0  0  0  0  0  0  0  0  0  0  0
  1  7  1  0
  1  2  2  0
  1 15  1  0
  2  3  1  0
  2 16  1  0
  3  8  1  0
  3  4  1  0
  3 17  1  6
  4 14  1  0
  4  5  1  0
  4 18  1  6
  5  6  1  0
  5 19  1  0
  5 20  1  0
  6 14  1  0
  6  7  1  0
  6 21  1  1
  7  8  1  0
  7 22  1  6
  8  9  1  0
  8 23  1  6
  9 13  1  0
  9 10  1  0
  9 24  1  6
 10 11  1  0
 10 25  1  0
 10 26  1  0
 11 12  1  0
 11 27  1  0
 11 28  1  0
 12 13  1  0
 12 29  1  0
 12 30  1  0
 13 14  1  0
 13 31  1  6
 14 32  1  6
M  END
>  <i_m_ct_stereo_status>  (371) 
1

>  <s_m_source_file>  (371) 
/var/tmp/pbs.5076255.sched01/tmp0kxp0nim/126xlotvanm.sdf

>  <i_m_source_file_index>  (371) 
37

>  <i_lp_mmshare_version>  (371) 
48012

>  <i_f3d_flags>  (371) 
0

>  <s_epik_input>  (371) 
W0NASF0xMltDQEhdM1tDQEBIXTRbQ0BIXShbQ0gyXTMpW0NASF0oW0NIXT1bQ0hdMSlbQ0BIXTJbQ0BASF01W0NASF00W0NIMl1bQ0gyXVtDSDJdNQ==

>  <s_epik_cmdline>  (371) 
J2VwaWtfcHl0aG9uJywgJy1waHQnLCAnMi4wJywgJy1waCcsICc3LjAnLCAnLXRuJywgJzgnLCAnLW1hJywgJzIwMCcsICctaW1hZScsICc8aW5maWxlLm1hZT4nLCAnLW9tYWUnLCAnPG91dGZpbGUubWFlPic=

>  <r_lp_tautomer_probability>  (371) 
1

>  <r_epik_Ionization_Penalty>  (371) 
0

>  <r_epik_Ionization_Penalty_Charging>  (371) 
0

>  <r_epik_Ionization_Penalty_Neutral>  (371) 
0

>  <r_epik_State_Penalty>  (371) 
-0

>  <r_epik_Charging_Adjusted_Penalty>  (371) 
0

>  <i_epik_Tot_Q>  (371) 
0

>  <i_epik_Tot_abs_Q>  (371) 
0

>  <s_lp_Force_Field>  (371) 
OPLS3e

>  <r_lp_Energy>  (371) 
61.204

>  <b_lp_Chiralities_Consistent>  (371) 
1

>  <s_lp_Variant>  (371) 
117:0-1

>  <s_i_glide_gridfile>  (371) 
pfpi4k_grid

>  <i_i_glide_lignum>  (371) 
37

>  <i_i_glide_rotatable_bonds>  (371) 
0

>  <r_i_docking_score>  (371) 
-3.73474

>  <r_i_glide_ligand_efficiency>  (371) 
-0.266767

>  <r_i_glide_ligand_efficiency_sa>  (371) 
-0.642947

>  <r_i_glide_ligand_efficiency_ln>  (371) 
-1.02629

>  <r_i_glide_gscore>  (371) 
-3.73474

>  <r_i_glide_lipo>  (371) 
-0.492774

>  <r_i_glide_hbond>  (371) 
0

>  <r_i_glide_metal>  (371) 
-0

>  <r_i_glide_rewards>  (371) 
-2.13891

>  <r_i_glide_evdw>  (371) 
-21.3062

>  <r_i_glide_ecoul>  (371) 
-0.25163

>  <r_i_glide_erotb>  (371) 
0

>  <r_i_glide_esite>  (371) 
0

>  <r_i_glide_emodel>  (371) 
-26.4636

>  <r_i_glide_energy>  (371) 
-21.5578

>  <r_i_glide_einternal>  (371) 
0

>  <r_i_glide_intrahb_reward>  (371) 
-0

>  <i_i_glide_confnum>  (371) 
2

>  <i_i_glide_posenum>  (371) 
33

>  <r_i_glide_eff_state_penalty>  (371) 
0

>  <ligand_id>  (371) 
117

>  <original_smiles>  (371) 
C1=CC2C3CC4C1C2C1CCCC1C43

>  <smiles>  (371) 
[H]C1=C([H])C2([H])C3([H])C([H])([H])C4([H])C1([H])C2([H])C1([H])C([H])([H])C([H])([H])C([H])([H])C1([H])C43[H]

$$$$
118:1:0
     RDKit          3D

 49 54  0  0  1  0  0  0  0  0999 V2000
  -12.6074  -10.1981   -7.3941 C   0  0  0  0  0  0  0  0  0  0  0  0
  -12.6252   -9.3772   -8.5602 O   0  0  0  0  0  0  0  0  0  0  0  0
  -11.5808   -8.4933   -8.7569 C   0  0  0  0  0  0  0  0  0  0  0  0
  -11.8271   -7.3897   -9.6114 C   0  0  0  0  0  0  0  0  0  0  0  0
  -10.8007   -6.4775  -10.0427 C   0  0  0  0  0  0  0  0  0  0  0  0
   -9.6125   -6.4339   -9.3171 C   0  0  0  0  0  0  0  0  0  0  0  0
   -9.4170   -7.6127   -8.4562 C   0  0  0  0  0  0  0  0  0  0  0  0
  -10.2510   -8.7134   -8.2748 C   0  0  0  0  0  0  0  0  0  0  0  0
   -9.7513   -9.9596   -7.8866 O   0  0  0  0  0  0  0  0  0  0  0  0
   -8.3767   -9.7963   -7.5605 C   0  0  1  0  0  0  0  0  0  0  0  0
   -7.4482  -10.8234   -7.0945 C   0  0  2  0  0  0  0  0  0  0  0  0
   -6.2622   -9.9312   -6.5104 C   0  0  0  0  0  0  0  0  0  0  0  0
   -6.4214   -8.3421   -6.3129 C   0  0  0  0  0  0  0  0  0  0  0  0
   -5.7522   -7.8692   -5.1667 C   0  0  0  0  0  0  0  0  0  0  0  0
   -5.8027   -6.5303   -4.7665 C   0  0  0  0  0  0  0  0  0  0  0  0
   -6.5403   -5.6071   -5.5221 C   0  0  0  0  0  0  0  0  0  0  0  0
   -6.5276   -4.3017   -5.1337 O   0  0  0  0  0  0  0  0  0  0  0  0
   -7.2304   -6.0277   -6.6741 C   0  0  0  0  0  0  0  0  0  0  0  0
   -7.1701   -7.3649   -7.1402 C   0  0  0  0  0  0  0  0  0  0  0  0
   -7.9166   -7.6740   -8.4981 C   0  0  2  0  0  0  0  0  0  0  0  0
   -8.1147   -6.5512   -9.6077 C   0  0  0  0  0  0  0  0  0  0  0  0
   -7.6104   -9.1115   -8.7050 C   0  0  2  0  0  0  0  0  0  0  0  0
   -7.9323   -9.9366   -9.9231 C   0  0  0  0  0  0  0  0  0  0  0  0
   -7.5334  -11.4270   -9.5860 C   0  0  0  0  0  0  0  0  0  0  0  0
   -6.9942  -11.6878   -8.2086 N   0  0  0  0  0  0  0  0  0  0  0  0
   -7.1839  -13.1038   -7.9000 C   0  0  0  0  0  0  0  0  0  0  0  0
  -13.4877  -10.8465   -7.3764 H   0  0  0  0  0  0  0  0  0  0  0  0
  -12.5779   -9.5694   -6.4993 H   0  0  0  0  0  0  0  0  0  0  0  0
  -11.7647  -10.8998   -7.3053 H   0  0  0  0  0  0  0  0  0  0  0  0
  -12.8392   -7.2672   -9.9848 H   0  0  0  0  0  0  0  0  0  0  0  0
  -11.0279   -5.7527  -10.8312 H   0  0  0  0  0  0  0  0  0  0  0  0
   -8.5798   -9.2537   -6.6531 H   0  0  0  0  0  0  0  0  0  0  0  0
   -7.9347  -11.3967   -6.3005 H   0  0  0  0  0  0  0  0  0  0  0  0
   -5.9981  -10.3640   -5.5402 H   0  0  0  0  0  0  0  0  0  0  0  0
   -5.3591  -10.0722   -7.1241 H   0  0  0  0  0  0  0  0  0  0  0  0
   -5.1917   -8.5632   -4.5461 H   0  0  0  0  0  0  0  0  0  0  0  0
   -5.2717   -6.2096   -3.8958 H   0  0  0  0  0  0  0  0  0  0  0  0
   -7.0696   -3.7391   -5.6655 H   0  0  0  0  0  0  0  0  0  0  0  0
   -7.7573   -5.2725   -7.2432 H   0  0  0  0  0  0  0  0  0  0  0  0
   -7.8359   -6.8970  -10.6041 H   0  0  0  0  0  0  0  0  0  0  0  0
   -7.6564   -5.5807   -9.3970 H   0  0  0  0  0  0  0  0  0  0  0  0
   -6.5235   -9.1575   -8.7359 H   0  0  0  0  0  0  0  0  0  0  0  0
   -8.9881   -9.9199  -10.2251 H   0  0  0  0  0  0  0  0  0  0  0  0
   -7.4339   -9.5097  -10.7870 H   0  0  0  0  0  0  0  0  0  0  0  0
   -8.3808  -12.0856   -9.8259 H   0  0  0  0  0  0  0  0  0  0  0  0
   -6.7384  -11.7570  -10.2611 H   0  0  0  0  0  0  0  0  0  0  0  0
   -6.7361  -13.7368   -8.6723 H   0  0  0  0  0  0  0  0  0  0  0  0
   -8.2478  -13.3634   -7.8368 H   0  0  0  0  0  0  0  0  0  0  0  0
   -6.7169  -13.3529   -6.9458 H   0  0  0  0  0  0  0  0  0  0  0  0
  1  2  1  0
  1 27  1  0
  1 28  1  0
  1 29  1  0
  2  3  1  0
  3  8  2  0
  3  4  1  0
  4  5  2  0
  4 30  1  0
  5  6  1  0
  5 31  1  0
  6 21  1  0
  6  7  2  0
  7 20  1  0
  7  8  1  0
  8  9  1  0
  9 10  1  0
 10 22  1  0
 10 11  1  0
 10 32  1  1
 11 25  1  0
 11 12  1  0
 11 33  1  1
 12 13  1  0
 12 34  1  0
 12 35  1  0
 13 19  2  0
 13 14  1  0
 14 15  2  0
 14 36  1  0
 15 16  1  0
 15 37  1  0
 16 17  1  0
 16 18  2  0
 17 38  1  0
 18 19  1  0
 18 39  1  0
 19 20  1  0
 20 21  1  6
 20 22  1  0
 21 40  1  0
 21 41  1  0
 22 23  1  0
 22 42  1  1
 23 24  1  0
 23 43  1  0
 23 44  1  0
 24 25  1  0
 24 45  1  0
 24 46  1  0
 25 26  1  0
 26 47  1  0
 26 48  1  0
 26 49  1  0
M  END
>  <i_m_ct_stereo_status>  (372) 
1

>  <s_m_source_file>  (372) 
/var/tmp/pbs.5076255.sched01/tmp0kxp0nim/126xlotvanm.sdf

>  <i_m_source_file_index>  (372) 
39

>  <i_lp_mmshare_version>  (372) 
48012

>  <i_f3d_flags>  (372) 
0

>  <s_epik_input>  (372) 
W0NAQF0xMjNjNGMoW0NIMl0yKVtjSF1bY0hdYyhPW0NIM10pYzRPW0NASF01W0NAQEhdKE4oW0NIM10pW0NIMl1bQ0gyXVtDQEBIXTM1KVtDSDJdYzZjMVtjSF1jKFtPSF0pW2NIXVtjSF02

>  <s_epik_cmdline>  (372) 
J2VwaWtfcHl0aG9uJywgJy1waHQnLCAnMi4wJywgJy1waCcsICc3LjAnLCAnLXRuJywgJzgnLCAnLW1hJywgJzIwMCcsICctaW1hZScsICc8aW5maWxlLm1hZT4nLCAnLW9tYWUnLCAnPG91dGZpbGUubWFlPic=

>  <r_lp_tautomer_probability>  (372) 
1

>  <r_epik_Ionization_Penalty>  (372) 
1.19369

>  <r_epik_Ionization_Penalty_Charging>  (372) 
0

>  <r_epik_Ionization_Penalty_Neutral>  (372) 
1.19369

>  <r_epik_State_Penalty>  (372) 
1.25833

>  <r_epik_Charging_Adjusted_Penalty>  (372) 
1.25833

>  <i_epik_Tot_Q>  (372) 
0

>  <i_epik_Tot_abs_Q>  (372) 
0

>  <s_lp_Force_Field>  (372) 
OPLS3e

>  <r_lp_Energy>  (372) 
150.405

>  <b_lp_Chiralities_Consistent>  (372) 
1

>  <s_lp_Variant>  (372) 
118:0-2

>  <s_i_glide_gridfile>  (372) 
pfpi4k_grid

>  <i_i_glide_lignum>  (372) 
39

>  <i_i_glide_rotatable_bonds>  (372) 
2

>  <r_i_docking_score>  (372) 
-5.14216

>  <r_i_glide_ligand_efficiency>  (372) 
-0.197775

>  <r_i_glide_ligand_efficiency_sa>  (372) 
-0.585909

>  <r_i_glide_ligand_efficiency_ln>  (372) 
-1.20762

>  <r_i_glide_gscore>  (372) 
-5.14216

>  <r_i_glide_lipo>  (372) 
-2.55553

>  <r_i_glide_hbond>  (372) 
0

>  <r_i_glide_metal>  (372) 
-0

>  <r_i_glide_rewards>  (372) 
-1.42666

>  <r_i_glide_evdw>  (372) 
-25.7927

>  <r_i_glide_ecoul>  (372) 
0.864455

>  <r_i_glide_erotb>  (372) 
0

>  <r_i_glide_esite>  (372) 
0

>  <r_i_glide_emodel>  (372) 
-26.3851

>  <r_i_glide_energy>  (372) 
-24.9283

>  <r_i_glide_einternal>  (372) 
8.47575

>  <r_i_glide_intrahb_reward>  (372) 
-0

>  <i_i_glide_confnum>  (372) 
2

>  <i_i_glide_posenum>  (372) 
40

>  <r_i_glide_eff_state_penalty>  (372) 
0

>  <ligand_id>  (372) 
118

>  <original_smiles>  (372) 
COc1ccc2c3c1OC1C4Cc5ccc(O)cc5C3(C2)C1CCN4C

>  <smiles>  (372) 
[H]Oc1c([H])c([H])c2c(c1[H])C13c4c(c(OC([H])([H])[H])c([H])c([H])c4C1([H])[H])OC1([H])C([H])(N(C([H])([H])[H])C([H])([H])C([H])([H])C13[H])C2([H])[H]

$$$$
118:1:1
     RDKit          3D

 49 54  0  0  1  0  0  0  0  0999 V2000
    3.9588  -12.6119    5.3281 C   0  0  0  0  0  0  0  0  0  0  0  0
    3.7189  -11.5173    4.4499 O   0  0  0  0  0  0  0  0  0  0  0  0
    4.2672  -10.2850    4.7530 C   0  0  0  0  0  0  0  0  0  0  0  0
    5.1174  -10.0386    5.8820 C   0  0  0  0  0  0  0  0  0  0  0  0
    5.5640   -8.7385    6.2580 C   0  0  0  0  0  0  0  0  0  0  0  0
    5.4941   -7.7094    5.2888 C   0  0  0  0  0  0  0  0  0  0  0  0
    4.6169   -8.0259    4.1613 C   0  0  0  0  0  0  0  0  0  0  0  0
    3.8839   -9.2054    3.9050 C   0  0  0  0  0  0  0  0  0  0  0  0
    2.7674   -9.1867    3.0942 O   0  0  0  0  0  0  0  0  0  0  0  0
    2.5917   -7.8803    2.5573 C   0  0  1  0  0  0  0  0  0  0  0  0
    1.5565   -7.3434    1.6496 C   0  0  2  0  0  0  0  0  0  0  0  0
    2.2655   -6.0355    1.0595 C   0  0  0  0  0  0  0  0  0  0  0  0
    3.8145   -5.7334    1.3054 C   0  0  0  0  0  0  0  0  0  0  0  0
    4.4178   -5.1151    0.1830 C   0  0  0  0  0  0  0  0  0  0  0  0
    5.7759   -4.7552    0.1745 C   0  0  0  0  0  0  0  0  0  0  0  0
    6.5844   -5.0266    1.2893 C   0  0  0  0  0  0  0  0  0  0  0  0
    7.9042   -4.6830    1.2465 O   0  0  0  0  0  0  0  0  0  0  0  0
    6.0221   -5.6415    2.4298 C   0  0  0  0  0  0  0  0  0  0  0  0
    4.6465   -5.9918    2.4983 C   0  0  0  0  0  0  0  0  0  0  0  0
    4.1572   -6.6298    3.8513 C   0  0  2  0  0  0  0  0  0  0  0  0
    4.9027   -6.3046    5.2162 C   0  0  0  0  0  0  0  0  0  0  0  0
    2.7019   -6.7762    3.6484 C   0  0  2  0  0  0  0  0  0  0  0  0
    1.6186   -7.0866    4.6709 C   0  0  0  0  0  0  0  0  0  0  0  0
    0.2822   -7.2414    3.8685 C   0  0  0  0  0  0  0  0  0  0  0  0
    0.3172   -6.9823    2.3901 N   0  0  0  0  0  0  0  0  0  0  0  0
   -0.8222   -7.6710    1.7908 C   0  0  0  0  0  0  0  0  0  0  0  0
    3.4213  -13.4783    4.9514 H   0  0  0  0  0  0  0  0  0  0  0  0
    3.5957  -12.4258    6.3403 H   0  0  0  0  0  0  0  0  0  0  0  0
    5.0150  -12.8812    5.3636 H   0  0  0  0  0  0  0  0  0  0  0  0
    5.3857  -10.8554    6.5298 H   0  0  0  0  0  0  0  0  0  0  0  0
    6.0017   -8.5612    7.2259 H   0  0  0  0  0  0  0  0  0  0  0  0
    3.4273   -7.9954    1.8607 H   0  0  0  0  0  0  0  0  0  0  0  0
    1.3735   -8.0892    0.8825 H   0  0  0  0  0  0  0  0  0  0  0  0
    2.0814   -6.0528   -0.0193 H   0  0  0  0  0  0  0  0  0  0  0  0
    1.7329   -5.1465    1.4097 H   0  0  0  0  0  0  0  0  0  0  0  0
    3.8345   -4.9062   -0.6939 H   0  0  0  0  0  0  0  0  0  0  0  0
    6.1937   -4.2722   -0.6967 H   0  0  0  0  0  0  0  0  0  0  0  0
    8.3829   -4.9031    2.0257 H   0  0  0  0  0  0  0  0  0  0  0  0
    6.6806   -5.8340    3.2581 H   0  0  0  0  0  0  0  0  0  0  0  0
    4.2123   -6.0386    6.0287 H   0  0  0  0  0  0  0  0  0  0  0  0
    5.7029   -5.5868    5.1521 H   0  0  0  0  0  0  0  0  0  0  0  0
    2.3636   -5.7680    3.3963 H   0  0  0  0  0  0  0  0  0  0  0  0
    1.8320   -8.0116    5.1955 H   0  0  0  0  0  0  0  0  0  0  0  0
    1.5542   -6.2996    5.4126 H   0  0  0  0  0  0  0  0  0  0  0  0
   -0.1740   -8.2132    4.0962 H   0  0  0  0  0  0  0  0  0  0  0  0
   -0.3964   -6.4896    4.2731 H   0  0  0  0  0  0  0  0  0  0  0  0
   -1.7624   -7.3597    2.2556 H   0  0  0  0  0  0  0  0  0  0  0  0
   -0.7381   -8.7552    1.9096 H   0  0  0  0  0  0  0  0  0  0  0  0
   -0.8735   -7.4623    0.7193 H   0  0  0  0  0  0  0  0  0  0  0  0
  1  2  1  0
  1 27  1  0
  1 28  1  0
  1 29  1  0
  2  3  1  0
  3  8  2  0
  3  4  1  0
  4  5  2  0
  4 30  1  0
  5  6  1  0
  5 31  1  0
  6 21  1  0
  6  7  2  0
  7 20  1  0
  7  8  1  0
  8  9  1  0
  9 10  1  0
 10 22  1  0
 10 11  1  0
 10 32  1  6
 11 25  1  0
 11 12  1  0
 11 33  1  6
 12 13  1  0
 12 34  1  0
 12 35  1  0
 13 19  2  0
 13 14  1  0
 14 15  2  0
 14 36  1  0
 15 16  1  0
 15 37  1  0
 16 17  1  0
 16 18  2  0
 17 38  1  0
 18 19  1  0
 18 39  1  0
 19 20  1  0
 20 21  1  1
 20 22  1  0
 21 40  1  0
 21 41  1  0
 22 23  1  0
 22 42  1  6
 23 24  1  0
 23 43  1  0
 23 44  1  0
 24 25  1  0
 24 45  1  0
 24 46  1  0
 25 26  1  0
 26 47  1  0
 26 48  1  0
 26 49  1  0
M  END
>  <i_m_ct_stereo_status>  (373) 
1

>  <s_m_source_file>  (373) 
/var/tmp/pbs.5076255.sched01/tmp0kxp0nim/126xlotvanm.sdf

>  <i_m_source_file_index>  (373) 
39

>  <i_lp_mmshare_version>  (373) 
48012

>  <i_f3d_flags>  (373) 
0

>  <s_epik_input>  (373) 
W0NAQF0xMjNjNGMoW0NIMl0yKVtjSF1bY0hdYyhPW0NIM10pYzRPW0NASF01W0NAQEhdKE4oW0NIM10pW0NIMl1bQ0gyXVtDQEBIXTM1KVtDSDJdYzZjMVtjSF1jKFtPSF0pW2NIXVtjSF02

>  <s_epik_cmdline>  (373) 
J2VwaWtfcHl0aG9uJywgJy1waHQnLCAnMi4wJywgJy1waCcsICc3LjAnLCAnLXRuJywgJzgnLCAnLW1hJywgJzIwMCcsICctaW1hZScsICc8aW5maWxlLm1hZT4nLCAnLW9tYWUnLCAnPG91dGZpbGUubWFlPic=

>  <r_lp_tautomer_probability>  (373) 
1

>  <r_epik_Ionization_Penalty>  (373) 
1.19369

>  <r_epik_Ionization_Penalty_Charging>  (373) 
0

>  <r_epik_Ionization_Penalty_Neutral>  (373) 
1.19369

>  <r_epik_State_Penalty>  (373) 
1.25833

>  <r_epik_Charging_Adjusted_Penalty>  (373) 
1.25833

>  <i_epik_Tot_Q>  (373) 
0

>  <i_epik_Tot_abs_Q>  (373) 
0

>  <s_lp_Force_Field>  (373) 
OPLS3e

>  <r_lp_Energy>  (373) 
150.405

>  <b_lp_Chiralities_Consistent>  (373) 
1

>  <s_lp_Variant>  (373) 
118:0-2

>  <s_i_glide_gridfile>  (373) 
pfpi4k_grid

>  <i_i_glide_lignum>  (373) 
39

>  <i_i_glide_rotatable_bonds>  (373) 
2

>  <r_i_docking_score>  (373) 
-2.53442

>  <r_i_glide_ligand_efficiency>  (373) 
-0.0974778

>  <r_i_glide_ligand_efficiency_sa>  (373) 
-0.288778

>  <r_i_glide_ligand_efficiency_ln>  (373) 
-0.595201

>  <r_i_glide_gscore>  (373) 
-2.53442

>  <r_i_glide_lipo>  (373) 
-0.251267

>  <r_i_glide_hbond>  (373) 
0

>  <r_i_glide_metal>  (373) 
-0

>  <r_i_glide_rewards>  (373) 
-1.02666

>  <r_i_glide_evdw>  (373) 
-18.8841

>  <r_i_glide_ecoul>  (373) 
-2.08195

>  <r_i_glide_erotb>  (373) 
0

>  <r_i_glide_esite>  (373) 
0

>  <r_i_glide_emodel>  (373) 
-23.6688

>  <r_i_glide_energy>  (373) 
-20.966

>  <r_i_glide_einternal>  (373) 
0.0273831

>  <r_i_glide_intrahb_reward>  (373) 
-0

>  <i_i_glide_confnum>  (373) 
1

>  <i_i_glide_posenum>  (373) 
24

>  <r_i_glide_eff_state_penalty>  (373) 
0

>  <ligand_id>  (373) 
118

>  <original_smiles>  (373) 
COc1ccc2c3c1OC1C4Cc5ccc(O)cc5C3(C2)C1CCN4C

>  <smiles>  (373) 
[H]Oc1c([H])c([H])c2c(c1[H])C13c4c(c(OC([H])([H])[H])c([H])c([H])c4C1([H])[H])OC1([H])C([H])(N(C([H])([H])[H])C([H])([H])C([H])([H])C13[H])C2([H])[H]

$$$$
118:1:2
     RDKit          3D

 49 54  0  0  1  0  0  0  0  0999 V2000
    4.8812    7.1097    3.2919 C   0  0  0  0  0  0  0  0  0  0  0  0
    4.6269    7.2333    4.6828 O   0  0  0  0  0  0  0  0  0  0  0  0
    3.4024    6.7649    5.1002 C   0  0  0  0  0  0  0  0  0  0  0  0
    2.6307    7.6611    5.8810 C   0  0  0  0  0  0  0  0  0  0  0  0
    1.4178    7.2939    6.5278 C   0  0  0  0  0  0  0  0  0  0  0  0
    0.7793    6.1159    6.1102 C   0  0  0  0  0  0  0  0  0  0  0  0
    1.6454    5.2177    5.3341 C   0  0  0  0  0  0  0  0  0  0  0  0
    2.9800    5.4177    4.9323 C   0  0  0  0  0  0  0  0  0  0  0  0
    3.8083    4.3329    4.6645 O   0  0  0  0  0  0  0  0  0  0  0  0
    3.0542    3.1285    4.7604 C   0  0  1  0  0  0  0  0  0  0  0  0
    3.4649    1.7235    4.5574 C   0  0  2  0  0  0  0  0  0  0  0  0
    2.0686    0.9948    4.2917 C   0  0  0  0  0  0  0  0  0  0  0  0
    0.7171    1.8223    4.0497 C   0  0  0  0  0  0  0  0  0  0  0  0
   -0.1155    1.2135    3.0897 C   0  0  0  0  0  0  0  0  0  0  0  0
   -1.3474    1.7601    2.7093 C   0  0  0  0  0  0  0  0  0  0  0  0
   -1.7815    2.9716    3.2900 C   0  0  0  0  0  0  0  0  0  0  0  0
   -2.9812    3.4951    2.9099 O   0  0  0  0  0  0  0  0  0  0  0  0
   -0.9817    3.6122    4.2375 C   0  0  0  0  0  0  0  0  0  0  0  0
    0.2602    3.0848    4.6692 C   0  0  0  0  0  0  0  0  0  0  0  0
    1.0378    3.9100    5.7651 C   0  0  2  0  0  0  0  0  0  0  0  0
    0.2542    4.8397    6.7841 C   0  0  0  0  0  0  0  0  0  0  0  0
    2.2104    3.0581    6.0687 C   0  0  2  0  0  0  0  0  0  0  0  0
    3.1964    3.1661    7.2235 C   0  0  0  0  0  0  0  0  0  0  0  0
    4.2967    2.0803    6.9675 C   0  0  0  0  0  0  0  0  0  0  0  0
    4.1400    1.1931    5.7713 N   0  0  0  0  0  0  0  0  0  0  0  0
    5.4317    0.6027    5.4341 C   0  0  0  0  0  0  0  0  0  0  0  0
    5.9382    7.3078    3.0857 H   0  0  0  0  0  0  0  0  0  0  0  0
    4.2915    7.8660    2.7768 H   0  0  0  0  0  0  0  0  0  0  0  0
    4.6241    6.1391    2.8856 H   0  0  0  0  0  0  0  0  0  0  0  0
    3.0430    8.6444    6.0137 H   0  0  0  0  0  0  0  0  0  0  0  0
    0.9805    7.9481    7.2659 H   0  0  0  0  0  0  0  0  0  0  0  0
    2.5296    3.3196    3.8194 H   0  0  0  0  0  0  0  0  0  0  0  0
    4.1085    1.6831    3.6842 H   0  0  0  0  0  0  0  0  0  0  0  0
    2.2380    0.3533    3.4234 H   0  0  0  0  0  0  0  0  0  0  0  0
    1.8657    0.2999    5.1091 H   0  0  0  0  0  0  0  0  0  0  0  0
    0.1865    0.2922    2.6152 H   0  0  0  0  0  0  0  0  0  0  0  0
   -1.9488    1.2619    1.9702 H   0  0  0  0  0  0  0  0  0  0  0  0
   -3.4195    2.9786    2.2549 H   0  0  0  0  0  0  0  0  0  0  0  0
   -1.3453    4.5511    4.6356 H   0  0  0  0  0  0  0  0  0  0  0  0
    0.5590    4.6929    7.8270 H   0  0  0  0  0  0  0  0  0  0  0  0
   -0.8166    4.8235    6.7039 H   0  0  0  0  0  0  0  0  0  0  0  0
    1.7737    2.0964    6.3518 H   0  0  0  0  0  0  0  0  0  0  0  0
    3.6589    4.1475    7.2514 H   0  0  0  0  0  0  0  0  0  0  0  0
    2.6926    3.0178    8.1757 H   0  0  0  0  0  0  0  0  0  0  0  0
    5.2855    2.5490    6.9912 H   0  0  0  0  0  0  0  0  0  0  0  0
    4.2607    1.4083    7.8239 H   0  0  0  0  0  0  0  0  0  0  0  0
    5.8700    0.1022    6.2995 H   0  0  0  0  0  0  0  0  0  0  0  0
    6.1445    1.3568    5.1047 H   0  0  0  0  0  0  0  0  0  0  0  0
    5.3302   -0.1218    4.6249 H   0  0  0  0  0  0  0  0  0  0  0  0
  1  2  1  0
  1 27  1  0
  1 28  1  0
  1 29  1  0
  2  3  1  0
  3  8  2  0
  3  4  1  0
  4  5  2  0
  4 30  1  0
  5  6  1  0
  5 31  1  0
  6 21  1  0
  6  7  2  0
  7 20  1  0
  7  8  1  0
  8  9  1  0
  9 10  1  0
 10 22  1  0
 10 11  1  0
 10 32  1  6
 11 25  1  0
 11 12  1  0
 11 33  1  6
 12 13  1  0
 12 34  1  0
 12 35  1  0
 13 19  2  0
 13 14  1  0
 14 15  2  0
 14 36  1  0
 15 16  1  0
 15 37  1  0
 16 17  1  0
 16 18  2  0
 17 38  1  0
 18 19  1  0
 18 39  1  0
 19 20  1  0
 20 21  1  1
 20 22  1  0
 21 40  1  0
 21 41  1  0
 22 23  1  0
 22 42  1  1
 23 24  1  0
 23 43  1  0
 23 44  1  0
 24 25  1  0
 24 45  1  0
 24 46  1  0
 25 26  1  0
 26 47  1  0
 26 48  1  0
 26 49  1  0
M  END
>  <i_m_ct_stereo_status>  (374) 
1

>  <s_m_source_file>  (374) 
/var/tmp/pbs.5076255.sched01/tmp0kxp0nim/126xlotvanm.sdf

>  <i_m_source_file_index>  (374) 
39

>  <i_lp_mmshare_version>  (374) 
48012

>  <i_f3d_flags>  (374) 
0

>  <s_epik_input>  (374) 
W0NAQF0xMjNjNGMoW0NIMl0yKVtjSF1bY0hdYyhPW0NIM10pYzRPW0NASF01W0NAQEhdKE4oW0NIM10pW0NIMl1bQ0gyXVtDQEBIXTM1KVtDSDJdYzZjMVtjSF1jKFtPSF0pW2NIXVtjSF02

>  <s_epik_cmdline>  (374) 
J2VwaWtfcHl0aG9uJywgJy1waHQnLCAnMi4wJywgJy1waCcsICc3LjAnLCAnLXRuJywgJzgnLCAnLW1hJywgJzIwMCcsICctaW1hZScsICc8aW5maWxlLm1hZT4nLCAnLW9tYWUnLCAnPG91dGZpbGUubWFlPic=

>  <r_lp_tautomer_probability>  (374) 
1

>  <r_epik_Ionization_Penalty>  (374) 
1.19369

>  <r_epik_Ionization_Penalty_Charging>  (374) 
0

>  <r_epik_Ionization_Penalty_Neutral>  (374) 
1.19369

>  <r_epik_State_Penalty>  (374) 
1.25833

>  <r_epik_Charging_Adjusted_Penalty>  (374) 
1.25833

>  <i_epik_Tot_Q>  (374) 
0

>  <i_epik_Tot_abs_Q>  (374) 
0

>  <s_lp_Force_Field>  (374) 
OPLS3e

>  <r_lp_Energy>  (374) 
150.405

>  <b_lp_Chiralities_Consistent>  (374) 
1

>  <s_lp_Variant>  (374) 
118:0-2

>  <s_i_glide_gridfile>  (374) 
pfpi4k_grid

>  <i_i_glide_lignum>  (374) 
39

>  <i_i_glide_rotatable_bonds>  (374) 
2

>  <r_i_docking_score>  (374) 
-2.48738

>  <r_i_glide_ligand_efficiency>  (374) 
-0.0956684

>  <r_i_glide_ligand_efficiency_sa>  (374) 
-0.283417

>  <r_i_glide_ligand_efficiency_ln>  (374) 
-0.584153

>  <r_i_glide_gscore>  (374) 
-2.48738

>  <r_i_glide_lipo>  (374) 
-0.194634

>  <r_i_glide_hbond>  (374) 
0

>  <r_i_glide_metal>  (374) 
-0

>  <r_i_glide_rewards>  (374) 
-1.02666

>  <r_i_glide_evdw>  (374) 
-20.3072

>  <r_i_glide_ecoul>  (374) 
-1.6715

>  <r_i_glide_erotb>  (374) 
0

>  <r_i_glide_esite>  (374) 
0

>  <r_i_glide_emodel>  (374) 
-21.7546

>  <r_i_glide_energy>  (374) 
-21.9787

>  <r_i_glide_einternal>  (374) 
5.80866

>  <r_i_glide_intrahb_reward>  (374) 
-0

>  <i_i_glide_confnum>  (374) 
1

>  <i_i_glide_posenum>  (374) 
10

>  <r_i_glide_eff_state_penalty>  (374) 
0

>  <ligand_id>  (374) 
118

>  <original_smiles>  (374) 
COc1ccc2c3c1OC1C4Cc5ccc(O)cc5C3(C2)C1CCN4C

>  <smiles>  (374) 
[H]Oc1c([H])c([H])c2c(c1[H])C13c4c(c(OC([H])([H])[H])c([H])c([H])c4C1([H])[H])OC1([H])C([H])(N(C([H])([H])[H])C([H])([H])C([H])([H])C13[H])C2([H])[H]

$$$$
120:0:0
     RDKit          3D

 36 38  0  0  1  0  0  0  0  0999 V2000
    1.2764    0.5560    1.9531 C   0  0  0  0  0  0  0  0  0  0  0  0
    2.7726    0.7856    2.2157 C   0  0  0  0  0  0  0  0  0  0  0  0
    3.5673   -0.2359    1.5873 O   0  0  0  0  0  0  0  0  0  0  0  0
    3.7809   -1.4368    2.2289 C   0  0  0  0  0  0  0  0  0  0  0  0
    3.1734   -1.5858    3.3179 O   0  0  0  0  0  0  0  0  0  0  0  0
    4.6503   -2.2841    1.5343 C   0  0  0  0  0  0  0  0  0  0  0  0
    5.0996   -3.6027    2.1073 C   0  0  0  0  0  0  0  0  0  0  0  0
    4.2722   -4.2919    3.1717 C   0  0  0  0  0  0  0  0  0  0  0  0
    6.1387   -4.2127    1.6984 N   0  0  0  0  0  0  0  0  0  0  0  0
    6.9385   -3.7216    0.7020 C   0  0  0  0  0  0  0  0  0  0  0  0
    8.1176   -4.1545    0.2882 N   0  0  0  0  0  0  0  0  0  0  0  0
    8.4194   -3.2079   -0.6531 C   0  0  0  0  0  0  0  0  0  0  0  0
    7.5145   -2.2646   -0.8561 N   0  0  0  0  0  0  0  0  0  0  0  0
    6.5521   -2.6206    0.0319 N   0  0  0  0  0  0  0  0  0  0  0  0
    5.3033   -1.8991    0.1887 C   0  0  1  0  0  0  0  0  0  0  0  0
    4.3504   -2.1350   -0.9876 C   0  0  0  0  0  0  0  0  0  0  0  0
    4.3779   -1.0451   -2.3613 S   0  0  0  0  0  0  0  0  0  0  0  0
    3.1517   -1.9589   -3.1924 C   0  0  0  0  0  0  0  0  0  0  0  0
    2.7547   -3.0331   -2.4532 C   0  0  0  0  0  0  0  0  0  0  0  0
    3.4168   -3.1349   -1.1973 C   0  0  0  0  0  0  0  0  0  0  0  0
    3.1111   -4.2603   -0.2693 C   0  0  0  0  0  0  0  0  0  0  0  0
    0.6756    1.3387    2.4145 H   0  0  0  0  0  0  0  0  0  0  0  0
    0.9390   -0.4085    2.3312 H   0  0  0  0  0  0  0  0  0  0  0  0
    1.0637    0.5684    0.8828 H   0  0  0  0  0  0  0  0  0  0  0  0
    3.0626    1.7484    1.7931 H   0  0  0  0  0  0  0  0  0  0  0  0
    2.9843    0.8803    3.2825 H   0  0  0  0  0  0  0  0  0  0  0  0
    3.2253   -4.2125    2.9102 H   0  0  0  0  0  0  0  0  0  0  0  0
    4.4393   -3.9010    4.1757 H   0  0  0  0  0  0  0  0  0  0  0  0
    4.5028   -5.3529    3.1545 H   0  0  0  0  0  0  0  0  0  0  0  0
    9.3599   -3.2296   -1.1652 H   0  0  0  0  0  0  0  0  0  0  0  0
    5.5498   -0.8355    0.2250 H   0  0  0  0  0  0  0  0  0  0  0  0
    2.7668   -1.6559   -4.1530 H   0  0  0  0  0  0  0  0  0  0  0  0
    1.9926   -3.7449   -2.7274 H   0  0  0  0  0  0  0  0  0  0  0  0
    2.4686   -5.0141   -0.7208 H   0  0  0  0  0  0  0  0  0  0  0  0
    2.5999   -3.8624    0.6107 H   0  0  0  0  0  0  0  0  0  0  0  0
    4.0387   -4.7757   -0.0080 H   0  0  0  0  0  0  0  0  0  0  0  0
  1  2  1  0
  1 22  1  0
  1 23  1  0
  1 24  1  0
  2  3  1  0
  2 25  1  0
  2 26  1  0
  3  4  1  0
  4  5  1  0
  4  6  2  0
  6 15  1  0
  6  7  1  0
  7  8  1  0
  7  9  2  0
  8 27  1  0
  8 28  1  0
  8 29  1  0
  9 10  1  0
 10 14  1  0
 10 11  2  0
 11 12  1  0
 12 13  2  0
 12 30  1  0
 13 14  1  0
 14 15  1  0
 15 16  1  0
 15 31  1  1
 16 20  2  0
 16 17  1  0
 17 18  1  0
 18 19  2  0
 18 32  1  0
 19 20  1  0
 19 33  1  0
 20 21  1  0
 21 34  1  0
 21 35  1  0
 21 36  1  0
M  CHG  1   5  -1
M  END
>  <i_m_ct_stereo_status>  (375) 
1

>  <s_m_source_file>  (375) 
/var/tmp/pbs.5076255.sched01/tmp0kxp0nim/126xlotvanm.sdf

>  <i_m_source_file_index>  (375) 
41

>  <i_lp_mmshare_version>  (375) 
48012

>  <i_f3d_flags>  (375) 
0

>  <s_epik_input>  (375) 
W0NIM11bQ0gyXU9DKD1PKVtDQEhdKEMoPU4xKVtDSDNdKVtDQEBIXShuKGMxMiluW2NIXW4yKWMzc1tjSF1bY0hdYzNbQ0gzXQ==

>  <s_epik_cmdline>  (375) 
J2VwaWtfcHl0aG9uJywgJy1waHQnLCAnMi4wJywgJy1waCcsICc3LjAnLCAnLXRuJywgJzgnLCAnLW1hJywgJzIwMCcsICctaW1hZScsICc8aW5maWxlLm1hZT4nLCAnLW9tYWUnLCAnPG91dGZpbGUubWFlPic=

>  <r_epik_Ionization_Penalty>  (375) 
3.67988e-05

>  <r_epik_Ionization_Penalty_Charging>  (375) 
0

>  <r_epik_Ionization_Penalty_Neutral>  (375) 
3.67988e-05

>  <r_epik_State_Penalty>  (375) 
0.0277793

>  <r_epik_Charging_Adjusted_Penalty>  (375) 
0.0277793

>  <i_epik_Tot_Q>  (375) 
-1

>  <i_epik_Tot_abs_Q>  (375) 
1

>  <s_epik_Chemistry_Notes>  (375) 
This compound has an ester and may undergo hydrolysis at high or low pH. This compound has an imine and may undergo hydrolysis.

>  <s_lp_Force_Field>  (375) 
OPLS3e

>  <r_lp_Energy>  (375) 
23.4868

>  <b_lp_Chiralities_Consistent>  (375) 
1

>  <s_lp_Variant>  (375) 
120:0-1

>  <s_i_glide_gridfile>  (375) 
pfpi4k_grid

>  <i_i_glide_lignum>  (375) 
41

>  <i_i_glide_rotatable_bonds>  (375) 
3

>  <r_i_docking_score>  (375) 
-3.28872

>  <r_i_glide_ligand_efficiency>  (375) 
-0.156606

>  <r_i_glide_ligand_efficiency_sa>  (375) 
-0.432064

>  <r_i_glide_ligand_efficiency_ln>  (375) 
-0.81313

>  <r_i_glide_gscore>  (375) 
-3.28872

>  <r_i_glide_lipo>  (375) 
-0.176573

>  <r_i_glide_hbond>  (375) 
-0.16

>  <r_i_glide_metal>  (375) 
-0

>  <r_i_glide_rewards>  (375) 
-1.6099

>  <r_i_glide_evdw>  (375) 
-27.4571

>  <r_i_glide_ecoul>  (375) 
-2.46557

>  <r_i_glide_erotb>  (375) 
0.400446

>  <r_i_glide_esite>  (375) 
0

>  <r_i_glide_emodel>  (375) 
-32.0243

>  <r_i_glide_energy>  (375) 
-29.9227

>  <r_i_glide_einternal>  (375) 
6.96323

>  <r_i_glide_intrahb_reward>  (375) 
-0

>  <i_i_glide_confnum>  (375) 
3

>  <i_i_glide_posenum>  (375) 
2

>  <r_i_glide_eff_state_penalty>  (375) 
0

>  <ligand_id>  (375) 
120

>  <original_smiles>  (375) 
CCOC(=O)C1C(C)=Nc2ncnn2C1c1sccc1C

>  <smiles>  (375) 
[H]c1nc2n(n1)C([H])(c1sc([H])c([H])c1C([H])([H])[H])C(=C([O-])OC([H])([H])C([H])([H])[H])C(C([H])([H])[H])=N2

$$$$
120:0:1
     RDKit          3D

 36 38  0  0  1  0  0  0  0  0999 V2000
    1.5370    0.3787    1.9428 C   0  0  0  0  0  0  0  0  0  0  0  0
    3.0130    0.7629    2.1706 C   0  0  0  0  0  0  0  0  0  0  0  0
    3.9087   -0.2172    1.6099 O   0  0  0  0  0  0  0  0  0  0  0  0
    4.0547   -1.4368    2.2380 C   0  0  0  0  0  0  0  0  0  0  0  0
    3.4648   -1.5809    3.3414 O   0  0  0  0  0  0  0  0  0  0  0  0
    4.9072   -2.3145    1.5678 C   0  0  0  0  0  0  0  0  0  0  0  0
    5.3100   -3.6370    2.1642 C   0  0  0  0  0  0  0  0  0  0  0  0
    4.4158   -4.3170    3.1676 C   0  0  0  0  0  0  0  0  0  0  0  0
    6.3706   -4.2543    1.8202 N   0  0  0  0  0  0  0  0  0  0  0  0
    7.2675   -3.7172    0.9498 C   0  0  0  0  0  0  0  0  0  0  0  0
    8.4713   -4.1645    0.6204 N   0  0  0  0  0  0  0  0  0  0  0  0
    8.8390   -3.2267   -0.2836 C   0  0  0  0  0  0  0  0  0  0  0  0
    7.9719   -2.2567   -0.5441 N   0  0  0  0  0  0  0  0  0  0  0  0
    6.9530   -2.5983    0.2791 N   0  0  0  0  0  0  0  0  0  0  0  0
    5.6909   -1.8867    0.3147 C   0  0  1  0  0  0  0  0  0  0  0  0
    4.8875   -2.1117   -0.9517 C   0  0  0  0  0  0  0  0  0  0  0  0
    4.3389   -0.7570   -1.9056 S   0  0  0  0  0  0  0  0  0  0  0  0
    3.4940   -1.7900   -3.0118 C   0  0  0  0  0  0  0  0  0  0  0  0
    3.6785   -3.1022   -2.6849 C   0  0  0  0  0  0  0  0  0  0  0  0
    4.4647   -3.3008   -1.5132 C   0  0  0  0  0  0  0  0  0  0  0  0
    4.7731   -4.6636   -0.9728 C   0  0  0  0  0  0  0  0  0  0  0  0
    0.8585    1.1401    2.3401 H   0  0  0  0  0  0  0  0  0  0  0  0
    1.2656   -0.5718    2.4073 H   0  0  0  0  0  0  0  0  0  0  0  0
    1.3420    0.2774    0.8798 H   0  0  0  0  0  0  0  0  0  0  0  0
    3.1956    1.7138    1.6732 H   0  0  0  0  0  0  0  0  0  0  0  0
    3.2336    0.9454    3.2197 H   0  0  0  0  0  0  0  0  0  0  0  0
    3.3709   -4.2238    2.8761 H   0  0  0  0  0  0  0  0  0  0  0  0
    4.5701   -3.9063    4.1653 H   0  0  0  0  0  0  0  0  0  0  0  0
    4.6507   -5.3834    3.1955 H   0  0  0  0  0  0  0  0  0  0  0  0
    9.8147   -3.2654   -0.7128 H   0  0  0  0  0  0  0  0  0  0  0  0
    5.9344   -0.8287    0.3933 H   0  0  0  0  0  0  0  0  0  0  0  0
    2.9003   -1.3846   -3.8207 H   0  0  0  0  0  0  0  0  0  0  0  0
    3.2554   -3.9287   -3.2331 H   0  0  0  0  0  0  0  0  0  0  0  0
    4.6259   -5.4479   -1.6854 H   0  0  0  0  0  0  0  0  0  0  0  0
    4.1922   -4.8703   -0.0703 H   0  0  0  0  0  0  0  0  0  0  0  0
    5.8365   -4.7801   -0.7971 H   0  0  0  0  0  0  0  0  0  0  0  0
  1  2  1  0
  1 22  1  0
  1 23  1  0
  1 24  1  0
  2  3  1  0
  2 25  1  0
  2 26  1  0
  3  4  1  0
  4  5  1  0
  4  6  2  0
  6 15  1  0
  6  7  1  0
  7  8  1  0
  7  9  2  0
  8 27  1  0
  8 28  1  0
  8 29  1  0
  9 10  1  0
 10 14  1  0
 10 11  2  0
 11 12  1  0
 12 13  2  0
 12 30  1  0
 13 14  1  0
 14 15  1  0
 15 16  1  0
 15 31  1  1
 16 20  2  0
 16 17  1  0
 17 18  1  0
 18 19  2  0
 18 32  1  0
 19 20  1  0
 19 33  1  0
 20 21  1  0
 21 34  1  0
 21 35  1  0
 21 36  1  0
M  CHG  1   5  -1
M  END
>  <i_m_ct_stereo_status>  (376) 
1

>  <s_m_source_file>  (376) 
/var/tmp/pbs.5076255.sched01/tmp0kxp0nim/126xlotvanm.sdf

>  <i_m_source_file_index>  (376) 
41

>  <i_lp_mmshare_version>  (376) 
48012

>  <i_f3d_flags>  (376) 
0

>  <s_epik_input>  (376) 
W0NIM11bQ0gyXU9DKD1PKVtDQEhdKEMoPU4xKVtDSDNdKVtDQEBIXShuKGMxMiluW2NIXW4yKWMzc1tjSF1bY0hdYzNbQ0gzXQ==

>  <s_epik_cmdline>  (376) 
J2VwaWtfcHl0aG9uJywgJy1waHQnLCAnMi4wJywgJy1waCcsICc3LjAnLCAnLXRuJywgJzgnLCAnLW1hJywgJzIwMCcsICctaW1hZScsICc8aW5maWxlLm1hZT4nLCAnLW9tYWUnLCAnPG91dGZpbGUubWFlPic=

>  <r_epik_Ionization_Penalty>  (376) 
3.67988e-05

>  <r_epik_Ionization_Penalty_Charging>  (376) 
0

>  <r_epik_Ionization_Penalty_Neutral>  (376) 
3.67988e-05

>  <r_epik_State_Penalty>  (376) 
0.0277793

>  <r_epik_Charging_Adjusted_Penalty>  (376) 
0.0277793

>  <i_epik_Tot_Q>  (376) 
-1

>  <i_epik_Tot_abs_Q>  (376) 
1

>  <s_epik_Chemistry_Notes>  (376) 
This compound has an ester and may undergo hydrolysis at high or low pH. This compound has an imine and may undergo hydrolysis.

>  <s_lp_Force_Field>  (376) 
OPLS3e

>  <r_lp_Energy>  (376) 
23.4868

>  <b_lp_Chiralities_Consistent>  (376) 
1

>  <s_lp_Variant>  (376) 
120:0-1

>  <s_i_glide_gridfile>  (376) 
pfpi4k_grid

>  <i_i_glide_lignum>  (376) 
41

>  <i_i_glide_rotatable_bonds>  (376) 
3

>  <r_i_docking_score>  (376) 
-2.99542

>  <r_i_glide_ligand_efficiency>  (376) 
-0.142639

>  <r_i_glide_ligand_efficiency_sa>  (376) 
-0.393531

>  <r_i_glide_ligand_efficiency_ln>  (376) 
-0.740612

>  <r_i_glide_gscore>  (376) 
-2.99542

>  <r_i_glide_lipo>  (376) 
-0.193633

>  <r_i_glide_hbond>  (376) 
-0.16

>  <r_i_glide_metal>  (376) 
-0

>  <r_i_glide_rewards>  (376) 
-1.66361

>  <r_i_glide_evdw>  (376) 
-21.5188

>  <r_i_glide_ecoul>  (376) 
-1.89802

>  <r_i_glide_erotb>  (376) 
0.400446

>  <r_i_glide_esite>  (376) 
-0.0179842

>  <r_i_glide_emodel>  (376) 
-25.9403

>  <r_i_glide_energy>  (376) 
-23.4168

>  <r_i_glide_einternal>  (376) 
5.18534

>  <r_i_glide_intrahb_reward>  (376) 
-0

>  <i_i_glide_confnum>  (376) 
4

>  <i_i_glide_posenum>  (376) 
10

>  <r_i_glide_eff_state_penalty>  (376) 
0

>  <ligand_id>  (376) 
120

>  <original_smiles>  (376) 
CCOC(=O)C1C(C)=Nc2ncnn2C1c1sccc1C

>  <smiles>  (376) 
[H]c1nc2n(n1)C([H])(c1sc([H])c([H])c1C([H])([H])[H])C(=C([O-])OC([H])([H])C([H])([H])[H])C(C([H])([H])[H])=N2

$$$$
120:0:2
     RDKit          3D

 36 38  0  0  1  0  0  0  0  0999 V2000
   -4.0433    3.3142    9.2715 C   0  0  0  0  0  0  0  0  0  0  0  0
   -2.6132    2.8481    9.5239 C   0  0  0  0  0  0  0  0  0  0  0  0
   -1.7573    3.4043    8.5055 O   0  0  0  0  0  0  0  0  0  0  0  0
   -0.3905    3.1800    8.5806 C   0  0  0  0  0  0  0  0  0  0  0  0
   -0.0131    2.4304    9.5158 O   0  0  0  0  0  0  0  0  0  0  0  0
    0.3364    3.9029    7.6264 C   0  0  0  0  0  0  0  0  0  0  0  0
    1.8289    3.9602    7.6253 C   0  0  0  0  0  0  0  0  0  0  0  0
    2.6260    2.8636    8.2842 C   0  0  0  0  0  0  0  0  0  0  0  0
    2.4976    4.9113    7.0760 N   0  0  0  0  0  0  0  0  0  0  0  0
    1.8928    5.9893    6.4806 C   0  0  0  0  0  0  0  0  0  0  0  0
    2.4287    7.1194    6.0003 N   0  0  0  0  0  0  0  0  0  0  0  0
    1.3235    7.7607    5.5344 C   0  0  0  0  0  0  0  0  0  0  0  0
    0.1608    7.1692    5.7835 N   0  0  0  0  0  0  0  0  0  0  0  0
    0.5608    6.0017    6.3366 N   0  0  0  0  0  0  0  0  0  0  0  0
   -0.3449    4.8895    6.6580 C   0  0  1  0  0  0  0  0  0  0  0  0
   -0.8300    4.1417    5.4057 C   0  0  0  0  0  0  0  0  0  0  0  0
   -2.3744    3.3507    5.4559 S   0  0  0  0  0  0  0  0  0  0  0  0
   -2.1939    2.7732    3.8312 C   0  0  0  0  0  0  0  0  0  0  0  0
   -0.9874    3.1311    3.3132 C   0  0  0  0  0  0  0  0  0  0  0  0
   -0.1912    3.9119    4.1995 C   0  0  0  0  0  0  0  0  0  0  0  0
    1.1881    4.3608    3.7813 C   0  0  0  0  0  0  0  0  0  0  0  0
   -4.7107    2.9719   10.0678 H   0  0  0  0  0  0  0  0  0  0  0  0
   -4.4236    2.9449    8.3181 H   0  0  0  0  0  0  0  0  0  0  0  0
   -4.0946    4.4038    9.2626 H   0  0  0  0  0  0  0  0  0  0  0  0
   -2.3058    3.1843   10.5171 H   0  0  0  0  0  0  0  0  0  0  0  0
   -2.5540    1.7634    9.4857 H   0  0  0  0  0  0  0  0  0  0  0  0
    2.1882    1.8874    8.0902 H   0  0  0  0  0  0  0  0  0  0  0  0
    2.6754    3.0493    9.3627 H   0  0  0  0  0  0  0  0  0  0  0  0
    3.6474    2.8644    7.8933 H   0  0  0  0  0  0  0  0  0  0  0  0
    1.3581    8.6837    4.9793 H   0  0  0  0  0  0  0  0  0  0  0  0
   -1.1962    5.2926    7.1809 H   0  0  0  0  0  0  0  0  0  0  0  0
   -2.9745    2.1701    3.3429 H   0  0  0  0  0  0  0  0  0  0  0  0
   -0.6239    2.8527    2.3395 H   0  0  0  0  0  0  0  0  0  0  0  0
    1.3685    4.1196    2.7296 H   0  0  0  0  0  0  0  0  0  0  0  0
    1.9287    3.8271    4.3823 H   0  0  0  0  0  0  0  0  0  0  0  0
    1.2965    5.4459    3.8949 H   0  0  0  0  0  0  0  0  0  0  0  0
  1  2  1  0
  1 22  1  0
  1 23  1  0
  1 24  1  0
  2  3  1  0
  2 25  1  0
  2 26  1  0
  3  4  1  0
  4  5  1  0
  4  6  2  0
  6 15  1  0
  6  7  1  0
  7  8  1  0
  7  9  2  0
  8 27  1  0
  8 28  1  0
  8 29  1  0
  9 10  1  0
 10 14  1  0
 10 11  2  0
 11 12  1  0
 12 13  2  0
 12 30  1  0
 13 14  1  0
 14 15  1  0
 15 16  1  0
 15 31  1  1
 16 20  2  0
 16 17  1  0
 17 18  1  0
 18 19  2  0
 18 32  1  0
 19 20  1  0
 19 33  1  0
 20 21  1  0
 21 34  1  0
 21 35  1  0
 21 36  1  0
M  CHG  1   5  -1
M  END
>  <i_m_ct_stereo_status>  (377) 
1

>  <s_m_source_file>  (377) 
/var/tmp/pbs.5076255.sched01/tmp0kxp0nim/126xlotvanm.sdf

>  <i_m_source_file_index>  (377) 
41

>  <i_lp_mmshare_version>  (377) 
48012

>  <i_f3d_flags>  (377) 
0

>  <s_epik_input>  (377) 
W0NIM11bQ0gyXU9DKD1PKVtDQEhdKEMoPU4xKVtDSDNdKVtDQEBIXShuKGMxMiluW2NIXW4yKWMzc1tjSF1bY0hdYzNbQ0gzXQ==

>  <s_epik_cmdline>  (377) 
J2VwaWtfcHl0aG9uJywgJy1waHQnLCAnMi4wJywgJy1waCcsICc3LjAnLCAnLXRuJywgJzgnLCAnLW1hJywgJzIwMCcsICctaW1hZScsICc8aW5maWxlLm1hZT4nLCAnLW9tYWUnLCAnPG91dGZpbGUubWFlPic=

>  <r_epik_Ionization_Penalty>  (377) 
3.67988e-05

>  <r_epik_Ionization_Penalty_Charging>  (377) 
0

>  <r_epik_Ionization_Penalty_Neutral>  (377) 
3.67988e-05

>  <r_epik_State_Penalty>  (377) 
0.0277793

>  <r_epik_Charging_Adjusted_Penalty>  (377) 
0.0277793

>  <i_epik_Tot_Q>  (377) 
-1

>  <i_epik_Tot_abs_Q>  (377) 
1

>  <s_epik_Chemistry_Notes>  (377) 
This compound has an ester and may undergo hydrolysis at high or low pH. This compound has an imine and may undergo hydrolysis.

>  <s_lp_Force_Field>  (377) 
OPLS3e

>  <r_lp_Energy>  (377) 
23.4868

>  <b_lp_Chiralities_Consistent>  (377) 
1

>  <s_lp_Variant>  (377) 
120:0-1

>  <s_i_glide_gridfile>  (377) 
pfpi4k_grid

>  <i_i_glide_lignum>  (377) 
41

>  <i_i_glide_rotatable_bonds>  (377) 
3

>  <r_i_docking_score>  (377) 
-2.61901

>  <r_i_glide_ligand_efficiency>  (377) 
-0.124715

>  <r_i_glide_ligand_efficiency_sa>  (377) 
-0.344079

>  <r_i_glide_ligand_efficiency_ln>  (377) 
-0.647546

>  <r_i_glide_gscore>  (377) 
-2.61901

>  <r_i_glide_lipo>  (377) 
-0.0903728

>  <r_i_glide_hbond>  (377) 
-0.0233582

>  <r_i_glide_metal>  (377) 
-0

>  <r_i_glide_rewards>  (377) 
-1.34072

>  <r_i_glide_evdw>  (377) 
-18.1044

>  <r_i_glide_ecoul>  (377) 
-4.17947

>  <r_i_glide_erotb>  (377) 
0.400446

>  <r_i_glide_esite>  (377) 
-0.0328631

>  <r_i_glide_emodel>  (377) 
-23.7741

>  <r_i_glide_energy>  (377) 
-22.2839

>  <r_i_glide_einternal>  (377) 
6.27256

>  <r_i_glide_intrahb_reward>  (377) 
-0

>  <i_i_glide_confnum>  (377) 
4

>  <i_i_glide_posenum>  (377) 
6

>  <r_i_glide_eff_state_penalty>  (377) 
0

>  <ligand_id>  (377) 
120

>  <original_smiles>  (377) 
CCOC(=O)C1C(C)=Nc2ncnn2C1c1sccc1C

>  <smiles>  (377) 
[H]c1nc2n(n1)C([H])(c1sc([H])c([H])c1C([H])([H])[H])C(=C([O-])OC([H])([H])C([H])([H])[H])C(C([H])([H])[H])=N2

$$$$
