1:0:0
     RDKit          3D

 44 48  0  0  1  0  0  0  0  0999 V2000
    2.6787   -2.5506   -2.8013 C   0  0  0  0  0  0  0  0  0  0  0  0
    3.8395   -2.3444   -1.8152 C   0  0  2  0  0  0  0  0  0  0  0  0
    5.2037   -2.4610   -2.5930 C   0  0  0  0  0  0  0  0  0  0  0  0
    6.4331   -2.7803   -1.7227 C   0  0  0  0  0  0  0  0  0  0  0  0
    7.5279   -2.2603   -1.8778 O   0  0  0  0  0  0  0  0  0  0  0  0
    6.1506   -3.7837   -0.6333 C   0  0  1  0  0  0  0  0  0  0  0  0
    7.1719   -4.1389    0.3157 O   0  0  0  0  0  0  0  0  0  0  0  0
    6.4147   -4.6436    1.3515 C   0  0  0  0  0  0  0  0  0  0  0  0
    6.7380   -5.4773    2.4463 C   0  0  0  0  0  0  0  0  0  0  0  0
    8.0275   -5.8719    2.6363 O   0  0  0  0  0  0  0  0  0  0  0  0
    5.7071   -5.8962    3.3352 C   0  0  0  0  0  0  0  0  0  0  0  0
    4.3475   -5.5303    3.1412 C   0  0  0  0  0  0  0  0  0  0  0  0
    4.0149   -4.6808    2.0711 C   0  0  0  0  0  0  0  0  0  0  0  0
    5.0943   -4.2643    1.2812 C   0  0  0  0  0  0  0  0  0  0  0  0
    5.0203   -3.2555    0.2117 C   0  0  1  0  0  0  0  0  0  0  0  0
    5.2440   -1.8451    0.8392 C   0  0  0  0  0  0  0  0  0  0  0  0
    4.1066   -1.4801    1.7997 C   0  0  0  0  0  0  0  0  0  0  0  0
    2.7855   -1.6923    1.1566 N   0  0  2  0  0  0  0  0  0  0  0  0
    1.6689   -1.2988    2.0551 C   0  0  0  0  0  0  0  0  0  0  0  0
    2.6320   -3.0409    0.5174 C   0  0  2  0  0  0  0  0  0  0  0  0
    2.6438   -4.2066    1.5726 C   0  0  0  0  0  0  0  0  0  0  0  0
    3.7233   -3.2846   -0.5614 C   0  0  1  0  0  0  0  0  0  0  0  0
    2.6527   -3.5619   -3.2095 H   0  0  0  0  0  0  0  0  0  0  0  0
    2.7446   -1.8567   -3.6402 H   0  0  0  0  0  0  0  0  0  0  0  0
    1.7233   -2.3727   -2.3223 H   0  0  0  0  0  0  0  0  0  0  0  0
    3.7644   -1.3114   -1.4759 H   0  0  0  0  0  0  0  0  0  0  0  0
    5.1503   -3.2482   -3.3459 H   0  0  0  0  0  0  0  0  0  0  0  0
    5.3949   -1.5325   -3.1264 H   0  0  0  0  0  0  0  0  0  0  0  0
    5.8309   -4.7007   -1.1246 H   0  0  0  0  0  0  0  0  0  0  0  0
    8.1370   -6.4549    3.3726 H   0  0  0  0  0  0  0  0  0  0  0  0
    5.9531   -6.5194    4.1777 H   0  0  0  0  0  0  0  0  0  0  0  0
    3.5727   -5.8953    3.8093 H   0  0  0  0  0  0  0  0  0  0  0  0
    6.1916   -1.7990    1.3729 H   0  0  0  0  0  0  0  0  0  0  0  0
    5.3070   -1.0646    0.0852 H   0  0  0  0  0  0  0  0  0  0  0  0
    4.1763   -2.0694    2.7168 H   0  0  0  0  0  0  0  0  0  0  0  0
    4.1975   -0.4390    2.1105 H   0  0  0  0  0  0  0  0  0  0  0  0
    1.6798   -1.8538    2.9974 H   0  0  0  0  0  0  0  0  0  0  0  0
    0.6967   -1.4517    1.5830 H   0  0  0  0  0  0  0  0  0  0  0  0
    1.7419   -0.2361    2.3042 H   0  0  0  0  0  0  0  0  0  0  0  0
    1.6853   -3.0349   -0.0062 H   0  0  0  0  0  0  0  0  0  0  0  0
    2.1691   -5.0721    1.1077 H   0  0  0  0  0  0  0  0  0  0  0  0
    2.0148   -3.9719    2.4289 H   0  0  0  0  0  0  0  0  0  0  0  0
    3.5693   -4.2936   -0.9475 H   0  0  0  0  0  0  0  0  0  0  0  0
    2.7155   -1.0415    0.3834 H   0  0  0  0  0  0  0  0  0  0  0  0
  1  2  1  0
  1 23  1  0
  1 24  1  0
  1 25  1  0
  2 22  1  0
  2  3  1  0
  2 26  1  1
  3  4  1  0
  3 27  1  0
  3 28  1  0
  4  5  2  0
  4  6  1  0
  6 15  1  0
  6  7  1  0
  6 29  1  6
  7  8  1  0
  8 14  2  0
  8  9  1  0
  9 10  1  0
  9 11  2  0
 10 30  1  0
 11 12  1  0
 11 31  1  0
 12 13  2  0
 12 32  1  0
 13 21  1  0
 13 14  1  0
 14 15  1  0
 15 22  1  0
 15 16  1  1
 16 17  1  0
 16 33  1  0
 16 34  1  0
 17 18  1  0
 17 35  1  0
 17 36  1  0
 18 19  1  0
 18 20  1  0
 18 44  1  6
 19 37  1  0
 19 38  1  0
 19 39  1  0
 20 21  1  0
 20 22  1  0
 20 40  1  6
 21 41  1  0
 21 42  1  0
 22 43  1  6
M  CHG  1  18   1
M  END
>  <i_m_ct_stereo_status>  (1) 
1

>  <s_m_source_file>  (1) 
/var/tmp/pbs.5076255.sched01/tmpuj7nejrg/06cdl7mjn.sdf

>  <i_m_source_file_index>  (1) 
2

>  <i_lp_mmshare_version>  (1) 
48012

>  <i_f3d_flags>  (1) 
0

>  <s_epik_input>  (1) 
W0NAXTEyM1tDQEhdNEMoPU8pW0NIMl1bQ0BASF0oW0NIM10pW0NAQEhdM1tDQEhdKE4oW0NIM10pW0NIMl1bQ0gyXTIpW0NIMl1jNWMxYyhPNCljKFtPSF0pW2NIXVtjSF01

>  <s_epik_cmdline>  (1) 
J2VwaWtfcHl0aG9uJywgJy1waHQnLCAnMi4wJywgJy1waCcsICc3LjAnLCAnLXRuJywgJzgnLCAnLW1hJywgJzIwMCcsICctaW1hZScsICc8aW5maWxlLm1hZT4nLCAnLW9tYWUnLCAnPG91dGZpbGUubWFlPic=

>  <r_lp_tautomer_probability>  (1) 
1

>  <r_epik_Ionization_Penalty>  (1) 
0.0549988

>  <r_epik_Ionization_Penalty_Charging>  (1) 
0.0324307

>  <r_epik_Ionization_Penalty_Neutral>  (1) 
0.0225682

>  <r_epik_State_Penalty>  (1) 
0.0442849

>  <r_epik_Charging_Adjusted_Penalty>  (1) 
0.0767155

>  <i_epik_Tot_Q>  (1) 
1

>  <i_epik_Tot_abs_Q>  (1) 
1

>  <s_lp_Force_Field>  (1) 
OPLS3e

>  <r_lp_Energy>  (1) 
65.3198

>  <b_lp_Chiralities_Consistent>  (1) 
1

>  <s_lp_Variant>  (1) 
1:0-1

>  <s_i_glide_gridfile>  (1) 
pfpi4k_grid

>  <i_i_glide_lignum>  (1) 
2

>  <i_i_glide_rotatable_bonds>  (1) 
1

>  <r_i_docking_score>  (1) 
-3.97993

>  <r_i_glide_ligand_efficiency>  (1) 
-0.180906

>  <r_i_glide_ligand_efficiency_sa>  (1) 
-0.506906

>  <r_i_glide_ligand_efficiency_ln>  (1) 
-0.97284

>  <r_i_glide_gscore>  (1) 
-3.97993

>  <r_i_glide_lipo>  (1) 
-0.519073

>  <r_i_glide_hbond>  (1) 
-0.180569

>  <r_i_glide_metal>  (1) 
-0

>  <r_i_glide_rewards>  (1) 
-1.3611

>  <r_i_glide_evdw>  (1) 
-17.1866

>  <r_i_glide_ecoul>  (1) 
-6.637

>  <r_i_glide_erotb>  (1) 
0

>  <r_i_glide_esite>  (1) 
-0.0643097

>  <r_i_glide_emodel>  (1) 
-29.7657

>  <r_i_glide_energy>  (1) 
-23.8236

>  <r_i_glide_einternal>  (1) 
0.0150489

>  <r_i_glide_intrahb_reward>  (1) 
-0

>  <i_i_glide_confnum>  (1) 
1

>  <i_i_glide_posenum>  (1) 
6

>  <r_i_glide_eff_state_penalty>  (1) 
0

>  <ligand_id>  (1) 
1

>  <original_smiles>  (1) 
CC1CC(=O)C2Oc3c(O)ccc4c3C23CCN(C)C(C4)C13

>  <smiles>  (1) 
[H]Oc1c([H])c([H])c2c3c1OC1([H])C(=O)C([H])([H])C([H])(C([H])([H])[H])C4([H])C31C([H])([H])C([H])([H])[N+]([H])(C([H])([H])[H])C4([H])C2([H])[H]

$$$$
1:0:1
     RDKit          3D

 44 48  0  0  1  0  0  0  0  0999 V2000
    3.7365   -1.3311   -2.1339 C   0  0  0  0  0  0  0  0  0  0  0  0
    4.7138   -1.5900   -0.9752 C   0  0  2  0  0  0  0  0  0  0  0  0
    5.9439   -2.4334   -1.5033 C   0  0  0  0  0  0  0  0  0  0  0  0
    6.7513   -3.1928   -0.4302 C   0  0  0  0  0  0  0  0  0  0  0  0
    7.9757   -3.2911   -0.4452 O   0  0  0  0  0  0  0  0  0  0  0  0
    5.8705   -3.8093    0.6362 C   0  0  1  0  0  0  0  0  0  0  0  0
    6.4483   -4.4899    1.7631 O   0  0  0  0  0  0  0  0  0  0  0  0
    5.4102   -4.4426    2.6761 C   0  0  0  0  0  0  0  0  0  0  0  0
    5.1460   -5.1851    3.8446 C   0  0  0  0  0  0  0  0  0  0  0  0
    6.0423   -6.1175    4.2740 O   0  0  0  0  0  0  0  0  0  0  0  0
    3.9388   -4.9638    4.5654 C   0  0  0  0  0  0  0  0  0  0  0  0
    2.9629   -4.0245    4.1246 C   0  0  0  0  0  0  0  0  0  0  0  0
    3.2215   -3.2489    2.9767 C   0  0  0  0  0  0  0  0  0  0  0  0
    4.4537   -3.4920    2.3662 C   0  0  0  0  0  0  0  0  0  0  0  0
    5.0210   -2.7091    1.2538 C   0  0  1  0  0  0  0  0  0  0  0  0
    5.8154   -1.5028    1.8493 C   0  0  0  0  0  0  0  0  0  0  0  0
    4.8851   -0.5368    2.5939 C   0  0  0  0  0  0  0  0  0  0  0  0
    3.7298   -0.1643    1.7408 N   0  0  2  0  0  0  0  0  0  0  0  0
    2.8364    0.8108    2.4140 C   0  0  0  0  0  0  0  0  0  0  0  0
    3.0187   -1.3359    1.1447 C   0  0  2  0  0  0  0  0  0  0  0  0
    2.3328   -2.2345    2.2342 C   0  0  0  0  0  0  0  0  0  0  0  0
    3.9810   -2.2054    0.2724 C   0  0  1  0  0  0  0  0  0  0  0  0
    3.2751   -2.2530   -2.4931 H   0  0  0  0  0  0  0  0  0  0  0  0
    4.2431   -0.8647   -2.9788 H   0  0  0  0  0  0  0  0  0  0  0  0
    2.9318   -0.6611   -1.8374 H   0  0  0  0  0  0  0  0  0  0  0  0
    5.1069   -0.6143   -0.6930 H   0  0  0  0  0  0  0  0  0  0  0  0
    5.6016   -3.1869   -2.2135 H   0  0  0  0  0  0  0  0  0  0  0  0
    6.6276   -1.7958   -2.0589 H   0  0  0  0  0  0  0  0  0  0  0  0
    5.2286   -4.5338    0.1330 H   0  0  0  0  0  0  0  0  0  0  0  0
    6.7826   -6.2047    3.6925 H   0  0  0  0  0  0  0  0  0  0  0  0
    3.7458   -5.5338    5.4599 H   0  0  0  0  0  0  0  0  0  0  0  0
    2.0354   -3.9012    4.6637 H   0  0  0  0  0  0  0  0  0  0  0  0
    6.6008   -1.8533    2.5216 H   0  0  0  0  0  0  0  0  0  0  0  0
    6.3528   -0.9412    1.0864 H   0  0  0  0  0  0  0  0  0  0  0  0
    4.5433   -0.9779    3.5307 H   0  0  0  0  0  0  0  0  0  0  0  0
    5.4385    0.3561    2.8783 H   0  0  0  0  0  0  0  0  0  0  0  0
    2.4598    0.4302    3.3655 H   0  0  0  0  0  0  0  0  0  0  0  0
    1.9832    1.0742    1.7858 H   0  0  0  0  0  0  0  0  0  0  0  0
    3.3817    1.7293    2.6348 H   0  0  0  0  0  0  0  0  0  0  0  0
    2.2458   -0.9202    0.5114 H   0  0  0  0  0  0  0  0  0  0  0  0
    1.5651   -2.8253    1.7415 H   0  0  0  0  0  0  0  0  0  0  0  0
    1.7919   -1.6425    2.9689 H   0  0  0  0  0  0  0  0  0  0  0  0
    3.4094   -3.0654   -0.0890 H   0  0  0  0  0  0  0  0  0  0  0  0
    4.1120    0.3353    0.9532 H   0  0  0  0  0  0  0  0  0  0  0  0
  1  2  1  0
  1 23  1  0
  1 24  1  0
  1 25  1  0
  2 22  1  0
  2  3  1  0
  2 26  1  1
  3  4  1  0
  3 27  1  0
  3 28  1  0
  4  5  2  0
  4  6  1  0
  6 15  1  0
  6  7  1  0
  6 29  1  6
  7  8  1  0
  8 14  2  0
  8  9  1  0
  9 10  1  0
  9 11  2  0
 10 30  1  0
 11 12  1  0
 11 31  1  0
 12 13  2  0
 12 32  1  0
 13 21  1  0
 13 14  1  0
 14 15  1  0
 15 22  1  0
 15 16  1  1
 16 17  1  0
 16 33  1  0
 16 34  1  0
 17 18  1  0
 17 35  1  0
 17 36  1  0
 18 19  1  0
 18 20  1  0
 18 44  1  6
 19 37  1  0
 19 38  1  0
 19 39  1  0
 20 21  1  0
 20 22  1  0
 20 40  1  6
 21 41  1  0
 21 42  1  0
 22 43  1  6
M  CHG  1  18   1
M  END
>  <i_m_ct_stereo_status>  (2) 
1

>  <s_m_source_file>  (2) 
/var/tmp/pbs.5076255.sched01/tmpuj7nejrg/06cdl7mjn.sdf

>  <i_m_source_file_index>  (2) 
2

>  <i_lp_mmshare_version>  (2) 
48012

>  <i_f3d_flags>  (2) 
0

>  <s_epik_input>  (2) 
W0NAXTEyM1tDQEhdNEMoPU8pW0NIMl1bQ0BASF0oW0NIM10pW0NAQEhdM1tDQEhdKE4oW0NIM10pW0NIMl1bQ0gyXTIpW0NIMl1jNWMxYyhPNCljKFtPSF0pW2NIXVtjSF01

>  <s_epik_cmdline>  (2) 
J2VwaWtfcHl0aG9uJywgJy1waHQnLCAnMi4wJywgJy1waCcsICc3LjAnLCAnLXRuJywgJzgnLCAnLW1hJywgJzIwMCcsICctaW1hZScsICc8aW5maWxlLm1hZT4nLCAnLW9tYWUnLCAnPG91dGZpbGUubWFlPic=

>  <r_lp_tautomer_probability>  (2) 
1

>  <r_epik_Ionization_Penalty>  (2) 
0.0549988

>  <r_epik_Ionization_Penalty_Charging>  (2) 
0.0324307

>  <r_epik_Ionization_Penalty_Neutral>  (2) 
0.0225682

>  <r_epik_State_Penalty>  (2) 
0.0442849

>  <r_epik_Charging_Adjusted_Penalty>  (2) 
0.0767155

>  <i_epik_Tot_Q>  (2) 
1

>  <i_epik_Tot_abs_Q>  (2) 
1

>  <s_lp_Force_Field>  (2) 
OPLS3e

>  <r_lp_Energy>  (2) 
65.3198

>  <b_lp_Chiralities_Consistent>  (2) 
1

>  <s_lp_Variant>  (2) 
1:0-1

>  <s_i_glide_gridfile>  (2) 
pfpi4k_grid

>  <i_i_glide_lignum>  (2) 
2

>  <i_i_glide_rotatable_bonds>  (2) 
1

>  <r_i_docking_score>  (2) 
-3.39096

>  <r_i_glide_ligand_efficiency>  (2) 
-0.154135

>  <r_i_glide_ligand_efficiency_sa>  (2) 
-0.431891

>  <r_i_glide_ligand_efficiency_ln>  (2) 
-0.828875

>  <r_i_glide_gscore>  (2) 
-3.39096

>  <r_i_glide_lipo>  (2) 
-0.449559

>  <r_i_glide_hbond>  (2) 
0

>  <r_i_glide_metal>  (2) 
-0

>  <r_i_glide_rewards>  (2) 
-1.49822

>  <r_i_glide_evdw>  (2) 
-16.1402

>  <r_i_glide_ecoul>  (2) 
-4.24114

>  <r_i_glide_erotb>  (2) 
0

>  <r_i_glide_esite>  (2) 
0

>  <r_i_glide_emodel>  (2) 
-25.4565

>  <r_i_glide_energy>  (2) 
-20.3813

>  <r_i_glide_einternal>  (2) 
0.00786485

>  <r_i_glide_intrahb_reward>  (2) 
-0

>  <i_i_glide_confnum>  (2) 
1

>  <i_i_glide_posenum>  (2) 
22

>  <r_i_glide_eff_state_penalty>  (2) 
0

>  <ligand_id>  (2) 
1

>  <original_smiles>  (2) 
CC1CC(=O)C2Oc3c(O)ccc4c3C23CCN(C)C(C4)C13

>  <smiles>  (2) 
[H]Oc1c([H])c([H])c2c3c1OC1([H])C(=O)C([H])([H])C([H])(C([H])([H])[H])C4([H])C31C([H])([H])C([H])([H])[N+]([H])(C([H])([H])[H])C4([H])C2([H])[H]

$$$$
1:0:2
     RDKit          3D

 44 48  0  0  1  0  0  0  0  0999 V2000
    3.5363   -2.4198   -2.5351 C   0  0  0  0  0  0  0  0  0  0  0  0
    4.4979   -2.3208   -1.3395 C   0  0  2  0  0  0  0  0  0  0  0  0
    5.9725   -2.6078   -1.8267 C   0  0  0  0  0  0  0  0  0  0  0  0
    6.9740   -3.0324   -0.7351 C   0  0  0  0  0  0  0  0  0  0  0  0
    8.1354   -2.6318   -0.6939 O   0  0  0  0  0  0  0  0  0  0  0  0
    6.3652   -3.9746    0.2812 C   0  0  1  0  0  0  0  0  0  0  0  0
    7.1184   -4.4202    1.4202 O   0  0  0  0  0  0  0  0  0  0  0  0
    6.1156   -4.8130    2.2854 C   0  0  0  0  0  0  0  0  0  0  0  0
    6.1163   -5.6400    3.4281 C   0  0  0  0  0  0  0  0  0  0  0  0
    7.2876   -6.1736    3.8838 O   0  0  0  0  0  0  0  0  0  0  0  0
    4.8909   -5.9196    4.0983 C   0  0  0  0  0  0  0  0  0  0  0  0
    3.6471   -5.4113    3.6284 C   0  0  0  0  0  0  0  0  0  0  0  0
    3.6300   -4.5582    2.5074 C   0  0  0  0  0  0  0  0  0  0  0  0
    4.8794   -4.2884    1.9486 C   0  0  0  0  0  0  0  0  0  0  0  0
    5.1391   -3.3079    0.8815 C   0  0  1  0  0  0  0  0  0  0  0  0
    5.3892   -1.9113    1.5411 C   0  0  0  0  0  0  0  0  0  0  0  0
    4.1288   -1.3982    2.2488 C   0  0  0  0  0  0  0  0  0  0  0  0
    2.9462   -1.4782    1.3519 N   0  0  2  0  0  0  0  0  0  0  0  0
    1.7256   -0.9418    2.0062 C   0  0  0  0  0  0  0  0  0  0  0  0
    2.7661   -2.8176    0.6993 C   0  0  2  0  0  0  0  0  0  0  0  0
    2.4438   -3.9492    1.7413 C   0  0  0  0  0  0  0  0  0  0  0  0
    4.0220   -3.2126   -0.1381 C   0  0  1  0  0  0  0  0  0  0  0  0
    3.4825   -3.4354   -2.9320 H   0  0  0  0  0  0  0  0  0  0  0  0
    3.8535   -1.7670   -3.3483 H   0  0  0  0  0  0  0  0  0  0  0  0
    2.5261   -2.1180   -2.2603 H   0  0  0  0  0  0  0  0  0  0  0  0
    4.4757   -1.2775   -1.0242 H   0  0  0  0  0  0  0  0  0  0  0  0
    5.9796   -3.4037   -2.5718 H   0  0  0  0  0  0  0  0  0  0  0  0
    6.3721   -1.7240   -2.3208 H   0  0  0  0  0  0  0  0  0  0  0  0
    6.0700   -4.8733   -0.2620 H   0  0  0  0  0  0  0  0  0  0  0  0
    7.1738   -6.7583    4.6156 H   0  0  0  0  0  0  0  0  0  0  0  0
    4.8906   -6.5431    4.9754 H   0  0  0  0  0  0  0  0  0  0  0  0
    2.7224   -5.6743    4.1263 H   0  0  0  0  0  0  0  0  0  0  0  0
    6.2087   -1.9561    2.2568 H   0  0  0  0  0  0  0  0  0  0  0  0
    5.6939   -1.1610    0.8126 H   0  0  0  0  0  0  0  0  0  0  0  0
    3.9478   -1.9666    3.1626 H   0  0  0  0  0  0  0  0  0  0  0  0
    4.2750   -0.3663    2.5673 H   0  0  0  0  0  0  0  0  0  0  0  0
    1.4914   -1.4720    2.9305 H   0  0  0  0  0  0  0  0  0  0  0  0
    0.8612   -1.0040    1.3482 H   0  0  0  0  0  0  0  0  0  0  0  0
    1.8664    0.1094    2.2586 H   0  0  0  0  0  0  0  0  0  0  0  0
    1.9171   -2.7216    0.0262 H   0  0  0  0  0  0  0  0  0  0  0  0
    1.9821   -4.7753    1.2021 H   0  0  0  0  0  0  0  0  0  0  0  0
    1.6931   -3.6307    2.4633 H   0  0  0  0  0  0  0  0  0  0  0  0
    3.8418   -4.2093   -0.5407 H   0  0  0  0  0  0  0  0  0  0  0  0
    3.1231   -0.8407    0.5835 H   0  0  0  0  0  0  0  0  0  0  0  0
  1  2  1  0
  1 23  1  0
  1 24  1  0
  1 25  1  0
  2 22  1  0
  2  3  1  0
  2 26  1  1
  3  4  1  0
  3 27  1  0
  3 28  1  0
  4  5  2  0
  4  6  1  0
  6 15  1  0
  6  7  1  0
  6 29  1  6
  7  8  1  0
  8 14  2  0
  8  9  1  0
  9 10  1  0
  9 11  2  0
 10 30  1  0
 11 12  1  0
 11 31  1  0
 12 13  2  0
 12 32  1  0
 13 21  1  0
 13 14  1  0
 14 15  1  0
 15 22  1  0
 15 16  1  1
 16 17  1  0
 16 33  1  0
 16 34  1  0
 17 18  1  0
 17 35  1  0
 17 36  1  0
 18 19  1  0
 18 20  1  0
 18 44  1  6
 19 37  1  0
 19 38  1  0
 19 39  1  0
 20 21  1  0
 20 22  1  0
 20 40  1  6
 21 41  1  0
 21 42  1  0
 22 43  1  6
M  CHG  1  18   1
M  END
>  <i_m_ct_stereo_status>  (3) 
1

>  <s_m_source_file>  (3) 
/var/tmp/pbs.5076255.sched01/tmpuj7nejrg/06cdl7mjn.sdf

>  <i_m_source_file_index>  (3) 
2

>  <i_lp_mmshare_version>  (3) 
48012

>  <i_f3d_flags>  (3) 
0

>  <s_epik_input>  (3) 
W0NAXTEyM1tDQEhdNEMoPU8pW0NIMl1bQ0BASF0oW0NIM10pW0NAQEhdM1tDQEhdKE4oW0NIM10pW0NIMl1bQ0gyXTIpW0NIMl1jNWMxYyhPNCljKFtPSF0pW2NIXVtjSF01

>  <s_epik_cmdline>  (3) 
J2VwaWtfcHl0aG9uJywgJy1waHQnLCAnMi4wJywgJy1waCcsICc3LjAnLCAnLXRuJywgJzgnLCAnLW1hJywgJzIwMCcsICctaW1hZScsICc8aW5maWxlLm1hZT4nLCAnLW9tYWUnLCAnPG91dGZpbGUubWFlPic=

>  <r_lp_tautomer_probability>  (3) 
1

>  <r_epik_Ionization_Penalty>  (3) 
0.0549988

>  <r_epik_Ionization_Penalty_Charging>  (3) 
0.0324307

>  <r_epik_Ionization_Penalty_Neutral>  (3) 
0.0225682

>  <r_epik_State_Penalty>  (3) 
0.0442849

>  <r_epik_Charging_Adjusted_Penalty>  (3) 
0.0767155

>  <i_epik_Tot_Q>  (3) 
1

>  <i_epik_Tot_abs_Q>  (3) 
1

>  <s_lp_Force_Field>  (3) 
OPLS3e

>  <r_lp_Energy>  (3) 
65.3198

>  <b_lp_Chiralities_Consistent>  (3) 
1

>  <s_lp_Variant>  (3) 
1:0-1

>  <s_i_glide_gridfile>  (3) 
pfpi4k_grid

>  <i_i_glide_lignum>  (3) 
2

>  <i_i_glide_rotatable_bonds>  (3) 
1

>  <r_i_docking_score>  (3) 
-3.3647

>  <r_i_glide_ligand_efficiency>  (3) 
-0.152941

>  <r_i_glide_ligand_efficiency_sa>  (3) 
-0.428546

>  <r_i_glide_ligand_efficiency_ln>  (3) 
-0.822455

>  <r_i_glide_gscore>  (3) 
-3.3647

>  <r_i_glide_lipo>  (3) 
-0.304929

>  <r_i_glide_hbond>  (3) 
-0.0668887

>  <r_i_glide_metal>  (3) 
-0

>  <r_i_glide_rewards>  (3) 
-1.43456

>  <r_i_glide_evdw>  (3) 
-17.4053

>  <r_i_glide_ecoul>  (3) 
-4.2903

>  <r_i_glide_erotb>  (3) 
0

>  <r_i_glide_esite>  (3) 
-0.0445093

>  <r_i_glide_emodel>  (3) 
-26.7151

>  <r_i_glide_energy>  (3) 
-21.6956

>  <r_i_glide_einternal>  (3) 
0.0288074

>  <r_i_glide_intrahb_reward>  (3) 
-0

>  <i_i_glide_confnum>  (3) 
2

>  <i_i_glide_posenum>  (3) 
8

>  <r_i_glide_eff_state_penalty>  (3) 
0

>  <ligand_id>  (3) 
1

>  <original_smiles>  (3) 
CC1CC(=O)C2Oc3c(O)ccc4c3C23CCN(C)C(C4)C13

>  <smiles>  (3) 
[H]Oc1c([H])c([H])c2c3c1OC1([H])C(=O)C([H])([H])C([H])(C([H])([H])[H])C4([H])C31C([H])([H])C([H])([H])[N+]([H])(C([H])([H])[H])C4([H])C2([H])[H]

$$$$
1:1:0
     RDKit          3D

 43 47  0  0  1  0  0  0  0  0999 V2000
    3.8999   -1.7957   -3.2608 C   0  0  0  0  0  0  0  0  0  0  0  0
    3.9243   -2.7521   -2.0615 C   0  0  2  0  0  0  0  0  0  0  0  0
    2.5214   -3.4522   -1.8971 C   0  0  0  0  0  0  0  0  0  0  0  0
    2.2669   -4.0752   -0.5096 C   0  0  0  0  0  0  0  0  0  0  0  0
    1.7072   -5.1554   -0.3179 O   0  0  0  0  0  0  0  0  0  0  0  0
    2.7401   -3.1883    0.6223 C   0  0  1  0  0  0  0  0  0  0  0  0
    2.6090   -3.6034    1.9942 O   0  0  0  0  0  0  0  0  0  0  0  0
    3.5130   -2.7559    2.6070 C   0  0  0  0  0  0  0  0  0  0  0  0
    3.6407   -2.3209    3.9429 C   0  0  0  0  0  0  0  0  0  0  0  0
    2.8188   -2.8295    4.9058 O   0  0  0  0  0  0  0  0  0  0  0  0
    4.6189   -1.3433    4.2759 C   0  0  0  0  0  0  0  0  0  0  0  0
    5.4537   -0.7614    3.2787 C   0  0  0  0  0  0  0  0  0  0  0  0
    5.3726   -1.2132    1.9447 C   0  0  0  0  0  0  0  0  0  0  0  0
    4.4265   -2.2104    1.7221 C   0  0  0  0  0  0  0  0  0  0  0  0
    4.2154   -2.9029    0.4374 C   0  0  1  0  0  0  0  0  0  0  0  0
    5.1437   -4.1520    0.3570 C   0  0  0  0  0  0  0  0  0  0  0  0
    6.6258   -3.7394    0.3660 C   0  0  0  0  0  0  0  0  0  0  0  0
    6.9134   -2.6516   -0.5788 N   0  0  0  0  0  0  0  0  0  0  0  0
    7.4014   -3.1074   -1.8693 C   0  0  0  0  0  0  0  0  0  0  0  0
    5.9211   -1.5620   -0.6291 C   0  0  2  0  0  0  0  0  0  0  0  0
    6.1108   -0.7361    0.6847 C   0  0  0  0  0  0  0  0  0  0  0  0
    4.4420   -2.0244   -0.7702 C   0  0  1  0  0  0  0  0  0  0  0  0
    3.2110   -0.9648   -3.0936 H   0  0  0  0  0  0  0  0  0  0  0  0
    3.5788   -2.3139   -4.1654 H   0  0  0  0  0  0  0  0  0  0  0  0
    4.8878   -1.3761   -3.4515 H   0  0  0  0  0  0  0  0  0  0  0  0
    4.6093   -3.5536   -2.3202 H   0  0  0  0  0  0  0  0  0  0  0  0
    1.7280   -2.7242   -2.0631 H   0  0  0  0  0  0  0  0  0  0  0  0
    2.3732   -4.2134   -2.6647 H   0  0  0  0  0  0  0  0  0  0  0  0
    2.1789   -2.2562    0.5247 H   0  0  0  0  0  0  0  0  0  0  0  0
    2.2242   -3.4744    4.5540 H   0  0  0  0  0  0  0  0  0  0  0  0
    4.7237   -1.0309    5.2993 H   0  0  0  0  0  0  0  0  0  0  0  0
    6.1700    0.0007    3.5497 H   0  0  0  0  0  0  0  0  0  0  0  0
    4.9514   -4.8297    1.1910 H   0  0  0  0  0  0  0  0  0  0  0  0
    4.9508   -4.7489   -0.5343 H   0  0  0  0  0  0  0  0  0  0  0  0
    6.8893   -3.4075    1.3727 H   0  0  0  0  0  0  0  0  0  0  0  0
    7.2619   -4.6007    0.1649 H   0  0  0  0  0  0  0  0  0  0  0  0
    7.6809   -2.2560   -2.4858 H   0  0  0  0  0  0  0  0  0  0  0  0
    6.6705   -3.7085   -2.4059 H   0  0  0  0  0  0  0  0  0  0  0  0
    8.3008   -3.7131   -1.7382 H   0  0  0  0  0  0  0  0  0  0  0  0
    6.1759   -0.9209   -1.4656 H   0  0  0  0  0  0  0  0  0  0  0  0
    5.7629    0.2720    0.4971 H   0  0  0  0  0  0  0  0  0  0  0  0
    7.1721   -0.6754    0.9180 H   0  0  0  0  0  0  0  0  0  0  0  0
    3.8224   -1.1329   -0.6562 H   0  0  0  0  0  0  0  0  0  0  0  0
  1  2  1  0
  1 23  1  0
  1 24  1  0
  1 25  1  0
  2 22  1  0
  2  3  1  0
  2 26  1  6
  3  4  1  0
  3 27  1  0
  3 28  1  0
  4  5  2  0
  4  6  1  0
  6 15  1  0
  6  7  1  0
  6 29  1  1
  7  8  1  0
  8 14  2  0
  8  9  1  0
  9 10  1  0
  9 11  2  0
 10 30  1  0
 11 12  1  0
 11 31  1  0
 12 13  2  0
 12 32  1  0
 13 21  1  0
 13 14  1  0
 14 15  1  0
 15 22  1  0
 15 16  1  6
 16 17  1  0
 16 33  1  0
 16 34  1  0
 17 18  1  0
 17 35  1  0
 17 36  1  0
 18 19  1  0
 18 20  1  0
 19 37  1  0
 19 38  1  0
 19 39  1  0
 20 21  1  0
 20 22  1  0
 20 40  1  6
 21 41  1  0
 21 42  1  0
 22 43  1  1
M  END
>  <i_m_ct_stereo_status>  (4) 
1

>  <s_m_source_file>  (4) 
/var/tmp/pbs.5076255.sched01/tmpuj7nejrg/06cdl7mjn.sdf

>  <i_m_source_file_index>  (4) 
3

>  <i_lp_mmshare_version>  (4) 
48012

>  <i_f3d_flags>  (4) 
0

>  <s_epik_input>  (4) 
W0NAXTEyM1tDQEhdNEMoPU8pW0NIMl1bQ0BASF0oW0NIM10pW0NAQEhdM1tDQEhdKE4oW0NIM10pW0NIMl1bQ0gyXTIpW0NIMl1jNWMxYyhPNCljKFtPSF0pW2NIXVtjSF01

>  <s_epik_cmdline>  (4) 
J2VwaWtfcHl0aG9uJywgJy1waHQnLCAnMi4wJywgJy1waCcsICc3LjAnLCAnLXRuJywgJzgnLCAnLW1hJywgJzIwMCcsICctaW1hZScsICc8aW5maWxlLm1hZT4nLCAnLW9tYWUnLCAnPG91dGZpbGUubWFlPic=

>  <r_lp_tautomer_probability>  (4) 
1

>  <r_epik_Ionization_Penalty>  (4) 
1.74059

>  <r_epik_Ionization_Penalty_Charging>  (4) 
0

>  <r_epik_Ionization_Penalty_Neutral>  (4) 
1.74059

>  <r_epik_State_Penalty>  (4) 
1.86367

>  <r_epik_Charging_Adjusted_Penalty>  (4) 
1.86367

>  <i_epik_Tot_Q>  (4) 
0

>  <i_epik_Tot_abs_Q>  (4) 
0

>  <s_lp_Force_Field>  (4) 
OPLS3e

>  <r_lp_Energy>  (4) 
63.5887

>  <b_lp_Chiralities_Consistent>  (4) 
1

>  <s_lp_Variant>  (4) 
1:0-2

>  <s_i_glide_gridfile>  (4) 
pfpi4k_grid

>  <i_i_glide_lignum>  (4) 
3

>  <i_i_glide_rotatable_bonds>  (4) 
1

>  <r_i_docking_score>  (4) 
-3.79355

>  <r_i_glide_ligand_efficiency>  (4) 
-0.172434

>  <r_i_glide_ligand_efficiency_sa>  (4) 
-0.483168

>  <r_i_glide_ligand_efficiency_ln>  (4) 
-0.927283

>  <r_i_glide_gscore>  (4) 
-3.79355

>  <r_i_glide_lipo>  (4) 
-0.800996

>  <r_i_glide_hbond>  (4) 
-0.0602809

>  <r_i_glide_metal>  (4) 
-0

>  <r_i_glide_rewards>  (4) 
-1.36797

>  <r_i_glide_evdw>  (4) 
-17.3579

>  <r_i_glide_ecoul>  (4) 
-4.20625

>  <r_i_glide_erotb>  (4) 
0

>  <r_i_glide_esite>  (4) 
-0.0654758

>  <r_i_glide_emodel>  (4) 
-26.4507

>  <r_i_glide_energy>  (4) 
-21.5641

>  <r_i_glide_einternal>  (4) 
0.00124897

>  <r_i_glide_intrahb_reward>  (4) 
-0

>  <i_i_glide_confnum>  (4) 
1

>  <i_i_glide_posenum>  (4) 
6

>  <r_i_glide_eff_state_penalty>  (4) 
0

>  <ligand_id>  (4) 
1

>  <original_smiles>  (4) 
CC1CC(=O)C2Oc3c(O)ccc4c3C23CCN(C)C(C4)C13

>  <smiles>  (4) 
[H]Oc1c([H])c([H])c2c3c1OC1([H])C(=O)C([H])([H])C([H])(C([H])([H])[H])C4([H])C([H])(N(C([H])([H])[H])C([H])([H])C([H])([H])C314)C2([H])[H]

$$$$
1:1:1
     RDKit          3D

 43 47  0  0  1  0  0  0  0  0999 V2000
    3.9340   -1.7606   -3.1488 C   0  0  0  0  0  0  0  0  0  0  0  0
    3.9470   -2.7463   -1.9721 C   0  0  2  0  0  0  0  0  0  0  0  0
    2.5412   -3.4519   -1.8444 C   0  0  0  0  0  0  0  0  0  0  0  0
    2.2682   -4.1083   -0.4747 C   0  0  0  0  0  0  0  0  0  0  0  0
    1.6963   -5.1871   -0.3216 O   0  0  0  0  0  0  0  0  0  0  0  0
    2.7273   -3.2481    0.6800 C   0  0  1  0  0  0  0  0  0  0  0  0
    2.5802   -3.6952    2.0416 O   0  0  0  0  0  0  0  0  0  0  0  0
    3.4749   -2.8636    2.6894 C   0  0  0  0  0  0  0  0  0  0  0  0
    3.5861   -2.4659    4.0396 C   0  0  0  0  0  0  0  0  0  0  0  0
    2.7558   -2.9950    4.9812 O   0  0  0  0  0  0  0  0  0  0  0  0
    4.5657   -1.4942    4.4024 C   0  0  0  0  0  0  0  0  0  0  0  0
    5.4127   -0.8899    3.4363 C   0  0  0  0  0  0  0  0  0  0  0  0
    5.3480   -1.3049    2.0904 C   0  0  0  0  0  0  0  0  0  0  0  0
    4.4002   -2.2983    1.8309 C   0  0  0  0  0  0  0  0  0  0  0  0
    4.2052   -2.9571    0.5233 C   0  0  1  0  0  0  0  0  0  0  0  0
    5.1332   -4.2049    0.4249 C   0  0  0  0  0  0  0  0  0  0  0  0
    6.6151   -3.7932    0.4638 C   0  0  0  0  0  0  0  0  0  0  0  0
    6.9170   -2.6835   -0.4509 N   0  0  0  0  0  0  0  0  0  0  0  0
    7.4184   -3.1151   -1.7469 C   0  0  0  0  0  0  0  0  0  0  0  0
    5.9281   -1.5895   -0.4854 C   0  0  2  0  0  0  0  0  0  0  0  0
    6.0938   -0.7902    0.8493 C   0  0  0  0  0  0  0  0  0  0  0  0
    4.4505   -2.0487   -0.6574 C   0  0  1  0  0  0  0  0  0  0  0  0
    3.2423   -0.9346   -2.9697 H   0  0  0  0  0  0  0  0  0  0  0  0
    3.6241   -2.2560   -4.0699 H   0  0  0  0  0  0  0  0  0  0  0  0
    4.9234   -1.3369   -3.3160 H   0  0  0  0  0  0  0  0  0  0  0  0
    4.6327   -3.5421   -2.2436 H   0  0  0  0  0  0  0  0  0  0  0  0
    1.7489   -2.7209   -2.0004 H   0  0  0  0  0  0  0  0  0  0  0  0
    2.4023   -4.1924   -2.6324 H   0  0  0  0  0  0  0  0  0  0  0  0
    2.1668   -2.3152    0.6017 H   0  0  0  0  0  0  0  0  0  0  0  0
    2.9554   -2.6883    5.8515 H   0  0  0  0  0  0  0  0  0  0  0  0
    4.6658   -1.2009    5.4346 H   0  0  0  0  0  0  0  0  0  0  0  0
    6.1237   -0.1326    3.7291 H   0  0  0  0  0  0  0  0  0  0  0  0
    4.9291   -4.9035    1.2389 H   0  0  0  0  0  0  0  0  0  0  0  0
    4.9504   -4.7790   -0.4823 H   0  0  0  0  0  0  0  0  0  0  0  0
    6.8656   -3.4873    1.4811 H   0  0  0  0  0  0  0  0  0  0  0  0
    7.2519   -4.6509    0.2483 H   0  0  0  0  0  0  0  0  0  0  0  0
    7.7116   -2.2534   -2.3434 H   0  0  0  0  0  0  0  0  0  0  0  0
    6.6914   -3.7014   -2.3053 H   0  0  0  0  0  0  0  0  0  0  0  0
    8.3145   -3.7267   -1.6175 H   0  0  0  0  0  0  0  0  0  0  0  0
    6.1921   -0.9270   -1.3046 H   0  0  0  0  0  0  0  0  0  0  0  0
    5.7245    0.2159    0.6761 H   0  0  0  0  0  0  0  0  0  0  0  0
    7.1495   -0.6859    1.0954 H   0  0  0  0  0  0  0  0  0  0  0  0
    3.8256   -1.1626   -0.5297 H   0  0  0  0  0  0  0  0  0  0  0  0
  1  2  1  0
  1 23  1  0
  1 24  1  0
  1 25  1  0
  2 22  1  0
  2  3  1  0
  2 26  1  6
  3  4  1  0
  3 27  1  0
  3 28  1  0
  4  5  2  0
  4  6  1  0
  6 15  1  0
  6  7  1  0
  6 29  1  1
  7  8  1  0
  8 14  2  0
  8  9  1  0
  9 10  1  0
  9 11  2  0
 10 30  1  0
 11 12  1  0
 11 31  1  0
 12 13  2  0
 12 32  1  0
 13 21  1  0
 13 14  1  0
 14 15  1  0
 15 22  1  0
 15 16  1  6
 16 17  1  0
 16 33  1  0
 16 34  1  0
 17 18  1  0
 17 35  1  0
 17 36  1  0
 18 19  1  0
 18 20  1  0
 19 37  1  0
 19 38  1  0
 19 39  1  0
 20 21  1  0
 20 22  1  0
 20 40  1  6
 21 41  1  0
 21 42  1  0
 22 43  1  1
M  END
>  <i_m_ct_stereo_status>  (5) 
1

>  <s_m_source_file>  (5) 
/var/tmp/pbs.5076255.sched01/tmpuj7nejrg/06cdl7mjn.sdf

>  <i_m_source_file_index>  (5) 
3

>  <i_lp_mmshare_version>  (5) 
48012

>  <i_f3d_flags>  (5) 
0

>  <s_epik_input>  (5) 
W0NAXTEyM1tDQEhdNEMoPU8pW0NIMl1bQ0BASF0oW0NIM10pW0NAQEhdM1tDQEhdKE4oW0NIM10pW0NIMl1bQ0gyXTIpW0NIMl1jNWMxYyhPNCljKFtPSF0pW2NIXVtjSF01

>  <s_epik_cmdline>  (5) 
J2VwaWtfcHl0aG9uJywgJy1waHQnLCAnMi4wJywgJy1waCcsICc3LjAnLCAnLXRuJywgJzgnLCAnLW1hJywgJzIwMCcsICctaW1hZScsICc8aW5maWxlLm1hZT4nLCAnLW9tYWUnLCAnPG91dGZpbGUubWFlPic=

>  <r_lp_tautomer_probability>  (5) 
1

>  <r_epik_Ionization_Penalty>  (5) 
1.74059

>  <r_epik_Ionization_Penalty_Charging>  (5) 
0

>  <r_epik_Ionization_Penalty_Neutral>  (5) 
1.74059

>  <r_epik_State_Penalty>  (5) 
1.86367

>  <r_epik_Charging_Adjusted_Penalty>  (5) 
1.86367

>  <i_epik_Tot_Q>  (5) 
0

>  <i_epik_Tot_abs_Q>  (5) 
0

>  <s_lp_Force_Field>  (5) 
OPLS3e

>  <r_lp_Energy>  (5) 
63.5887

>  <b_lp_Chiralities_Consistent>  (5) 
1

>  <s_lp_Variant>  (5) 
1:0-2

>  <s_i_glide_gridfile>  (5) 
pfpi4k_grid

>  <i_i_glide_lignum>  (5) 
3

>  <i_i_glide_rotatable_bonds>  (5) 
1

>  <r_i_docking_score>  (5) 
-3.57743

>  <r_i_glide_ligand_efficiency>  (5) 
-0.16261

>  <r_i_glide_ligand_efficiency_sa>  (5) 
-0.45564

>  <r_i_glide_ligand_efficiency_ln>  (5) 
-0.874454

>  <r_i_glide_gscore>  (5) 
-3.57743

>  <r_i_glide_lipo>  (5) 
-0.739499

>  <r_i_glide_hbond>  (5) 
-0.0622476

>  <r_i_glide_metal>  (5) 
-0

>  <r_i_glide_rewards>  (5) 
-1.36797

>  <r_i_glide_evdw>  (5) 
-16.9689

>  <r_i_glide_ecoul>  (5) 
-3.29363

>  <r_i_glide_erotb>  (5) 
0

>  <r_i_glide_esite>  (5) 
-0.0652171

>  <r_i_glide_emodel>  (5) 
-24.8805

>  <r_i_glide_energy>  (5) 
-20.2626

>  <r_i_glide_einternal>  (5) 
0.00605678

>  <r_i_glide_intrahb_reward>  (5) 
-0

>  <i_i_glide_confnum>  (5) 
1

>  <i_i_glide_posenum>  (5) 
23

>  <r_i_glide_eff_state_penalty>  (5) 
0

>  <ligand_id>  (5) 
1

>  <original_smiles>  (5) 
CC1CC(=O)C2Oc3c(O)ccc4c3C23CCN(C)C(C4)C13

>  <smiles>  (5) 
[H]Oc1c([H])c([H])c2c3c1OC1([H])C(=O)C([H])([H])C([H])(C([H])([H])[H])C4([H])C([H])(N(C([H])([H])[H])C([H])([H])C([H])([H])C314)C2([H])[H]

$$$$
1:1:2
     RDKit          3D

 43 47  0  0  1  0  0  0  0  0999 V2000
    1.4622   -3.4526    3.8351 C   0  0  0  0  0  0  0  0  0  0  0  0
    2.7192   -3.1236    3.0139 C   0  0  2  0  0  0  0  0  0  0  0  0
    3.2939   -1.7176    3.4243 C   0  0  0  0  0  0  0  0  0  0  0  0
    4.2348   -1.0597    2.3885 C   0  0  0  0  0  0  0  0  0  0  0  0
    5.2530   -0.4417    2.6888 O   0  0  0  0  0  0  0  0  0  0  0  0
    3.7520   -1.2364    0.9624 C   0  0  1  0  0  0  0  0  0  0  0  0
    4.5142   -0.7228   -0.1412 O   0  0  0  0  0  0  0  0  0  0  0  0
    3.9757   -1.4646   -1.1855 C   0  0  0  0  0  0  0  0  0  0  0  0
    3.9172   -1.2449   -2.5703 C   0  0  0  0  0  0  0  0  0  0  0  0
    4.5229   -0.1663   -3.1078 O   0  0  0  0  0  0  0  0  0  0  0  0
    3.1928   -2.1215   -3.4291 C   0  0  0  0  0  0  0  0  0  0  0  0
    2.4573   -3.2069   -2.8893 C   0  0  0  0  0  0  0  0  0  0  0  0
    2.5280   -3.4728   -1.5092 C   0  0  0  0  0  0  0  0  0  0  0  0
    3.3233   -2.6053   -0.7630 C   0  0  0  0  0  0  0  0  0  0  0  0
    3.5943   -2.7194    0.6751 C   0  0  1  0  0  0  0  0  0  0  0  0
    4.8530   -3.6073    0.8849 C   0  0  0  0  0  0  0  0  0  0  0  0
    4.6129   -5.0413    0.3787 C   0  0  0  0  0  0  0  0  0  0  0  0
    3.3493   -5.5914    0.8780 N   0  0  0  0  0  0  0  0  0  0  0  0
    3.4729   -6.4148    2.0683 C   0  0  0  0  0  0  0  0  0  0  0  0
    2.1952   -4.6805    0.8442 C   0  0  2  0  0  0  0  0  0  0  0  0
    1.8152   -4.5492   -0.6661 C   0  0  0  0  0  0  0  0  0  0  0  0
    2.4447   -3.2794    1.4790 C   0  0  1  0  0  0  0  0  0  0  0  0
    0.6399   -2.7693    3.6124 H   0  0  0  0  0  0  0  0  0  0  0  0
    1.6700   -3.3831    4.9026 H   0  0  0  0  0  0  0  0  0  0  0  0
    1.1100   -4.4668    3.6396 H   0  0  0  0  0  0  0  0  0  0  0  0
    3.4749   -3.8442    3.3112 H   0  0  0  0  0  0  0  0  0  0  0  0
    2.4725   -1.0190    3.5758 H   0  0  0  0  0  0  0  0  0  0  0  0
    3.8183   -1.7941    4.3775 H   0  0  0  0  0  0  0  0  0  0  0  0
    2.7723   -0.7503    0.9113 H   0  0  0  0  0  0  0  0  0  0  0  0
    4.7480    0.4621   -2.4316 H   0  0  0  0  0  0  0  0  0  0  0  0
    3.1700   -1.9404   -4.4876 H   0  0  0  0  0  0  0  0  0  0  0  0
    1.8622   -3.8378   -3.5394 H   0  0  0  0  0  0  0  0  0  0  0  0
    5.7082   -3.1792    0.3633 H   0  0  0  0  0  0  0  0  0  0  0  0
    5.1499   -3.6501    1.9320 H   0  0  0  0  0  0  0  0  0  0  0  0
    4.5889   -5.0367   -0.7159 H   0  0  0  0  0  0  0  0  0  0  0  0
    5.4415   -5.6911    0.6549 H   0  0  0  0  0  0  0  0  0  0  0  0
    2.5152   -6.8716    2.3180 H   0  0  0  0  0  0  0  0  0  0  0  0
    3.8254   -5.8448    2.9215 H   0  0  0  0  0  0  0  0  0  0  0  0
    4.1782   -7.2275    1.8900 H   0  0  0  0  0  0  0  0  0  0  0  0
    1.3905   -5.2039    1.3516 H   0  0  0  0  0  0  0  0  0  0  0  0
    0.7829   -4.3295   -0.8534 H   0  0  0  0  0  0  0  0  0  0  0  0
    1.8181   -5.5502   -1.0625 H   0  0  0  0  0  0  0  0  0  0  0  0
    1.5854   -2.6430    1.2741 H   0  0  0  0  0  0  0  0  0  0  0  0
  1  2  1  0
  1 23  1  0
  1 24  1  0
  1 25  1  0
  2 22  1  0
  2  3  1  0
  2 26  1  1
  3  4  1  0
  3 27  1  0
  3 28  1  0
  4  5  2  0
  4  6  1  0
  6 15  1  0
  6  7  1  0
  6 29  1  1
  7  8  1  0
  8 14  2  0
  8  9  1  0
  9 10  1  0
  9 11  2  0
 10 30  1  0
 11 12  1  0
 11 31  1  0
 12 13  2  0
 12 32  1  0
 13 21  1  0
 13 14  1  0
 14 15  1  0
 15 22  1  0
 15 16  1  6
 16 17  1  0
 16 33  1  0
 16 34  1  0
 17 18  1  0
 17 35  1  0
 17 36  1  0
 18 19  1  0
 18 20  1  0
 19 37  1  0
 19 38  1  0
 19 39  1  0
 20 21  1  0
 20 22  1  0
 20 40  1  1
 21 41  1  0
 21 42  1  0
 22 43  1  6
M  END
>  <i_m_ct_stereo_status>  (6) 
1

>  <s_m_source_file>  (6) 
/var/tmp/pbs.5076255.sched01/tmpuj7nejrg/06cdl7mjn.sdf

>  <i_m_source_file_index>  (6) 
3

>  <i_lp_mmshare_version>  (6) 
48012

>  <i_f3d_flags>  (6) 
0

>  <s_epik_input>  (6) 
W0NAXTEyM1tDQEhdNEMoPU8pW0NIMl1bQ0BASF0oW0NIM10pW0NAQEhdM1tDQEhdKE4oW0NIM10pW0NIMl1bQ0gyXTIpW0NIMl1jNWMxYyhPNCljKFtPSF0pW2NIXVtjSF01

>  <s_epik_cmdline>  (6) 
J2VwaWtfcHl0aG9uJywgJy1waHQnLCAnMi4wJywgJy1waCcsICc3LjAnLCAnLXRuJywgJzgnLCAnLW1hJywgJzIwMCcsICctaW1hZScsICc8aW5maWxlLm1hZT4nLCAnLW9tYWUnLCAnPG91dGZpbGUubWFlPic=

>  <r_lp_tautomer_probability>  (6) 
1

>  <r_epik_Ionization_Penalty>  (6) 
1.74059

>  <r_epik_Ionization_Penalty_Charging>  (6) 
0

>  <r_epik_Ionization_Penalty_Neutral>  (6) 
1.74059

>  <r_epik_State_Penalty>  (6) 
1.86367

>  <r_epik_Charging_Adjusted_Penalty>  (6) 
1.86367

>  <i_epik_Tot_Q>  (6) 
0

>  <i_epik_Tot_abs_Q>  (6) 
0

>  <s_lp_Force_Field>  (6) 
OPLS3e

>  <r_lp_Energy>  (6) 
63.5887

>  <b_lp_Chiralities_Consistent>  (6) 
1

>  <s_lp_Variant>  (6) 
1:0-2

>  <s_i_glide_gridfile>  (6) 
pfpi4k_grid

>  <i_i_glide_lignum>  (6) 
3

>  <i_i_glide_rotatable_bonds>  (6) 
1

>  <r_i_docking_score>  (6) 
-2.99413

>  <r_i_glide_ligand_efficiency>  (6) 
-0.136097

>  <r_i_glide_ligand_efficiency_sa>  (6) 
-0.381349

>  <r_i_glide_ligand_efficiency_ln>  (6) 
-0.731874

>  <r_i_glide_gscore>  (6) 
-2.99413

>  <r_i_glide_lipo>  (6) 
-0.54541

>  <r_i_glide_hbond>  (6) 
0

>  <r_i_glide_metal>  (6) 
-0

>  <r_i_glide_rewards>  (6) 
-1.41004

>  <r_i_glide_evdw>  (6) 
-15.0805

>  <r_i_glide_ecoul>  (6) 
-1.89767

>  <r_i_glide_erotb>  (6) 
0

>  <r_i_glide_esite>  (6) 
0

>  <r_i_glide_emodel>  (6) 
-20.3163

>  <r_i_glide_energy>  (6) 
-16.9782

>  <r_i_glide_einternal>  (6) 
0.427425

>  <r_i_glide_intrahb_reward>  (6) 
-0

>  <i_i_glide_confnum>  (6) 
1

>  <i_i_glide_posenum>  (6) 
22

>  <r_i_glide_eff_state_penalty>  (6) 
0

>  <ligand_id>  (6) 
1

>  <original_smiles>  (6) 
CC1CC(=O)C2Oc3c(O)ccc4c3C23CCN(C)C(C4)C13

>  <smiles>  (6) 
[H]Oc1c([H])c([H])c2c3c1OC1([H])C(=O)C([H])([H])C([H])(C([H])([H])[H])C4([H])C([H])(N(C([H])([H])[H])C([H])([H])C([H])([H])C314)C2([H])[H]

$$$$
1:2:0
     RDKit          3D

 43 47  0  0  1  0  0  0  0  0999 V2000
    4.3979   -2.4776    3.8017 C   0  0  0  0  0  0  0  0  0  0  0  0
    5.1357   -2.6092    2.4599 C   0  0  2  0  0  0  0  0  0  0  0  0
    6.0538   -1.3473    2.2452 C   0  0  0  0  0  0  0  0  0  0  0  0
    6.5013   -1.1339    0.7993 C   0  0  0  0  0  0  0  0  0  0  0  0
    7.6760   -1.0241    0.4558 O   0  0  0  0  0  0  0  0  0  0  0  0
    5.3874   -1.2884   -0.1942 C   0  0  1  0  0  0  0  0  0  0  0  0
    5.6618   -1.1577   -1.5975 O   0  0  0  0  0  0  0  0  0  0  0  0
    4.6132   -1.8635   -2.1342 C   0  0  0  0  0  0  0  0  0  0  0  0
    4.0119   -1.8648   -3.4094 C   0  0  0  0  0  0  0  0  0  0  0  0
    4.4553   -1.0700   -4.4195 O   0  0  0  0  0  0  0  0  0  0  0  0
    2.8706   -2.6834   -3.6455 C   0  0  0  0  0  0  0  0  0  0  0  0
    2.2822   -3.4313   -2.6038 C   0  0  0  0  0  0  0  0  0  0  0  0
    2.8652   -3.4556   -1.3376 C   0  0  0  0  0  0  0  0  0  0  0  0
    4.0243   -2.7008   -1.2162 C   0  0  0  0  0  0  0  0  0  0  0  0
    4.8816   -2.7047   -0.0351 C   0  0  1  0  0  0  0  0  0  0  0  0
    5.9447   -3.8384   -0.2045 C   0  0  0  0  0  0  0  0  0  0  0  0
    5.2786   -5.2134   -0.1893 C   0  0  0  0  0  0  0  0  0  0  0  0
    4.3820   -5.3566    0.9778 N   0  0  2  0  0  0  0  0  0  0  0  0
    3.7758   -6.6975    1.0447 C   0  0  0  0  0  0  0  0  0  0  0  0
    3.4137   -4.2351    1.1325 C   0  0  2  0  0  0  0  0  0  0  0  0
    2.4211   -4.1712   -0.0691 C   0  0  0  0  0  0  0  0  0  0  0  0
    4.1431   -2.8677    1.2749 C   0  0  1  0  0  0  0  0  0  0  0  0
    3.7311   -1.6142    3.8154 H   0  0  0  0  0  0  0  0  0  0  0  0
    5.1025   -2.3581    4.6244 H   0  0  0  0  0  0  0  0  0  0  0  0
    3.7990   -3.3622    4.0171 H   0  0  0  0  0  0  0  0  0  0  0  0
    5.7875   -3.4782    2.5594 H   0  0  0  0  0  0  0  0  0  0  0  0
    5.5840   -0.4384    2.6020 H   0  0  0  0  0  0  0  0  0  0  0  0
    6.9586   -1.3921    2.8249 H   0  0  0  0  0  0  0  0  0  0  0  0
    4.6201   -0.5576    0.0618 H   0  0  0  0  0  0  0  0  0  0  0  0
    2.4349   -2.7192   -4.6281 H   0  0  0  0  0  0  0  0  0  0  0  0
    1.4171   -4.0398   -2.7525 H   0  0  0  0  0  0  0  0  0  0  0  0
    6.5089   -3.7163   -1.1236 H   0  0  0  0  0  0  0  0  0  0  0  0
    6.6977   -3.8225    0.5809 H   0  0  0  0  0  0  0  0  0  0  0  0
    4.7368   -5.3878   -1.1208 H   0  0  0  0  0  0  0  0  0  0  0  0
    6.0385   -5.9892   -0.1506 H   0  0  0  0  0  0  0  0  0  0  0  0
    3.2311   -6.8891    0.1294 H   0  0  0  0  0  0  0  0  0  0  0  0
    3.0870   -6.8089    1.8818 H   0  0  0  0  0  0  0  0  0  0  0  0
    4.5310   -7.4773    1.1238 H   0  0  0  0  0  0  0  0  0  0  0  0
    2.8425   -4.4234    2.0419 H   0  0  0  0  0  0  0  0  0  0  0  0
    1.6145   -3.5328    0.2271 H   0  0  0  0  0  0  0  0  0  0  0  0
    1.9759   -5.1371   -0.3155 H   0  0  0  0  0  0  0  0  0  0  0  0
    3.3810   -2.0917    1.3273 H   0  0  0  0  0  0  0  0  0  0  0  0
    4.9834   -5.3077    1.7950 H   0  0  0  0  0  0  0  0  0  0  0  0
  1  2  1  0
  1 23  1  0
  1 24  1  0
  1 25  1  0
  2 22  1  0
  2  3  1  0
  2 26  1  1
  3  4  1  0
  3 27  1  0
  3 28  1  0
  4  5  2  0
  4  6  1  0
  6 15  1  0
  6  7  1  0
  6 29  1  1
  7  8  1  0
  8 14  2  0
  8  9  1  0
  9 10  1  0
  9 11  2  0
 11 12  1  0
 11 30  1  0
 12 13  2  0
 12 31  1  0
 13 21  1  0
 13 14  1  0
 14 15  1  0
 15 22  1  0
 15 16  1  6
 16 17  1  0
 16 32  1  0
 16 33  1  0
 17 18  1  0
 17 34  1  0
 17 35  1  0
 18 19  1  0
 18 20  1  0
 18 43  1  1
 19 36  1  0
 19 37  1  0
 19 38  1  0
 20 21  1  0
 20 22  1  0
 20 39  1  1
 21 40  1  0
 21 41  1  0
 22 42  1  6
M  CHG  2  10  -1  18   1
M  END
>  <i_m_ct_stereo_status>  (7) 
1

>  <s_m_source_file>  (7) 
/var/tmp/pbs.5076255.sched01/tmpuj7nejrg/06cdl7mjn.sdf

>  <i_m_source_file_index>  (7) 
4

>  <i_lp_mmshare_version>  (7) 
48012

>  <i_f3d_flags>  (7) 
0

>  <s_epik_input>  (7) 
W0NAXTEyM1tDQEhdNEMoPU8pW0NIMl1bQ0BASF0oW0NIM10pW0NAQEhdM1tDQEhdKE4oW0NIM10pW0NIMl1bQ0gyXTIpW0NIMl1jNWMxYyhPNCljKFtPSF0pW2NIXVtjSF01

>  <s_epik_cmdline>  (7) 
J2VwaWtfcHl0aG9uJywgJy1waHQnLCAnMi4wJywgJy1waCcsICc3LjAnLCAnLXRuJywgJzgnLCAnLW1hJywgJzIwMCcsICctaW1hZScsICc8aW5maWxlLm1hZT4nLCAnLW9tYWUnLCAnPG91dGZpbGUubWFlPic=

>  <r_epik_Ionization_Penalty>  (7) 
1.97644

>  <r_epik_Ionization_Penalty_Charging>  (7) 
1.97644

>  <r_epik_Ionization_Penalty_Neutral>  (7) 
1.4713e-10

>  <r_epik_State_Penalty>  (7) 
2.0982

>  <r_epik_Charging_Adjusted_Penalty>  (7) 
4.07463

>  <i_epik_Tot_Q>  (7) 
0

>  <i_epik_Tot_abs_Q>  (7) 
2

>  <s_lp_Force_Field>  (7) 
OPLS3e

>  <r_lp_Energy>  (7) 
62.5529

>  <b_lp_Chiralities_Consistent>  (7) 
1

>  <s_lp_Variant>  (7) 
1:0-3

>  <s_i_glide_gridfile>  (7) 
pfpi4k_grid

>  <i_i_glide_lignum>  (7) 
4

>  <i_i_glide_rotatable_bonds>  (7) 
0

>  <r_i_docking_score>  (7) 
-3.84075

>  <r_i_glide_ligand_efficiency>  (7) 
-0.17458

>  <r_i_glide_ligand_efficiency_sa>  (7) 
-0.489179

>  <r_i_glide_ligand_efficiency_ln>  (7) 
-0.938821

>  <r_i_glide_gscore>  (7) 
-3.84075

>  <r_i_glide_lipo>  (7) 
-1.10619

>  <r_i_glide_hbond>  (7) 
-0.176795

>  <r_i_glide_metal>  (7) 
-0

>  <r_i_glide_rewards>  (7) 
-1.41504

>  <r_i_glide_evdw>  (7) 
-9.92142

>  <r_i_glide_ecoul>  (7) 
-4.31108

>  <r_i_glide_erotb>  (7) 
0

>  <r_i_glide_esite>  (7) 
0

>  <r_i_glide_emodel>  (7) 
-18.3905

>  <r_i_glide_energy>  (7) 
-14.2325

>  <r_i_glide_einternal>  (7) 
0

>  <r_i_glide_intrahb_reward>  (7) 
-0

>  <i_i_glide_confnum>  (7) 
2

>  <i_i_glide_posenum>  (7) 
7

>  <r_i_glide_eff_state_penalty>  (7) 
0

>  <ligand_id>  (7) 
1

>  <original_smiles>  (7) 
CC1CC(=O)C2Oc3c(O)ccc4c3C23CCN(C)C(C4)C13

>  <smiles>  (7) 
[H]c1c([H])c2c3c(c1[O-])OC1([H])C(=O)C([H])([H])C([H])(C([H])([H])[H])C4([H])C31C([H])([H])C([H])([H])[N+]([H])(C([H])([H])[H])C4([H])C2([H])[H]

$$$$
1:2:1
     RDKit          3D

 43 47  0  0  1  0  0  0  0  0999 V2000
    2.2649   -2.5658    3.5406 C   0  0  0  0  0  0  0  0  0  0  0  0
    3.3752   -2.4176    2.4935 C   0  0  2  0  0  0  0  0  0  0  0  0
    3.9796   -0.9652    2.5787 C   0  0  0  0  0  0  0  0  0  0  0  0
    4.7315   -0.5131    1.3122 C   0  0  0  0  0  0  0  0  0  0  0  0
    5.8068    0.0972    1.3237 O   0  0  0  0  0  0  0  0  0  0  0  0
    4.0437   -0.8870    0.0320 C   0  0  1  0  0  0  0  0  0  0  0  0
    4.7154   -0.6168   -1.2101 O   0  0  0  0  0  0  0  0  0  0  0  0
    4.0760   -1.4914   -2.0624 C   0  0  0  0  0  0  0  0  0  0  0  0
    3.8868   -1.5328   -3.4701 C   0  0  0  0  0  0  0  0  0  0  0  0
    4.3193   -0.6243   -4.3568 O   0  0  0  0  0  0  0  0  0  0  0  0
    3.0962   -2.5738   -4.0203 C   0  0  0  0  0  0  0  0  0  0  0  0
    2.3777   -3.4539   -3.2033 C   0  0  0  0  0  0  0  0  0  0  0  0
    2.5619   -3.4478   -1.8169 C   0  0  0  0  0  0  0  0  0  0  0  0
    3.4572   -2.4879   -1.3581 C   0  0  0  0  0  0  0  0  0  0  0  0
    3.9005   -2.3856    0.0311 C   0  0  1  0  0  0  0  0  0  0  0  0
    5.2238   -3.1952    0.1985 C   0  0  0  0  0  0  0  0  0  0  0  0
    4.9736   -4.6912    0.0226 C   0  0  0  0  0  0  0  0  0  0  0  0
    3.8524   -5.1280    0.8797 N   0  0  2  0  0  0  0  0  0  0  0  0
    3.6343   -6.5781    0.7693 C   0  0  0  0  0  0  0  0  0  0  0  0
    2.6207   -4.3065    0.7138 C   0  0  2  0  0  0  0  0  0  0  0  0
    2.0347   -4.3956   -0.7347 C   0  0  0  0  0  0  0  0  0  0  0  0
    2.8858   -2.8222    1.0615 C   0  0  1  0  0  0  0  0  0  0  0  0
    1.4231   -1.8999    3.3371 H   0  0  0  0  0  0  0  0  0  0  0  0
    2.6420   -2.3207    4.5341 H   0  0  0  0  0  0  0  0  0  0  0  0
    1.8876   -3.5872    3.5751 H   0  0  0  0  0  0  0  0  0  0  0  0
    4.1763   -3.0944    2.7867 H   0  0  0  0  0  0  0  0  0  0  0  0
    3.1980   -0.2262    2.7660 H   0  0  0  0  0  0  0  0  0  0  0  0
    4.6691   -0.8932    3.4159 H   0  0  0  0  0  0  0  0  0  0  0  0
    3.0588   -0.4031    0.0198 H   0  0  0  0  0  0  0  0  0  0  0  0
    3.0110   -2.6900   -5.0814 H   0  0  0  0  0  0  0  0  0  0  0  0
    1.8355   -4.2426   -3.6679 H   0  0  0  0  0  0  0  0  0  0  0  0
    5.9838   -2.8710   -0.5096 H   0  0  0  0  0  0  0  0  0  0  0  0
    5.6824   -3.0418    1.1721 H   0  0  0  0  0  0  0  0  0  0  0  0
    4.7921   -4.9245   -1.0248 H   0  0  0  0  0  0  0  0  0  0  0  0
    5.8664   -5.2498    0.2843 H   0  0  0  0  0  0  0  0  0  0  0  0
    3.4951   -6.7918   -0.2781 H   0  0  0  0  0  0  0  0  0  0  0  0
    2.7734   -6.9383    1.3342 H   0  0  0  0  0  0  0  0  0  0  0  0
    4.5034   -7.1536    1.0860 H   0  0  0  0  0  0  0  0  0  0  0  0
    1.8814   -4.7048    1.4042 H   0  0  0  0  0  0  0  0  0  0  0  0
    1.0141   -4.0668   -0.7236 H   0  0  0  0  0  0  0  0  0  0  0  0
    1.8251   -5.4177   -1.0332 H   0  0  0  0  0  0  0  0  0  0  0  0
    1.9624   -2.2708    0.8793 H   0  0  0  0  0  0  0  0  0  0  0  0
    4.1479   -4.9949    1.8267 H   0  0  0  0  0  0  0  0  0  0  0  0
  1  2  1  0
  1 23  1  0
  1 24  1  0
  1 25  1  0
  2 22  1  0
  2  3  1  0
  2 26  1  1
  3  4  1  0
  3 27  1  0
  3 28  1  0
  4  5  2  0
  4  6  1  0
  6 15  1  0
  6  7  1  0
  6 29  1  6
  7  8  1  0
  8 14  2  0
  8  9  1  0
  9 10  1  0
  9 11  2  0
 11 12  1  0
 11 30  1  0
 12 13  2  0
 12 31  1  0
 13 21  1  0
 13 14  1  0
 14 15  1  0
 15 22  1  0
 15 16  1  6
 16 17  1  0
 16 32  1  0
 16 33  1  0
 17 18  1  0
 17 34  1  0
 17 35  1  0
 18 19  1  0
 18 20  1  0
 18 43  1  1
 19 36  1  0
 19 37  1  0
 19 38  1  0
 20 21  1  0
 20 22  1  0
 20 39  1  1
 21 40  1  0
 21 41  1  0
 22 42  1  6
M  CHG  2  10  -1  18   1
M  END
>  <i_m_ct_stereo_status>  (8) 
1

>  <s_m_source_file>  (8) 
/var/tmp/pbs.5076255.sched01/tmpuj7nejrg/06cdl7mjn.sdf

>  <i_m_source_file_index>  (8) 
4

>  <i_lp_mmshare_version>  (8) 
48012

>  <i_f3d_flags>  (8) 
0

>  <s_epik_input>  (8) 
W0NAXTEyM1tDQEhdNEMoPU8pW0NIMl1bQ0BASF0oW0NIM10pW0NAQEhdM1tDQEhdKE4oW0NIM10pW0NIMl1bQ0gyXTIpW0NIMl1jNWMxYyhPNCljKFtPSF0pW2NIXVtjSF01

>  <s_epik_cmdline>  (8) 
J2VwaWtfcHl0aG9uJywgJy1waHQnLCAnMi4wJywgJy1waCcsICc3LjAnLCAnLXRuJywgJzgnLCAnLW1hJywgJzIwMCcsICctaW1hZScsICc8aW5maWxlLm1hZT4nLCAnLW9tYWUnLCAnPG91dGZpbGUubWFlPic=

>  <r_epik_Ionization_Penalty>  (8) 
1.97644

>  <r_epik_Ionization_Penalty_Charging>  (8) 
1.97644

>  <r_epik_Ionization_Penalty_Neutral>  (8) 
1.4713e-10

>  <r_epik_State_Penalty>  (8) 
2.0982

>  <r_epik_Charging_Adjusted_Penalty>  (8) 
4.07463

>  <i_epik_Tot_Q>  (8) 
0

>  <i_epik_Tot_abs_Q>  (8) 
2

>  <s_lp_Force_Field>  (8) 
OPLS3e

>  <r_lp_Energy>  (8) 
62.5529

>  <b_lp_Chiralities_Consistent>  (8) 
1

>  <s_lp_Variant>  (8) 
1:0-3

>  <s_i_glide_gridfile>  (8) 
pfpi4k_grid

>  <i_i_glide_lignum>  (8) 
4

>  <i_i_glide_rotatable_bonds>  (8) 
0

>  <r_i_docking_score>  (8) 
-3.48638

>  <r_i_glide_ligand_efficiency>  (8) 
-0.158472

>  <r_i_glide_ligand_efficiency_sa>  (8) 
-0.444044

>  <r_i_glide_ligand_efficiency_ln>  (8) 
-0.852199

>  <r_i_glide_gscore>  (8) 
-3.48638

>  <r_i_glide_lipo>  (8) 
-0.702275

>  <r_i_glide_hbond>  (8) 
-0.311512

>  <r_i_glide_metal>  (8) 
-0

>  <r_i_glide_rewards>  (8) 
-1.55876

>  <r_i_glide_evdw>  (8) 
-9.00943

>  <r_i_glide_ecoul>  (8) 
-3.08905

>  <r_i_glide_erotb>  (8) 
0

>  <r_i_glide_esite>  (8) 
0

>  <r_i_glide_emodel>  (8) 
-15.7558

>  <r_i_glide_energy>  (8) 
-12.0985

>  <r_i_glide_einternal>  (8) 
0

>  <r_i_glide_intrahb_reward>  (8) 
-0

>  <i_i_glide_confnum>  (8) 
1

>  <i_i_glide_posenum>  (8) 
19

>  <r_i_glide_eff_state_penalty>  (8) 
0

>  <ligand_id>  (8) 
1

>  <original_smiles>  (8) 
CC1CC(=O)C2Oc3c(O)ccc4c3C23CCN(C)C(C4)C13

>  <smiles>  (8) 
[H]c1c([H])c2c3c(c1[O-])OC1([H])C(=O)C([H])([H])C([H])(C([H])([H])[H])C4([H])C31C([H])([H])C([H])([H])[N+]([H])(C([H])([H])[H])C4([H])C2([H])[H]

$$$$
1:2:2
     RDKit          3D

 43 47  0  0  1  0  0  0  0  0999 V2000
    3.4941   -1.9380   -2.2800 C   0  0  0  0  0  0  0  0  0  0  0  0
    4.6069   -2.0225   -1.2222 C   0  0  2  0  0  0  0  0  0  0  0  0
    5.9037   -2.6396   -1.8751 C   0  0  0  0  0  0  0  0  0  0  0  0
    6.9339   -3.2348   -0.8969 C   0  0  0  0  0  0  0  0  0  0  0  0
    8.1480   -3.1102   -1.0392 O   0  0  0  0  0  0  0  0  0  0  0  0
    6.2874   -4.0011    0.2367 C   0  0  1  0  0  0  0  0  0  0  0  0
    7.0837   -4.5615    1.2917 O   0  0  0  0  0  0  0  0  0  0  0  0
    6.1424   -4.7061    2.2970 C   0  0  0  0  0  0  0  0  0  0  0  0
    6.1263   -5.4723    3.4823 C   0  0  0  0  0  0  0  0  0  0  0  0
    7.2097   -6.2298    3.8299 O   0  0  0  0  0  0  0  0  0  0  0  0
    4.9752   -5.4538    4.3199 C   0  0  0  0  0  0  0  0  0  0  0  0
    3.8138   -4.7050    3.9859 C   0  0  0  0  0  0  0  0  0  0  0  0
    3.8194   -3.9064    2.8257 C   0  0  0  0  0  0  0  0  0  0  0  0
    5.0084   -3.9380    2.0963 C   0  0  0  0  0  0  0  0  0  0  0  0
    5.3194   -3.0700    0.9472 C   0  0  1  0  0  0  0  0  0  0  0  0
    5.9479   -1.7397    1.4807 C   0  0  0  0  0  0  0  0  0  0  0  0
    4.9382   -0.9477    2.3215 C   0  0  0  0  0  0  0  0  0  0  0  0
    3.6575   -0.7901    1.5891 N   0  0  2  0  0  0  0  0  0  0  0  0
    2.6818    0.0128    2.3627 C   0  0  0  0  0  0  0  0  0  0  0  0
    3.1064   -2.0724    1.0430 C   0  0  2  0  0  0  0  0  0  0  0  0
    2.6987   -3.0775    2.1802 C   0  0  0  0  0  0  0  0  0  0  0  0
    4.1207   -2.7573    0.0758 C   0  0  1  0  0  0  0  0  0  0  0  0
    3.1775   -2.9264   -2.6170 H   0  0  0  0  0  0  0  0  0  0  0  0
    3.8289   -1.3840   -3.1570 H   0  0  0  0  0  0  0  0  0  0  0  0
    2.6148   -1.4252   -1.8951 H   0  0  0  0  0  0  0  0  0  0  0  0
    4.8566   -0.9926   -0.9665 H   0  0  0  0  0  0  0  0  0  0  0  0
    5.6394   -3.4407   -2.5682 H   0  0  0  0  0  0  0  0  0  0  0  0
    6.4080   -1.8778   -2.4603 H   0  0  0  0  0  0  0  0  0  0  0  0
    5.7404   -4.8287   -0.2153 H   0  0  0  0  0  0  0  0  0  0  0  0
    4.9787   -6.0350    5.2257 H   0  0  0  0  0  0  0  0  0  0  0  0
    2.9371   -4.7394    4.6145 H   0  0  0  0  0  0  0  0  0  0  0  0
    6.8272   -1.9510    2.0856 H   0  0  0  0  0  0  0  0  0  0  0  0
    6.3083   -1.0940    0.6777 H   0  0  0  0  0  0  0  0  0  0  0  0
    4.7810   -1.4438    3.2820 H   0  0  0  0  0  0  0  0  0  0  0  0
    5.3547    0.0321    2.5619 H   0  0  0  0  0  0  0  0  0  0  0  0
    2.4724   -0.4288    3.3403 H   0  0  0  0  0  0  0  0  0  0  0  0
    1.7409    0.1189    1.8212 H   0  0  0  0  0  0  0  0  0  0  0  0
    3.0784    1.0135    2.5434 H   0  0  0  0  0  0  0  0  0  0  0  0
    2.2169   -1.8243    0.4797 H   0  0  0  0  0  0  0  0  0  0  0  0
    2.0071   -3.7996    1.7468 H   0  0  0  0  0  0  0  0  0  0  0  0
    2.1323   -2.5835    2.9670 H   0  0  0  0  0  0  0  0  0  0  0  0
    3.6834   -3.7051   -0.2425 H   0  0  0  0  0  0  0  0  0  0  0  0
    3.8729   -0.2322    0.7748 H   0  0  0  0  0  0  0  0  0  0  0  0
  1  2  1  0
  1 23  1  0
  1 24  1  0
  1 25  1  0
  2 22  1  0
  2  3  1  0
  2 26  1  1
  3  4  1  0
  3 27  1  0
  3 28  1  0
  4  5  2  0
  4  6  1  0
  6 15  1  0
  6  7  1  0
  6 29  1  6
  7  8  1  0
  8 14  2  0
  8  9  1  0
  9 10  1  0
  9 11  2  0
 11 12  1  0
 11 30  1  0
 12 13  2  0
 12 31  1  0
 13 21  1  0
 13 14  1  0
 14 15  1  0
 15 22  1  0
 15 16  1  1
 16 17  1  0
 16 32  1  0
 16 33  1  0
 17 18  1  0
 17 34  1  0
 17 35  1  0
 18 19  1  0
 18 20  1  0
 18 43  1  6
 19 36  1  0
 19 37  1  0
 19 38  1  0
 20 21  1  0
 20 22  1  0
 20 39  1  6
 21 40  1  0
 21 41  1  0
 22 42  1  6
M  CHG  2  10  -1  18   1
M  END
>  <i_m_ct_stereo_status>  (9) 
1

>  <s_m_source_file>  (9) 
/var/tmp/pbs.5076255.sched01/tmpuj7nejrg/06cdl7mjn.sdf

>  <i_m_source_file_index>  (9) 
4

>  <i_lp_mmshare_version>  (9) 
48012

>  <i_f3d_flags>  (9) 
0

>  <s_epik_input>  (9) 
W0NAXTEyM1tDQEhdNEMoPU8pW0NIMl1bQ0BASF0oW0NIM10pW0NAQEhdM1tDQEhdKE4oW0NIM10pW0NIMl1bQ0gyXTIpW0NIMl1jNWMxYyhPNCljKFtPSF0pW2NIXVtjSF01

>  <s_epik_cmdline>  (9) 
J2VwaWtfcHl0aG9uJywgJy1waHQnLCAnMi4wJywgJy1waCcsICc3LjAnLCAnLXRuJywgJzgnLCAnLW1hJywgJzIwMCcsICctaW1hZScsICc8aW5maWxlLm1hZT4nLCAnLW9tYWUnLCAnPG91dGZpbGUubWFlPic=

>  <r_epik_Ionization_Penalty>  (9) 
1.97644

>  <r_epik_Ionization_Penalty_Charging>  (9) 
1.97644

>  <r_epik_Ionization_Penalty_Neutral>  (9) 
1.4713e-10

>  <r_epik_State_Penalty>  (9) 
2.0982

>  <r_epik_Charging_Adjusted_Penalty>  (9) 
4.07463

>  <i_epik_Tot_Q>  (9) 
0

>  <i_epik_Tot_abs_Q>  (9) 
2

>  <s_lp_Force_Field>  (9) 
OPLS3e

>  <r_lp_Energy>  (9) 
62.5529

>  <b_lp_Chiralities_Consistent>  (9) 
1

>  <s_lp_Variant>  (9) 
1:0-3

>  <s_i_glide_gridfile>  (9) 
pfpi4k_grid

>  <i_i_glide_lignum>  (9) 
4

>  <i_i_glide_rotatable_bonds>  (9) 
0

>  <r_i_docking_score>  (9) 
-3.17654

>  <r_i_glide_ligand_efficiency>  (9) 
-0.144388

>  <r_i_glide_ligand_efficiency_sa>  (9) 
-0.404581

>  <r_i_glide_ligand_efficiency_ln>  (9) 
-0.776462

>  <r_i_glide_gscore>  (9) 
-3.17654

>  <r_i_glide_lipo>  (9) 
-0.466303

>  <r_i_glide_hbond>  (9) 
0

>  <r_i_glide_metal>  (9) 
-0

>  <r_i_glide_rewards>  (9) 
-1.52492

>  <r_i_glide_evdw>  (9) 
-15.721

>  <r_i_glide_ecoul>  (9) 
-2.6218

>  <r_i_glide_erotb>  (9) 
0

>  <r_i_glide_esite>  (9) 
-0.00599917

>  <r_i_glide_emodel>  (9) 
-21.9908

>  <r_i_glide_energy>  (9) 
-18.3428

>  <r_i_glide_einternal>  (9) 
0

>  <r_i_glide_intrahb_reward>  (9) 
-0

>  <i_i_glide_confnum>  (9) 
2

>  <i_i_glide_posenum>  (9) 
17

>  <r_i_glide_eff_state_penalty>  (9) 
0

>  <ligand_id>  (9) 
1

>  <original_smiles>  (9) 
CC1CC(=O)C2Oc3c(O)ccc4c3C23CCN(C)C(C4)C13

>  <smiles>  (9) 
[H]c1c([H])c2c3c(c1[O-])OC1([H])C(=O)C([H])([H])C([H])(C([H])([H])[H])C4([H])C31C([H])([H])C([H])([H])[N+]([H])(C([H])([H])[H])C4([H])C2([H])[H]

$$$$
2:0:0
     RDKit          3D

 51 55  0  0  1  0  0  0  0  0999 V2000
    5.6677   -4.8915    4.3714 C   0  0  0  0  0  0  0  0  0  0  0  0
    4.8017   -5.2283    3.1716 C   0  0  0  0  0  0  0  0  0  0  0  0
    5.1984   -5.1083    1.8781 C   0  0  0  0  0  0  0  0  0  0  0  0
    4.3142   -5.5079    0.7028 C   0  0  2  0  0  0  0  0  0  0  0  0
    4.0398   -4.2722   -0.1801 C   0  0  0  0  0  0  0  0  0  0  0  0
    5.3551   -3.6731   -0.7049 C   0  0  0  0  0  0  0  0  0  0  0  0
    6.3398   -3.3108    0.4351 C   0  0  2  0  0  0  0  0  0  0  0  0
    5.9265   -1.9882    1.1220 C   0  0  0  0  0  0  0  0  0  0  0  0
    7.7597   -3.2244   -0.1289 C   0  0  0  0  0  0  0  0  0  0  0  0
    8.1962   -2.2562   -0.7476 O   0  0  0  0  0  0  0  0  0  0  0  0
    8.5760   -4.4729    0.1531 C   0  0  0  0  0  0  0  0  0  0  0  0
    7.5773   -5.4067    0.8472 C   0  0  0  0  0  0  0  0  0  0  0  0
    6.5140   -4.4664    1.4451 C   0  0  2  0  0  0  0  0  0  0  0  0
    3.0374   -6.2702    1.1140 C   0  0  1  0  0  0  0  0  0  0  0  0
    3.2692   -7.7965    1.2667 C   0  0  0  0  0  0  0  0  0  0  0  0
    1.9344   -8.5317    1.4998 C   0  0  0  0  0  0  0  0  0  0  0  0
    1.0143   -7.8003    2.4128 C   0  0  0  0  0  0  0  0  0  0  0  0
   -0.1612   -8.1098    3.0384 C   0  0  0  0  0  0  0  0  0  0  0  0
   -0.9193   -9.3963    3.0603 C   0  0  0  0  0  0  0  0  0  0  0  0
   -0.5899   -6.9837    3.7437 N   0  0  0  0  0  0  0  0  0  0  0  0
    0.2907   -6.0388    3.6293 N   0  0  0  0  0  0  0  0  0  0  0  0
    1.2434   -6.4958    2.7824 N   0  0  0  0  0  0  0  0  0  0  0  0
    2.4007   -5.7032    2.4061 C   0  0  1  0  0  0  0  0  0  0  0  0
    3.4194   -5.7189    3.5589 C   0  0  0  0  0  0  0  0  0  0  0  0
    5.4059   -5.5298    5.2160 H   0  0  0  0  0  0  0  0  0  0  0  0
    5.5193   -3.8554    4.6706 H   0  0  0  0  0  0  0  0  0  0  0  0
    6.7232   -5.0593    4.1726 H   0  0  0  0  0  0  0  0  0  0  0  0
    4.8963   -6.1919    0.0880 H   0  0  0  0  0  0  0  0  0  0  0  0
    3.4253   -4.5485   -1.0367 H   0  0  0  0  0  0  0  0  0  0  0  0
    3.4816   -3.5156    0.3735 H   0  0  0  0  0  0  0  0  0  0  0  0
    5.8096   -4.3940   -1.3856 H   0  0  0  0  0  0  0  0  0  0  0  0
    5.1478   -2.7963   -1.3219 H   0  0  0  0  0  0  0  0  0  0  0  0
    5.0160   -2.1171    1.7083 H   0  0  0  0  0  0  0  0  0  0  0  0
    5.7413   -1.1915    0.4007 H   0  0  0  0  0  0  0  0  0  0  0  0
    6.6938   -1.6222    1.8023 H   0  0  0  0  0  0  0  0  0  0  0  0
    8.9911   -4.8909   -0.7633 H   0  0  0  0  0  0  0  0  0  0  0  0
    9.3968   -4.2071    0.8175 H   0  0  0  0  0  0  0  0  0  0  0  0
    7.1446   -6.0841    0.1085 H   0  0  0  0  0  0  0  0  0  0  0  0
    8.0623   -6.0046    1.6200 H   0  0  0  0  0  0  0  0  0  0  0  0
    6.9663   -4.0190    2.3155 H   0  0  0  0  0  0  0  0  0  0  0  0
    2.3173   -6.1367    0.3056 H   0  0  0  0  0  0  0  0  0  0  0  0
    3.8123   -8.2072    0.4145 H   0  0  0  0  0  0  0  0  0  0  0  0
    3.9229   -7.9829    2.1149 H   0  0  0  0  0  0  0  0  0  0  0  0
    1.4234   -8.6144    0.5436 H   0  0  0  0  0  0  0  0  0  0  0  0
    2.0970   -9.5490    1.8508 H   0  0  0  0  0  0  0  0  0  0  0  0
   -0.4649  -10.1707    2.4422 H   0  0  0  0  0  0  0  0  0  0  0  0
   -1.9608   -9.2733    2.7605 H   0  0  0  0  0  0  0  0  0  0  0  0
   -0.9159   -9.7808    4.0710 H   0  0  0  0  0  0  0  0  0  0  0  0
    2.0541   -4.6851    2.2203 H   0  0  0  0  0  0  0  0  0  0  0  0
    3.5299   -6.7364    3.9435 H   0  0  0  0  0  0  0  0  0  0  0  0
    3.0357   -5.1128    4.3797 H   0  0  0  0  0  0  0  0  0  0  0  0
  1  2  1  0
  1 25  1  0
  1 26  1  0
  1 27  1  0
  2 24  1  0
  2  3  2  0
  3 13  1  0
  3  4  1  0
  4  5  1  0
  4 14  1  0
  4 28  1  6
  5  6  1  0
  5 29  1  0
  5 30  1  0
  6  7  1  0
  6 31  1  0
  6 32  1  0
  7 13  1  0
  7  8  1  1
  7  9  1  0
  8 33  1  0
  8 34  1  0
  8 35  1  0
  9 10  2  0
  9 11  1  0
 11 12  1  0
 11 36  1  0
 11 37  1  0
 12 13  1  0
 12 38  1  0
 12 39  1  0
 13 40  1  1
 14 23  1  0
 14 15  1  0
 14 41  1  6
 15 16  1  0
 15 42  1  0
 15 43  1  0
 16 17  1  0
 16 44  1  0
 16 45  1  0
 17 22  1  0
 17 18  2  0
 18 19  1  0
 18 20  1  0
 19 46  1  0
 19 47  1  0
 19 48  1  0
 20 21  2  0
 21 22  1  0
 22 23  1  0
 23 24  1  0
 23 49  1  6
 24 50  1  0
 24 51  1  0
M  END
>  <i_m_ct_stereo_status>  (10) 
1

>  <s_m_source_file>  (10) 
/var/tmp/pbs.5076255.sched01/tmpuj7nejrg/06cdl7mjn.sdf

>  <i_m_source_file_index>  (10) 
5

>  <i_lp_mmshare_version>  (10) 
48012

>  <i_f3d_flags>  (10) 
0

>  <s_epik_input>  (10) 
bjFuYyhbQ0gzXSljKFtDSDJdW0NIMl0yKW4xW0NAQEhdKFtDSDJdQz0zW0NIM10pW0NASF0yW0NAQEhdKFtDSDJdW0NIMl00KUMzW0NASF0oW0NAXTQ1W0NIM10pW0NIMl1bQ0gyXUM1PU8=

>  <s_epik_cmdline>  (10) 
J2VwaWtfcHl0aG9uJywgJy1waHQnLCAnMi4wJywgJy1waCcsICc3LjAnLCAnLXRuJywgJzgnLCAnLW1hJywgJzIwMCcsICctaW1hZScsICc8aW5maWxlLm1hZT4nLCAnLW9tYWUnLCAnPG91dGZpbGUubWFlPic=

>  <r_lp_tautomer_probability>  (10) 
0.99995

>  <r_epik_Ionization_Penalty>  (10) 
0.0016816

>  <r_epik_Ionization_Penalty_Charging>  (10) 
0

>  <r_epik_Ionization_Penalty_Neutral>  (10) 
0.0016816

>  <r_epik_State_Penalty>  (10) 
0.00113528

>  <r_epik_Charging_Adjusted_Penalty>  (10) 
0.00113528

>  <i_epik_Tot_Q>  (10) 
0

>  <i_epik_Tot_abs_Q>  (10) 
0

>  <s_lp_Force_Field>  (10) 
OPLS3e

>  <r_lp_Energy>  (10) 
26.0543

>  <b_lp_Chiralities_Consistent>  (10) 
1

>  <s_lp_Variant>  (10) 
2:0-1

>  <s_i_glide_gridfile>  (10) 
pfpi4k_grid

>  <i_i_glide_lignum>  (10) 
5

>  <i_i_glide_rotatable_bonds>  (10) 
0

>  <r_i_docking_score>  (10) 
-3.79768

>  <r_i_glide_ligand_efficiency>  (10) 
-0.158237

>  <r_i_glide_ligand_efficiency_sa>  (10) 
-0.456434

>  <r_i_glide_ligand_efficiency_ln>  (10) 
-0.90896

>  <r_i_glide_gscore>  (10) 
-3.79768

>  <r_i_glide_lipo>  (10) 
-0.576576

>  <r_i_glide_hbond>  (10) 
-0.15458

>  <r_i_glide_metal>  (10) 
-0

>  <r_i_glide_rewards>  (10) 
-1.44017

>  <r_i_glide_evdw>  (10) 
-20.0049

>  <r_i_glide_ecoul>  (10) 
-3.18361

>  <r_i_glide_erotb>  (10) 
0

>  <r_i_glide_esite>  (10) 
-0.148564

>  <r_i_glide_emodel>  (10) 
-29.021

>  <r_i_glide_energy>  (10) 
-23.1885

>  <r_i_glide_einternal>  (10) 
0

>  <r_i_glide_intrahb_reward>  (10) 
-0

>  <i_i_glide_confnum>  (10) 
2

>  <i_i_glide_posenum>  (10) 
29

>  <r_i_glide_eff_state_penalty>  (10) 
0

>  <ligand_id>  (10) 
2

>  <original_smiles>  (10) 
CC1=C2C(CCC3(C)C(=O)CCC23)C2CCc3c(C)nnn3C2C1

>  <smiles>  (10) 
[H]C([H])([H])C1=C2C([H])(C([H])([H])C([H])([H])C3(C([H])([H])[H])C(=O)C([H])([H])C([H])([H])C23[H])C2([H])C([H])([H])C([H])([H])c3c(C([H])([H])[H])nnn3C2([H])C1([H])[H]

$$$$
2:0:1
     RDKit          3D

 51 55  0  0  1  0  0  0  0  0999 V2000
    3.8718    0.7014    5.4362 C   0  0  0  0  0  0  0  0  0  0  0  0
    3.0458    0.1988    4.2637 C   0  0  0  0  0  0  0  0  0  0  0  0
    2.1795    0.9691    3.5580 C   0  0  0  0  0  0  0  0  0  0  0  0
    1.4036    0.4305    2.3567 C   0  0  2  0  0  0  0  0  0  0  0  0
   -0.1082    0.5311    2.6345 C   0  0  0  0  0  0  0  0  0  0  0  0
   -0.5212    1.9851    2.9144 C   0  0  0  0  0  0  0  0  0  0  0  0
    0.2781    2.6288    4.0797 C   0  0  2  0  0  0  0  0  0  0  0  0
   -0.2451    2.1359    5.4454 C   0  0  0  0  0  0  0  0  0  0  0  0
    0.2109    4.1584    3.9825 C   0  0  0  0  0  0  0  0  0  0  0  0
   -0.7313    4.8421    4.3836 O   0  0  0  0  0  0  0  0  0  0  0  0
    1.4648    4.7442    3.3469 C   0  0  0  0  0  0  0  0  0  0  0  0
    2.3044    3.5087    2.9903 C   0  0  0  0  0  0  0  0  0  0  0  0
    1.8036    2.4051    3.9405 C   0  0  2  0  0  0  0  0  0  0  0  0
    1.8503   -0.9791    1.8904 C   0  0  1  0  0  0  0  0  0  0  0  0
    3.0210   -0.9477    0.8800 C   0  0  0  0  0  0  0  0  0  0  0  0
    3.3308   -2.3385    0.2957 C   0  0  0  0  0  0  0  0  0  0  0  0
    3.2286   -3.4206    1.3224 C   0  0  0  0  0  0  0  0  0  0  0  0
    3.5784   -4.7410    1.3650 C   0  0  0  0  0  0  0  0  0  0  0  0
    4.2755   -5.5892    0.3431 C   0  0  0  0  0  0  0  0  0  0  0  0
    3.1740   -5.2574    2.5966 N   0  0  0  0  0  0  0  0  0  0  0  0
    2.6349   -4.3159    3.3089 N   0  0  0  0  0  0  0  0  0  0  0  0
    2.6551   -3.1929    2.5545 N   0  0  0  0  0  0  0  0  0  0  0  0
    2.1877   -1.9123    3.0670 C   0  0  1  0  0  0  0  0  0  0  0  0
    3.2717   -1.2773    3.9602 C   0  0  0  0  0  0  0  0  0  0  0  0
    4.8226    0.1707    5.4777 H   0  0  0  0  0  0  0  0  0  0  0  0
    3.3461    0.5349    6.3762 H   0  0  0  0  0  0  0  0  0  0  0  0
    4.1134    1.7592    5.3476 H   0  0  0  0  0  0  0  0  0  0  0  0
    1.5966    1.1048    1.5216 H   0  0  0  0  0  0  0  0  0  0  0  0
   -0.6620    0.1842    1.7630 H   0  0  0  0  0  0  0  0  0  0  0  0
   -0.3914   -0.1111    3.4716 H   0  0  0  0  0  0  0  0  0  0  0  0
   -0.3723    2.5488    1.9982 H   0  0  0  0  0  0  0  0  0  0  0  0
   -1.5945    2.0364    3.1112 H   0  0  0  0  0  0  0  0  0  0  0  0
    0.0072    1.0871    5.6001 H   0  0  0  0  0  0  0  0  0  0  0  0
   -1.3284    2.2347    5.5215 H   0  0  0  0  0  0  0  0  0  0  0  0
    0.1936    2.7005    6.2693 H   0  0  0  0  0  0  0  0  0  0  0  0
    1.2253    5.3566    2.4784 H   0  0  0  0  0  0  0  0  0  0  0  0
    1.9742    5.3708    4.0796 H   0  0  0  0  0  0  0  0  0  0  0  0
    2.1295    3.2533    1.9449 H   0  0  0  0  0  0  0  0  0  0  0  0
    3.3704    3.6946    3.1133 H   0  0  0  0  0  0  0  0  0  0  0  0
    2.2235    2.6306    4.9179 H   0  0  0  0  0  0  0  0  0  0  0  0
    1.0125   -1.4213    1.3571 H   0  0  0  0  0  0  0  0  0  0  0  0
    2.8003   -0.2561    0.0746 H   0  0  0  0  0  0  0  0  0  0  0  0
    3.9109   -0.5554    1.3715 H   0  0  0  0  0  0  0  0  0  0  0  0
    2.6180   -2.5494   -0.5029 H   0  0  0  0  0  0  0  0  0  0  0  0
    4.3199   -2.3459   -0.1617 H   0  0  0  0  0  0  0  0  0  0  0  0
    4.4804   -5.0404   -0.5768 H   0  0  0  0  0  0  0  0  0  0  0  0
    3.6784   -6.4597    0.0791 H   0  0  0  0  0  0  0  0  0  0  0  0
    5.2288   -5.9536    0.7246 H   0  0  0  0  0  0  0  0  0  0  0  0
    1.2853   -2.0954    3.6455 H   0  0  0  0  0  0  0  0  0  0  0  0
    4.2473   -1.3642    3.4809 H   0  0  0  0  0  0  0  0  0  0  0  0
    3.3337   -1.8372    4.8937 H   0  0  0  0  0  0  0  0  0  0  0  0
  1  2  1  0
  1 25  1  0
  1 26  1  0
  1 27  1  0
  2 24  1  0
  2  3  2  0
  3 13  1  0
  3  4  1  0
  4  5  1  0
  4 14  1  0
  4 28  1  6
  5  6  1  0
  5 29  1  0
  5 30  1  0
  6  7  1  0
  6 31  1  0
  6 32  1  0
  7 13  1  0
  7  8  1  1
  7  9  1  0
  8 33  1  0
  8 34  1  0
  8 35  1  0
  9 10  2  0
  9 11  1  0
 11 12  1  0
 11 36  1  0
 11 37  1  0
 12 13  1  0
 12 38  1  0
 12 39  1  0
 13 40  1  1
 14 23  1  0
 14 15  1  0
 14 41  1  6
 15 16  1  0
 15 42  1  0
 15 43  1  0
 16 17  1  0
 16 44  1  0
 16 45  1  0
 17 22  1  0
 17 18  2  0
 18 19  1  0
 18 20  1  0
 19 46  1  0
 19 47  1  0
 19 48  1  0
 20 21  2  0
 21 22  1  0
 22 23  1  0
 23 24  1  0
 23 49  1  1
 24 50  1  0
 24 51  1  0
M  END
>  <i_m_ct_stereo_status>  (11) 
1

>  <s_m_source_file>  (11) 
/var/tmp/pbs.5076255.sched01/tmpuj7nejrg/06cdl7mjn.sdf

>  <i_m_source_file_index>  (11) 
5

>  <i_lp_mmshare_version>  (11) 
48012

>  <i_f3d_flags>  (11) 
0

>  <s_epik_input>  (11) 
bjFuYyhbQ0gzXSljKFtDSDJdW0NIMl0yKW4xW0NAQEhdKFtDSDJdQz0zW0NIM10pW0NASF0yW0NAQEhdKFtDSDJdW0NIMl00KUMzW0NASF0oW0NAXTQ1W0NIM10pW0NIMl1bQ0gyXUM1PU8=

>  <s_epik_cmdline>  (11) 
J2VwaWtfcHl0aG9uJywgJy1waHQnLCAnMi4wJywgJy1waCcsICc3LjAnLCAnLXRuJywgJzgnLCAnLW1hJywgJzIwMCcsICctaW1hZScsICc8aW5maWxlLm1hZT4nLCAnLW9tYWUnLCAnPG91dGZpbGUubWFlPic=

>  <r_lp_tautomer_probability>  (11) 
0.99995

>  <r_epik_Ionization_Penalty>  (11) 
0.0016816

>  <r_epik_Ionization_Penalty_Charging>  (11) 
0

>  <r_epik_Ionization_Penalty_Neutral>  (11) 
0.0016816

>  <r_epik_State_Penalty>  (11) 
0.00113528

>  <r_epik_Charging_Adjusted_Penalty>  (11) 
0.00113528

>  <i_epik_Tot_Q>  (11) 
0

>  <i_epik_Tot_abs_Q>  (11) 
0

>  <s_lp_Force_Field>  (11) 
OPLS3e

>  <r_lp_Energy>  (11) 
26.0543

>  <b_lp_Chiralities_Consistent>  (11) 
1

>  <s_lp_Variant>  (11) 
2:0-1

>  <s_i_glide_gridfile>  (11) 
pfpi4k_grid

>  <i_i_glide_lignum>  (11) 
5

>  <i_i_glide_rotatable_bonds>  (11) 
0

>  <r_i_docking_score>  (11) 
-2.88423

>  <r_i_glide_ligand_efficiency>  (11) 
-0.120176

>  <r_i_glide_ligand_efficiency_sa>  (11) 
-0.346648

>  <r_i_glide_ligand_efficiency_ln>  (11) 
-0.690328

>  <r_i_glide_gscore>  (11) 
-2.88423

>  <r_i_glide_lipo>  (11) 
-0.0775288

>  <r_i_glide_hbond>  (11) 
-0.0269521

>  <r_i_glide_metal>  (11) 
-0

>  <r_i_glide_rewards>  (11) 
-1.19013

>  <r_i_glide_evdw>  (11) 
-19.1867

>  <r_i_glide_ecoul>  (11) 
-3.65959

>  <r_i_glide_erotb>  (11) 
0

>  <r_i_glide_esite>  (11) 
-0.0813421

>  <r_i_glide_emodel>  (11) 
-27.3266

>  <r_i_glide_energy>  (11) 
-22.8463

>  <r_i_glide_einternal>  (11) 
0

>  <r_i_glide_intrahb_reward>  (11) 
-0

>  <i_i_glide_confnum>  (11) 
2

>  <i_i_glide_posenum>  (11) 
1

>  <r_i_glide_eff_state_penalty>  (11) 
0

>  <ligand_id>  (11) 
2

>  <original_smiles>  (11) 
CC1=C2C(CCC3(C)C(=O)CCC23)C2CCc3c(C)nnn3C2C1

>  <smiles>  (11) 
[H]C([H])([H])C1=C2C([H])(C([H])([H])C([H])([H])C3(C([H])([H])[H])C(=O)C([H])([H])C([H])([H])C23[H])C2([H])C([H])([H])C([H])([H])c3c(C([H])([H])[H])nnn3C2([H])C1([H])[H]

$$$$
2:0:2
     RDKit          3D

 51 55  0  0  1  0  0  0  0  0999 V2000
    5.2477   -4.0712    3.7788 C   0  0  0  0  0  0  0  0  0  0  0  0
    4.3346   -4.8203    2.8253 C   0  0  0  0  0  0  0  0  0  0  0  0
    4.3442   -4.6528    1.4781 C   0  0  0  0  0  0  0  0  0  0  0  0
    3.4435   -5.4660    0.5455 C   0  0  2  0  0  0  0  0  0  0  0  0
    2.5125   -4.5049   -0.2223 C   0  0  0  0  0  0  0  0  0  0  0  0
    3.3315   -3.4933   -1.0437 C   0  0  0  0  0  0  0  0  0  0  0  0
    4.3285   -2.6784   -0.1767 C   0  0  2  0  0  0  0  0  0  0  0  0
    3.6039   -1.5738    0.6170 C   0  0  0  0  0  0  0  0  0  0  0  0
    5.4296   -2.0947   -1.0681 C   0  0  0  0  0  0  0  0  0  0  0  0
    5.3238   -1.0680   -1.7363 O   0  0  0  0  0  0  0  0  0  0  0  0
    6.7022   -2.9231   -1.0222 C   0  0  0  0  0  0  0  0  0  0  0  0
    6.3360   -4.0973   -0.1034 C   0  0  0  0  0  0  0  0  0  0  0  0
    5.1701   -3.5800    0.7572 C   0  0  2  0  0  0  0  0  0  0  0  0
    2.6922   -6.6289    1.2424 C   0  0  1  0  0  0  0  0  0  0  0  0
    3.5082   -7.9495    1.2826 C   0  0  0  0  0  0  0  0  0  0  0  0
    2.6784   -9.1269    1.8354 C   0  0  0  0  0  0  0  0  0  0  0  0
    1.7898   -8.7235    2.9703 C   0  0  0  0  0  0  0  0  0  0  0  0
    1.0366   -9.3981    3.8922 C   0  0  0  0  0  0  0  0  0  0  0  0
    0.8738  -10.8732    4.1086 C   0  0  0  0  0  0  0  0  0  0  0  0
    0.3709   -8.4588    4.6837 N   0  0  0  0  0  0  0  0  0  0  0  0
    0.7071   -7.2610    4.3193 N   0  0  0  0  0  0  0  0  0  0  0  0
    1.5654   -7.3991    3.2805 N   0  0  0  0  0  0  0  0  0  0  0  0
    2.2074   -6.2514    2.6598 C   0  0  1  0  0  0  0  0  0  0  0  0
    3.3897   -5.7811    3.5298 C   0  0  0  0  0  0  0  0  0  0  0  0
    5.4916   -4.6938    4.6399 H   0  0  0  0  0  0  0  0  0  0  0  0
    4.7732   -3.1577    4.1375 H   0  0  0  0  0  0  0  0  0  0  0  0
    6.1897   -3.8230    3.2986 H   0  0  0  0  0  0  0  0  0  0  0  0
    4.0877   -5.9262   -0.2041 H   0  0  0  0  0  0  0  0  0  0  0  0
    1.8498   -5.0541   -0.8940 H   0  0  0  0  0  0  0  0  0  0  0  0
    1.8617   -3.9770    0.4723 H   0  0  0  0  0  0  0  0  0  0  0  0
    3.8706   -4.0325   -1.8253 H   0  0  0  0  0  0  0  0  0  0  0  0
    2.6526   -2.8221   -1.5745 H   0  0  0  0  0  0  0  0  0  0  0  0
    2.9742   -1.9985    1.3988 H   0  0  0  0  0  0  0  0  0  0  0  0
    2.9700   -0.9688   -0.0288 H   0  0  0  0  0  0  0  0  0  0  0  0
    4.3063   -0.8938    1.0980 H   0  0  0  0  0  0  0  0  0  0  0  0
    7.0094   -3.2405   -2.0197 H   0  0  0  0  0  0  0  0  0  0  0  0
    7.4986   -2.3187   -0.5885 H   0  0  0  0  0  0  0  0  0  0  0  0
    6.0215   -4.9430   -0.7149 H   0  0  0  0  0  0  0  0  0  0  0  0
    7.1841   -4.4098    0.5068 H   0  0  0  0  0  0  0  0  0  0  0  0
    5.6074   -2.9091    1.4932 H   0  0  0  0  0  0  0  0  0  0  0  0
    1.8054   -6.8410    0.6476 H   0  0  0  0  0  0  0  0  0  0  0  0
    3.9110   -8.2050    0.3065 H   0  0  0  0  0  0  0  0  0  0  0  0
    4.3778   -7.8028    1.9232 H   0  0  0  0  0  0  0  0  0  0  0  0
    2.0552   -9.5195    1.0333 H   0  0  0  0  0  0  0  0  0  0  0  0
    3.3333   -9.9425    2.1419 H   0  0  0  0  0  0  0  0  0  0  0  0
    1.4299  -11.4601    3.3770 H   0  0  0  0  0  0  0  0  0  0  0  0
   -0.1719  -11.1688    4.0423 H   0  0  0  0  0  0  0  0  0  0  0  0
    1.2278  -11.1669    5.0968 H   0  0  0  0  0  0  0  0  0  0  0  0
    1.4702   -5.4520    2.5865 H   0  0  0  0  0  0  0  0  0  0  0  0
    3.9822   -6.6383    3.8556 H   0  0  0  0  0  0  0  0  0  0  0  0
    3.0056   -5.3095    4.4360 H   0  0  0  0  0  0  0  0  0  0  0  0
  1  2  1  0
  1 25  1  0
  1 26  1  0
  1 27  1  0
  2 24  1  0
  2  3  2  0
  3 13  1  0
  3  4  1  0
  4  5  1  0
  4 14  1  0
  4 28  1  6
  5  6  1  0
  5 29  1  0
  5 30  1  0
  6  7  1  0
  6 31  1  0
  6 32  1  0
  7 13  1  0
  7  8  1  1
  7  9  1  0
  8 33  1  0
  8 34  1  0
  8 35  1  0
  9 10  2  0
  9 11  1  0
 11 12  1  0
 11 36  1  0
 11 37  1  0
 12 13  1  0
 12 38  1  0
 12 39  1  0
 13 40  1  1
 14 23  1  0
 14 15  1  0
 14 41  1  6
 15 16  1  0
 15 42  1  0
 15 43  1  0
 16 17  1  0
 16 44  1  0
 16 45  1  0
 17 22  1  0
 17 18  2  0
 18 19  1  0
 18 20  1  0
 19 46  1  0
 19 47  1  0
 19 48  1  0
 20 21  2  0
 21 22  1  0
 22 23  1  0
 23 24  1  0
 23 49  1  6
 24 50  1  0
 24 51  1  0
M  END
>  <i_m_ct_stereo_status>  (12) 
1

>  <s_m_source_file>  (12) 
/var/tmp/pbs.5076255.sched01/tmpuj7nejrg/06cdl7mjn.sdf

>  <i_m_source_file_index>  (12) 
5

>  <i_lp_mmshare_version>  (12) 
48012

>  <i_f3d_flags>  (12) 
0

>  <s_epik_input>  (12) 
bjFuYyhbQ0gzXSljKFtDSDJdW0NIMl0yKW4xW0NAQEhdKFtDSDJdQz0zW0NIM10pW0NASF0yW0NAQEhdKFtDSDJdW0NIMl00KUMzW0NASF0oW0NAXTQ1W0NIM10pW0NIMl1bQ0gyXUM1PU8=

>  <s_epik_cmdline>  (12) 
J2VwaWtfcHl0aG9uJywgJy1waHQnLCAnMi4wJywgJy1waCcsICc3LjAnLCAnLXRuJywgJzgnLCAnLW1hJywgJzIwMCcsICctaW1hZScsICc8aW5maWxlLm1hZT4nLCAnLW9tYWUnLCAnPG91dGZpbGUubWFlPic=

>  <r_lp_tautomer_probability>  (12) 
0.99995

>  <r_epik_Ionization_Penalty>  (12) 
0.0016816

>  <r_epik_Ionization_Penalty_Charging>  (12) 
0

>  <r_epik_Ionization_Penalty_Neutral>  (12) 
0.0016816

>  <r_epik_State_Penalty>  (12) 
0.00113528

>  <r_epik_Charging_Adjusted_Penalty>  (12) 
0.00113528

>  <i_epik_Tot_Q>  (12) 
0

>  <i_epik_Tot_abs_Q>  (12) 
0

>  <s_lp_Force_Field>  (12) 
OPLS3e

>  <r_lp_Energy>  (12) 
26.0543

>  <b_lp_Chiralities_Consistent>  (12) 
1

>  <s_lp_Variant>  (12) 
2:0-1

>  <s_i_glide_gridfile>  (12) 
pfpi4k_grid

>  <i_i_glide_lignum>  (12) 
5

>  <i_i_glide_rotatable_bonds>  (12) 
0

>  <r_i_docking_score>  (12) 
-2.7131

>  <r_i_glide_ligand_efficiency>  (12) 
-0.113046

>  <r_i_glide_ligand_efficiency_sa>  (12) 
-0.326081

>  <r_i_glide_ligand_efficiency_ln>  (12) 
-0.64937

>  <r_i_glide_gscore>  (12) 
-2.7131

>  <r_i_glide_lipo>  (12) 
-0.207745

>  <r_i_glide_hbond>  (12) 
0

>  <r_i_glide_metal>  (12) 
-0

>  <r_i_glide_rewards>  (12) 
-1.19013

>  <r_i_glide_evdw>  (12) 
-21.8126

>  <r_i_glide_ecoul>  (12) 
-0.873581

>  <r_i_glide_erotb>  (12) 
0

>  <r_i_glide_esite>  (12) 
-0.0935624

>  <r_i_glide_emodel>  (12) 
-26.8969

>  <r_i_glide_energy>  (12) 
-22.6862

>  <r_i_glide_einternal>  (12) 
0

>  <r_i_glide_intrahb_reward>  (12) 
-0

>  <i_i_glide_confnum>  (12) 
2

>  <i_i_glide_posenum>  (12) 
11

>  <r_i_glide_eff_state_penalty>  (12) 
0

>  <ligand_id>  (12) 
2

>  <original_smiles>  (12) 
CC1=C2C(CCC3(C)C(=O)CCC23)C2CCc3c(C)nnn3C2C1

>  <smiles>  (12) 
[H]C([H])([H])C1=C2C([H])(C([H])([H])C([H])([H])C3(C([H])([H])[H])C(=O)C([H])([H])C([H])([H])C23[H])C2([H])C([H])([H])C([H])([H])c3c(C([H])([H])[H])nnn3C2([H])C1([H])[H]

$$$$
3:1:0
     RDKit          3D

 32 38  0  0  1  0  0  0  0  0999 V2000
    3.9923   -5.2079    3.0797 C   0  0  0  0  0  0  0  0  0  0  0  0
    4.1619   -4.6778    1.7294 N   0  0  0  0  0  0  0  0  0  0  0  0
    5.2299   -3.8913    1.3272 C   0  0  0  0  0  0  0  0  0  0  0  0
    5.0538   -3.6031    0.0261 C   0  0  0  0  0  0  0  0  0  0  0  0
    3.8909   -4.2266   -0.5334 C   0  0  1  0  0  0  0  0  0  0  0  0
    3.2314   -4.7463    0.7360 C   0  0  0  0  0  0  0  0  0  0  0  0
    2.0953   -5.1727    0.7918 O   0  0  0  0  0  0  0  0  0  0  0  0
    3.3559   -3.0151   -1.3456 C   0  0  1  0  0  0  0  0  0  0  0  0
    3.6114   -1.7649   -0.8611 C   0  0  1  0  0  0  0  0  0  0  0  0
    5.1741   -2.3635   -0.7846 C   0  0  2  0  0  0  0  0  0  0  0  0
    5.5551   -2.8691   -2.2805 C   0  0  2  0  0  0  0  0  0  0  0  0
    4.5808   -3.4992   -3.4633 C   0  0  0  0  0  0  0  0  0  0  0  0
    3.3576   -2.3683   -3.6583 C   0  0  1  0  0  0  0  0  0  0  0  0
    3.0308   -1.3175   -2.3065 C   0  0  2  0  0  0  0  0  0  0  0  0
    4.1781   -0.6427   -2.6708 C   0  0  1  0  0  0  0  0  0  0  0  0
    4.3082   -1.4320   -3.8030 C   0  0  2  0  0  0  0  0  0  0  0  0
    4.4563   -2.1285   -2.3934 C   0  0  2  0  0  0  0  0  0  0  0  0
    3.2097   -5.9603    3.1237 H   0  0  0  0  0  0  0  0  0  0  0  0
    3.7419   -4.4067    3.7703 H   0  0  0  0  0  0  0  0  0  0  0  0
    4.9140   -5.6852    3.4086 H   0  0  0  0  0  0  0  0  0  0  0  0
    5.8317   -3.3784    2.0816 H   0  0  0  0  0  0  0  0  0  0  0  0
    4.2126   -5.0716   -1.1334 H   0  0  0  0  0  0  0  0  0  0  0  0
    2.3151   -3.2405   -1.6557 H   0  0  0  0  0  0  0  0  0  0  0  0
    3.0589   -1.5131    0.0469 H   0  0  0  0  0  0  0  0  0  0  0  0
    5.9079   -1.6527   -0.3653 H   0  0  0  0  0  0  0  0  0  0  0  0
    6.4099   -2.3243   -2.6642 H   0  0  0  0  0  0  0  0  0  0  0  0
    5.1808   -3.6659   -4.3541 H   0  0  0  0  0  0  0  0  0  0  0  0
    4.2169   -4.4967   -3.2332 H   0  0  0  0  0  0  0  0  0  0  0  0
    2.6639   -2.4419   -4.5012 H   0  0  0  0  0  0  0  0  0  0  0  0
    2.2029   -0.6533   -2.3773 H   0  0  0  0  0  0  0  0  0  0  0  0
    4.8259    0.0225   -2.1319 H   0  0  0  0  0  0  0  0  0  0  0  0
    5.0808   -1.3871   -4.5185 H   0  0  0  0  0  0  0  0  0  0  0  0
  1 18  1  0
  1 19  1  0
  1 20  1  0
  1  2  1  0
  2  3  1  0
  2  6  1  0
  3 21  1  0
  3  4  2  0
  4  5  1  0
  4 10  1  0
  5  6  1  0
  5  8  1  0
  5 22  1  6
  6  7  2  0
  8 17  1  0
  8  9  1  0
  8 23  1  6
  9 14  1  0
  9 10  1  0
  9 24  1  1
 10 11  1  0
 10 25  1  1
 17 11  1  6
 11 12  1  0
 11 26  1  6
 12 13  1  0
 12 27  1  0
 12 28  1  0
 13 16  1  0
 13 14  1  0
 13 29  1  6
 14 15  1  0
 14 30  1  1
 15 17  1  0
 15 16  1  0
 15 31  1  6
 16 17  1  0
 16 32  1  6
M  END
>  <i_m_ct_stereo_status>  (13) 
1

>  <s_m_source_file>  (13) 
/var/tmp/pbs.5076255.sched01/tmpuj7nejrg/06cdl7mjn.sdf

>  <i_m_source_file_index>  (13) 
7

>  <i_lp_mmshare_version>  (13) 
48012

>  <i_f3d_flags>  (13) 
0

>  <s_epik_input>  (13) 
W09IXWMxbihbQ0gzXSlbY0hdYyhjMVtDQEBIXTJbQ0BdMzQ1KVtDQEBIXTZbQ0BIXTJbQ0BASF03W0NASF0oW0NIMl1bQ0BASF0zNilbQ0BIXTVbQ0BIXTQ3

>  <s_epik_cmdline>  (13) 
J2VwaWtfcHl0aG9uJywgJy1waHQnLCAnMi4wJywgJy1waCcsICc3LjAnLCAnLXRuJywgJzgnLCAnLW1hJywgJzIwMCcsICctaW1hZScsICc8aW5maWxlLm1hZT4nLCAnLW9tYWUnLCAnPG91dGZpbGUubWFlPic=

>  <r_lp_tautomer_probability>  (13) 
0.0382385

>  <r_epik_Ionization_Penalty>  (13) 
2.96932e-08

>  <r_epik_Ionization_Penalty_Charging>  (13) 
0

>  <r_epik_Ionization_Penalty_Neutral>  (13) 
2.96932e-08

>  <r_epik_State_Penalty>  (13) 
2.05757

>  <r_epik_Charging_Adjusted_Penalty>  (13) 
2.05757

>  <i_epik_Tot_Q>  (13) 
0

>  <i_epik_Tot_abs_Q>  (13) 
0

>  <s_lp_Force_Field>  (13) 
OPLS3e

>  <r_lp_Energy>  (13) 
465.432

>  <b_lp_Chiralities_Consistent>  (13) 
1

>  <s_lp_Variant>  (13) 
3:0-2

>  <s_i_glide_gridfile>  (13) 
pfpi4k_grid

>  <i_i_glide_lignum>  (13) 
7

>  <i_i_glide_rotatable_bonds>  (13) 
0

>  <r_i_docking_score>  (13) 
-3.81446

>  <r_i_glide_ligand_efficiency>  (13) 
-0.22438

>  <r_i_glide_ligand_efficiency_sa>  (13) 
-0.576944

>  <r_i_glide_ligand_efficiency_ln>  (13) 
-0.995107

>  <r_i_glide_gscore>  (13) 
-3.81446

>  <r_i_glide_lipo>  (13) 
-0.846116

>  <r_i_glide_hbond>  (13) 
-0.0413202

>  <r_i_glide_metal>  (13) 
-0

>  <r_i_glide_rewards>  (13) 
-1.89161

>  <r_i_glide_evdw>  (13) 
-15.2461

>  <r_i_glide_ecoul>  (13) 
-1.75743

>  <r_i_glide_erotb>  (13) 
0

>  <r_i_glide_esite>  (13) 
-0.00948975

>  <r_i_glide_emodel>  (13) 
-21.275

>  <r_i_glide_energy>  (13) 
-17.0035

>  <r_i_glide_einternal>  (13) 
0

>  <r_i_glide_intrahb_reward>  (13) 
-0

>  <i_i_glide_confnum>  (13) 
2

>  <i_i_glide_posenum>  (13) 
12

>  <r_i_glide_eff_state_penalty>  (13) 
0

>  <ligand_id>  (13) 
3

>  <original_smiles>  (13) 
Cn1cc2c(c1O)C1C3C2C2CC4C3C3C4C213

>  <smiles>  (13) 
[H]C1=C2C([H])(C(=O)N1C([H])([H])[H])C1([H])C3([H])C2([H])C2([H])C([H])([H])C4([H])C3([H])C3([H])C4([H])C213

$$$$
3:1:1
     RDKit          3D

 32 38  0  0  1  0  0  0  0  0999 V2000
    4.1235   -1.9200    3.7500 C   0  0  0  0  0  0  0  0  0  0  0  0
    3.9539   -2.0195    2.3062 N   0  0  0  0  0  0  0  0  0  0  0  0
    3.3670   -3.1273    1.6732 C   0  0  0  0  0  0  0  0  0  0  0  0
    3.3947   -2.8766    0.3587 C   0  0  0  0  0  0  0  0  0  0  0  0
    3.9111   -1.5835    0.0269 C   0  0  1  0  0  0  0  0  0  0  0  0
    4.4818   -1.2011    1.3796 C   0  0  0  0  0  0  0  0  0  0  0  0
    5.2721   -0.2665    1.5550 O   0  0  0  0  0  0  0  0  0  0  0  0
    4.7842   -2.0079   -1.1919 C   0  0  1  0  0  0  0  0  0  0  0  0
    5.3052   -3.2607   -1.1954 C   0  0  1  0  0  0  0  0  0  0  0  0
    3.7160   -3.6809   -0.8585 C   0  0  2  0  0  0  0  0  0  0  0  0
    2.8109   -3.0546   -2.0497 C   0  0  2  0  0  0  0  0  0  0  0  0
    3.0379   -1.6854   -2.9428 C   0  0  0  0  0  0  0  0  0  0  0  0
    4.5692   -1.8503   -3.5919 C   0  0  1  0  0  0  0  0  0  0  0  0
    5.7012   -2.8602   -2.7222 C   0  0  2  0  0  0  0  0  0  0  0  0
    5.0152   -3.9202   -3.2719 C   0  0  1  0  0  0  0  0  0  0  0  0
    4.1848   -3.0801   -4.0250 C   0  0  2  0  0  0  0  0  0  0  0  0
    4.0839   -3.0137   -2.4633 C   0  0  2  0  0  0  0  0  0  0  0  0
    4.4161   -0.9104    4.0462 H   0  0  0  0  0  0  0  0  0  0  0  0
    4.8895   -2.6125    4.0937 H   0  0  0  0  0  0  0  0  0  0  0  0
    3.1879   -2.1451    4.2612 H   0  0  0  0  0  0  0  0  0  0  0  0
    3.2797   -4.0592    2.2202 H   0  0  0  0  0  0  0  0  0  0  0  0
    3.0829   -0.9234   -0.2258 H   0  0  0  0  0  0  0  0  0  0  0  0
    5.4797   -1.1779   -1.4200 H   0  0  0  0  0  0  0  0  0  0  0  0
    6.0881   -3.4338   -0.4547 H   0  0  0  0  0  0  0  0  0  0  0  0
    3.5577   -4.7531   -0.6939 H   0  0  0  0  0  0  0  0  0  0  0  0
    2.2770   -3.8314   -2.6019 H   0  0  0  0  0  0  0  0  0  0  0  0
    2.2628   -1.6240   -3.7123 H   0  0  0  0  0  0  0  0  0  0  0  0
    2.9096   -0.7584   -2.3724 H   0  0  0  0  0  0  0  0  0  0  0  0
    4.9139   -1.1664   -4.3651 H   0  0  0  0  0  0  0  0  0  0  0  0
    6.7460   -2.7813   -3.0041 H   0  0  0  0  0  0  0  0  0  0  0  0
    4.9713   -4.9602   -2.9842 H   0  0  0  0  0  0  0  0  0  0  0  0
    3.3088   -3.3726   -4.5980 H   0  0  0  0  0  0  0  0  0  0  0  0
  1 18  1  0
  1 19  1  0
  1 20  1  0
  1  2  1  0
  2  3  1  0
  2  6  1  0
  3 21  1  0
  3  4  2  0
  4  5  1  0
  4 10  1  0
  5  6  1  0
  5  8  1  0
  5 22  1  6
  6  7  2  0
  8 17  1  0
  8  9  1  0
  8 23  1  6
  9 14  1  0
  9 10  1  0
  9 24  1  1
 10 11  1  0
 10 25  1  1
 17 11  1  6
 11 12  1  0
 11 26  1  6
 12 13  1  0
 12 27  1  0
 12 28  1  0
 13 16  1  0
 13 14  1  0
 13 29  1  6
 14 15  1  0
 14 30  1  1
 15 17  1  0
 15 16  1  0
 15 31  1  6
 16 17  1  0
 16 32  1  6
M  END
>  <i_m_ct_stereo_status>  (14) 
1

>  <s_m_source_file>  (14) 
/var/tmp/pbs.5076255.sched01/tmpuj7nejrg/06cdl7mjn.sdf

>  <i_m_source_file_index>  (14) 
7

>  <i_lp_mmshare_version>  (14) 
48012

>  <i_f3d_flags>  (14) 
0

>  <s_epik_input>  (14) 
W09IXWMxbihbQ0gzXSlbY0hdYyhjMVtDQEBIXTJbQ0BdMzQ1KVtDQEBIXTZbQ0BIXTJbQ0BASF03W0NASF0oW0NIMl1bQ0BASF0zNilbQ0BIXTVbQ0BIXTQ3

>  <s_epik_cmdline>  (14) 
J2VwaWtfcHl0aG9uJywgJy1waHQnLCAnMi4wJywgJy1waCcsICc3LjAnLCAnLXRuJywgJzgnLCAnLW1hJywgJzIwMCcsICctaW1hZScsICc8aW5maWxlLm1hZT4nLCAnLW9tYWUnLCAnPG91dGZpbGUubWFlPic=

>  <r_lp_tautomer_probability>  (14) 
0.0382385

>  <r_epik_Ionization_Penalty>  (14) 
2.96932e-08

>  <r_epik_Ionization_Penalty_Charging>  (14) 
0

>  <r_epik_Ionization_Penalty_Neutral>  (14) 
2.96932e-08

>  <r_epik_State_Penalty>  (14) 
2.05757

>  <r_epik_Charging_Adjusted_Penalty>  (14) 
2.05757

>  <i_epik_Tot_Q>  (14) 
0

>  <i_epik_Tot_abs_Q>  (14) 
0

>  <s_lp_Force_Field>  (14) 
OPLS3e

>  <r_lp_Energy>  (14) 
465.432

>  <b_lp_Chiralities_Consistent>  (14) 
1

>  <s_lp_Variant>  (14) 
3:0-2

>  <s_i_glide_gridfile>  (14) 
pfpi4k_grid

>  <i_i_glide_lignum>  (14) 
7

>  <i_i_glide_rotatable_bonds>  (14) 
0

>  <r_i_docking_score>  (14) 
-3.66351

>  <r_i_glide_ligand_efficiency>  (14) 
-0.215501

>  <r_i_glide_ligand_efficiency_sa>  (14) 
-0.554113

>  <r_i_glide_ligand_efficiency_ln>  (14) 
-0.955728

>  <r_i_glide_gscore>  (14) 
-3.66351

>  <r_i_glide_lipo>  (14) 
-0.346977

>  <r_i_glide_hbond>  (14) 
-0.157244

>  <r_i_glide_metal>  (14) 
-0

>  <r_i_glide_rewards>  (14) 
-1.92301

>  <r_i_glide_evdw>  (14) 
-19.6578

>  <r_i_glide_ecoul>  (14) 
-1.68663

>  <r_i_glide_erotb>  (14) 
0

>  <r_i_glide_esite>  (14) 
-0.000389497

>  <r_i_glide_emodel>  (14) 
-25.6331

>  <r_i_glide_energy>  (14) 
-21.3444

>  <r_i_glide_einternal>  (14) 
0

>  <r_i_glide_intrahb_reward>  (14) 
-0

>  <i_i_glide_confnum>  (14) 
2

>  <i_i_glide_posenum>  (14) 
1

>  <r_i_glide_eff_state_penalty>  (14) 
0

>  <ligand_id>  (14) 
3

>  <original_smiles>  (14) 
Cn1cc2c(c1O)C1C3C2C2CC4C3C3C4C213

>  <smiles>  (14) 
[H]C1=C2C([H])(C(=O)N1C([H])([H])[H])C1([H])C3([H])C2([H])C2([H])C([H])([H])C4([H])C3([H])C3([H])C4([H])C213

$$$$
3:1:2
     RDKit          3D

 32 38  0  0  1  0  0  0  0  0999 V2000
    5.3171   -4.0614    2.7733 C   0  0  0  0  0  0  0  0  0  0  0  0
    5.0307   -3.7309    1.3826 N   0  0  0  0  0  0  0  0  0  0  0  0
    5.9608   -3.1393    0.5185 C   0  0  0  0  0  0  0  0  0  0  0  0
    5.3645   -3.0111   -0.6642 C   0  0  0  0  0  0  0  0  0  0  0  0
    4.0358   -3.5649   -0.7055 C   0  0  1  0  0  0  0  0  0  0  0  0
    3.8400   -3.8116    0.7703 C   0  0  0  0  0  0  0  0  0  0  0  0
    2.7376   -4.0817    1.2730 O   0  0  0  0  0  0  0  0  0  0  0  0
    3.3360   -2.4027   -1.4840 C   0  0  1  0  0  0  0  0  0  0  0  0
    3.8143   -1.1460   -1.3105 C   0  0  1  0  0  0  0  0  0  0  0  0
    5.2683   -1.9172   -1.6636 C   0  0  2  0  0  0  0  0  0  0  0  0
    5.0599   -2.6545   -3.0833 C   0  0  2  0  0  0  0  0  0  0  0  0
    3.7122   -3.3007   -3.7721 C   0  0  0  0  0  0  0  0  0  0  0  0
    2.6057   -2.0540   -3.7598 C   0  0  1  0  0  0  0  0  0  0  0  0
    2.8135   -0.8156   -2.5371 C   0  0  2  0  0  0  0  0  0  0  0  0
    3.8011   -0.3234   -3.3502 C   0  0  1  0  0  0  0  0  0  0  0  0
    3.5408   -1.2689   -4.3425 C   0  0  2  0  0  0  0  0  0  0  0  0
    4.0680   -1.7804   -2.9492 C   0  0  2  0  0  0  0  0  0  0  0  0
    4.5464   -4.7042    3.1988 H   0  0  0  0  0  0  0  0  0  0  0  0
    5.3794   -3.1584    3.3787 H   0  0  0  0  0  0  0  0  0  0  0  0
    6.2570   -4.6093    2.8503 H   0  0  0  0  0  0  0  0  0  0  0  0
    6.8030   -2.5826    0.9385 H   0  0  0  0  0  0  0  0  0  0  0  0
    4.0628   -4.5121   -1.2499 H   0  0  0  0  0  0  0  0  0  0  0  0
    2.2347   -2.5846   -1.4462 H   0  0  0  0  0  0  0  0  0  0  0  0
    3.6294   -0.7190   -0.3285 H   0  0  0  0  0  0  0  0  0  0  0  0
    6.1423   -1.2555   -1.6343 H   0  0  0  0  0  0  0  0  0  0  0  0
    5.7562   -2.2903   -3.8075 H   0  0  0  0  0  0  0  0  0  0  0  0
    3.9779   -3.6409   -4.7654 H   0  0  0  0  0  0  0  0  0  0  0  0
    3.3506   -4.2074   -3.2773 H   0  0  0  0  0  0  0  0  0  0  0  0
    1.6633   -2.1495   -4.3117 H   0  0  0  0  0  0  0  0  0  0  0  0
    1.9940   -0.1321   -2.3593 H   0  0  0  0  0  0  0  0  0  0  0  0
    4.6256    0.3474   -3.1697 H   0  0  0  0  0  0  0  0  0  0  0  0
    4.1495   -1.3947   -5.2216 H   0  0  0  0  0  0  0  0  0  0  0  0
  1 18  1  0
  1 19  1  0
  1 20  1  0
  1  2  1  0
  2  3  1  0
  2  6  1  0
  3 21  1  0
  3  4  2  0
  4  5  1  0
  4 10  1  0
  5  6  1  0
  5  8  1  0
  5 22  1  6
  6  7  2  0
  8 17  1  0
  8  9  1  0
  8 23  1  6
  9 14  1  0
  9 10  1  0
  9 24  1  1
 10 11  1  0
 10 25  1  6
 17 11  1  6
 11 12  1  0
 11 26  1  6
 12 13  1  0
 12 27  1  0
 12 28  1  0
 13 16  1  0
 13 14  1  0
 13 29  1  6
 14 15  1  0
 14 30  1  1
 15 17  1  0
 15 16  1  0
 15 31  1  6
 16 17  1  0
 16 32  1  6
M  END
>  <i_m_ct_stereo_status>  (15) 
1

>  <s_m_source_file>  (15) 
/var/tmp/pbs.5076255.sched01/tmpuj7nejrg/06cdl7mjn.sdf

>  <i_m_source_file_index>  (15) 
7

>  <i_lp_mmshare_version>  (15) 
48012

>  <i_f3d_flags>  (15) 
0

>  <s_epik_input>  (15) 
W09IXWMxbihbQ0gzXSlbY0hdYyhjMVtDQEBIXTJbQ0BdMzQ1KVtDQEBIXTZbQ0BIXTJbQ0BASF03W0NASF0oW0NIMl1bQ0BASF0zNilbQ0BIXTVbQ0BIXTQ3

>  <s_epik_cmdline>  (15) 
J2VwaWtfcHl0aG9uJywgJy1waHQnLCAnMi4wJywgJy1waCcsICc3LjAnLCAnLXRuJywgJzgnLCAnLW1hJywgJzIwMCcsICctaW1hZScsICc8aW5maWxlLm1hZT4nLCAnLW9tYWUnLCAnPG91dGZpbGUubWFlPic=

>  <r_lp_tautomer_probability>  (15) 
0.0382385

>  <r_epik_Ionization_Penalty>  (15) 
2.96932e-08

>  <r_epik_Ionization_Penalty_Charging>  (15) 
0

>  <r_epik_Ionization_Penalty_Neutral>  (15) 
2.96932e-08

>  <r_epik_State_Penalty>  (15) 
2.05757

>  <r_epik_Charging_Adjusted_Penalty>  (15) 
2.05757

>  <i_epik_Tot_Q>  (15) 
0

>  <i_epik_Tot_abs_Q>  (15) 
0

>  <s_lp_Force_Field>  (15) 
OPLS3e

>  <r_lp_Energy>  (15) 
465.432

>  <b_lp_Chiralities_Consistent>  (15) 
1

>  <s_lp_Variant>  (15) 
3:0-2

>  <s_i_glide_gridfile>  (15) 
pfpi4k_grid

>  <i_i_glide_lignum>  (15) 
7

>  <i_i_glide_rotatable_bonds>  (15) 
0

>  <r_i_docking_score>  (15) 
-3.22953

>  <r_i_glide_ligand_efficiency>  (15) 
-0.189972

>  <r_i_glide_ligand_efficiency_sa>  (15) 
-0.488472

>  <r_i_glide_ligand_efficiency_ln>  (15) 
-0.842512

>  <r_i_glide_gscore>  (15) 
-3.22953

>  <r_i_glide_lipo>  (15) 
-0.830563

>  <r_i_glide_hbond>  (15) 
0

>  <r_i_glide_metal>  (15) 
-0

>  <r_i_glide_rewards>  (15) 
-1.92894

>  <r_i_glide_evdw>  (15) 
-12.4184

>  <r_i_glide_ecoul>  (15) 
1.00597

>  <r_i_glide_erotb>  (15) 
0

>  <r_i_glide_esite>  (15) 
0

>  <r_i_glide_emodel>  (15) 
-14.9921

>  <r_i_glide_energy>  (15) 
-11.4124

>  <r_i_glide_einternal>  (15) 
0

>  <r_i_glide_intrahb_reward>  (15) 
-0

>  <i_i_glide_confnum>  (15) 
1

>  <i_i_glide_posenum>  (15) 
2

>  <r_i_glide_eff_state_penalty>  (15) 
0

>  <ligand_id>  (15) 
3

>  <original_smiles>  (15) 
Cn1cc2c(c1O)C1C3C2C2CC4C3C3C4C213

>  <smiles>  (15) 
[H]C1=C2C([H])(C(=O)N1C([H])([H])[H])C1([H])C3([H])C2([H])C2([H])C([H])([H])C4([H])C3([H])C3([H])C4([H])C213

$$$$
4:0:0
     RDKit          3D

 48 51  0  0  1  0  0  0  0  0999 V2000
   -1.0527   -9.7145    2.2366 C   0  0  0  0  0  0  0  0  0  0  0  0
    0.4468   -9.7491    2.6102 C   0  0  0  0  0  0  0  0  0  0  0  0
    0.7217  -11.0278    3.4294 C   0  0  0  0  0  0  0  0  0  0  0  0
    0.9362   -8.4726    3.3572 C   0  0  2  0  0  0  0  0  0  0  0  0
    0.5574   -7.1679    2.6510 C   0  0  0  0  0  0  0  0  0  0  0  0
   -0.5695   -6.6737    2.6489 O   0  0  0  0  0  0  0  0  0  0  0  0
    1.6311   -6.6400    2.0774 O   0  0  0  0  0  0  0  0  0  0  0  0
    2.8044   -7.4243    2.2289 C   0  0  2  0  0  0  0  0  0  0  0  0
    2.4742   -8.3382    3.4274 C   0  0  1  0  0  0  0  0  0  0  0  0
    2.9784   -7.8630    4.8075 C   0  0  0  0  0  0  0  0  0  0  0  0
    2.8305   -6.3632    5.1325 C   0  0  0  0  0  0  0  0  0  0  0  0
    4.0048   -5.4785    4.6696 C   0  0  1  0  0  0  0  0  0  0  0  0
    5.3192   -5.8583    5.3861 C   0  0  0  0  0  0  0  0  0  0  0  0
    4.1022   -5.2753    3.1264 C   0  0  1  0  0  0  0  0  0  0  0  0
    5.3263   -4.4099    2.7291 C   0  0  0  0  0  0  0  0  0  0  0  0
    6.5850   -5.2593    2.4306 C   0  0  0  0  0  0  0  0  0  0  0  0
    6.2146   -6.5770    1.7069 C   0  0  2  0  0  0  0  0  0  0  0  0
    7.4369   -7.4634    1.4293 C   0  0  0  0  0  0  0  0  0  0  0  0
    5.5940   -6.2260    0.4956 O   0  0  0  0  0  0  0  0  0  0  0  0
    4.1477   -6.0978    0.8735 O   0  0  0  0  0  0  0  0  0  0  0  0
    4.0833   -6.5482    2.2209 C   0  0  2  0  0  0  0  0  0  0  0  0
    5.2646   -7.2920    2.4741 O   0  0  0  0  0  0  0  0  0  0  0  0
   -1.6821   -9.5742    3.1157 H   0  0  0  0  0  0  0  0  0  0  0  0
   -1.3533  -10.6397    1.7448 H   0  0  0  0  0  0  0  0  0  0  0  0
   -1.2903   -8.9196    1.5317 H   0  0  0  0  0  0  0  0  0  0  0  0
    1.0146   -9.8388    1.6824 H   0  0  0  0  0  0  0  0  0  0  0  0
    0.2106  -11.0063    4.3939 H   0  0  0  0  0  0  0  0  0  0  0  0
    1.7837  -11.1759    3.6266 H   0  0  0  0  0  0  0  0  0  0  0  0
    0.3812  -11.9163    2.8959 H   0  0  0  0  0  0  0  0  0  0  0  0
    0.5011   -8.4569    4.3567 H   0  0  0  0  0  0  0  0  0  0  0  0
    2.8550   -8.0688    1.3509 H   0  0  0  0  0  0  0  0  0  0  0  0
    2.9450   -9.3033    3.2495 H   0  0  0  0  0  0  0  0  0  0  0  0
    2.4528   -8.4338    5.5739 H   0  0  0  0  0  0  0  0  0  0  0  0
    4.0201   -8.1590    4.9247 H   0  0  0  0  0  0  0  0  0  0  0  0
    1.8821   -5.9654    4.7740 H   0  0  0  0  0  0  0  0  0  0  0  0
    2.7690   -6.2698    6.2167 H   0  0  0  0  0  0  0  0  0  0  0  0
    3.7664   -4.4864    5.0585 H   0  0  0  0  0  0  0  0  0  0  0  0
    5.7841   -6.7503    4.9647 H   0  0  0  0  0  0  0  0  0  0  0  0
    5.1471   -6.0453    6.4459 H   0  0  0  0  0  0  0  0  0  0  0  0
    6.0471   -5.0481    5.3348 H   0  0  0  0  0  0  0  0  0  0  0  0
    3.2164   -4.6903    2.8598 H   0  0  0  0  0  0  0  0  0  0  0  0
    5.0721   -3.8502    1.8281 H   0  0  0  0  0  0  0  0  0  0  0  0
    5.5446   -3.6568    3.4859 H   0  0  0  0  0  0  0  0  0  0  0  0
    7.2782   -4.6782    1.8169 H   0  0  0  0  0  0  0  0  0  0  0  0
    7.1144   -5.4913    3.3552 H   0  0  0  0  0  0  0  0  0  0  0  0
    7.1452   -8.3712    0.9002 H   0  0  0  0  0  0  0  0  0  0  0  0
    7.9295   -7.7640    2.3549 H   0  0  0  0  0  0  0  0  0  0  0  0
    8.1729   -6.9433    0.8150 H   0  0  0  0  0  0  0  0  0  0  0  0
  1  2  1  0
  1 23  1  0
  1 24  1  0
  1 25  1  0
  2  3  1  0
  2  4  1  0
  2 26  1  0
  3 27  1  0
  3 28  1  0
  3 29  1  0
  4  9  1  0
  4  5  1  0
  4 30  1  1
  5  6  2  0
  5  7  1  0
  7  8  1  0
  8 21  1  0
  8  9  1  0
  8 31  1  6
  9 10  1  0
  9 32  1  6
 10 11  1  0
 10 33  1  0
 10 34  1  0
 11 12  1  0
 11 35  1  0
 11 36  1  0
 12 13  1  0
 12 14  1  0
 12 37  1  1
 13 38  1  0
 13 39  1  0
 13 40  1  0
 14 21  1  0
 14 15  1  0
 14 41  1  6
 15 16  1  0
 15 42  1  0
 15 43  1  0
 16 17  1  0
 16 44  1  0
 16 45  1  0
 17 22  1  0
 17 18  1  6
 17 19  1  0
 18 46  1  0
 18 47  1  0
 18 48  1  0
 19 20  1  0
 21 20  1  6
 21 22  1  0
M  END
>  <i_m_ct_stereo_status>  (16) 
1

>  <s_m_source_file>  (16) 
/var/tmp/pbs.5076255.sched01/tmpuj7nejrg/06cdl7mjn.sdf

>  <i_m_source_file_index>  (16) 
8

>  <i_lp_mmshare_version>  (16) 
48012

>  <i_f3d_flags>  (16) 
0

>  <s_epik_input>  (16) 
W0NIM11bQ0hdKFtDSDNdKVtDQEhdKEMoPU8pTzEpW0NAQEhdKFtDQEBIXTFbQ0BdMjM0KVtDSDJdW0NIMl1bQ0BASF0oW0NIM10pW0NASF0yW0NIMl1bQ0gyXVtDQF0oTzQpKFtDSDNdKU9PMw==

>  <s_epik_cmdline>  (16) 
J2VwaWtfcHl0aG9uJywgJy1waHQnLCAnMi4wJywgJy1waCcsICc3LjAnLCAnLXRuJywgJzgnLCAnLW1hJywgJzIwMCcsICctaW1hZScsICc8aW5maWxlLm1hZT4nLCAnLW9tYWUnLCAnPG91dGZpbGUubWFlPic=

>  <r_lp_tautomer_probability>  (16) 
1

>  <r_epik_Ionization_Penalty>  (16) 
1.31558e-16

>  <r_epik_Ionization_Penalty_Charging>  (16) 
0

>  <r_epik_Ionization_Penalty_Neutral>  (16) 
1.31558e-16

>  <r_epik_State_Penalty>  (16) 
-0

>  <r_epik_Charging_Adjusted_Penalty>  (16) 
0

>  <i_epik_Tot_Q>  (16) 
0

>  <i_epik_Tot_abs_Q>  (16) 
0

>  <s_epik_Chemistry_Notes>  (16) 
This compound has an ester and may undergo hydrolysis at high or low pH.

>  <s_lp_Force_Field>  (16) 
OPLS3e

>  <r_lp_Energy>  (16) 
19.9133

>  <b_lp_Chiralities_Consistent>  (16) 
1

>  <s_lp_Variant>  (16) 
4:0-1

>  <s_i_glide_gridfile>  (16) 
pfpi4k_grid

>  <i_i_glide_lignum>  (16) 
8

>  <i_i_glide_rotatable_bonds>  (16) 
1

>  <r_i_docking_score>  (16) 
-3.28672

>  <r_i_glide_ligand_efficiency>  (16) 
-0.149397

>  <r_i_glide_ligand_efficiency_sa>  (16) 
-0.418615

>  <r_i_glide_ligand_efficiency_ln>  (16) 
-0.803395

>  <r_i_glide_gscore>  (16) 
-3.28672

>  <r_i_glide_lipo>  (16) 
-0.343212

>  <r_i_glide_hbond>  (16) 
-0.16

>  <r_i_glide_metal>  (16) 
-0

>  <r_i_glide_rewards>  (16) 
-1.40991

>  <r_i_glide_evdw>  (16) 
-16.837

>  <r_i_glide_ecoul>  (16) 
-3.21654

>  <r_i_glide_erotb>  (16) 
0

>  <r_i_glide_esite>  (16) 
-0.049272

>  <r_i_glide_emodel>  (16) 
-24.1911

>  <r_i_glide_energy>  (16) 
-20.0535

>  <r_i_glide_einternal>  (16) 
1.14476

>  <r_i_glide_intrahb_reward>  (16) 
-0

>  <i_i_glide_confnum>  (16) 
1

>  <i_i_glide_posenum>  (16) 
6

>  <r_i_glide_eff_state_penalty>  (16) 
0

>  <ligand_id>  (16) 
4

>  <original_smiles>  (16) 
CC(C)C1C(=O)OC2C1CCC(C)C1CCC3(C)OOC12O3

>  <smiles>  (16) 
[H]C([H])([H])C12OOC3(O1)C1([H])OC(=O)C([H])(C([H])(C([H])([H])[H])C([H])([H])[H])C1([H])C([H])([H])C([H])([H])C([H])(C([H])([H])[H])C3([H])C([H])([H])C2([H])[H]

$$$$
4:0:1
     RDKit          3D

 48 51  0  0  1  0  0  0  0  0999 V2000
    0.1166  -10.4246    2.5794 C   0  0  0  0  0  0  0  0  0  0  0  0
    1.4108   -9.5869    2.4635 C   0  0  0  0  0  0  0  0  0  0  0  0
    2.5887  -10.4392    2.9849 C   0  0  0  0  0  0  0  0  0  0  0  0
    1.3142   -8.2076    3.1860 C   0  0  2  0  0  0  0  0  0  0  0  0
    0.1859   -7.3185    2.6548 C   0  0  0  0  0  0  0  0  0  0  0  0
   -1.0071   -7.4698    2.9076 O   0  0  0  0  0  0  0  0  0  0  0  0
    0.6941   -6.3264    1.9283 O   0  0  0  0  0  0  0  0  0  0  0  0
    2.1066   -6.3875    1.8025 C   0  0  2  0  0  0  0  0  0  0  0  0
    2.5367   -7.2856    2.9745 C   0  0  1  0  0  0  0  0  0  0  0  0
    2.9852   -6.5722    4.2674 C   0  0  0  0  0  0  0  0  0  0  0  0
    2.1589   -5.3530    4.7187 C   0  0  0  0  0  0  0  0  0  0  0  0
    2.6015   -4.0115    4.1032 C   0  0  1  0  0  0  0  0  0  0  0  0
    4.0362   -3.6351    4.5314 C   0  0  0  0  0  0  0  0  0  0  0  0
    2.2778   -3.8469    2.5880 C   0  0  1  0  0  0  0  0  0  0  0  0
    2.7772   -2.4907    2.0243 C   0  0  0  0  0  0  0  0  0  0  0  0
    4.2039   -2.5827    1.4371 C   0  0  0  0  0  0  0  0  0  0  0  0
    4.4283   -3.9293    0.7092 C   0  0  2  0  0  0  0  0  0  0  0  0
    5.8450   -4.0715    0.1461 C   0  0  0  0  0  0  0  0  0  0  0  0
    3.4921   -3.9957   -0.3360 O   0  0  0  0  0  0  0  0  0  0  0  0
    2.2960   -4.6266    0.3105 O   0  0  0  0  0  0  0  0  0  0  0  0
    2.7336   -4.9817    1.6161 C   0  0  2  0  0  0  0  0  0  0  0  0
    4.1495   -5.0032    1.5926 O   0  0  0  0  0  0  0  0  0  0  0  0
   -0.1585  -10.5969    3.6217 H   0  0  0  0  0  0  0  0  0  0  0  0
    0.2197  -11.4043    2.1097 H   0  0  0  0  0  0  0  0  0  0  0  0
   -0.7300   -9.9492    2.0851 H   0  0  0  0  0  0  0  0  0  0  0  0
    1.5894   -9.4052    1.4023 H   0  0  0  0  0  0  0  0  0  0  0  0
    2.4940  -10.6389    4.0540 H   0  0  0  0  0  0  0  0  0  0  0  0
    3.5585   -9.9718    2.8155 H   0  0  0  0  0  0  0  0  0  0  0  0
    2.6300  -11.4066    2.4815 H   0  0  0  0  0  0  0  0  0  0  0  0
    1.1402   -8.3794    4.2484 H   0  0  0  0  0  0  0  0  0  0  0  0
    2.3072   -6.9502    0.8913 H   0  0  0  0  0  0  0  0  0  0  0  0
    3.4004   -7.8520    2.6377 H   0  0  0  0  0  0  0  0  0  0  0  0
    2.9887   -7.3048    5.0748 H   0  0  0  0  0  0  0  0  0  0  0  0
    4.0320   -6.2868    4.1651 H   0  0  0  0  0  0  0  0  0  0  0  0
    1.0917   -5.5165    4.5734 H   0  0  0  0  0  0  0  0  0  0  0  0
    2.2742   -5.2651    5.7988 H   0  0  0  0  0  0  0  0  0  0  0  0
    1.9719   -3.2701    4.5961 H   0  0  0  0  0  0  0  0  0  0  0  0
    4.7966   -4.1762    3.9676 H   0  0  0  0  0  0  0  0  0  0  0  0
    4.1965   -3.8441    5.5888 H   0  0  0  0  0  0  0  0  0  0  0  0
    4.2210   -2.5682    4.3996 H   0  0  0  0  0  0  0  0  0  0  0  0
    1.1886   -3.8096    2.5401 H   0  0  0  0  0  0  0  0  0  0  0  0
    2.0988   -2.1736    1.2297 H   0  0  0  0  0  0  0  0  0  0  0  0
    2.7287   -1.7061    2.7784 H   0  0  0  0  0  0  0  0  0  0  0  0
    4.3619   -1.7502    0.7450 H   0  0  0  0  0  0  0  0  0  0  0  0
    4.9501   -2.4719    2.2241 H   0  0  0  0  0  0  0  0  0  0  0  0
    5.9543   -5.0227   -0.3750 H   0  0  0  0  0  0  0  0  0  0  0  0
    6.5924   -4.0401    0.9402 H   0  0  0  0  0  0  0  0  0  0  0  0
    6.0734   -3.2743   -0.5628 H   0  0  0  0  0  0  0  0  0  0  0  0
  1  2  1  0
  1 23  1  0
  1 24  1  0
  1 25  1  0
  2  3  1  0
  2  4  1  0
  2 26  1  0
  3 27  1  0
  3 28  1  0
  3 29  1  0
  4  9  1  0
  4  5  1  0
  4 30  1  1
  5  6  2  0
  5  7  1  0
  7  8  1  0
  8 21  1  0
  8  9  1  0
  8 31  1  6
  9 10  1  0
  9 32  1  6
 10 11  1  0
 10 33  1  0
 10 34  1  0
 11 12  1  0
 11 35  1  0
 11 36  1  0
 12 13  1  0
 12 14  1  0
 12 37  1  1
 13 38  1  0
 13 39  1  0
 13 40  1  0
 14 21  1  0
 14 15  1  0
 14 41  1  1
 15 16  1  0
 15 42  1  0
 15 43  1  0
 16 17  1  0
 16 44  1  0
 16 45  1  0
 17 22  1  0
 17 18  1  6
 17 19  1  0
 18 46  1  0
 18 47  1  0
 18 48  1  0
 19 20  1  0
 21 20  1  6
 21 22  1  0
M  END
>  <i_m_ct_stereo_status>  (17) 
1

>  <s_m_source_file>  (17) 
/var/tmp/pbs.5076255.sched01/tmpuj7nejrg/06cdl7mjn.sdf

>  <i_m_source_file_index>  (17) 
8

>  <i_lp_mmshare_version>  (17) 
48012

>  <i_f3d_flags>  (17) 
0

>  <s_epik_input>  (17) 
W0NIM11bQ0hdKFtDSDNdKVtDQEhdKEMoPU8pTzEpW0NAQEhdKFtDQEBIXTFbQ0BdMjM0KVtDSDJdW0NIMl1bQ0BASF0oW0NIM10pW0NASF0yW0NIMl1bQ0gyXVtDQF0oTzQpKFtDSDNdKU9PMw==

>  <s_epik_cmdline>  (17) 
J2VwaWtfcHl0aG9uJywgJy1waHQnLCAnMi4wJywgJy1waCcsICc3LjAnLCAnLXRuJywgJzgnLCAnLW1hJywgJzIwMCcsICctaW1hZScsICc8aW5maWxlLm1hZT4nLCAnLW9tYWUnLCAnPG91dGZpbGUubWFlPic=

>  <r_lp_tautomer_probability>  (17) 
1

>  <r_epik_Ionization_Penalty>  (17) 
1.31558e-16

>  <r_epik_Ionization_Penalty_Charging>  (17) 
0

>  <r_epik_Ionization_Penalty_Neutral>  (17) 
1.31558e-16

>  <r_epik_State_Penalty>  (17) 
-0

>  <r_epik_Charging_Adjusted_Penalty>  (17) 
0

>  <i_epik_Tot_Q>  (17) 
0

>  <i_epik_Tot_abs_Q>  (17) 
0

>  <s_epik_Chemistry_Notes>  (17) 
This compound has an ester and may undergo hydrolysis at high or low pH.

>  <s_lp_Force_Field>  (17) 
OPLS3e

>  <r_lp_Energy>  (17) 
19.9133

>  <b_lp_Chiralities_Consistent>  (17) 
1

>  <s_lp_Variant>  (17) 
4:0-1

>  <s_i_glide_gridfile>  (17) 
pfpi4k_grid

>  <i_i_glide_lignum>  (17) 
8

>  <i_i_glide_rotatable_bonds>  (17) 
1

>  <r_i_docking_score>  (17) 
-3.03706

>  <r_i_glide_ligand_efficiency>  (17) 
-0.138048

>  <r_i_glide_ligand_efficiency_sa>  (17) 
-0.386816

>  <r_i_glide_ligand_efficiency_ln>  (17) 
-0.742368

>  <r_i_glide_gscore>  (17) 
-3.03706

>  <r_i_glide_lipo>  (17) 
-0.349005

>  <r_i_glide_hbond>  (17) 
-0.111295

>  <r_i_glide_metal>  (17) 
-0

>  <r_i_glide_rewards>  (17) 
-1.33046

>  <r_i_glide_evdw>  (17) 
-17.9629

>  <r_i_glide_ecoul>  (17) 
-1.86956

>  <r_i_glide_erotb>  (17) 
0

>  <r_i_glide_esite>  (17) 
-0.0677185

>  <r_i_glide_emodel>  (17) 
-23.6591

>  <r_i_glide_energy>  (17) 
-19.8325

>  <r_i_glide_einternal>  (17) 
0.992731

>  <r_i_glide_intrahb_reward>  (17) 
-0

>  <i_i_glide_confnum>  (17) 
2

>  <i_i_glide_posenum>  (17) 
8

>  <r_i_glide_eff_state_penalty>  (17) 
0

>  <ligand_id>  (17) 
4

>  <original_smiles>  (17) 
CC(C)C1C(=O)OC2C1CCC(C)C1CCC3(C)OOC12O3

>  <smiles>  (17) 
[H]C([H])([H])C12OOC3(O1)C1([H])OC(=O)C([H])(C([H])(C([H])([H])[H])C([H])([H])[H])C1([H])C([H])([H])C([H])([H])C([H])(C([H])([H])[H])C3([H])C([H])([H])C2([H])[H]

$$$$
4:0:2
     RDKit          3D

 48 51  0  0  1  0  0  0  0  0999 V2000
    3.0055   -1.6047    0.9468 C   0  0  0  0  0  0  0  0  0  0  0  0
    4.4316   -1.8370    1.4872 C   0  0  0  0  0  0  0  0  0  0  0  0
    5.4256   -0.9698    0.6915 C   0  0  0  0  0  0  0  0  0  0  0  0
    4.8694   -3.3330    1.5541 C   0  0  2  0  0  0  0  0  0  0  0  0
    4.7298   -4.0730    0.2261 C   0  0  0  0  0  0  0  0  0  0  0  0
    5.4683   -3.9006   -0.7394 O   0  0  0  0  0  0  0  0  0  0  0  0
    3.7069   -4.9225    0.3022 O   0  0  0  0  0  0  0  0  0  0  0  0
    3.0149   -4.8754    1.5416 C   0  0  2  0  0  0  0  0  0  0  0  0
    4.0343   -4.2214    2.4993 C   0  0  1  0  0  0  0  0  0  0  0  0
    4.8972   -5.1958    3.3337 C   0  0  0  0  0  0  0  0  0  0  0  0
    5.4312   -6.4534    2.6179 C   0  0  0  0  0  0  0  0  0  0  0  0
    4.4736   -7.6615    2.6302 C   0  0  1  0  0  0  0  0  0  0  0  0
    4.2121   -8.1657    4.0650 C   0  0  0  0  0  0  0  0  0  0  0  0
    3.2150   -7.5139    1.7226 C   0  0  1  0  0  0  0  0  0  0  0  0
    2.2858   -8.7472    1.8218 C   0  0  0  0  0  0  0  0  0  0  0  0
    1.1814   -8.5829    2.8926 C   0  0  0  0  0  0  0  0  0  0  0  0
    0.6618   -7.1244    2.9593 C   0  0  2  0  0  0  0  0  0  0  0  0
   -0.3904   -6.9223    4.0594 C   0  0  0  0  0  0  0  0  0  0  0  0
    0.1037   -6.7971    1.7104 O   0  0  0  0  0  0  0  0  0  0  0  0
    1.2833   -6.2962    0.9315 O   0  0  0  0  0  0  0  0  0  0  0  0
    2.3459   -6.2276    1.8822 C   0  0  2  0  0  0  0  0  0  0  0  0
    1.7497   -6.2426    3.1683 O   0  0  0  0  0  0  0  0  0  0  0  0
    2.8702   -2.0290   -0.0506 H   0  0  0  0  0  0  0  0  0  0  0  0
    2.7781   -0.5404    0.8683 H   0  0  0  0  0  0  0  0  0  0  0  0
    2.2507   -2.0343    1.6046 H   0  0  0  0  0  0  0  0  0  0  0  0
    4.4468   -1.4569    2.5092 H   0  0  0  0  0  0  0  0  0  0  0  0
    5.5065   -1.2919   -0.3474 H   0  0  0  0  0  0  0  0  0  0  0  0
    6.4217   -0.9994    1.1336 H   0  0  0  0  0  0  0  0  0  0  0  0
    5.1097    0.0742    0.6734 H   0  0  0  0  0  0  0  0  0  0  0  0
    5.9173   -3.3720    1.8502 H   0  0  0  0  0  0  0  0  0  0  0  0
    2.1988   -4.1659    1.4194 H   0  0  0  0  0  0  0  0  0  0  0  0
    3.5026   -3.5923    3.2122 H   0  0  0  0  0  0  0  0  0  0  0  0
    5.7491   -4.6432    3.7324 H   0  0  0  0  0  0  0  0  0  0  0  0
    4.3368   -5.4934    4.2190 H   0  0  0  0  0  0  0  0  0  0  0  0
    5.7608   -6.2325    1.6039 H   0  0  0  0  0  0  0  0  0  0  0  0
    6.3411   -6.7631    3.1326 H   0  0  0  0  0  0  0  0  0  0  0  0
    5.0465   -8.4657    2.1641 H   0  0  0  0  0  0  0  0  0  0  0  0
    3.4899   -7.5489    4.5994 H   0  0  0  0  0  0  0  0  0  0  0  0
    5.1328   -8.1803    4.6487 H   0  0  0  0  0  0  0  0  0  0  0  0
    3.8382   -9.1897    4.0637 H   0  0  0  0  0  0  0  0  0  0  0  0
    3.6035   -7.5002    0.7021 H   0  0  0  0  0  0  0  0  0  0  0  0
    1.8001   -8.8789    0.8619 H   0  0  0  0  0  0  0  0  0  0  0  0
    2.8491   -9.6677    1.9787 H   0  0  0  0  0  0  0  0  0  0  0  0
    0.3595   -9.2691    2.6714 H   0  0  0  0  0  0  0  0  0  0  0  0
    1.5641   -8.8734    3.8704 H   0  0  0  0  0  0  0  0  0  0  0  0
   -0.7422   -5.8908    4.0796 H   0  0  0  0  0  0  0  0  0  0  0  0
    0.0234   -7.1463    5.0429 H   0  0  0  0  0  0  0  0  0  0  0  0
   -1.2540   -7.5713    3.9045 H   0  0  0  0  0  0  0  0  0  0  0  0
  1  2  1  0
  1 23  1  0
  1 24  1  0
  1 25  1  0
  2  3  1  0
  2  4  1  0
  2 26  1  0
  3 27  1  0
  3 28  1  0
  3 29  1  0
  4  9  1  0
  4  5  1  0
  4 30  1  1
  5  6  2  0
  5  7  1  0
  7  8  1  0
  8 21  1  0
  8  9  1  0
  8 31  1  6
  9 10  1  0
  9 32  1  1
 10 11  1  0
 10 33  1  0
 10 34  1  0
 11 12  1  0
 11 35  1  0
 11 36  1  0
 12 13  1  0
 12 14  1  0
 12 37  1  6
 13 38  1  0
 13 39  1  0
 13 40  1  0
 14 21  1  0
 14 15  1  0
 14 41  1  6
 15 16  1  0
 15 42  1  0
 15 43  1  0
 16 17  1  0
 16 44  1  0
 16 45  1  0
 17 22  1  0
 17 18  1  1
 17 19  1  0
 18 46  1  0
 18 47  1  0
 18 48  1  0
 19 20  1  0
 21 20  1  6
 21 22  1  0
M  END
>  <i_m_ct_stereo_status>  (18) 
1

>  <s_m_source_file>  (18) 
/var/tmp/pbs.5076255.sched01/tmpuj7nejrg/06cdl7mjn.sdf

>  <i_m_source_file_index>  (18) 
8

>  <i_lp_mmshare_version>  (18) 
48012

>  <i_f3d_flags>  (18) 
0

>  <s_epik_input>  (18) 
W0NIM11bQ0hdKFtDSDNdKVtDQEhdKEMoPU8pTzEpW0NAQEhdKFtDQEBIXTFbQ0BdMjM0KVtDSDJdW0NIMl1bQ0BASF0oW0NIM10pW0NASF0yW0NIMl1bQ0gyXVtDQF0oTzQpKFtDSDNdKU9PMw==

>  <s_epik_cmdline>  (18) 
J2VwaWtfcHl0aG9uJywgJy1waHQnLCAnMi4wJywgJy1waCcsICc3LjAnLCAnLXRuJywgJzgnLCAnLW1hJywgJzIwMCcsICctaW1hZScsICc8aW5maWxlLm1hZT4nLCAnLW9tYWUnLCAnPG91dGZpbGUubWFlPic=

>  <r_lp_tautomer_probability>  (18) 
1

>  <r_epik_Ionization_Penalty>  (18) 
1.31558e-16

>  <r_epik_Ionization_Penalty_Charging>  (18) 
0

>  <r_epik_Ionization_Penalty_Neutral>  (18) 
1.31558e-16

>  <r_epik_State_Penalty>  (18) 
-0

>  <r_epik_Charging_Adjusted_Penalty>  (18) 
0

>  <i_epik_Tot_Q>  (18) 
0

>  <i_epik_Tot_abs_Q>  (18) 
0

>  <s_epik_Chemistry_Notes>  (18) 
This compound has an ester and may undergo hydrolysis at high or low pH.

>  <s_lp_Force_Field>  (18) 
OPLS3e

>  <r_lp_Energy>  (18) 
19.9133

>  <b_lp_Chiralities_Consistent>  (18) 
1

>  <s_lp_Variant>  (18) 
4:0-1

>  <s_i_glide_gridfile>  (18) 
pfpi4k_grid

>  <i_i_glide_lignum>  (18) 
8

>  <i_i_glide_rotatable_bonds>  (18) 
1

>  <r_i_docking_score>  (18) 
-2.94195

>  <r_i_glide_ligand_efficiency>  (18) 
-0.133725

>  <r_i_glide_ligand_efficiency_sa>  (18) 
-0.374702

>  <r_i_glide_ligand_efficiency_ln>  (18) 
-0.719119

>  <r_i_glide_gscore>  (18) 
-2.94195

>  <r_i_glide_lipo>  (18) 
-0.201831

>  <r_i_glide_hbond>  (18) 
-0.177895

>  <r_i_glide_metal>  (18) 
-0

>  <r_i_glide_rewards>  (18) 
-1.34164

>  <r_i_glide_evdw>  (18) 
-18.4242

>  <r_i_glide_ecoul>  (18) 
-1.63816

>  <r_i_glide_erotb>  (18) 
0

>  <r_i_glide_esite>  (18) 
-0.0536518

>  <r_i_glide_emodel>  (18) 
-24.1584

>  <r_i_glide_energy>  (18) 
-20.0624

>  <r_i_glide_einternal>  (18) 
0.016332

>  <r_i_glide_intrahb_reward>  (18) 
-0

>  <i_i_glide_confnum>  (18) 
1

>  <i_i_glide_posenum>  (18) 
25

>  <r_i_glide_eff_state_penalty>  (18) 
0

>  <ligand_id>  (18) 
4

>  <original_smiles>  (18) 
CC(C)C1C(=O)OC2C1CCC(C)C1CCC3(C)OOC12O3

>  <smiles>  (18) 
[H]C([H])([H])C12OOC3(O1)C1([H])OC(=O)C([H])(C([H])(C([H])([H])[H])C([H])([H])[H])C1([H])C([H])([H])C([H])([H])C([H])(C([H])([H])[H])C3([H])C([H])([H])C2([H])[H]

$$$$
5:0:0
     RDKit          3D

 30 32  0  0  1  0  0  0  0  0999 V2000
    2.6528   -1.6482    1.0973 O   0  0  0  0  0  0  0  0  0  0  0  0
    3.7362   -0.7215    1.0901 C   0  0  2  0  0  0  0  0  0  0  0  0
    4.9247   -1.2058    0.2854 C   0  0  0  0  0  0  0  0  0  0  0  0
    6.1890   -1.2714    0.6940 N   0  0  0  0  0  0  0  0  0  0  0  0
    6.8881   -1.8485   -0.3368 N   0  0  0  0  0  0  0  0  0  0  0  0
    6.1027   -2.0385   -1.3558 N   0  0  0  0  0  0  0  0  0  0  0  0
    4.8603   -1.6422   -0.9915 N   0  0  0  0  0  0  0  0  0  0  0  0
    3.7656   -1.7104   -1.9485 C   0  0  0  0  0  0  0  0  0  0  0  0
    3.6959   -3.0773   -2.6249 C   0  0  0  0  0  0  0  0  0  0  0  0
    2.9581   -2.7895   -3.9242 C   0  0  0  0  0  0  0  0  0  0  0  0
    3.3043   -1.3389   -4.2981 C   0  0  0  0  0  0  0  0  0  0  0  0
    3.9538   -0.7011   -3.0769 C   0  0  0  0  0  0  0  0  0  0  0  0
    4.0323   -0.3630    2.4951 N   0  0  0  0  0  0  0  0  0  0  0  0
    5.0502   -0.6865    3.3366 C   0  0  0  0  0  0  0  0  0  0  0  0
    4.9454   -0.1192    4.5311 N   0  0  0  0  0  0  0  0  0  0  0  0
    3.7664    0.5241    4.3900 C   0  0  0  0  0  0  0  0  0  0  0  0
    3.1639    0.4082    3.2014 N   0  0  0  0  0  0  0  0  0  0  0  0
    2.0073   -1.4049    0.4384 H   0  0  0  0  0  0  0  0  0  0  0  0
    3.3643    0.1716    0.5906 H   0  0  0  0  0  0  0  0  0  0  0  0
    2.8129   -1.5134   -1.4697 H   0  0  0  0  0  0  0  0  0  0  0  0
    4.6789   -3.4737   -2.8880 H   0  0  0  0  0  0  0  0  0  0  0  0
    3.1989   -3.8198   -2.0021 H   0  0  0  0  0  0  0  0  0  0  0  0
    3.2639   -3.4866   -4.6990 H   0  0  0  0  0  0  0  0  0  0  0  0
    1.8827   -2.8968   -3.7676 H   0  0  0  0  0  0  0  0  0  0  0  0
    4.0117   -1.2945   -5.1233 H   0  0  0  0  0  0  0  0  0  0  0  0
    2.4023   -0.8021   -4.5997 H   0  0  0  0  0  0  0  0  0  0  0  0
    3.5178    0.2687   -2.8419 H   0  0  0  0  0  0  0  0  0  0  0  0
    5.0129   -0.5399   -3.2751 H   0  0  0  0  0  0  0  0  0  0  0  0
    5.8836   -1.3276    3.0935 H   0  0  0  0  0  0  0  0  0  0  0  0
    3.3345    1.0826    5.2116 H   0  0  0  0  0  0  0  0  0  0  0  0
  1  2  1  0
  1 18  1  0
  2  3  1  0
  2 13  1  0
  2 19  1  6
  3  7  1  0
  3  4  2  0
  4  5  1  0
  5  6  2  0
  6  7  1  0
  7  8  1  0
  8 12  1  0
  8  9  1  0
  8 20  1  0
  9 10  1  0
  9 21  1  0
  9 22  1  0
 10 11  1  0
 10 23  1  0
 10 24  1  0
 11 12  1  0
 11 25  1  0
 11 26  1  0
 12 27  1  0
 12 28  1  0
 13 17  1  0
 13 14  1  0
 14 15  2  0
 14 29  1  0
 15 16  1  0
 16 17  2  0
 16 30  1  0
M  END
>  <i_m_ct_stereo_status>  (19) 
1

>  <s_m_source_file>  (19) 
/var/tmp/pbs.5076255.sched01/tmpuj7nejrg/06cdl7mjn.sdf

>  <i_m_source_file_index>  (19) 
9

>  <i_lp_mmshare_version>  (19) 
48012

>  <i_f3d_flags>  (19) 
0

>  <s_epik_input>  (19) 
bjFbY0hdbltjSF1uMVtDQEhdKFtPSF0pYzJubm5uMltDSF0zW0NIMl1bQ0gyXVtDSDJdW0NIMl0z

>  <s_epik_cmdline>  (19) 
J2VwaWtfcHl0aG9uJywgJy1waHQnLCAnMi4wJywgJy1waCcsICc3LjAnLCAnLXRuJywgJzgnLCAnLW1hJywgJzIwMCcsICctaW1hZScsICc8aW5maWxlLm1hZT4nLCAnLW9tYWUnLCAnPG91dGZpbGUubWFlPic=

>  <r_lp_tautomer_probability>  (19) 
1

>  <r_epik_Ionization_Penalty>  (19) 
0.135538

>  <r_epik_Ionization_Penalty_Charging>  (19) 
0

>  <r_epik_Ionization_Penalty_Neutral>  (19) 
0.135538

>  <r_epik_State_Penalty>  (19) 
0.124889

>  <r_epik_Charging_Adjusted_Penalty>  (19) 
0.124889

>  <i_epik_Tot_Q>  (19) 
0

>  <i_epik_Tot_abs_Q>  (19) 
0

>  <s_epik_Chemistry_Notes>  (19) 
This compound contains an acetal/aminal-like group ( X-CH(R)-Y where X, Y are N, S, or O) that may be acid/base labile, releasing an aldehyde.

>  <s_lp_Force_Field>  (19) 
OPLS3e

>  <r_lp_Energy>  (19) 
18.8346

>  <b_lp_Chiralities_Consistent>  (19) 
1

>  <s_lp_Variant>  (19) 
5:0-1

>  <s_i_glide_gridfile>  (19) 
pfpi4k_grid

>  <i_i_glide_lignum>  (19) 
9

>  <i_i_glide_rotatable_bonds>  (19) 
4

>  <r_i_docking_score>  (19) 
-3.75571

>  <r_i_glide_ligand_efficiency>  (19) 
-0.220924

>  <r_i_glide_ligand_efficiency_sa>  (19) 
-0.568058

>  <r_i_glide_ligand_efficiency_ln>  (19) 
-0.979782

>  <r_i_glide_gscore>  (19) 
-3.75571

>  <r_i_glide_lipo>  (19) 
-0.255693

>  <r_i_glide_hbond>  (19) 
-0.16

>  <r_i_glide_metal>  (19) 
-0

>  <r_i_glide_rewards>  (19) 
-2.10645

>  <r_i_glide_evdw>  (19) 
-25.3825

>  <r_i_glide_ecoul>  (19) 
-4.88689

>  <r_i_glide_erotb>  (19) 
0.93197

>  <r_i_glide_esite>  (19) 
-0.16338

>  <r_i_glide_emodel>  (19) 
-36.9334

>  <r_i_glide_energy>  (19) 
-30.2694

>  <r_i_glide_einternal>  (19) 
1.61054

>  <r_i_glide_intrahb_reward>  (19) 
-0

>  <i_i_glide_confnum>  (19) 
4

>  <i_i_glide_posenum>  (19) 
29

>  <r_i_glide_eff_state_penalty>  (19) 
0

>  <ligand_id>  (19) 
5

>  <original_smiles>  (19) 
OC(c1nnnn1C1CCCC1)n1cncn1

>  <smiles>  (19) 
[H]OC([H])(c1nnnn1C1([H])C([H])([H])C([H])([H])C([H])([H])C1([H])[H])n1nc([H])nc1[H]

$$$$
5:0:1
     RDKit          3D

 30 32  0  0  1  0  0  0  0  0999 V2000
    4.6442   -5.8334   -0.2918 O   0  0  0  0  0  0  0  0  0  0  0  0
    4.0527   -4.6166    0.1153 C   0  0  2  0  0  0  0  0  0  0  0  0
    5.0226   -3.4596    0.0908 C   0  0  0  0  0  0  0  0  0  0  0  0
    6.1413   -3.3899    0.8014 N   0  0  0  0  0  0  0  0  0  0  0  0
    6.6722   -2.1659    0.4919 N   0  0  0  0  0  0  0  0  0  0  0  0
    5.9005   -1.5229   -0.3272 N   0  0  0  0  0  0  0  0  0  0  0  0
    4.8798   -2.3511   -0.6560 N   0  0  0  0  0  0  0  0  0  0  0  0
    3.8516   -1.9181   -1.6288 C   0  0  0  0  0  0  0  0  0  0  0  0
    3.4103   -3.0366   -2.5980 C   0  0  0  0  0  0  0  0  0  0  0  0
    2.8938   -2.3792   -3.8493 C   0  0  0  0  0  0  0  0  0  0  0  0
    3.6198   -1.0463   -3.9563 C   0  0  0  0  0  0  0  0  0  0  0  0
    4.3384   -0.8285   -2.6127 C   0  0  0  0  0  0  0  0  0  0  0  0
    3.3952   -4.7876    1.3913 N   0  0  0  0  0  0  0  0  0  0  0  0
    3.0630   -5.8929    2.0768 C   0  0  0  0  0  0  0  0  0  0  0  0
    2.2848   -5.6607    3.1274 N   0  0  0  0  0  0  0  0  0  0  0  0
    2.1938   -4.2979    3.0353 C   0  0  0  0  0  0  0  0  0  0  0  0
    2.7716   -3.7396    1.9785 N   0  0  0  0  0  0  0  0  0  0  0  0
    4.3531   -6.0022   -1.1808 H   0  0  0  0  0  0  0  0  0  0  0  0
    3.2115   -4.4774   -0.5610 H   0  0  0  0  0  0  0  0  0  0  0  0
    2.9922   -1.5282   -1.0806 H   0  0  0  0  0  0  0  0  0  0  0  0
    4.2675   -3.6742   -2.8271 H   0  0  0  0  0  0  0  0  0  0  0  0
    2.5598   -3.6379   -2.2652 H   0  0  0  0  0  0  0  0  0  0  0  0
    3.0186   -3.0405   -4.7049 H   0  0  0  0  0  0  0  0  0  0  0  0
    1.8264   -2.2235   -3.6991 H   0  0  0  0  0  0  0  0  0  0  0  0
    4.3591   -1.0924   -4.7577 H   0  0  0  0  0  0  0  0  0  0  0  0
    2.9081   -0.2444   -4.1716 H   0  0  0  0  0  0  0  0  0  0  0  0
    4.2118    0.1838   -2.2310 H   0  0  0  0  0  0  0  0  0  0  0  0
    5.4013   -0.9560   -2.7944 H   0  0  0  0  0  0  0  0  0  0  0  0
    3.3380   -6.8772    1.7223 H   0  0  0  0  0  0  0  0  0  0  0  0
    1.6541   -3.7028    3.7708 H   0  0  0  0  0  0  0  0  0  0  0  0
  1  2  1  0
  1 18  1  0
  2  3  1  0
  2 13  1  0
  2 19  1  6
  3  7  1  0
  3  4  2  0
  4  5  1  0
  5  6  2  0
  6  7  1  0
  7  8  1  0
  8 12  1  0
  8  9  1  0
  8 20  1  0
  9 10  1  0
  9 21  1  0
  9 22  1  0
 10 11  1  0
 10 23  1  0
 10 24  1  0
 11 12  1  0
 11 25  1  0
 11 26  1  0
 12 27  1  0
 12 28  1  0
 13 17  1  0
 13 14  1  0
 14 15  2  0
 14 29  1  0
 15 16  1  0
 16 17  2  0
 16 30  1  0
M  END
>  <i_m_ct_stereo_status>  (20) 
1

>  <s_m_source_file>  (20) 
/var/tmp/pbs.5076255.sched01/tmpuj7nejrg/06cdl7mjn.sdf

>  <i_m_source_file_index>  (20) 
9

>  <i_lp_mmshare_version>  (20) 
48012

>  <i_f3d_flags>  (20) 
0

>  <s_epik_input>  (20) 
bjFbY0hdbltjSF1uMVtDQEhdKFtPSF0pYzJubm5uMltDSF0zW0NIMl1bQ0gyXVtDSDJdW0NIMl0z

>  <s_epik_cmdline>  (20) 
J2VwaWtfcHl0aG9uJywgJy1waHQnLCAnMi4wJywgJy1waCcsICc3LjAnLCAnLXRuJywgJzgnLCAnLW1hJywgJzIwMCcsICctaW1hZScsICc8aW5maWxlLm1hZT4nLCAnLW9tYWUnLCAnPG91dGZpbGUubWFlPic=

>  <r_lp_tautomer_probability>  (20) 
1

>  <r_epik_Ionization_Penalty>  (20) 
0.135538

>  <r_epik_Ionization_Penalty_Charging>  (20) 
0

>  <r_epik_Ionization_Penalty_Neutral>  (20) 
0.135538

>  <r_epik_State_Penalty>  (20) 
0.124889

>  <r_epik_Charging_Adjusted_Penalty>  (20) 
0.124889

>  <i_epik_Tot_Q>  (20) 
0

>  <i_epik_Tot_abs_Q>  (20) 
0

>  <s_epik_Chemistry_Notes>  (20) 
This compound contains an acetal/aminal-like group ( X-CH(R)-Y where X, Y are N, S, or O) that may be acid/base labile, releasing an aldehyde.

>  <s_lp_Force_Field>  (20) 
OPLS3e

>  <r_lp_Energy>  (20) 
18.8346

>  <b_lp_Chiralities_Consistent>  (20) 
1

>  <s_lp_Variant>  (20) 
5:0-1

>  <s_i_glide_gridfile>  (20) 
pfpi4k_grid

>  <i_i_glide_lignum>  (20) 
9

>  <i_i_glide_rotatable_bonds>  (20) 
4

>  <r_i_docking_score>  (20) 
-3.63877

>  <r_i_glide_ligand_efficiency>  (20) 
-0.214045

>  <r_i_glide_ligand_efficiency_sa>  (20) 
-0.550371

>  <r_i_glide_ligand_efficiency_ln>  (20) 
-0.949274

>  <r_i_glide_gscore>  (20) 
-3.63877

>  <r_i_glide_lipo>  (20) 
-0.313997

>  <r_i_glide_hbond>  (20) 
-0.32

>  <r_i_glide_metal>  (20) 
-0

>  <r_i_glide_rewards>  (20) 
-1.87575

>  <r_i_glide_evdw>  (20) 
-24.5235

>  <r_i_glide_ecoul>  (20) 
-5.20048

>  <r_i_glide_erotb>  (20) 
0.93197

>  <r_i_glide_esite>  (20) 
-0.0547431

>  <r_i_glide_emodel>  (20) 
-35.5753

>  <r_i_glide_energy>  (20) 
-29.724

>  <r_i_glide_einternal>  (20) 
3.00711

>  <r_i_glide_intrahb_reward>  (20) 
-0

>  <i_i_glide_confnum>  (20) 
6

>  <i_i_glide_posenum>  (20) 
28

>  <r_i_glide_eff_state_penalty>  (20) 
0

>  <ligand_id>  (20) 
5

>  <original_smiles>  (20) 
OC(c1nnnn1C1CCCC1)n1cncn1

>  <smiles>  (20) 
[H]OC([H])(c1nnnn1C1([H])C([H])([H])C([H])([H])C([H])([H])C1([H])[H])n1nc([H])nc1[H]

$$$$
5:0:2
     RDKit          3D

 30 32  0  0  1  0  0  0  0  0999 V2000
    2.8631   -2.8984    2.1322 O   0  0  0  0  0  0  0  0  0  0  0  0
    3.0014   -1.7285    1.3501 C   0  0  2  0  0  0  0  0  0  0  0  0
    4.3573   -1.5829    0.7334 C   0  0  0  0  0  0  0  0  0  0  0  0
    5.5034   -1.4827    1.4084 N   0  0  0  0  0  0  0  0  0  0  0  0
    6.4702   -1.4430    0.4298 N   0  0  0  0  0  0  0  0  0  0  0  0
    5.9332   -1.5270   -0.7459 N   0  0  0  0  0  0  0  0  0  0  0  0
    4.5893   -1.5923   -0.5883 N   0  0  0  0  0  0  0  0  0  0  0  0
    3.7168   -1.7495   -1.7608 C   0  0  0  0  0  0  0  0  0  0  0  0
    3.8548   -3.1175   -2.4078 C   0  0  0  0  0  0  0  0  0  0  0  0
    3.3255   -2.9228   -3.8285 C   0  0  0  0  0  0  0  0  0  0  0  0
    3.6103   -1.4581   -4.1835 C   0  0  0  0  0  0  0  0  0  0  0  0
    3.9931   -0.7525   -2.8835 C   0  0  0  0  0  0  0  0  0  0  0  0
    2.6411   -0.5881    2.1748 N   0  0  0  0  0  0  0  0  0  0  0  0
    1.6008    0.2472    2.0802 C   0  0  0  0  0  0  0  0  0  0  0  0
    1.5799    1.1850    3.0158 N   0  0  0  0  0  0  0  0  0  0  0  0
    2.7171    0.8666    3.6965 C   0  0  0  0  0  0  0  0  0  0  0  0
    3.3716   -0.2096    3.2561 N   0  0  0  0  0  0  0  0  0  0  0  0
    2.9257   -3.6413    1.5518 H   0  0  0  0  0  0  0  0  0  0  0  0
    2.2518   -1.8229    0.5691 H   0  0  0  0  0  0  0  0  0  0  0  0
    2.6685   -1.6249   -1.5210 H   0  0  0  0  0  0  0  0  0  0  0  0
    4.8974   -3.4336   -2.4519 H   0  0  0  0  0  0  0  0  0  0  0  0
    3.2974   -3.8759   -1.8582 H   0  0  0  0  0  0  0  0  0  0  0  0
    3.7955   -3.6224   -4.5187 H   0  0  0  0  0  0  0  0  0  0  0  0
    2.2487   -3.1020   -3.8527 H   0  0  0  0  0  0  0  0  0  0  0  0
    4.4440   -1.3733   -4.8774 H   0  0  0  0  0  0  0  0  0  0  0  0
    2.7387   -0.9900   -4.6410 H   0  0  0  0  0  0  0  0  0  0  0  0
    3.4430    0.1732   -2.7391 H   0  0  0  0  0  0  0  0  0  0  0  0
    5.0387   -0.4840   -2.9488 H   0  0  0  0  0  0  0  0  0  0  0  0
    0.8449    0.1683    1.3162 H   0  0  0  0  0  0  0  0  0  0  0  0
    3.0758    1.4239    4.5516 H   0  0  0  0  0  0  0  0  0  0  0  0
  1  2  1  0
  1 18  1  0
  2  3  1  0
  2 13  1  0
  2 19  1  6
  3  7  1  0
  3  4  2  0
  4  5  1  0
  5  6  2  0
  6  7  1  0
  7  8  1  0
  8 12  1  0
  8  9  1  0
  8 20  1  0
  9 10  1  0
  9 21  1  0
  9 22  1  0
 10 11  1  0
 10 23  1  0
 10 24  1  0
 11 12  1  0
 11 25  1  0
 11 26  1  0
 12 27  1  0
 12 28  1  0
 13 17  1  0
 13 14  1  0
 14 15  2  0
 14 29  1  0
 15 16  1  0
 16 17  2  0
 16 30  1  0
M  END
>  <i_m_ct_stereo_status>  (21) 
1

>  <s_m_source_file>  (21) 
/var/tmp/pbs.5076255.sched01/tmpuj7nejrg/06cdl7mjn.sdf

>  <i_m_source_file_index>  (21) 
9

>  <i_lp_mmshare_version>  (21) 
48012

>  <i_f3d_flags>  (21) 
0

>  <s_epik_input>  (21) 
bjFbY0hdbltjSF1uMVtDQEhdKFtPSF0pYzJubm5uMltDSF0zW0NIMl1bQ0gyXVtDSDJdW0NIMl0z

>  <s_epik_cmdline>  (21) 
J2VwaWtfcHl0aG9uJywgJy1waHQnLCAnMi4wJywgJy1waCcsICc3LjAnLCAnLXRuJywgJzgnLCAnLW1hJywgJzIwMCcsICctaW1hZScsICc8aW5maWxlLm1hZT4nLCAnLW9tYWUnLCAnPG91dGZpbGUubWFlPic=

>  <r_lp_tautomer_probability>  (21) 
1

>  <r_epik_Ionization_Penalty>  (21) 
0.135538

>  <r_epik_Ionization_Penalty_Charging>  (21) 
0

>  <r_epik_Ionization_Penalty_Neutral>  (21) 
0.135538

>  <r_epik_State_Penalty>  (21) 
0.124889

>  <r_epik_Charging_Adjusted_Penalty>  (21) 
0.124889

>  <i_epik_Tot_Q>  (21) 
0

>  <i_epik_Tot_abs_Q>  (21) 
0

>  <s_epik_Chemistry_Notes>  (21) 
This compound contains an acetal/aminal-like group ( X-CH(R)-Y where X, Y are N, S, or O) that may be acid/base labile, releasing an aldehyde.

>  <s_lp_Force_Field>  (21) 
OPLS3e

>  <r_lp_Energy>  (21) 
18.8346

>  <b_lp_Chiralities_Consistent>  (21) 
1

>  <s_lp_Variant>  (21) 
5:0-1

>  <s_i_glide_gridfile>  (21) 
pfpi4k_grid

>  <i_i_glide_lignum>  (21) 
9

>  <i_i_glide_rotatable_bonds>  (21) 
4

>  <r_i_docking_score>  (21) 
-3.21882

>  <r_i_glide_ligand_efficiency>  (21) 
-0.189342

>  <r_i_glide_ligand_efficiency_sa>  (21) 
-0.486852

>  <r_i_glide_ligand_efficiency_ln>  (21) 
-0.839718

>  <r_i_glide_gscore>  (21) 
-3.21882

>  <r_i_glide_lipo>  (21) 
-0.235788

>  <r_i_glide_hbond>  (21) 
0

>  <r_i_glide_metal>  (21) 
-0

>  <r_i_glide_rewards>  (21) 
-1.80514

>  <r_i_glide_evdw>  (21) 
-25.7179

>  <r_i_glide_ecoul>  (21) 
-4.03759

>  <r_i_glide_erotb>  (21) 
0.93197

>  <r_i_glide_esite>  (21) 
-0.218326

>  <r_i_glide_emodel>  (21) 
-36.2055

>  <r_i_glide_energy>  (21) 
-29.7555

>  <r_i_glide_einternal>  (21) 
0.839291

>  <r_i_glide_intrahb_reward>  (21) 
-0

>  <i_i_glide_confnum>  (21) 
6

>  <i_i_glide_posenum>  (21) 
38

>  <r_i_glide_eff_state_penalty>  (21) 
0

>  <ligand_id>  (21) 
5

>  <original_smiles>  (21) 
OC(c1nnnn1C1CCCC1)n1cncn1

>  <smiles>  (21) 
[H]OC([H])(c1nnnn1C1([H])C([H])([H])C([H])([H])C([H])([H])C1([H])[H])n1nc([H])nc1[H]

$$$$
5:1:0
     RDKit          3D

 29 31  0  0  1  0  0  0  0  0999 V2000
    3.9799   -7.6095    0.9730 O   0  0  0  0  0  0  0  0  0  0  0  0
    3.4465   -6.6423    1.6934 C   0  0  2  0  0  0  0  0  0  0  0  0
    1.9639   -6.8920    1.6145 C   0  0  0  0  0  0  0  0  0  0  0  0
    1.1063   -6.2430    0.8329 N   0  0  0  0  0  0  0  0  0  0  0  0
   -0.1275   -6.7678    1.1339 N   0  0  0  0  0  0  0  0  0  0  0  0
   -0.0223   -7.6875    2.0329 N   0  0  0  0  0  0  0  0  0  0  0  0
    1.2930   -7.8121    2.3506 N   0  0  0  0  0  0  0  0  0  0  0  0
    1.6949   -8.8322    3.3253 C   0  0  0  0  0  0  0  0  0  0  0  0
    1.4546  -10.2605    2.8155 C   0  0  0  0  0  0  0  0  0  0  0  0
    1.1922  -11.1265    4.0535 C   0  0  0  0  0  0  0  0  0  0  0  0
    1.0275  -10.1678    5.2395 C   0  0  0  0  0  0  0  0  0  0  0  0
    0.9258   -8.7580    4.6542 C   0  0  0  0  0  0  0  0  0  0  0  0
    3.8352   -5.3740    1.0747 N   0  0  0  0  0  0  0  0  0  0  0  0
    4.4940   -5.0647   -0.0547 C   0  0  0  0  0  0  0  0  0  0  0  0
    4.6986   -3.7725   -0.2496 N   0  0  0  0  0  0  0  0  0  0  0  0
    4.0807   -3.2781    0.8680 C   0  0  0  0  0  0  0  0  0  0  0  0
    3.5720   -4.1955    1.7019 N   0  0  0  0  0  0  0  0  0  0  0  0
    3.6776   -6.5300    2.7490 H   0  0  0  0  0  0  0  0  0  0  0  0
    2.7515   -8.7544    3.5757 H   0  0  0  0  0  0  0  0  0  0  0  0
    0.5748  -10.3088    2.1722 H   0  0  0  0  0  0  0  0  0  0  0  0
    2.2964  -10.6215    2.2193 H   0  0  0  0  0  0  0  0  0  0  0  0
    0.2938  -11.7264    3.9042 H   0  0  0  0  0  0  0  0  0  0  0  0
    2.0164  -11.8171    4.2326 H   0  0  0  0  0  0  0  0  0  0  0  0
    0.1617  -10.4203    5.8507 H   0  0  0  0  0  0  0  0  0  0  0  0
    1.9068  -10.2306    5.8791 H   0  0  0  0  0  0  0  0  0  0  0  0
    1.3187   -7.9894    5.3249 H   0  0  0  0  0  0  0  0  0  0  0  0
   -0.1289   -8.5408    4.4934 H   0  0  0  0  0  0  0  0  0  0  0  0
    4.8490   -5.8095   -0.7510 H   0  0  0  0  0  0  0  0  0  0  0  0
    4.0177   -2.2187    1.0833 H   0  0  0  0  0  0  0  0  0  0  0  0
  1  2  1  0
  2  3  1  0
  2 13  1  0
  2 18  1  1
  3  7  1  0
  3  4  2  0
  4  5  1  0
  5  6  2  0
  6  7  1  0
  7  8  1  0
  8 12  1  0
  8  9  1  0
  8 19  1  0
  9 10  1  0
  9 20  1  0
  9 21  1  0
 10 11  1  0
 10 22  1  0
 10 23  1  0
 11 12  1  0
 11 24  1  0
 11 25  1  0
 12 26  1  0
 12 27  1  0
 13 17  1  0
 13 14  1  0
 14 15  2  0
 14 28  1  0
 15 16  1  0
 16 17  2  0
 16 29  1  0
M  CHG  1   1  -1
M  END
>  <i_m_ct_stereo_status>  (22) 
1

>  <s_m_source_file>  (22) 
/var/tmp/pbs.5076255.sched01/tmpuj7nejrg/06cdl7mjn.sdf

>  <i_m_source_file_index>  (22) 
10

>  <i_lp_mmshare_version>  (22) 
48012

>  <i_f3d_flags>  (22) 
0

>  <s_epik_input>  (22) 
bjFbY0hdbltjSF1uMVtDQEhdKFtPSF0pYzJubm5uMltDSF0zW0NIMl1bQ0gyXVtDSDJdW0NIMl0z

>  <s_epik_cmdline>  (22) 
J2VwaWtfcHl0aG9uJywgJy1waHQnLCAnMi4wJywgJy1waCcsICc3LjAnLCAnLXRuJywgJzgnLCAnLW1hJywgJzIwMCcsICctaW1hZScsICc8aW5maWxlLm1hZT4nLCAnLW9tYWUnLCAnPG91dGZpbGUubWFlPic=

>  <r_lp_tautomer_probability>  (22) 
1

>  <r_epik_Ionization_Penalty>  (22) 
0.940449

>  <r_epik_Ionization_Penalty_Charging>  (22) 
0.940444

>  <r_epik_Ionization_Penalty_Neutral>  (22) 
5.36958e-06

>  <r_epik_State_Penalty>  (22) 
0.983789

>  <r_epik_Charging_Adjusted_Penalty>  (22) 
1.92423

>  <i_epik_Tot_Q>  (22) 
-1

>  <i_epik_Tot_abs_Q>  (22) 
1

>  <s_epik_Chemistry_Notes>  (22) 
This compound contains an acetal/aminal-like group ( X-CH(R)-Y where X, Y are N, S, or O) that may be acid/base labile, releasing an aldehyde.

>  <s_lp_Force_Field>  (22) 
OPLS3e

>  <r_lp_Energy>  (22) 
29.4611

>  <b_lp_Chiralities_Consistent>  (22) 
1

>  <s_lp_Variant>  (22) 
5:0-2

>  <s_i_glide_gridfile>  (22) 
pfpi4k_grid

>  <i_i_glide_lignum>  (22) 
10

>  <i_i_glide_rotatable_bonds>  (22) 
3

>  <r_i_docking_score>  (22) 
-3.15133

>  <r_i_glide_ligand_efficiency>  (22) 
-0.185372

>  <r_i_glide_ligand_efficiency_sa>  (22) 
-0.476644

>  <r_i_glide_ligand_efficiency_ln>  (22) 
-0.822111

>  <r_i_glide_gscore>  (22) 
-3.15133

>  <r_i_glide_lipo>  (22) 
-0.264534

>  <r_i_glide_hbond>  (22) 
0

>  <r_i_glide_metal>  (22) 
-0

>  <r_i_glide_rewards>  (22) 
-1.90899

>  <r_i_glide_evdw>  (22) 
-23.6866

>  <r_i_glide_ecoul>  (22) 
-2.70434

>  <r_i_glide_erotb>  (22) 
0.938803

>  <r_i_glide_esite>  (22) 
-0.326632

>  <r_i_glide_emodel>  (22) 
-33.582

>  <r_i_glide_energy>  (22) 
-26.3909

>  <r_i_glide_einternal>  (22) 
0.439754

>  <r_i_glide_intrahb_reward>  (22) 
-0

>  <i_i_glide_confnum>  (22) 
5

>  <i_i_glide_posenum>  (22) 
3

>  <r_i_glide_eff_state_penalty>  (22) 
0

>  <ligand_id>  (22) 
5

>  <original_smiles>  (22) 
OC(c1nnnn1C1CCCC1)n1cncn1

>  <smiles>  (22) 
[H]c1nc([H])n(C([H])([O-])c2nnnn2C2([H])C([H])([H])C([H])([H])C([H])([H])C2([H])[H])n1

$$$$
5:1:1
     RDKit          3D

 29 31  0  0  1  0  0  0  0  0999 V2000
    4.4920   -6.8505    0.7085 O   0  0  0  0  0  0  0  0  0  0  0  0
    3.7946   -5.9101    1.2976 C   0  0  2  0  0  0  0  0  0  0  0  0
    2.3573   -6.4048    1.2814 C   0  0  0  0  0  0  0  0  0  0  0  0
    1.3752   -5.8802    0.5560 N   0  0  0  0  0  0  0  0  0  0  0  0
    0.2647   -6.6461    0.8616 N   0  0  0  0  0  0  0  0  0  0  0  0
    0.5553   -7.5609    1.7191 N   0  0  0  0  0  0  0  0  0  0  0  0
    1.8811   -7.4505    1.9957 N   0  0  0  0  0  0  0  0  0  0  0  0
    2.4964   -8.4305    2.8972 C   0  0  0  0  0  0  0  0  0  0  0  0
    2.5176   -9.8391    2.2894 C   0  0  0  0  0  0  0  0  0  0  0  0
    2.4490  -10.8156    3.4690 C   0  0  0  0  0  0  0  0  0  0  0  0
    2.1264   -9.9839    4.7186 C   0  0  0  0  0  0  0  0  0  0  0  0
    1.7451   -8.5880    4.2261 C   0  0  0  0  0  0  0  0  0  0  0  0
    3.9749   -4.6584    0.5389 N   0  0  0  0  0  0  0  0  0  0  0  0
    4.6231   -4.3911   -0.6055 C   0  0  0  0  0  0  0  0  0  0  0  0
    4.5988   -3.1129   -0.9672 N   0  0  0  0  0  0  0  0  0  0  0  0
    3.8394   -2.6098    0.0531 C   0  0  0  0  0  0  0  0  0  0  0  0
    3.4662   -3.4811    0.9942 N   0  0  0  0  0  0  0  0  0  0  0  0
    3.9872   -5.6411    2.3353 H   0  0  0  0  0  0  0  0  0  0  0  0
    3.5219   -8.1392    3.1305 H   0  0  0  0  0  0  0  0  0  0  0  0
    1.6406   -9.9950    1.6607 H   0  0  0  0  0  0  0  0  0  0  0  0
    3.3942   -9.9981    1.6577 H   0  0  0  0  0  0  0  0  0  0  0  0
    1.6826  -11.5687    3.2838 H   0  0  0  0  0  0  0  0  0  0  0  0
    3.3950  -11.3416    3.5931 H   0  0  0  0  0  0  0  0  0  0  0  0
    1.3368  -10.4346    5.3207 H   0  0  0  0  0  0  0  0  0  0  0  0
    3.0152   -9.9108    5.3436 H   0  0  0  0  0  0  0  0  0  0  0  0
    2.0058   -7.8052    4.9403 H   0  0  0  0  0  0  0  0  0  0  0  0
    0.6639   -8.5532    4.0857 H   0  0  0  0  0  0  0  0  0  0  0  0
    5.1445   -5.1454   -1.1793 H   0  0  0  0  0  0  0  0  0  0  0  0
    3.5733   -1.5647    0.1112 H   0  0  0  0  0  0  0  0  0  0  0  0
  1  2  1  0
  2  3  1  0
  2 13  1  0
  2 18  1  1
  3  7  1  0
  3  4  2  0
  4  5  1  0
  5  6  2  0
  6  7  1  0
  7  8  1  0
  8 12  1  0
  8  9  1  0
  8 19  1  0
  9 10  1  0
  9 20  1  0
  9 21  1  0
 10 11  1  0
 10 22  1  0
 10 23  1  0
 11 12  1  0
 11 24  1  0
 11 25  1  0
 12 26  1  0
 12 27  1  0
 13 17  1  0
 13 14  1  0
 14 15  2  0
 14 28  1  0
 15 16  1  0
 16 17  2  0
 16 29  1  0
M  CHG  1   1  -1
M  END
>  <i_m_ct_stereo_status>  (23) 
1

>  <s_m_source_file>  (23) 
/var/tmp/pbs.5076255.sched01/tmpuj7nejrg/06cdl7mjn.sdf

>  <i_m_source_file_index>  (23) 
10

>  <i_lp_mmshare_version>  (23) 
48012

>  <i_f3d_flags>  (23) 
0

>  <s_epik_input>  (23) 
bjFbY0hdbltjSF1uMVtDQEhdKFtPSF0pYzJubm5uMltDSF0zW0NIMl1bQ0gyXVtDSDJdW0NIMl0z

>  <s_epik_cmdline>  (23) 
J2VwaWtfcHl0aG9uJywgJy1waHQnLCAnMi4wJywgJy1waCcsICc3LjAnLCAnLXRuJywgJzgnLCAnLW1hJywgJzIwMCcsICctaW1hZScsICc8aW5maWxlLm1hZT4nLCAnLW9tYWUnLCAnPG91dGZpbGUubWFlPic=

>  <r_lp_tautomer_probability>  (23) 
1

>  <r_epik_Ionization_Penalty>  (23) 
0.940449

>  <r_epik_Ionization_Penalty_Charging>  (23) 
0.940444

>  <r_epik_Ionization_Penalty_Neutral>  (23) 
5.36958e-06

>  <r_epik_State_Penalty>  (23) 
0.983789

>  <r_epik_Charging_Adjusted_Penalty>  (23) 
1.92423

>  <i_epik_Tot_Q>  (23) 
-1

>  <i_epik_Tot_abs_Q>  (23) 
1

>  <s_epik_Chemistry_Notes>  (23) 
This compound contains an acetal/aminal-like group ( X-CH(R)-Y where X, Y are N, S, or O) that may be acid/base labile, releasing an aldehyde.

>  <s_lp_Force_Field>  (23) 
OPLS3e

>  <r_lp_Energy>  (23) 
29.4611

>  <b_lp_Chiralities_Consistent>  (23) 
1

>  <s_lp_Variant>  (23) 
5:0-2

>  <s_i_glide_gridfile>  (23) 
pfpi4k_grid

>  <i_i_glide_lignum>  (23) 
10

>  <i_i_glide_rotatable_bonds>  (23) 
3

>  <r_i_docking_score>  (23) 
-2.811

>  <r_i_glide_ligand_efficiency>  (23) 
-0.165353

>  <r_i_glide_ligand_efficiency_sa>  (23) 
-0.425169

>  <r_i_glide_ligand_efficiency_ln>  (23) 
-0.733328

>  <r_i_glide_gscore>  (23) 
-2.811

>  <r_i_glide_lipo>  (23) 
-0.0196632

>  <r_i_glide_hbond>  (23) 
0

>  <r_i_glide_metal>  (23) 
-0

>  <r_i_glide_rewards>  (23) 
-1.8985

>  <r_i_glide_evdw>  (23) 
-22.21

>  <r_i_glide_ecoul>  (23) 
-2.64694

>  <r_i_glide_erotb>  (23) 
0.938803

>  <r_i_glide_esite>  (23) 
-0.324098

>  <r_i_glide_emodel>  (23) 
-31.1818

>  <r_i_glide_energy>  (23) 
-24.857

>  <r_i_glide_einternal>  (23) 
0.537118

>  <r_i_glide_intrahb_reward>  (23) 
-0

>  <i_i_glide_confnum>  (23) 
5

>  <i_i_glide_posenum>  (23) 
12

>  <r_i_glide_eff_state_penalty>  (23) 
0

>  <ligand_id>  (23) 
5

>  <original_smiles>  (23) 
OC(c1nnnn1C1CCCC1)n1cncn1

>  <smiles>  (23) 
[H]c1nc([H])n(C([H])([O-])c2nnnn2C2([H])C([H])([H])C([H])([H])C([H])([H])C2([H])[H])n1

$$$$
5:1:2
     RDKit          3D

 29 31  0  0  1  0  0  0  0  0999 V2000
    5.0529   -0.3506    1.2757 O   0  0  0  0  0  0  0  0  0  0  0  0
    5.5329   -1.5203    1.5911 C   0  0  2  0  0  0  0  0  0  0  0  0
    6.1672   -2.0437    0.3266 C   0  0  0  0  0  0  0  0  0  0  0  0
    7.4252   -2.4661    0.2811 N   0  0  0  0  0  0  0  0  0  0  0  0
    7.6283   -2.8477   -1.0259 N   0  0  0  0  0  0  0  0  0  0  0  0
    6.5580   -2.6474   -1.7241 N   0  0  0  0  0  0  0  0  0  0  0  0
    5.6029   -2.1343   -0.8916 N   0  0  0  0  0  0  0  0  0  0  0  0
    4.2825   -1.8310   -1.4547 C   0  0  0  0  0  0  0  0  0  0  0  0
    3.5529   -3.0807   -1.9641 C   0  0  0  0  0  0  0  0  0  0  0  0
    2.6259   -2.6076   -3.0891 C   0  0  0  0  0  0  0  0  0  0  0  0
    3.0167   -1.1475   -3.3876 C   0  0  0  0  0  0  0  0  0  0  0  0
    4.2943   -0.8676   -2.6387 C   0  0  0  0  0  0  0  0  0  0  0  0
    4.4132   -2.3656    2.0388 N   0  0  0  0  0  0  0  0  0  0  0  0
    3.1048   -2.3756    1.7682 C   0  0  0  0  0  0  0  0  0  0  0  0
    2.4054   -3.3046    2.3988 N   0  0  0  0  0  0  0  0  0  0  0  0
    3.4118   -3.8780    3.1302 C   0  0  0  0  0  0  0  0  0  0  0  0
    4.6257   -3.3578    2.9376 N   0  0  0  0  0  0  0  0  0  0  0  0
    6.3094   -1.6304    2.3606 H   0  0  0  0  0  0  0  0  0  0  0  0
    3.6383   -1.3283   -0.7457 H   0  0  0  0  0  0  0  0  0  0  0  0
    4.2439   -3.8107   -2.3849 H   0  0  0  0  0  0  0  0  0  0  0  0
    3.0169   -3.5898   -1.1605 H   0  0  0  0  0  0  0  0  0  0  0  0
    2.7519   -3.2439   -3.9659 H   0  0  0  0  0  0  0  0  0  0  0  0
    1.5826   -2.6720   -2.7792 H   0  0  0  0  0  0  0  0  0  0  0  0
    3.0986   -0.9508   -4.4560 H   0  0  0  0  0  0  0  0  0  0  0  0
    2.2488   -0.4771   -2.9778 H   0  0  0  0  0  0  0  0  0  0  0  0
    4.4041    0.1750   -2.3262 H   0  0  0  0  0  0  0  0  0  0  0  0
    5.0923   -1.1114   -3.3098 H   0  0  0  0  0  0  0  0  0  0  0  0
    2.6012   -1.6756    1.1122 H   0  0  0  0  0  0  0  0  0  0  0  0
    3.2358   -4.6955    3.8163 H   0  0  0  0  0  0  0  0  0  0  0  0
  1  2  1  0
  2  3  1  0
  2 13  1  0
  2 18  1  1
  3  7  1  0
  3  4  2  0
  4  5  1  0
  5  6  2  0
  6  7  1  0
  7  8  1  0
  8 12  1  0
  8  9  1  0
  8 19  1  0
  9 10  1  0
  9 20  1  0
  9 21  1  0
 10 11  1  0
 10 22  1  0
 10 23  1  0
 11 12  1  0
 11 24  1  0
 11 25  1  0
 12 26  1  0
 12 27  1  0
 13 17  1  0
 13 14  1  0
 14 15  2  0
 14 28  1  0
 15 16  1  0
 16 17  2  0
 16 29  1  0
M  CHG  1   1  -1
M  END
>  <i_m_ct_stereo_status>  (24) 
1

>  <s_m_source_file>  (24) 
/var/tmp/pbs.5076255.sched01/tmpuj7nejrg/06cdl7mjn.sdf

>  <i_m_source_file_index>  (24) 
10

>  <i_lp_mmshare_version>  (24) 
48012

>  <i_f3d_flags>  (24) 
0

>  <s_epik_input>  (24) 
bjFbY0hdbltjSF1uMVtDQEhdKFtPSF0pYzJubm5uMltDSF0zW0NIMl1bQ0gyXVtDSDJdW0NIMl0z

>  <s_epik_cmdline>  (24) 
J2VwaWtfcHl0aG9uJywgJy1waHQnLCAnMi4wJywgJy1waCcsICc3LjAnLCAnLXRuJywgJzgnLCAnLW1hJywgJzIwMCcsICctaW1hZScsICc8aW5maWxlLm1hZT4nLCAnLW9tYWUnLCAnPG91dGZpbGUubWFlPic=

>  <r_lp_tautomer_probability>  (24) 
1

>  <r_epik_Ionization_Penalty>  (24) 
0.940449

>  <r_epik_Ionization_Penalty_Charging>  (24) 
0.940444

>  <r_epik_Ionization_Penalty_Neutral>  (24) 
5.36958e-06

>  <r_epik_State_Penalty>  (24) 
0.983789

>  <r_epik_Charging_Adjusted_Penalty>  (24) 
1.92423

>  <i_epik_Tot_Q>  (24) 
-1

>  <i_epik_Tot_abs_Q>  (24) 
1

>  <s_epik_Chemistry_Notes>  (24) 
This compound contains an acetal/aminal-like group ( X-CH(R)-Y where X, Y are N, S, or O) that may be acid/base labile, releasing an aldehyde.

>  <s_lp_Force_Field>  (24) 
OPLS3e

>  <r_lp_Energy>  (24) 
29.4611

>  <b_lp_Chiralities_Consistent>  (24) 
1

>  <s_lp_Variant>  (24) 
5:0-2

>  <s_i_glide_gridfile>  (24) 
pfpi4k_grid

>  <i_i_glide_lignum>  (24) 
10

>  <i_i_glide_rotatable_bonds>  (24) 
3

>  <r_i_docking_score>  (24) 
-2.7987

>  <r_i_glide_ligand_efficiency>  (24) 
-0.164629

>  <r_i_glide_ligand_efficiency_sa>  (24) 
-0.423308

>  <r_i_glide_ligand_efficiency_ln>  (24) 
-0.730118

>  <r_i_glide_gscore>  (24) 
-2.7987

>  <r_i_glide_lipo>  (24) 
-0.188119

>  <r_i_glide_hbond>  (24) 
-0.0151309

>  <r_i_glide_metal>  (24) 
-0

>  <r_i_glide_rewards>  (24) 
-2.09265

>  <r_i_glide_evdw>  (24) 
-26.5599

>  <r_i_glide_ecoul>  (24) 
-0.0898902

>  <r_i_glide_erotb>  (24) 
0.938803

>  <r_i_glide_esite>  (24) 
-0.100125

>  <r_i_glide_emodel>  (24) 
-32.7572

>  <r_i_glide_energy>  (24) 
-26.6498

>  <r_i_glide_einternal>  (24) 
0.146916

>  <r_i_glide_intrahb_reward>  (24) 
-0

>  <i_i_glide_confnum>  (24) 
4

>  <i_i_glide_posenum>  (24) 
11

>  <r_i_glide_eff_state_penalty>  (24) 
0

>  <ligand_id>  (24) 
5

>  <original_smiles>  (24) 
OC(c1nnnn1C1CCCC1)n1cncn1

>  <smiles>  (24) 
[H]c1nc([H])n(C([H])([O-])c2nnnn2C2([H])C([H])([H])C([H])([H])C([H])([H])C2([H])[H])n1

$$$$
6:0:0
     RDKit          3D

 48 50  0  0  1  0  0  0  0  0999 V2000
    6.1249   -2.9579   -2.2405 C   0  0  0  0  0  0  0  0  0  0  0  0
    5.5009   -3.0525   -0.8587 C   0  0  0  0  0  0  0  0  0  0  0  0
    5.4818   -1.9303   -0.0138 C   0  0  0  0  0  0  0  0  0  0  0  0
    4.8750   -2.0690    1.2611 C   0  0  0  0  0  0  0  0  0  0  0  0
    4.3343   -3.2172    1.6942 N   0  0  0  0  0  0  0  0  0  0  0  0
    4.3682   -4.2969    0.8865 C   0  0  0  0  0  0  0  0  0  0  0  0
    3.7397   -5.5604    1.4389 C   0  0  0  0  0  0  0  0  0  0  0  0
    2.2245   -5.6216    1.1517 C   0  0  0  0  0  0  0  0  0  0  0  0
    1.5190   -6.5894    1.9855 N   0  0  0  0  0  0  0  0  0  0  0  0
    1.1238   -7.9233    1.5298 C   0  0  0  0  0  0  0  0  0  0  0  0
    0.4655   -8.6554    2.7430 C   0  0  2  0  0  0  0  0  0  0  0  0
    1.1769   -9.9782    3.1168 C   0  0  0  0  0  0  0  0  0  0  0  0
    0.6235  -10.7073    4.3073 N   0  0  0  0  0  0  0  0  0  0  0  0
    0.9331  -10.1502    5.6614 C   0  0  0  0  0  0  0  0  0  0  0  0
    0.9738  -12.1453    4.2611 C   0  0  0  0  0  0  0  0  0  0  0  0
   -1.0604   -8.8889    2.5431 C   0  0  0  0  0  0  0  0  0  0  0  0
   -1.6871   -7.6754    3.2060 C   0  0  0  0  0  0  0  0  0  0  0  0
   -0.7901   -7.3207    4.2541 O   0  0  0  0  0  0  0  0  0  0  0  0
    0.5452   -7.5927    3.8493 C   0  0  2  0  0  0  0  0  0  0  0  0
    1.1787   -6.3744    3.2486 C   0  0  0  0  0  0  0  0  0  0  0  0
    1.3712   -5.3546    3.9113 O   0  0  0  0  0  0  0  0  0  0  0  0
    4.9339   -4.2615   -0.4142 C   0  0  0  0  0  0  0  0  0  0  0  0
    6.7738   -2.0912   -2.3198 H   0  0  0  0  0  0  0  0  0  0  0  0
    5.3552   -2.8993   -3.0088 H   0  0  0  0  0  0  0  0  0  0  0  0
    6.7511   -3.8220   -2.4398 H   0  0  0  0  0  0  0  0  0  0  0  0
    5.8948   -0.9793   -0.3026 H   0  0  0  0  0  0  0  0  0  0  0  0
    4.8456   -1.2329    1.9399 H   0  0  0  0  0  0  0  0  0  0  0  0
    4.2356   -6.4255    1.0019 H   0  0  0  0  0  0  0  0  0  0  0  0
    3.9426   -5.5902    2.5146 H   0  0  0  0  0  0  0  0  0  0  0  0
    1.8124   -4.6373    1.3738 H   0  0  0  0  0  0  0  0  0  0  0  0
    2.0264   -5.8370    0.1021 H   0  0  0  0  0  0  0  0  0  0  0  0
    0.4176   -7.8028    0.7087 H   0  0  0  0  0  0  0  0  0  0  0  0
    1.9808   -8.4889    1.1533 H   0  0  0  0  0  0  0  0  0  0  0  0
    1.0781  -10.6342    2.2470 H   0  0  0  0  0  0  0  0  0  0  0  0
    2.2541   -9.8182    3.2341 H   0  0  0  0  0  0  0  0  0  0  0  0
    2.0112  -10.0232    5.7869 H   0  0  0  0  0  0  0  0  0  0  0  0
    0.5834  -10.8358    6.4343 H   0  0  0  0  0  0  0  0  0  0  0  0
    0.4179   -9.2152    5.8646 H   0  0  0  0  0  0  0  0  0  0  0  0
    2.0586  -12.2762    4.3220 H   0  0  0  0  0  0  0  0  0  0  0  0
    0.6065  -12.6155    3.3437 H   0  0  0  0  0  0  0  0  0  0  0  0
    0.5135  -12.6599    5.0998 H   0  0  0  0  0  0  0  0  0  0  0  0
   -1.3767   -8.9871    1.5014 H   0  0  0  0  0  0  0  0  0  0  0  0
   -1.4445   -9.7772    3.0588 H   0  0  0  0  0  0  0  0  0  0  0  0
   -1.7730   -6.8348    2.5194 H   0  0  0  0  0  0  0  0  0  0  0  0
   -2.6613   -7.9091    3.6290 H   0  0  0  0  0  0  0  0  0  0  0  0
    1.2211   -7.7807    4.6740 H   0  0  0  0  0  0  0  0  0  0  0  0
    4.9090   -5.1371   -1.0439 H   0  0  0  0  0  0  0  0  0  0  0  0
   -0.4019  -10.6826    4.2597 H   0  0  0  0  0  0  0  0  0  0  0  0
  1  2  1  0
  1 23  1  0
  1 24  1  0
  1 25  1  0
  2 22  2  0
  2  3  1  0
  3  4  2  0
  3 26  1  0
  4  5  1  0
  4 27  1  0
  5  6  2  0
  6  7  1  0
  6 22  1  0
  7  8  1  0
  7 28  1  0
  7 29  1  0
  8  9  1  0
  8 30  1  0
  8 31  1  0
  9 20  1  0
  9 10  1  0
 10 11  1  0
 10 32  1  0
 10 33  1  0
 11 19  1  0
 11 12  1  1
 11 16  1  0
 12 13  1  0
 12 34  1  0
 12 35  1  0
 13 14  1  0
 13 15  1  0
 13 48  1  0
 14 36  1  0
 14 37  1  0
 14 38  1  0
 15 39  1  0
 15 40  1  0
 15 41  1  0
 16 17  1  0
 16 42  1  0
 16 43  1  0
 17 18  1  0
 17 44  1  0
 17 45  1  0
 18 19  1  0
 19 20  1  0
 19 46  1  1
 20 21  2  0
 22 47  1  0
M  CHG  1  13   1
M  END
>  <i_m_ct_stereo_status>  (25) 
1

>  <s_m_source_file>  (25) 
/var/tmp/pbs.5076255.sched01/tmpuj7nejrg/06cdl7mjn.sdf

>  <i_m_source_file_index>  (25) 
11

>  <i_lp_mmshare_version>  (25) 
48012

>  <i_f3d_flags>  (25) 
0

>  <s_epik_input>  (25) 
W0NIM11jMVtjSF1bY0hdbmMoW2NIXTEpW0NIMl1bQ0gyXU4oW0NIMl0yKUMoPU8pW0NAQEhdKE9bQ0gyXVtDSDJdMylbQ0BdMjNbQ0gyXU4oW0NIM10pW0NIM10=

>  <s_epik_cmdline>  (25) 
J2VwaWtfcHl0aG9uJywgJy1waHQnLCAnMi4wJywgJy1waCcsICc3LjAnLCAnLXRuJywgJzgnLCAnLW1hJywgJzIwMCcsICctaW1hZScsICc8aW5maWxlLm1hZT4nLCAnLW9tYWUnLCAnPG91dGZpbGUubWFlPic=

>  <r_epik_Ionization_Penalty>  (25) 
0.117792

>  <r_epik_Ionization_Penalty_Charging>  (25) 
0.00132081

>  <r_epik_Ionization_Penalty_Neutral>  (25) 
0.116471

>  <r_epik_State_Penalty>  (25) 
0.106087

>  <r_epik_Charging_Adjusted_Penalty>  (25) 
0.107408

>  <i_epik_Tot_Q>  (25) 
1

>  <i_epik_Tot_abs_Q>  (25) 
1

>  <s_lp_Force_Field>  (25) 
OPLS3e

>  <r_lp_Energy>  (25) 
7.4164

>  <b_lp_Chiralities_Consistent>  (25) 
1

>  <s_lp_Variant>  (25) 
6:0-1

>  <s_i_glide_gridfile>  (25) 
pfpi4k_grid

>  <i_i_glide_lignum>  (25) 
11

>  <i_i_glide_rotatable_bonds>  (25) 
5

>  <r_i_docking_score>  (25) 
-3.0785

>  <r_i_glide_ligand_efficiency>  (25) 
-0.139932

>  <r_i_glide_ligand_efficiency_sa>  (25) 
-0.392095

>  <r_i_glide_ligand_efficiency_ln>  (25) 
-0.752499

>  <r_i_glide_gscore>  (25) 
-3.0785

>  <r_i_glide_lipo>  (25) 
-0.430677

>  <r_i_glide_hbond>  (25) 
-0.19615

>  <r_i_glide_metal>  (25) 
-0

>  <r_i_glide_rewards>  (25) 
-1.33359

>  <r_i_glide_evdw>  (25) 
-24.2818

>  <r_i_glide_ecoul>  (25) 
-3.95173

>  <r_i_glide_erotb>  (25) 
0.796072

>  <r_i_glide_esite>  (25) 
-0.107315

>  <r_i_glide_emodel>  (25) 
-34.4601

>  <r_i_glide_energy>  (25) 
-28.2335

>  <r_i_glide_einternal>  (25) 
2.29965

>  <r_i_glide_intrahb_reward>  (25) 
-0

>  <i_i_glide_confnum>  (25) 
1

>  <i_i_glide_posenum>  (25) 
37

>  <r_i_glide_eff_state_penalty>  (25) 
0

>  <ligand_id>  (25) 
6

>  <original_smiles>  (25) 
Cc1ccnc(CCN2CC3(CN(C)C)CCOC3C2=O)c1

>  <smiles>  (25) 
[H]c1nc(C([H])([H])C([H])([H])N2C(=O)C3([H])OC([H])([H])C([H])([H])C3(C([H])([H])[N+]([H])(C([H])([H])[H])C([H])([H])[H])C2([H])[H])c([H])c(C([H])([H])[H])c1[H]

$$$$
6:0:1
     RDKit          3D

 48 50  0  0  1  0  0  0  0  0999 V2000
   -1.5782    2.2521    3.1478 C   0  0  0  0  0  0  0  0  0  0  0  0
   -0.1026    1.9901    3.2861 C   0  0  0  0  0  0  0  0  0  0  0  0
    0.6264    2.4757    4.3968 C   0  0  0  0  0  0  0  0  0  0  0  0
    1.9922    2.2200    4.4640 C   0  0  0  0  0  0  0  0  0  0  0  0
    2.6723    1.5254    3.5200 N   0  0  0  0  0  0  0  0  0  0  0  0
    1.9764    1.0563    2.4501 C   0  0  0  0  0  0  0  0  0  0  0  0
    2.8023    0.2916    1.4099 C   0  0  0  0  0  0  0  0  0  0  0  0
    3.3005   -1.0755    1.9380 C   0  0  0  0  0  0  0  0  0  0  0  0
    4.0046   -1.8788    0.9653 N   0  0  0  0  0  0  0  0  0  0  0  0
    3.4144   -3.0101    0.2746 C   0  0  0  0  0  0  0  0  0  0  0  0
    4.4670   -3.5096   -0.7471 C   0  0  2  0  0  0  0  0  0  0  0  0
    3.9213   -3.4013   -2.2008 C   0  0  0  0  0  0  0  0  0  0  0  0
    3.8909   -2.0106   -2.8128 N   0  0  0  0  0  0  0  0  0  0  0  0
    3.8331   -0.8185   -1.9391 C   0  0  0  0  0  0  0  0  0  0  0  0
    2.7950   -1.9000   -3.8119 C   0  0  0  0  0  0  0  0  0  0  0  0
    4.9719   -4.9111   -0.4230 C   0  0  0  0  0  0  0  0  0  0  0  0
    6.2463   -4.6838    0.4138 C   0  0  0  0  0  0  0  0  0  0  0  0
    6.8085   -3.4987   -0.1126 O   0  0  0  0  0  0  0  0  0  0  0  0
    5.7330   -2.6545   -0.5093 C   0  0  2  0  0  0  0  0  0  0  0  0
    5.3247   -1.6786    0.6086 C   0  0  0  0  0  0  0  0  0  0  0  0
    6.0300   -0.7543    0.9825 O   0  0  0  0  0  0  0  0  0  0  0  0
    0.6041    1.2608    2.2975 C   0  0  0  0  0  0  0  0  0  0  0  0
   -1.9068    3.0572    3.8084 H   0  0  0  0  0  0  0  0  0  0  0  0
   -2.1464    1.3546    3.3951 H   0  0  0  0  0  0  0  0  0  0  0  0
   -1.8195    2.5405    2.1230 H   0  0  0  0  0  0  0  0  0  0  0  0
    0.1300    3.0407    5.1751 H   0  0  0  0  0  0  0  0  0  0  0  0
    2.5802    2.5803    5.2992 H   0  0  0  0  0  0  0  0  0  0  0  0
    2.1889    0.1827    0.5123 H   0  0  0  0  0  0  0  0  0  0  0  0
    3.6389    0.9321    1.1202 H   0  0  0  0  0  0  0  0  0  0  0  0
    3.9752   -0.8709    2.7694 H   0  0  0  0  0  0  0  0  0  0  0  0
    2.4641   -1.6386    2.3432 H   0  0  0  0  0  0  0  0  0  0  0  0
    3.1212   -3.7655    0.9892 H   0  0  0  0  0  0  0  0  0  0  0  0
    2.4992   -2.6992   -0.2226 H   0  0  0  0  0  0  0  0  0  0  0  0
    4.5293   -4.0364   -2.8647 H   0  0  0  0  0  0  0  0  0  0  0  0
    2.9251   -3.8577   -2.2361 H   0  0  0  0  0  0  0  0  0  0  0  0
    2.9766   -0.8969   -1.2607 H   0  0  0  0  0  0  0  0  0  0  0  0
    3.7628    0.1057   -2.5153 H   0  0  0  0  0  0  0  0  0  0  0  0
    4.7581   -0.6714   -1.4058 H   0  0  0  0  0  0  0  0  0  0  0  0
    1.8219   -2.0033   -3.2937 H   0  0  0  0  0  0  0  0  0  0  0  0
    2.8651   -2.6605   -4.6193 H   0  0  0  0  0  0  0  0  0  0  0  0
    2.8328   -0.8920   -4.2699 H   0  0  0  0  0  0  0  0  0  0  0  0
    4.2532   -5.5304    0.1043 H   0  0  0  0  0  0  0  0  0  0  0  0
    5.2551   -5.4417   -1.3287 H   0  0  0  0  0  0  0  0  0  0  0  0
    5.9998   -4.5088    1.4739 H   0  0  0  0  0  0  0  0  0  0  0  0
    6.9555   -5.5305    0.3475 H   0  0  0  0  0  0  0  0  0  0  0  0
    6.0612   -2.1111   -1.4199 H   0  0  0  0  0  0  0  0  0  0  0  0
    0.0730    0.8871    1.4275 H   0  0  0  0  0  0  0  0  0  0  0  0
    4.7600   -1.9537   -3.3419 H   0  0  0  0  0  0  0  0  0  0  0  0
  1  2  1  0
  1 23  1  0
  1 24  1  0
  1 25  1  0
  2 22  2  0
  2  3  1  0
  3  4  2  0
  3 26  1  0
  4  5  1  0
  4 27  1  0
  5  6  2  0
  6  7  1  0
  6 22  1  0
  7  8  1  0
  7 28  1  0
  7 29  1  0
  8  9  1  0
  8 30  1  0
  8 31  1  0
  9 20  1  0
  9 10  1  0
 10 11  1  0
 10 32  1  0
 10 33  1  0
 11 19  1  0
 11 12  1  6
 11 16  1  0
 12 13  1  0
 12 34  1  0
 12 35  1  0
 13 14  1  0
 13 15  1  0
 13 48  1  0
 14 36  1  0
 14 37  1  0
 14 38  1  0
 15 39  1  0
 15 40  1  0
 15 41  1  0
 16 17  1  0
 16 42  1  0
 16 43  1  0
 17 18  1  0
 17 44  1  0
 17 45  1  0
 18 19  1  0
 19 20  1  0
 19 46  1  6
 20 21  2  0
 22 47  1  0
M  CHG  1  13   1
M  END
>  <i_m_ct_stereo_status>  (26) 
1

>  <s_m_source_file>  (26) 
/var/tmp/pbs.5076255.sched01/tmpuj7nejrg/06cdl7mjn.sdf

>  <i_m_source_file_index>  (26) 
11

>  <i_lp_mmshare_version>  (26) 
48012

>  <i_f3d_flags>  (26) 
0

>  <s_epik_input>  (26) 
W0NIM11jMVtjSF1bY0hdbmMoW2NIXTEpW0NIMl1bQ0gyXU4oW0NIMl0yKUMoPU8pW0NAQEhdKE9bQ0gyXVtDSDJdMylbQ0BdMjNbQ0gyXU4oW0NIM10pW0NIM10=

>  <s_epik_cmdline>  (26) 
J2VwaWtfcHl0aG9uJywgJy1waHQnLCAnMi4wJywgJy1waCcsICc3LjAnLCAnLXRuJywgJzgnLCAnLW1hJywgJzIwMCcsICctaW1hZScsICc8aW5maWxlLm1hZT4nLCAnLW9tYWUnLCAnPG91dGZpbGUubWFlPic=

>  <r_epik_Ionization_Penalty>  (26) 
0.117792

>  <r_epik_Ionization_Penalty_Charging>  (26) 
0.00132081

>  <r_epik_Ionization_Penalty_Neutral>  (26) 
0.116471

>  <r_epik_State_Penalty>  (26) 
0.106087

>  <r_epik_Charging_Adjusted_Penalty>  (26) 
0.107408

>  <i_epik_Tot_Q>  (26) 
1

>  <i_epik_Tot_abs_Q>  (26) 
1

>  <s_lp_Force_Field>  (26) 
OPLS3e

>  <r_lp_Energy>  (26) 
7.4164

>  <b_lp_Chiralities_Consistent>  (26) 
1

>  <s_lp_Variant>  (26) 
6:0-1

>  <s_i_glide_gridfile>  (26) 
pfpi4k_grid

>  <i_i_glide_lignum>  (26) 
11

>  <i_i_glide_rotatable_bonds>  (26) 
5

>  <r_i_docking_score>  (26) 
-2.62993

>  <r_i_glide_ligand_efficiency>  (26) 
-0.119542

>  <r_i_glide_ligand_efficiency_sa>  (26) 
-0.334962

>  <r_i_glide_ligand_efficiency_ln>  (26) 
-0.64285

>  <r_i_glide_gscore>  (26) 
-2.62993

>  <r_i_glide_lipo>  (26) 
-0.292577

>  <r_i_glide_hbond>  (26) 
0

>  <r_i_glide_metal>  (26) 
-0

>  <r_i_glide_rewards>  (26) 
-1.42755

>  <r_i_glide_evdw>  (26) 
-24.4658

>  <r_i_glide_ecoul>  (26) 
-3.13123

>  <r_i_glide_erotb>  (26) 
0.796072

>  <r_i_glide_esite>  (26) 
-0.0128982

>  <r_i_glide_emodel>  (26) 
-28.9307

>  <r_i_glide_energy>  (26) 
-27.597

>  <r_i_glide_einternal>  (26) 
5.92061

>  <r_i_glide_intrahb_reward>  (26) 
-0

>  <i_i_glide_confnum>  (26) 
1

>  <i_i_glide_posenum>  (26) 
4

>  <r_i_glide_eff_state_penalty>  (26) 
0

>  <ligand_id>  (26) 
6

>  <original_smiles>  (26) 
Cc1ccnc(CCN2CC3(CN(C)C)CCOC3C2=O)c1

>  <smiles>  (26) 
[H]c1nc(C([H])([H])C([H])([H])N2C(=O)C3([H])OC([H])([H])C([H])([H])C3(C([H])([H])[N+]([H])(C([H])([H])[H])C([H])([H])[H])C2([H])[H])c([H])c(C([H])([H])[H])c1[H]

$$$$
6:0:2
     RDKit          3D

 48 50  0  0  1  0  0  0  0  0999 V2000
    6.9031   -3.1591   -1.5264 C   0  0  0  0  0  0  0  0  0  0  0  0
    5.7074   -3.1172   -0.5991 C   0  0  0  0  0  0  0  0  0  0  0  0
    5.1105   -1.8903   -0.2577 C   0  0  0  0  0  0  0  0  0  0  0  0
    4.0070   -1.9078    0.6227 C   0  0  0  0  0  0  0  0  0  0  0  0
    3.5131   -3.0414    1.1549 N   0  0  0  0  0  0  0  0  0  0  0  0
    4.0771   -4.2170    0.8150 C   0  0  0  0  0  0  0  0  0  0  0  0
    3.4883   -5.4525    1.4688 C   0  0  0  0  0  0  0  0  0  0  0  0
    2.0210   -5.6968    1.0454 C   0  0  0  0  0  0  0  0  0  0  0  0
    1.2975   -6.6494    1.8843 N   0  0  0  0  0  0  0  0  0  0  0  0
    0.6528   -7.8259    1.3197 C   0  0  0  0  0  0  0  0  0  0  0  0
    0.1386   -8.6379    2.5454 C   0  0  2  0  0  0  0  0  0  0  0  0
    0.8287  -10.0259    2.6996 C   0  0  0  0  0  0  0  0  0  0  0  0
    2.3008  -10.0006    2.9936 N   0  0  0  0  0  0  0  0  0  0  0  0
    3.1896   -9.4228    1.9498 C   0  0  0  0  0  0  0  0  0  0  0  0
    2.7952  -11.3436    3.3778 C   0  0  0  0  0  0  0  0  0  0  0  0
   -1.3997   -8.7622    2.5073 C   0  0  0  0  0  0  0  0  0  0  0  0
   -1.8848   -7.5478    3.2975 C   0  0  0  0  0  0  0  0  0  0  0  0
   -0.9037   -7.3696    4.3007 O   0  0  0  0  0  0  0  0  0  0  0  0
    0.3667   -7.7468    3.7739 C   0  0  2  0  0  0  0  0  0  0  0  0
    1.1163   -6.5433    3.2175 C   0  0  0  0  0  0  0  0  0  0  0  0
    1.4811   -5.6171    3.9174 O   0  0  0  0  0  0  0  0  0  0  0  0
    5.1854   -4.3090   -0.0574 C   0  0  0  0  0  0  0  0  0  0  0  0
    7.3677   -2.1823   -1.6302 H   0  0  0  0  0  0  0  0  0  0  0  0
    6.6041   -3.5078   -2.5164 H   0  0  0  0  0  0  0  0  0  0  0  0
    7.6691   -3.8172   -1.1252 H   0  0  0  0  0  0  0  0  0  0  0  0
    5.4685   -0.9550   -0.6484 H   0  0  0  0  0  0  0  0  0  0  0  0
    3.5244   -0.9869    0.9063 H   0  0  0  0  0  0  0  0  0  0  0  0
    4.1018   -6.3205    1.2331 H   0  0  0  0  0  0  0  0  0  0  0  0
    3.5788   -5.3052    2.5439 H   0  0  0  0  0  0  0  0  0  0  0  0
    1.4805   -4.7627    1.1302 H   0  0  0  0  0  0  0  0  0  0  0  0
    1.9717   -5.9920   -0.0026 H   0  0  0  0  0  0  0  0  0  0  0  0
   -0.1528   -7.5281    0.6390 H   0  0  0  0  0  0  0  0  0  0  0  0
    1.3994   -8.3889    0.7613 H   0  0  0  0  0  0  0  0  0  0  0  0
    0.3441  -10.5342    3.5420 H   0  0  0  0  0  0  0  0  0  0  0  0
    0.6128  -10.6530    1.8306 H   0  0  0  0  0  0  0  0  0  0  0  0
    3.0317   -9.9356    0.9857 H   0  0  0  0  0  0  0  0  0  0  0  0
    4.2401   -9.5441    2.2209 H   0  0  0  0  0  0  0  0  0  0  0  0
    3.0013   -8.3554    1.8100 H   0  0  0  0  0  0  0  0  0  0  0  0
    2.6738  -12.0464    2.5350 H   0  0  0  0  0  0  0  0  0  0  0  0
    2.2662  -11.7415    4.2597 H   0  0  0  0  0  0  0  0  0  0  0  0
    3.8672  -11.2857    3.6192 H   0  0  0  0  0  0  0  0  0  0  0  0
   -1.7946   -8.7878    1.4846 H   0  0  0  0  0  0  0  0  0  0  0  0
   -1.7323   -9.6809    3.0106 H   0  0  0  0  0  0  0  0  0  0  0  0
   -1.9285   -6.6658    2.6576 H   0  0  0  0  0  0  0  0  0  0  0  0
   -2.8650   -7.7227    3.7379 H   0  0  0  0  0  0  0  0  0  0  0  0
    0.9751   -8.2043    4.5508 H   0  0  0  0  0  0  0  0  0  0  0  0
    5.6211   -5.2652   -0.2959 H   0  0  0  0  0  0  0  0  0  0  0  0
    2.4114   -9.4238    3.8286 H   0  0  0  0  0  0  0  0  0  0  0  0
  1  2  1  0
  1 23  1  0
  1 24  1  0
  1 25  1  0
  2 22  2  0
  2  3  1  0
  3  4  2  0
  3 26  1  0
  4  5  1  0
  4 27  1  0
  5  6  2  0
  6  7  1  0
  6 22  1  0
  7  8  1  0
  7 28  1  0
  7 29  1  0
  8  9  1  0
  8 30  1  0
  8 31  1  0
  9 20  1  0
  9 10  1  0
 10 11  1  0
 10 32  1  0
 10 33  1  0
 11 19  1  0
 11 12  1  1
 11 16  1  0
 12 13  1  0
 12 34  1  0
 12 35  1  0
 13 14  1  0
 13 15  1  0
 13 48  1  0
 14 36  1  0
 14 37  1  0
 14 38  1  0
 15 39  1  0
 15 40  1  0
 15 41  1  0
 16 17  1  0
 16 42  1  0
 16 43  1  0
 17 18  1  0
 17 44  1  0
 17 45  1  0
 18 19  1  0
 19 20  1  0
 19 46  1  1
 20 21  2  0
 22 47  1  0
M  CHG  1  13   1
M  END
>  <i_m_ct_stereo_status>  (27) 
1

>  <s_m_source_file>  (27) 
/var/tmp/pbs.5076255.sched01/tmpuj7nejrg/06cdl7mjn.sdf

>  <i_m_source_file_index>  (27) 
11

>  <i_lp_mmshare_version>  (27) 
48012

>  <i_f3d_flags>  (27) 
0

>  <s_epik_input>  (27) 
W0NIM11jMVtjSF1bY0hdbmMoW2NIXTEpW0NIMl1bQ0gyXU4oW0NIMl0yKUMoPU8pW0NAQEhdKE9bQ0gyXVtDSDJdMylbQ0BdMjNbQ0gyXU4oW0NIM10pW0NIM10=

>  <s_epik_cmdline>  (27) 
J2VwaWtfcHl0aG9uJywgJy1waHQnLCAnMi4wJywgJy1waCcsICc3LjAnLCAnLXRuJywgJzgnLCAnLW1hJywgJzIwMCcsICctaW1hZScsICc8aW5maWxlLm1hZT4nLCAnLW9tYWUnLCAnPG91dGZpbGUubWFlPic=

>  <r_epik_Ionization_Penalty>  (27) 
0.117792

>  <r_epik_Ionization_Penalty_Charging>  (27) 
0.00132081

>  <r_epik_Ionization_Penalty_Neutral>  (27) 
0.116471

>  <r_epik_State_Penalty>  (27) 
0.106087

>  <r_epik_Charging_Adjusted_Penalty>  (27) 
0.107408

>  <i_epik_Tot_Q>  (27) 
1

>  <i_epik_Tot_abs_Q>  (27) 
1

>  <s_lp_Force_Field>  (27) 
OPLS3e

>  <r_lp_Energy>  (27) 
7.4164

>  <b_lp_Chiralities_Consistent>  (27) 
1

>  <s_lp_Variant>  (27) 
6:0-1

>  <s_i_glide_gridfile>  (27) 
pfpi4k_grid

>  <i_i_glide_lignum>  (27) 
11

>  <i_i_glide_rotatable_bonds>  (27) 
5

>  <r_i_docking_score>  (27) 
-2.54679

>  <r_i_glide_ligand_efficiency>  (27) 
-0.115763

>  <r_i_glide_ligand_efficiency_sa>  (27) 
-0.324373

>  <r_i_glide_ligand_efficiency_ln>  (27) 
-0.622529

>  <r_i_glide_gscore>  (27) 
-2.54679

>  <r_i_glide_lipo>  (27) 
-0.420123

>  <r_i_glide_hbond>  (27) 
0

>  <r_i_glide_metal>  (27) 
-0

>  <r_i_glide_rewards>  (27) 
-1.33359

>  <r_i_glide_evdw>  (27) 
-25.08

>  <r_i_glide_ecoul>  (27) 
-1.73363

>  <r_i_glide_erotb>  (27) 
0.796072

>  <r_i_glide_esite>  (27) 
-0.0751094

>  <r_i_glide_emodel>  (27) 
-31.4168

>  <r_i_glide_energy>  (27) 
-26.8136

>  <r_i_glide_einternal>  (27) 
2.44793

>  <r_i_glide_intrahb_reward>  (27) 
-0

>  <i_i_glide_confnum>  (27) 
1

>  <i_i_glide_posenum>  (27) 
16

>  <r_i_glide_eff_state_penalty>  (27) 
0

>  <ligand_id>  (27) 
6

>  <original_smiles>  (27) 
Cc1ccnc(CCN2CC3(CN(C)C)CCOC3C2=O)c1

>  <smiles>  (27) 
[H]c1nc(C([H])([H])C([H])([H])N2C(=O)C3([H])OC([H])([H])C([H])([H])C3(C([H])([H])[N+]([H])(C([H])([H])[H])C([H])([H])[H])C2([H])[H])c([H])c(C([H])([H])[H])c1[H]

$$$$
6:1:0
     RDKit          3D

 49 51  0  0  1  0  0  0  0  0999 V2000
    5.5764   -0.8304    1.0758 C   0  0  0  0  0  0  0  0  0  0  0  0
    5.1029   -2.0423    0.2923 C   0  0  0  0  0  0  0  0  0  0  0  0
    5.1230   -2.0411   -1.1134 C   0  0  0  0  0  0  0  0  0  0  0  0
    4.6652   -3.1873   -1.8159 C   0  0  0  0  0  0  0  0  0  0  0  0
    4.2176   -4.2444   -1.1174 N   0  0  0  0  0  0  0  0  0  0  0  0
    4.1769   -4.3014    0.2316 C   0  0  0  0  0  0  0  0  0  0  0  0
    3.6278   -5.5399    0.9161 C   0  0  0  0  0  0  0  0  0  0  0  0
    2.1015   -5.6467    0.7208 C   0  0  0  0  0  0  0  0  0  0  0  0
    1.4591   -6.5334    1.6887 N   0  0  0  0  0  0  0  0  0  0  0  0
    0.9978   -7.8785    1.3576 C   0  0  0  0  0  0  0  0  0  0  0  0
    0.4147   -8.5109    2.6689 C   0  0  2  0  0  0  0  0  0  0  0  0
    1.1409   -9.8326    3.0720 C   0  0  0  0  0  0  0  0  0  0  0  0
    0.6317  -10.4957    4.3258 N   0  0  0  0  0  0  0  0  0  0  0  0
    0.9796   -9.8580    5.6246 C   0  0  0  0  0  0  0  0  0  0  0  0
    1.0254  -11.9131    4.3537 C   0  0  0  0  0  0  0  0  0  0  0  0
   -1.1196   -8.7164    2.5949 C   0  0  0  0  0  0  0  0  0  0  0  0
   -1.6554   -7.4404    3.2361 C   0  0  0  0  0  0  0  0  0  0  0  0
   -0.6897   -7.0403    4.1639 O   0  0  0  0  0  0  0  0  0  0  0  0
    0.5960   -7.3681    3.6921 C   0  0  2  0  0  0  0  0  0  0  0  0
    1.2206   -6.2218    2.9468 C   0  0  0  0  0  0  0  0  0  0  0  0
    1.4822   -5.1483    3.5048 O   0  0  0  0  0  0  0  0  0  0  0  0
    4.6335   -3.1810    0.9797 C   0  0  0  0  0  0  0  0  0  0  0  0
    5.5805    0.0645    0.4552 H   0  0  0  0  0  0  0  0  0  0  0  0
    6.5902   -0.9867    1.4406 H   0  0  0  0  0  0  0  0  0  0  0  0
    4.9287   -0.6445    1.9306 H   0  0  0  0  0  0  0  0  0  0  0  0
    5.4485   -1.1794   -1.6676 H   0  0  0  0  0  0  0  0  0  0  0  0
    4.6358   -3.2766   -2.8876 H   0  0  0  0  0  0  0  0  0  0  0  0
    4.1255   -6.4302    0.5313 H   0  0  0  0  0  0  0  0  0  0  0  0
    3.8761   -5.4824    1.9746 H   0  0  0  0  0  0  0  0  0  0  0  0
    1.7035   -4.6512    0.8824 H   0  0  0  0  0  0  0  0  0  0  0  0
    1.8447   -5.9502   -0.2917 H   0  0  0  0  0  0  0  0  0  0  0  0
    0.2192   -7.7908    0.5848 H   0  0  0  0  0  0  0  0  0  0  0  0
    1.8116   -8.4869    0.9436 H   0  0  0  0  0  0  0  0  0  0  0  0
    0.9850  -10.5257    2.2457 H   0  0  0  0  0  0  0  0  0  0  0  0
    2.2144   -9.6751    3.1245 H   0  0  0  0  0  0  0  0  0  0  0  0
    2.0581   -9.6809    5.6979 H   0  0  0  0  0  0  0  0  0  0  0  0
    0.6959  -10.5046    6.4614 H   0  0  0  0  0  0  0  0  0  0  0  0
    0.4555   -8.9004    5.7809 H   0  0  0  0  0  0  0  0  0  0  0  0
    2.1080  -12.0211    4.3844 H   0  0  0  0  0  0  0  0  0  0  0  0
    0.6340  -12.4489    3.4850 H   0  0  0  0  0  0  0  0  0  0  0  0
    0.6070  -12.3802    5.2486 H   0  0  0  0  0  0  0  0  0  0  0  0
   -1.4991   -8.8881    1.5868 H   0  0  0  0  0  0  0  0  0  0  0  0
   -1.4822   -9.5566    3.2012 H   0  0  0  0  0  0  0  0  0  0  0  0
   -1.7939   -6.6596    2.4771 H   0  0  0  0  0  0  0  0  0  0  0  0
   -2.6027   -7.6331    3.7344 H   0  0  0  0  0  0  0  0  0  0  0  0
    1.3377   -7.5429    4.4818 H   0  0  0  0  0  0  0  0  0  0  0  0
    4.5999   -3.2004    2.0518 H   0  0  0  0  0  0  0  0  0  0  0  0
   -0.3930  -10.5038    4.3041 H   0  0  0  0  0  0  0  0  0  0  0  0
    3.8511   -5.0484   -1.6548 H   0  0  0  0  0  0  0  0  0  0  0  0
  1  2  1  0
  1 23  1  0
  1 24  1  0
  1 25  1  0
  2 22  2  0
  2  3  1  0
  3  4  2  0
  3 26  1  0
  4  5  1  0
  4 27  1  0
  5  6  2  0
  5 49  1  0
  6  7  1  0
  6 22  1  0
  7  8  1  0
  7 28  1  0
  7 29  1  0
  8  9  1  0
  8 30  1  0
  8 31  1  0
  9 20  1  0
  9 10  1  0
 10 11  1  0
 10 32  1  0
 10 33  1  0
 11 19  1  0
 11 12  1  1
 11 16  1  0
 12 13  1  0
 12 34  1  0
 12 35  1  0
 13 14  1  0
 13 15  1  0
 13 48  1  0
 14 36  1  0
 14 37  1  0
 14 38  1  0
 15 39  1  0
 15 40  1  0
 15 41  1  0
 16 17  1  0
 16 42  1  0
 16 43  1  0
 17 18  1  0
 17 44  1  0
 17 45  1  0
 18 19  1  0
 19 20  1  0
 19 46  1  1
 20 21  2  0
 22 47  1  0
M  CHG  2   5   1  13   1
M  END
>  <i_m_ct_stereo_status>  (28) 
1

>  <s_m_source_file>  (28) 
/var/tmp/pbs.5076255.sched01/tmpuj7nejrg/06cdl7mjn.sdf

>  <i_m_source_file_index>  (28) 
12

>  <i_lp_mmshare_version>  (28) 
48012

>  <i_f3d_flags>  (28) 
0

>  <s_epik_input>  (28) 
W0NIM11jMVtjSF1bY0hdbmMoW2NIXTEpW0NIMl1bQ0gyXU4oW0NIMl0yKUMoPU8pW0NAQEhdKE9bQ0gyXVtDSDJdMylbQ0BdMjNbQ0gyXU4oW0NIM10pW0NIM10=

>  <s_epik_cmdline>  (28) 
J2VwaWtfcHl0aG9uJywgJy1waHQnLCAnMi4wJywgJy1waCcsICc3LjAnLCAnLXRuJywgJzgnLCAnLW1hJywgJzIwMCcsICctaW1hZScsICc8aW5maWxlLm1hZT4nLCAnLW9tYWUnLCAnPG91dGZpbGUubWFlPic=

>  <r_epik_Ionization_Penalty>  (28) 
1.02244

>  <r_epik_Ionization_Penalty_Charging>  (28) 
1.02244

>  <r_epik_Ionization_Penalty_Neutral>  (28) 
2.57327e-11

>  <r_epik_State_Penalty>  (28) 
1.07137

>  <r_epik_Charging_Adjusted_Penalty>  (28) 
2.0938

>  <i_epik_Tot_Q>  (28) 
2

>  <i_epik_Tot_abs_Q>  (28) 
2

>  <s_lp_Force_Field>  (28) 
OPLS3e

>  <r_lp_Energy>  (28) 
17.472

>  <b_lp_Chiralities_Consistent>  (28) 
1

>  <s_lp_Variant>  (28) 
6:0-2

>  <s_i_glide_gridfile>  (28) 
pfpi4k_grid

>  <i_i_glide_lignum>  (28) 
12

>  <i_i_glide_rotatable_bonds>  (28) 
5

>  <r_i_docking_score>  (28) 
-3.7621

>  <r_i_glide_ligand_efficiency>  (28) 
-0.171004

>  <r_i_glide_ligand_efficiency_sa>  (28) 
-0.479161

>  <r_i_glide_ligand_efficiency_ln>  (28) 
-0.919594

>  <r_i_glide_gscore>  (28) 
-3.7621

>  <r_i_glide_lipo>  (28) 
-0.280038

>  <r_i_glide_hbond>  (28) 
-0.193413

>  <r_i_glide_metal>  (28) 
-0

>  <r_i_glide_rewards>  (28) 
-1.32671

>  <r_i_glide_evdw>  (28) 
-25.7974

>  <r_i_glide_ecoul>  (28) 
-8.5797

>  <r_i_glide_erotb>  (28) 
0.791472

>  <r_i_glide_esite>  (28) 
-0.176578

>  <r_i_glide_emodel>  (28) 
-43.522

>  <r_i_glide_energy>  (28) 
-34.3771

>  <r_i_glide_einternal>  (28) 
2.46792

>  <r_i_glide_intrahb_reward>  (28) 
-0

>  <i_i_glide_confnum>  (28) 
4

>  <i_i_glide_posenum>  (28) 
12

>  <r_i_glide_eff_state_penalty>  (28) 
0

>  <ligand_id>  (28) 
6

>  <original_smiles>  (28) 
Cc1ccnc(CCN2CC3(CN(C)C)CCOC3C2=O)c1

>  <smiles>  (28) 
[H]c1c(C([H])([H])[H])c([H])c(C([H])([H])C([H])([H])N2C(=O)C3([H])OC([H])([H])C([H])([H])C3(C([H])([H])[N+]([H])(C([H])([H])[H])C([H])([H])[H])C2([H])[H])[n+]([H])c1[H]

$$$$
6:1:1
     RDKit          3D

 49 51  0  0  1  0  0  0  0  0999 V2000
    5.7434   -0.9939    1.2401 C   0  0  0  0  0  0  0  0  0  0  0  0
    5.1996   -2.1511    0.4318 C   0  0  0  0  0  0  0  0  0  0  0  0
    5.1603   -2.0870   -0.9800 C   0  0  0  0  0  0  0  0  0  0  0  0
    4.6385   -3.1934   -1.6967 C   0  0  0  0  0  0  0  0  0  0  0  0
    4.1910   -4.2829   -1.0407 N   0  0  0  0  0  0  0  0  0  0  0  0
    4.1915   -4.3750    0.3134 C   0  0  0  0  0  0  0  0  0  0  0  0
    3.6071   -5.6149    0.9665 C   0  0  0  0  0  0  0  0  0  0  0  0
    2.0600   -5.6148    0.9388 C   0  0  0  0  0  0  0  0  0  0  0  0
    1.4413   -6.5731    1.8494 N   0  0  0  0  0  0  0  0  0  0  0  0
    0.7671   -7.7836    1.3718 C   0  0  0  0  0  0  0  0  0  0  0  0
    0.4100   -8.5704    2.6595 C   0  0  2  0  0  0  0  0  0  0  0  0
    1.1409   -9.9375    2.7927 C   0  0  0  0  0  0  0  0  0  0  0  0
    2.6386   -9.8811    2.9377 N   0  0  0  0  0  0  0  0  0  0  0  0
    3.4238   -9.3149    1.8045 C   0  0  0  0  0  0  0  0  0  0  0  0
    3.2000  -11.1982    3.3175 C   0  0  0  0  0  0  0  0  0  0  0  0
   -1.1097   -8.7453    2.7713 C   0  0  0  0  0  0  0  0  0  0  0  0
   -1.5516   -7.5289    3.5801 C   0  0  0  0  0  0  0  0  0  0  0  0
   -0.4886   -7.2890    4.4902 O   0  0  0  0  0  0  0  0  0  0  0  0
    0.7387   -7.6360    3.8498 C   0  0  2  0  0  0  0  0  0  0  0  0
    1.4055   -6.4410    3.1826 C   0  0  0  0  0  0  0  0  0  0  0  0
    1.8404   -5.4960    3.8360 O   0  0  0  0  0  0  0  0  0  0  0  0
    4.7099   -3.3079    1.0829 C   0  0  0  0  0  0  0  0  0  0  0  0
    5.7503   -0.0693    0.6577 H   0  0  0  0  0  0  0  0  0  0  0  0
    6.7671   -1.1979    1.5614 H   0  0  0  0  0  0  0  0  0  0  0  0
    5.1341   -0.8244    2.1316 H   0  0  0  0  0  0  0  0  0  0  0  0
    5.5029   -1.2143   -1.4990 H   0  0  0  0  0  0  0  0  0  0  0  0
    4.5571   -3.2157   -2.7726 H   0  0  0  0  0  0  0  0  0  0  0  0
    4.0102   -6.4924    0.4604 H   0  0  0  0  0  0  0  0  0  0  0  0
    3.9732   -5.6595    1.9927 H   0  0  0  0  0  0  0  0  0  0  0  0
    1.7389   -4.6214    1.2436 H   0  0  0  0  0  0  0  0  0  0  0  0
    1.6987   -5.7776   -0.0751 H   0  0  0  0  0  0  0  0  0  0  0  0
   -0.1100   -7.5189    0.7786 H   0  0  0  0  0  0  0  0  0  0  0  0
    1.4302   -8.3797    0.7533 H   0  0  0  0  0  0  0  0  0  0  0  0
    0.7585  -10.4494    3.6870 H   0  0  0  0  0  0  0  0  0  0  0  0
    0.8625  -10.5925    1.9593 H   0  0  0  0  0  0  0  0  0  0  0  0
    3.1824   -9.8556    0.8685 H   0  0  0  0  0  0  0  0  0  0  0  0
    4.4995   -9.4023    1.9830 H   0  0  0  0  0  0  0  0  0  0  0  0
    3.1863   -8.2598    1.6536 H   0  0  0  0  0  0  0  0  0  0  0  0
    3.0212  -11.9210    2.5037 H   0  0  0  0  0  0  0  0  0  0  0  0
    2.7583  -11.5798    4.2503 H   0  0  0  0  0  0  0  0  0  0  0  0
    4.2862  -11.1052    3.4596 H   0  0  0  0  0  0  0  0  0  0  0  0
   -1.6121   -8.7827    1.8097 H   0  0  0  0  0  0  0  0  0  0  0  0
   -1.3841   -9.6497    3.3234 H   0  0  0  0  0  0  0  0  0  0  0  0
   -1.6921   -6.6472    2.9433 H   0  0  0  0  0  0  0  0  0  0  0  0
   -2.5018   -7.7123    4.0757 H   0  0  0  0  0  0  0  0  0  0  0  0
    1.4235   -8.0701    4.5855 H   0  0  0  0  0  0  0  0  0  0  0  0
    4.7243   -3.3657    2.1590 H   0  0  0  0  0  0  0  0  0  0  0  0
    2.8173   -9.2653    3.7553 H   0  0  0  0  0  0  0  0  0  0  0  0
    3.7788   -5.0347   -1.5991 H   0  0  0  0  0  0  0  0  0  0  0  0
  1  2  1  0
  1 23  1  0
  1 24  1  0
  1 25  1  0
  2 22  2  0
  2  3  1  0
  3  4  2  0
  3 26  1  0
  4  5  1  0
  4 27  1  0
  5  6  2  0
  5 49  1  0
  6  7  1  0
  6 22  1  0
  7  8  1  0
  7 28  1  0
  7 29  1  0
  8  9  1  0
  8 30  1  0
  8 31  1  0
  9 20  1  0
  9 10  1  0
 10 11  1  0
 10 32  1  0
 10 33  1  0
 11 19  1  0
 11 12  1  1
 11 16  1  0
 12 13  1  0
 12 34  1  0
 12 35  1  0
 13 14  1  0
 13 15  1  0
 13 48  1  0
 14 36  1  0
 14 37  1  0
 14 38  1  0
 15 39  1  0
 15 40  1  0
 15 41  1  0
 16 17  1  0
 16 42  1  0
 16 43  1  0
 17 18  1  0
 17 44  1  0
 17 45  1  0
 18 19  1  0
 19 20  1  0
 19 46  1  1
 20 21  2  0
 22 47  1  0
M  CHG  2   5   1  13   1
M  END
>  <i_m_ct_stereo_status>  (29) 
1

>  <s_m_source_file>  (29) 
/var/tmp/pbs.5076255.sched01/tmpuj7nejrg/06cdl7mjn.sdf

>  <i_m_source_file_index>  (29) 
12

>  <i_lp_mmshare_version>  (29) 
48012

>  <i_f3d_flags>  (29) 
0

>  <s_epik_input>  (29) 
W0NIM11jMVtjSF1bY0hdbmMoW2NIXTEpW0NIMl1bQ0gyXU4oW0NIMl0yKUMoPU8pW0NAQEhdKE9bQ0gyXVtDSDJdMylbQ0BdMjNbQ0gyXU4oW0NIM10pW0NIM10=

>  <s_epik_cmdline>  (29) 
J2VwaWtfcHl0aG9uJywgJy1waHQnLCAnMi4wJywgJy1waCcsICc3LjAnLCAnLXRuJywgJzgnLCAnLW1hJywgJzIwMCcsICctaW1hZScsICc8aW5maWxlLm1hZT4nLCAnLW9tYWUnLCAnPG91dGZpbGUubWFlPic=

>  <r_epik_Ionization_Penalty>  (29) 
1.02244

>  <r_epik_Ionization_Penalty_Charging>  (29) 
1.02244

>  <r_epik_Ionization_Penalty_Neutral>  (29) 
2.57327e-11

>  <r_epik_State_Penalty>  (29) 
1.07137

>  <r_epik_Charging_Adjusted_Penalty>  (29) 
2.0938

>  <i_epik_Tot_Q>  (29) 
2

>  <i_epik_Tot_abs_Q>  (29) 
2

>  <s_lp_Force_Field>  (29) 
OPLS3e

>  <r_lp_Energy>  (29) 
17.472

>  <b_lp_Chiralities_Consistent>  (29) 
1

>  <s_lp_Variant>  (29) 
6:0-2

>  <s_i_glide_gridfile>  (29) 
pfpi4k_grid

>  <i_i_glide_lignum>  (29) 
12

>  <i_i_glide_rotatable_bonds>  (29) 
5

>  <r_i_docking_score>  (29) 
-3.33124

>  <r_i_glide_ligand_efficiency>  (29) 
-0.15142

>  <r_i_glide_ligand_efficiency_sa>  (29) 
-0.424285

>  <r_i_glide_ligand_efficiency_ln>  (29) 
-0.814277

>  <r_i_glide_gscore>  (29) 
-3.33124

>  <r_i_glide_lipo>  (29) 
-0.34467

>  <r_i_glide_hbond>  (29) 
0

>  <r_i_glide_metal>  (29) 
-0

>  <r_i_glide_rewards>  (29) 
-1.32671

>  <r_i_glide_evdw>  (29) 
-24.467

>  <r_i_glide_ecoul>  (29) 
-7.41573

>  <r_i_glide_erotb>  (29) 
0.791472

>  <r_i_glide_esite>  (29) 
-0.115623

>  <r_i_glide_emodel>  (29) 
-39.7561

>  <r_i_glide_energy>  (29) 
-31.8827

>  <r_i_glide_einternal>  (29) 
2.28668

>  <r_i_glide_intrahb_reward>  (29) 
-0

>  <i_i_glide_confnum>  (29) 
4

>  <i_i_glide_posenum>  (29) 
1

>  <r_i_glide_eff_state_penalty>  (29) 
0

>  <ligand_id>  (29) 
6

>  <original_smiles>  (29) 
Cc1ccnc(CCN2CC3(CN(C)C)CCOC3C2=O)c1

>  <smiles>  (29) 
[H]c1c(C([H])([H])[H])c([H])c(C([H])([H])C([H])([H])N2C(=O)C3([H])OC([H])([H])C([H])([H])C3(C([H])([H])[N+]([H])(C([H])([H])[H])C([H])([H])[H])C2([H])[H])[n+]([H])c1[H]

$$$$
6:1:2
     RDKit          3D

 49 51  0  0  1  0  0  0  0  0999 V2000
    7.2184   -1.8236    0.6354 C   0  0  0  0  0  0  0  0  0  0  0  0
    5.7353   -1.6040    0.4408 C   0  0  0  0  0  0  0  0  0  0  0  0
    5.1205   -1.9893   -0.7755 C   0  0  0  0  0  0  0  0  0  0  0  0
    3.7350   -1.7803   -0.9174 C   0  0  0  0  0  0  0  0  0  0  0  0
    3.0225   -1.2265    0.0717 N   0  0  0  0  0  0  0  0  0  0  0  0
    3.5681   -0.8121    1.2462 C   0  0  0  0  0  0  0  0  0  0  0  0
    2.6653   -0.1743    2.2858 C   0  0  0  0  0  0  0  0  0  0  0  0
    1.7663    0.9360    1.6916 C   0  0  0  0  0  0  0  0  0  0  0  0
    0.9209    1.6256    2.6647 N   0  0  0  0  0  0  0  0  0  0  0  0
   -0.3907    1.0946    3.0519 C   0  0  0  0  0  0  0  0  0  0  0  0
   -0.8567    2.0294    4.2068 C   0  0  2  0  0  0  0  0  0  0  0  0
   -0.9921    1.3318    5.5913 C   0  0  0  0  0  0  0  0  0  0  0  0
    0.2958    0.9104    6.2466 N   0  0  0  0  0  0  0  0  0  0  0  0
    1.0556   -0.1950    5.6024 C   0  0  0  0  0  0  0  0  0  0  0  0
    0.0928    0.5842    7.6780 C   0  0  0  0  0  0  0  0  0  0  0  0
   -2.1609    2.7421    3.8120 C   0  0  0  0  0  0  0  0  0  0  0  0
   -1.6840    4.0268    3.1459 C   0  0  0  0  0  0  0  0  0  0  0  0
   -0.5328    4.3855    3.8837 O   0  0  0  0  0  0  0  0  0  0  0  0
    0.1517    3.1956    4.2584 C   0  0  2  0  0  0  0  0  0  0  0  0
    1.2255    2.7868    3.2649 C   0  0  0  0  0  0  0  0  0  0  0  0
    2.2462    3.4603    3.1043 O   0  0  0  0  0  0  0  0  0  0  0  0
    4.9543   -1.0180    1.4601 C   0  0  0  0  0  0  0  0  0  0  0  0
    7.7301   -1.9394   -0.3206 H   0  0  0  0  0  0  0  0  0  0  0  0
    7.3893   -2.7243    1.2263 H   0  0  0  0  0  0  0  0  0  0  0  0
    7.6552   -0.9754    1.1623 H   0  0  0  0  0  0  0  0  0  0  0  0
    5.6843   -2.4341   -1.5810 H   0  0  0  0  0  0  0  0  0  0  0  0
    3.1714   -2.0170   -1.8089 H   0  0  0  0  0  0  0  0  0  0  0  0
    2.0795   -0.9708    2.7429 H   0  0  0  0  0  0  0  0  0  0  0  0
    3.2921    0.2544    3.0727 H   0  0  0  0  0  0  0  0  0  0  0  0
    2.4323    1.6623    1.2316 H   0  0  0  0  0  0  0  0  0  0  0  0
    1.1110    0.5489    0.9138 H   0  0  0  0  0  0  0  0  0  0  0  0
   -1.0760    1.0946    2.1984 H   0  0  0  0  0  0  0  0  0  0  0  0
   -0.3612    0.0529    3.3749 H   0  0  0  0  0  0  0  0  0  0  0  0
   -1.4626    2.0452    6.2855 H   0  0  0  0  0  0  0  0  0  0  0  0
   -1.6958    0.4960    5.5186 H   0  0  0  0  0  0  0  0  0  0  0  0
    0.4142   -1.0729    5.4427 H   0  0  0  0  0  0  0  0  0  0  0  0
    1.9269   -0.4905    6.2035 H   0  0  0  0  0  0  0  0  0  0  0  0
    1.4779    0.1318    4.6594 H   0  0  0  0  0  0  0  0  0  0  0  0
   -0.5783   -0.2828    7.7643 H   0  0  0  0  0  0  0  0  0  0  0  0
   -0.3303    1.4321    8.2377 H   0  0  0  0  0  0  0  0  0  0  0  0
    1.0568    0.3129    8.1300 H   0  0  0  0  0  0  0  0  0  0  0  0
   -2.7743    2.1590    3.1251 H   0  0  0  0  0  0  0  0  0  0  0  0
   -2.7765    3.0115    4.6781 H   0  0  0  0  0  0  0  0  0  0  0  0
   -1.4336    3.8574    2.0972 H   0  0  0  0  0  0  0  0  0  0  0  0
   -2.4210    4.8244    3.2099 H   0  0  0  0  0  0  0  0  0  0  0  0
    0.6204    3.3841    5.2216 H   0  0  0  0  0  0  0  0  0  0  0  0
    5.4182   -0.7346    2.4011 H   0  0  0  0  0  0  0  0  0  0  0  0
    0.9039    1.7316    6.2341 H   0  0  0  0  0  0  0  0  0  0  0  0
    2.0048   -1.0563   -0.1443 H   0  0  0  0  0  0  0  0  0  0  0  0
  1  2  1  0
  1 23  1  0
  1 24  1  0
  1 25  1  0
  2 22  2  0
  2  3  1  0
  3  4  2  0
  3 26  1  0
  4  5  1  0
  4 27  1  0
  5  6  2  0
  5 49  1  0
  6  7  1  0
  6 22  1  0
  7  8  1  0
  7 28  1  0
  7 29  1  0
  8  9  1  0
  8 30  1  0
  8 31  1  0
  9 20  1  0
  9 10  1  0
 10 11  1  0
 10 32  1  0
 10 33  1  0
 11 19  1  0
 11 12  1  1
 11 16  1  0
 12 13  1  0
 12 34  1  0
 12 35  1  0
 13 14  1  0
 13 15  1  0
 13 48  1  0
 14 36  1  0
 14 37  1  0
 14 38  1  0
 15 39  1  0
 15 40  1  0
 15 41  1  0
 16 17  1  0
 16 42  1  0
 16 43  1  0
 17 18  1  0
 17 44  1  0
 17 45  1  0
 18 19  1  0
 19 20  1  0
 19 46  1  1
 20 21  2  0
 22 47  1  0
M  CHG  2   5   1  13   1
M  END
>  <i_m_ct_stereo_status>  (30) 
1

>  <s_m_source_file>  (30) 
/var/tmp/pbs.5076255.sched01/tmpuj7nejrg/06cdl7mjn.sdf

>  <i_m_source_file_index>  (30) 
12

>  <i_lp_mmshare_version>  (30) 
48012

>  <i_f3d_flags>  (30) 
0

>  <s_epik_input>  (30) 
W0NIM11jMVtjSF1bY0hdbmMoW2NIXTEpW0NIMl1bQ0gyXU4oW0NIMl0yKUMoPU8pW0NAQEhdKE9bQ0gyXVtDSDJdMylbQ0BdMjNbQ0gyXU4oW0NIM10pW0NIM10=

>  <s_epik_cmdline>  (30) 
J2VwaWtfcHl0aG9uJywgJy1waHQnLCAnMi4wJywgJy1waCcsICc3LjAnLCAnLXRuJywgJzgnLCAnLW1hJywgJzIwMCcsICctaW1hZScsICc8aW5maWxlLm1hZT4nLCAnLW9tYWUnLCAnPG91dGZpbGUubWFlPic=

>  <r_epik_Ionization_Penalty>  (30) 
1.02244

>  <r_epik_Ionization_Penalty_Charging>  (30) 
1.02244

>  <r_epik_Ionization_Penalty_Neutral>  (30) 
2.57327e-11

>  <r_epik_State_Penalty>  (30) 
1.07137

>  <r_epik_Charging_Adjusted_Penalty>  (30) 
2.0938

>  <i_epik_Tot_Q>  (30) 
2

>  <i_epik_Tot_abs_Q>  (30) 
2

>  <s_lp_Force_Field>  (30) 
OPLS3e

>  <r_lp_Energy>  (30) 
17.472

>  <b_lp_Chiralities_Consistent>  (30) 
1

>  <s_lp_Variant>  (30) 
6:0-2

>  <s_i_glide_gridfile>  (30) 
pfpi4k_grid

>  <i_i_glide_lignum>  (30) 
12

>  <i_i_glide_rotatable_bonds>  (30) 
5

>  <r_i_docking_score>  (30) 
-3.29125

>  <r_i_glide_ligand_efficiency>  (30) 
-0.149602

>  <r_i_glide_ligand_efficiency_sa>  (30) 
-0.419191

>  <r_i_glide_ligand_efficiency_ln>  (30) 
-0.804501

>  <r_i_glide_gscore>  (30) 
-3.29125

>  <r_i_glide_lipo>  (30) 
-0.188694

>  <r_i_glide_hbond>  (30) 
-0.153615

>  <r_i_glide_metal>  (30) 
-0

>  <r_i_glide_rewards>  (30) 
-1.32671

>  <r_i_glide_evdw>  (30) 
-20.8993

>  <r_i_glide_ecoul>  (30) 
-7.72276

>  <r_i_glide_erotb>  (30) 
0.791472

>  <r_i_glide_esite>  (30) 
-0.210314

>  <r_i_glide_emodel>  (30) 
-35.077

>  <r_i_glide_energy>  (30) 
-28.6221

>  <r_i_glide_einternal>  (30) 
5.16819

>  <r_i_glide_intrahb_reward>  (30) 
-0

>  <i_i_glide_confnum>  (30) 
1

>  <i_i_glide_posenum>  (30) 
4

>  <r_i_glide_eff_state_penalty>  (30) 
0

>  <ligand_id>  (30) 
6

>  <original_smiles>  (30) 
Cc1ccnc(CCN2CC3(CN(C)C)CCOC3C2=O)c1

>  <smiles>  (30) 
[H]c1c(C([H])([H])[H])c([H])c(C([H])([H])C([H])([H])N2C(=O)C3([H])OC([H])([H])C([H])([H])C3(C([H])([H])[N+]([H])(C([H])([H])[H])C([H])([H])[H])C2([H])[H])[n+]([H])c1[H]

$$$$
7:0:0
     RDKit          3D

 36 38  0  0  1  0  0  0  0  0999 V2000
    3.2703   -0.6023   -2.7961 C   0  0  0  0  0  0  0  0  0  0  0  0
    4.2489   -1.2308   -1.8038 C   0  0  1  0  0  0  0  0  0  0  0  0
    5.4106   -0.6732   -2.2448 O   0  0  0  0  0  0  0  0  0  0  0  0
    4.0587   -0.7377   -0.3324 C   0  0  0  0  0  0  0  0  0  0  0  0
    4.8078   -1.4579    0.8263 C   0  0  2  0  0  0  0  0  0  0  0  0
    6.2714   -1.7303    0.4433 C   0  0  0  0  0  0  0  0  0  0  0  0
    7.2092   -1.0710    0.8705 O   0  0  0  0  0  0  0  0  0  0  0  0
    6.4749   -2.9057   -0.5206 C   0  0  0  0  0  0  0  0  0  0  0  0
    7.5609   -3.3104   -0.8820 O   0  0  0  0  0  0  0  0  0  0  0  0
    5.1720   -3.5533   -1.0138 C   0  0  2  0  0  0  0  0  0  0  0  0
    4.3882   -2.7241   -2.0631 C   0  0  1  0  0  0  0  0  0  0  0  0
    3.0186   -3.3825   -2.0945 C   0  0  0  0  0  0  0  0  0  0  0  0
    2.8838   -3.9538   -0.6943 C   0  0  0  0  0  0  0  0  0  0  0  0
    1.9015   -4.5617   -0.3034 O   0  0  0  0  0  0  0  0  0  0  0  0
    4.1592   -3.8388    0.1195 C   0  0  2  0  0  0  0  0  0  0  0  0
    4.1180   -2.7713    1.2866 C   0  0  0  0  0  0  0  0  0  0  0  0
    4.8742   -3.3758    2.4961 C   0  0  0  0  0  0  0  0  0  0  0  0
    2.7012   -2.4471    1.8272 C   0  0  0  0  0  0  0  0  0  0  0  0
    2.2446   -0.6863   -2.4605 H   0  0  0  0  0  0  0  0  0  0  0  0
    3.3605   -0.9633   -3.8263 H   0  0  0  0  0  0  0  0  0  0  0  0
    3.4934    0.4559   -2.8306 H   0  0  0  0  0  0  0  0  0  0  0  0
    5.2211    0.2546   -2.1729 H   0  0  0  0  0  0  0  0  0  0  0  0
    4.3615    0.3012   -0.2387 H   0  0  0  0  0  0  0  0  0  0  0  0
    3.0034   -0.6730   -0.0847 H   0  0  0  0  0  0  0  0  0  0  0  0
    4.8551   -0.7720    1.6775 H   0  0  0  0  0  0  0  0  0  0  0  0
    5.4556   -4.4963   -1.4787 H   0  0  0  0  0  0  0  0  0  0  0  0
    4.8509   -2.8509   -3.0406 H   0  0  0  0  0  0  0  0  0  0  0  0
    2.1750   -2.7629   -2.3956 H   0  0  0  0  0  0  0  0  0  0  0  0
    3.0940   -4.1813   -2.8146 H   0  0  0  0  0  0  0  0  0  0  0  0
    4.3461   -4.8212    0.5393 H   0  0  0  0  0  0  0  0  0  0  0  0
    4.3149   -4.2170    2.8953 H   0  0  0  0  0  0  0  0  0  0  0  0
    4.9903   -2.6305    3.2882 H   0  0  0  0  0  0  0  0  0  0  0  0
    5.8654   -3.7446    2.2294 H   0  0  0  0  0  0  0  0  0  0  0  0
    2.2379   -3.3295    2.2573 H   0  0  0  0  0  0  0  0  0  0  0  0
    2.0088   -2.0712    1.0722 H   0  0  0  0  0  0  0  0  0  0  0  0
    2.7547   -1.6777    2.6013 H   0  0  0  0  0  0  0  0  0  0  0  0
  1  2  1  0
  1 19  1  0
  1 20  1  0
  1 21  1  0
  2 11  1  0
  2  3  1  6
  2  4  1  0
  3 22  1  0
  4  5  1  0
  4 23  1  0
  4 24  1  0
  5 16  1  0
  5  6  1  0
  5 25  1  1
  6  7  2  0
  6  8  1  0
  8  9  2  0
  8 10  1  0
 10 15  1  0
 10 11  1  0
 10 26  1  6
 11 12  1  0
 11 27  1  6
 12 13  1  0
 12 28  1  0
 12 29  1  0
 13 14  2  0
 13 15  1  0
 15 16  1  0
 15 30  1  1
 16 17  1  0
 16 18  1  0
 17 31  1  0
 17 32  1  0
 17 33  1  0
 18 34  1  0
 18 35  1  0
 18 36  1  0
M  END
>  <i_m_ct_stereo_status>  (31) 
1

>  <s_m_source_file>  (31) 
/var/tmp/pbs.5076255.sched01/tmpuj7nejrg/06cdl7mjn.sdf

>  <i_m_source_file_index>  (31) 
13

>  <i_lp_mmshare_version>  (31) 
48012

>  <i_f3d_flags>  (31) 
0

>  <s_epik_input>  (31) 
W0NAQEhdMTJbQ0gyXVtDQEBdKFtDSDNdKShbT0hdKVtDQEhdM1tDSF0oQyg9TylDMT1PKVtDQEhdKEMoPU8pW0NIMl0zKUMyKFtDSDNdKVtDSDNd

>  <s_epik_cmdline>  (31) 
J2VwaWtfcHl0aG9uJywgJy1waHQnLCAnMi4wJywgJy1waCcsICc3LjAnLCAnLXRuJywgJzgnLCAnLW1hJywgJzIwMCcsICctaW1hZScsICc8aW5maWxlLm1hZT4nLCAnLW9tYWUnLCAnPG91dGZpbGUubWFlPic=

>  <r_lp_tautomer_probability>  (31) 
1

>  <r_epik_Ionization_Penalty>  (31) 
3.10983e-08

>  <r_epik_Ionization_Penalty_Charging>  (31) 
0

>  <r_epik_Ionization_Penalty_Neutral>  (31) 
3.10983e-08

>  <r_epik_State_Penalty>  (31) 
-0

>  <r_epik_Charging_Adjusted_Penalty>  (31) 
0

>  <i_epik_Tot_Q>  (31) 
0

>  <i_epik_Tot_abs_Q>  (31) 
0

>  <s_lp_Force_Field>  (31) 
OPLS3e

>  <r_lp_Energy>  (31) 
26.2001

>  <b_lp_Chiralities_Consistent>  (31) 
1

>  <s_lp_Variant>  (31) 
7:0-1

>  <s_i_glide_gridfile>  (31) 
pfpi4k_grid

>  <i_i_glide_lignum>  (31) 
13

>  <i_i_glide_rotatable_bonds>  (31) 
1

>  <r_i_docking_score>  (31) 
-3.59948

>  <r_i_glide_ligand_efficiency>  (31) 
-0.199971

>  <r_i_glide_ligand_efficiency_sa>  (31) 
-0.524073

>  <r_i_glide_ligand_efficiency_ln>  (31) 
-0.925228

>  <r_i_glide_gscore>  (31) 
-3.59948

>  <r_i_glide_lipo>  (31) 
-0.164949

>  <r_i_glide_hbond>  (31) 
-0.318155

>  <r_i_glide_metal>  (31) 
-0

>  <r_i_glide_rewards>  (31) 
-1.83188

>  <r_i_glide_evdw>  (31) 
-9.86127

>  <r_i_glide_ecoul>  (31) 
-5.07579

>  <r_i_glide_erotb>  (31) 
0

>  <r_i_glide_esite>  (31) 
-0.0300626

>  <r_i_glide_emodel>  (31) 
-18.7823

>  <r_i_glide_energy>  (31) 
-14.9371

>  <r_i_glide_einternal>  (31) 
0.0575306

>  <r_i_glide_intrahb_reward>  (31) 
-0

>  <i_i_glide_confnum>  (31) 
1

>  <i_i_glide_posenum>  (31) 
2

>  <r_i_glide_eff_state_penalty>  (31) 
0

>  <ligand_id>  (31) 
7

>  <original_smiles>  (31) 
CC1(O)CC2C(=O)C(=O)C3C1CC(=O)C3C2(C)C

>  <smiles>  (31) 
[H]OC1(C([H])([H])[H])C([H])([H])C2([H])C(=O)C(=O)C3([H])C([H])(C(=O)C([H])([H])C31[H])C2(C([H])([H])[H])C([H])([H])[H]

$$$$
7:0:1
     RDKit          3D

 36 38  0  0  1  0  0  0  0  0999 V2000
    5.5642   -6.2319    1.1087 C   0  0  0  0  0  0  0  0  0  0  0  0
    5.5921   -4.6891    1.0596 C   0  0  1  0  0  0  0  0  0  0  0  0
    6.5411   -4.3801    2.0531 O   0  0  0  0  0  0  0  0  0  0  0  0
    6.1554   -4.2182   -0.3160 C   0  0  0  0  0  0  0  0  0  0  0  0
    6.0104   -2.7338   -0.7562 C   0  0  2  0  0  0  0  0  0  0  0  0
    6.3755   -1.7998    0.3983 C   0  0  0  0  0  0  0  0  0  0  0  0
    7.4648   -1.2447    0.4742 O   0  0  0  0  0  0  0  0  0  0  0  0
    5.2748   -1.6440    1.4450 C   0  0  0  0  0  0  0  0  0  0  0  0
    5.3535   -0.8447    2.3767 O   0  0  0  0  0  0  0  0  0  0  0  0
    4.0456   -2.5246    1.2162 C   0  0  2  0  0  0  0  0  0  0  0  0
    4.2420   -4.0406    1.5264 C   0  0  1  0  0  0  0  0  0  0  0  0
    2.9988   -4.6701    0.8826 C   0  0  0  0  0  0  0  0  0  0  0  0
    2.6790   -3.7532   -0.2815 C   0  0  0  0  0  0  0  0  0  0  0  0
    1.8154   -3.9880   -1.1185 O   0  0  0  0  0  0  0  0  0  0  0  0
    3.5011   -2.4700   -0.2377 C   0  0  2  0  0  0  0  0  0  0  0  0
    4.6102   -2.3587   -1.3513 C   0  0  0  0  0  0  0  0  0  0  0  0
    4.6009   -0.8919   -1.8442 C   0  0  0  0  0  0  0  0  0  0  0  0
    4.3465   -3.1790   -2.6453 C   0  0  0  0  0  0  0  0  0  0  0  0
    4.9626   -6.6588    0.3052 H   0  0  0  0  0  0  0  0  0  0  0  0
    5.1637   -6.5921    2.0583 H   0  0  0  0  0  0  0  0  0  0  0  0
    6.5660   -6.6518    0.9950 H   0  0  0  0  0  0  0  0  0  0  0  0
    7.3456   -4.8385    1.8550 H   0  0  0  0  0  0  0  0  0  0  0  0
    7.2223   -4.4465   -0.3200 H   0  0  0  0  0  0  0  0  0  0  0  0
    5.7408   -4.8585   -1.0905 H   0  0  0  0  0  0  0  0  0  0  0  0
    6.7456   -2.5625   -1.5434 H   0  0  0  0  0  0  0  0  0  0  0  0
    3.2643   -2.1446    1.8760 H   0  0  0  0  0  0  0  0  0  0  0  0
    4.1593   -4.1887    2.6061 H   0  0  0  0  0  0  0  0  0  0  0  0
    3.1048   -5.7064    0.5684 H   0  0  0  0  0  0  0  0  0  0  0  0
    2.1648   -4.6242    1.5803 H   0  0  0  0  0  0  0  0  0  0  0  0
    2.7944   -1.6429   -0.3358 H   0  0  0  0  0  0  0  0  0  0  0  0
    3.6742   -0.6513   -2.3734 H   0  0  0  0  0  0  0  0  0  0  0  0
    5.4165   -0.6885   -2.5354 H   0  0  0  0  0  0  0  0  0  0  0  0
    4.6706   -0.1867   -1.0156 H   0  0  0  0  0  0  0  0  0  0  0  0
    3.4312   -2.8555   -3.1478 H   0  0  0  0  0  0  0  0  0  0  0  0
    4.2388   -4.2473   -2.4659 H   0  0  0  0  0  0  0  0  0  0  0  0
    5.1675   -3.0645   -3.3549 H   0  0  0  0  0  0  0  0  0  0  0  0
  1  2  1  0
  1 19  1  0
  1 20  1  0
  1 21  1  0
  2 11  1  0
  2  3  1  1
  2  4  1  0
  3 22  1  0
  4  5  1  0
  4 23  1  0
  4 24  1  0
  5 16  1  0
  5  6  1  0
  5 25  1  6
  6  7  2  0
  6  8  1  0
  8  9  2  0
  8 10  1  0
 10 15  1  0
 10 11  1  0
 10 26  1  1
 11 12  1  0
 11 27  1  1
 12 13  1  0
 12 28  1  0
 12 29  1  0
 13 14  2  0
 13 15  1  0
 15 16  1  0
 15 30  1  1
 16 17  1  0
 16 18  1  0
 17 31  1  0
 17 32  1  0
 17 33  1  0
 18 34  1  0
 18 35  1  0
 18 36  1  0
M  END
>  <i_m_ct_stereo_status>  (32) 
1

>  <s_m_source_file>  (32) 
/var/tmp/pbs.5076255.sched01/tmpuj7nejrg/06cdl7mjn.sdf

>  <i_m_source_file_index>  (32) 
13

>  <i_lp_mmshare_version>  (32) 
48012

>  <i_f3d_flags>  (32) 
0

>  <s_epik_input>  (32) 
W0NAQEhdMTJbQ0gyXVtDQEBdKFtDSDNdKShbT0hdKVtDQEhdM1tDSF0oQyg9TylDMT1PKVtDQEhdKEMoPU8pW0NIMl0zKUMyKFtDSDNdKVtDSDNd

>  <s_epik_cmdline>  (32) 
J2VwaWtfcHl0aG9uJywgJy1waHQnLCAnMi4wJywgJy1waCcsICc3LjAnLCAnLXRuJywgJzgnLCAnLW1hJywgJzIwMCcsICctaW1hZScsICc8aW5maWxlLm1hZT4nLCAnLW9tYWUnLCAnPG91dGZpbGUubWFlPic=

>  <r_lp_tautomer_probability>  (32) 
1

>  <r_epik_Ionization_Penalty>  (32) 
3.10983e-08

>  <r_epik_Ionization_Penalty_Charging>  (32) 
0

>  <r_epik_Ionization_Penalty_Neutral>  (32) 
3.10983e-08

>  <r_epik_State_Penalty>  (32) 
-0

>  <r_epik_Charging_Adjusted_Penalty>  (32) 
0

>  <i_epik_Tot_Q>  (32) 
0

>  <i_epik_Tot_abs_Q>  (32) 
0

>  <s_lp_Force_Field>  (32) 
OPLS3e

>  <r_lp_Energy>  (32) 
26.2001

>  <b_lp_Chiralities_Consistent>  (32) 
1

>  <s_lp_Variant>  (32) 
7:0-1

>  <s_i_glide_gridfile>  (32) 
pfpi4k_grid

>  <i_i_glide_lignum>  (32) 
13

>  <i_i_glide_rotatable_bonds>  (32) 
1

>  <r_i_docking_score>  (32) 
-3.302

>  <r_i_glide_ligand_efficiency>  (32) 
-0.183444

>  <r_i_glide_ligand_efficiency_sa>  (32) 
-0.48076

>  <r_i_glide_ligand_efficiency_ln>  (32) 
-0.848762

>  <r_i_glide_gscore>  (32) 
-3.302

>  <r_i_glide_lipo>  (32) 
-0.211405

>  <r_i_glide_hbond>  (32) 
-0.0344606

>  <r_i_glide_metal>  (32) 
-0

>  <r_i_glide_rewards>  (32) 
-1.90552

>  <r_i_glide_evdw>  (32) 
-20.8612

>  <r_i_glide_ecoul>  (32) 
-0.496257

>  <r_i_glide_erotb>  (32) 
0

>  <r_i_glide_esite>  (32) 
-0.033115

>  <r_i_glide_emodel>  (32) 
-25.5853

>  <r_i_glide_energy>  (32) 
-21.3575

>  <r_i_glide_einternal>  (32) 
0.0360413

>  <r_i_glide_intrahb_reward>  (32) 
-0

>  <i_i_glide_confnum>  (32) 
1

>  <i_i_glide_posenum>  (32) 
35

>  <r_i_glide_eff_state_penalty>  (32) 
0

>  <ligand_id>  (32) 
7

>  <original_smiles>  (32) 
CC1(O)CC2C(=O)C(=O)C3C1CC(=O)C3C2(C)C

>  <smiles>  (32) 
[H]OC1(C([H])([H])[H])C([H])([H])C2([H])C(=O)C(=O)C3([H])C([H])(C(=O)C([H])([H])C31[H])C2(C([H])([H])[H])C([H])([H])[H]

$$$$
7:0:2
     RDKit          3D

 36 38  0  0  1  0  0  0  0  0999 V2000
    5.4583   -6.1238    0.8799 C   0  0  0  0  0  0  0  0  0  0  0  0
    5.4903   -4.5780    0.8778 C   0  0  1  0  0  0  0  0  0  0  0  0
    6.4315   -4.3195    1.8978 O   0  0  0  0  0  0  0  0  0  0  0  0
    6.0739   -4.0568   -0.4726 C   0  0  0  0  0  0  0  0  0  0  0  0
    5.9364   -2.5678   -0.8775 C   0  0  2  0  0  0  0  0  0  0  0  0
    6.2621   -1.6673    0.3147 C   0  0  0  0  0  0  0  0  0  0  0  0
    7.3636   -1.1479    0.4687 O   0  0  0  0  0  0  0  0  0  0  0  0
    5.1334   -1.5449    1.3341 C   0  0  0  0  0  0  0  0  0  0  0  0
    5.1986   -0.7983    2.3100 O   0  0  0  0  0  0  0  0  0  0  0  0
    3.9207   -2.4301    1.0553 C   0  0  2  0  0  0  0  0  0  0  0  0
    4.1264   -3.9518    1.3356 C   0  0  1  0  0  0  0  0  0  0  0  0
    2.9063   -4.5763    0.6433 C   0  0  0  0  0  0  0  0  0  0  0  0
    2.6153   -3.6328   -0.5020 C   0  0  0  0  0  0  0  0  0  0  0  0
    1.7651   -3.8569   -1.3581 O   0  0  0  0  0  0  0  0  0  0  0  0
    3.4189   -2.3450   -0.4110 C   0  0  2  0  0  0  0  0  0  0  0  0
    4.5502   -2.1921   -1.4965 C   0  0  0  0  0  0  0  0  0  0  0  0
    4.5603   -0.7122   -1.9479 C   0  0  0  0  0  0  0  0  0  0  0  0
    4.3209   -2.9814   -2.8191 C   0  0  0  0  0  0  0  0  0  0  0  0
    4.8797   -6.5341    0.0483 H   0  0  0  0  0  0  0  0  0  0  0  0
    5.0377   -6.5130    1.8082 H   0  0  0  0  0  0  0  0  0  0  0  0
    6.4660   -6.5318    0.7825 H   0  0  0  0  0  0  0  0  0  0  0  0
    6.5243   -3.3887    2.0094 H   0  0  0  0  0  0  0  0  0  0  0  0
    7.1426   -4.2705   -0.4642 H   0  0  0  0  0  0  0  0  0  0  0  0
    5.6772   -4.6731   -1.2734 H   0  0  0  0  0  0  0  0  0  0  0  0
    6.6935   -2.3768   -1.6396 H   0  0  0  0  0  0  0  0  0  0  0  0
    3.1183   -2.0719    1.6994 H   0  0  0  0  0  0  0  0  0  0  0  0
    4.0145   -4.1345    2.4055 H   0  0  0  0  0  0  0  0  0  0  0  0
    3.0241   -5.6040    0.3012 H   0  0  0  0  0  0  0  0  0  0  0  0
    2.0490   -4.5487    1.3158 H   0  0  0  0  0  0  0  0  0  0  0  0
    2.7126   -1.5199   -0.5046 H   0  0  0  0  0  0  0  0  0  0  0  0
    3.6477   -0.4591   -2.4981 H   0  0  0  0  0  0  0  0  0  0  0  0
    5.4093   -0.4934   -2.5958 H   0  0  0  0  0  0  0  0  0  0  0  0
    4.6107   -0.0303   -1.0976 H   0  0  0  0  0  0  0  0  0  0  0  0
    3.4129   -2.6473   -3.3274 H   0  0  0  0  0  0  0  0  0  0  0  0
    4.2119   -4.0551   -2.6721 H   0  0  0  0  0  0  0  0  0  0  0  0
    5.1561   -2.8424   -3.5075 H   0  0  0  0  0  0  0  0  0  0  0  0
  1  2  1  0
  1 19  1  0
  1 20  1  0
  1 21  1  0
  2 11  1  0
  2  3  1  1
  2  4  1  0
  3 22  1  0
  4  5  1  0
  4 23  1  0
  4 24  1  0
  5 16  1  0
  5  6  1  0
  5 25  1  6
  6  7  2  0
  6  8  1  0
  8  9  2  0
  8 10  1  0
 10 15  1  0
 10 11  1  0
 10 26  1  1
 11 12  1  0
 11 27  1  1
 12 13  1  0
 12 28  1  0
 12 29  1  0
 13 14  2  0
 13 15  1  0
 15 16  1  0
 15 30  1  1
 16 17  1  0
 16 18  1  0
 17 31  1  0
 17 32  1  0
 17 33  1  0
 18 34  1  0
 18 35  1  0
 18 36  1  0
M  END
>  <i_m_ct_stereo_status>  (33) 
1

>  <s_m_source_file>  (33) 
/var/tmp/pbs.5076255.sched01/tmpuj7nejrg/06cdl7mjn.sdf

>  <i_m_source_file_index>  (33) 
13

>  <i_lp_mmshare_version>  (33) 
48012

>  <i_f3d_flags>  (33) 
0

>  <s_epik_input>  (33) 
W0NAQEhdMTJbQ0gyXVtDQEBdKFtDSDNdKShbT0hdKVtDQEhdM1tDSF0oQyg9TylDMT1PKVtDQEhdKEMoPU8pW0NIMl0zKUMyKFtDSDNdKVtDSDNd

>  <s_epik_cmdline>  (33) 
J2VwaWtfcHl0aG9uJywgJy1waHQnLCAnMi4wJywgJy1waCcsICc3LjAnLCAnLXRuJywgJzgnLCAnLW1hJywgJzIwMCcsICctaW1hZScsICc8aW5maWxlLm1hZT4nLCAnLW9tYWUnLCAnPG91dGZpbGUubWFlPic=

>  <r_lp_tautomer_probability>  (33) 
1

>  <r_epik_Ionization_Penalty>  (33) 
3.10983e-08

>  <r_epik_Ionization_Penalty_Charging>  (33) 
0

>  <r_epik_Ionization_Penalty_Neutral>  (33) 
3.10983e-08

>  <r_epik_State_Penalty>  (33) 
-0

>  <r_epik_Charging_Adjusted_Penalty>  (33) 
0

>  <i_epik_Tot_Q>  (33) 
0

>  <i_epik_Tot_abs_Q>  (33) 
0

>  <s_lp_Force_Field>  (33) 
OPLS3e

>  <r_lp_Energy>  (33) 
26.2001

>  <b_lp_Chiralities_Consistent>  (33) 
1

>  <s_lp_Variant>  (33) 
7:0-1

>  <s_i_glide_gridfile>  (33) 
pfpi4k_grid

>  <i_i_glide_lignum>  (33) 
13

>  <i_i_glide_rotatable_bonds>  (33) 
1

>  <r_i_docking_score>  (33) 
-3.29235

>  <r_i_glide_ligand_efficiency>  (33) 
-0.182908

>  <r_i_glide_ligand_efficiency_sa>  (33) 
-0.479355

>  <r_i_glide_ligand_efficiency_ln>  (33) 
-0.846281

>  <r_i_glide_gscore>  (33) 
-3.29235

>  <r_i_glide_lipo>  (33) 
-0.262331

>  <r_i_glide_hbond>  (33) 
-0.0316868

>  <r_i_glide_metal>  (33) 
-0

>  <r_i_glide_rewards>  (33) 
-1.87744

>  <r_i_glide_evdw>  (33) 
-20.8679

>  <r_i_glide_ecoul>  (33) 
-0.289483

>  <r_i_glide_erotb>  (33) 
0

>  <r_i_glide_esite>  (33) 
-0.0340752

>  <r_i_glide_emodel>  (33) 
-25.3742

>  <r_i_glide_energy>  (33) 
-21.1574

>  <r_i_glide_einternal>  (33) 
0.00305141

>  <r_i_glide_intrahb_reward>  (33) 
-0

>  <i_i_glide_confnum>  (33) 
1

>  <i_i_glide_posenum>  (33) 
1

>  <r_i_glide_eff_state_penalty>  (33) 
0

>  <ligand_id>  (33) 
7

>  <original_smiles>  (33) 
CC1(O)CC2C(=O)C(=O)C3C1CC(=O)C3C2(C)C

>  <smiles>  (33) 
[H]OC1(C([H])([H])[H])C([H])([H])C2([H])C(=O)C(=O)C3([H])C([H])(C(=O)C([H])([H])C31[H])C2(C([H])([H])[H])C([H])([H])[H]

$$$$
9:0:0
     RDKit          3D

 76 81  0  0  1  0  0  0  0  0999 V2000
    4.4287   -2.5545   -2.5120 C   0  0  0  0  0  0  0  0  0  0  0  0
    5.4579   -3.0865   -1.5139 C   0  0  0  0  0  0  0  0  0  0  0  0
    6.6442   -3.1040   -1.8436 O   0  0  0  0  0  0  0  0  0  0  0  0
    5.0820   -3.5789   -0.0986 C   0  0  2  0  0  0  0  0  0  0  0  0
    3.6996   -4.2544   -0.0325 C   0  0  0  0  0  0  0  0  0  0  0  0
    2.7502   -3.2376    0.6129 C   0  0  0  0  0  0  0  0  0  0  0  0
    3.5809   -2.0036    1.0465 C   0  0  1  0  0  0  0  0  0  0  0  0
    3.4121   -1.0605    0.0124 O   0  0  0  0  0  0  0  0  0  0  0  0
    3.0273   -1.3381    2.3493 C   0  0  2  0  0  0  0  0  0  0  0  0
    3.4461    0.1382    2.5489 C   0  0  0  0  0  0  0  0  0  0  0  0
    3.0409    0.7137    3.8823 C   0  0  0  0  0  0  0  0  0  0  0  0
    2.6096   -0.0257    4.9317 C   0  0  0  0  0  0  0  0  0  0  0  0
    2.0090    0.5937    6.2169 C   0  0  1  0  0  0  0  0  0  0  0  0
    2.0119    2.1381    6.2832 C   0  0  0  0  0  0  0  0  0  0  0  0
    0.7781    2.7096    5.5855 C   0  0  0  0  0  0  0  0  0  0  0  0
   -0.5508    2.3566    6.2908 C   0  0  2  0  0  0  0  0  0  0  0  0
   -1.6814    2.3881    5.2532 C   0  0  0  0  0  0  0  0  0  0  0  0
   -0.8731    3.3103    7.4337 C   0  0  0  0  0  0  0  0  0  0  0  0
   -1.1529    4.5220    7.2611 O   0  0  0  0  0  0  0  0  0  0  0  0
   -0.9239    2.6589    8.7932 C   0  0  0  0  0  0  0  0  0  0  0  0
   -0.2832    1.2961    8.5439 C   0  0  0  0  0  0  0  0  0  0  0  0
   -0.4665    0.9933    7.0301 C   0  0  2  0  0  0  0  0  0  0  0  0
    0.5941   -0.0180    6.5104 C   0  0  1  0  0  0  0  0  0  0  0  0
    0.0642   -0.8543    5.3175 C   0  0  0  0  0  0  0  0  0  0  0  0
    1.0380   -1.9884    4.9111 C   0  0  1  0  0  0  0  0  0  0  0  0
    0.5585   -2.5321    3.7005 O   0  0  0  0  0  0  0  0  0  0  0  0
    2.5547   -1.5672    4.8730 C   0  0  2  0  0  0  0  0  0  0  0  0
    3.1438   -2.1514    6.1838 C   0  0  0  0  0  0  0  0  0  0  0  0
    3.3226   -2.1760    3.6205 C   0  0  2  0  0  0  0  0  0  0  0  0
    4.8753   -2.3840    3.6522 C   0  0  1  0  0  0  0  0  0  0  0  0
    5.3669   -3.1502    4.7390 O   0  0  0  0  0  0  0  0  0  0  0  0
    5.3192   -3.1953    2.4069 C   0  0  0  0  0  0  0  0  0  0  0  0
    5.0574   -2.5072    1.0446 C   0  0  1  0  0  0  0  0  0  0  0  0
    6.1431   -1.4131    0.8452 C   0  0  0  0  0  0  0  0  0  0  0  0
    3.9904   -1.6200   -2.1924 H   0  0  0  0  0  0  0  0  0  0  0  0
    3.6212   -3.2550   -2.7057 H   0  0  0  0  0  0  0  0  0  0  0  0
    4.8962   -2.3490   -3.4723 H   0  0  0  0  0  0  0  0  0  0  0  0
    5.8279   -4.3260    0.1626 H   0  0  0  0  0  0  0  0  0  0  0  0
    3.3399   -4.5814   -1.0090 H   0  0  0  0  0  0  0  0  0  0  0  0
    3.7488   -5.1657    0.5769 H   0  0  0  0  0  0  0  0  0  0  0  0
    1.9546   -2.9634   -0.0736 H   0  0  0  0  0  0  0  0  0  0  0  0
    2.2836   -3.7179    1.4615 H   0  0  0  0  0  0  0  0  0  0  0  0
    2.4895   -1.0277   -0.2029 H   0  0  0  0  0  0  0  0  0  0  0  0
    1.9525   -1.2903    2.2005 H   0  0  0  0  0  0  0  0  0  0  0  0
    4.5089    0.2882    2.4283 H   0  0  0  0  0  0  0  0  0  0  0  0
    2.9507    0.7494    1.7965 H   0  0  0  0  0  0  0  0  0  0  0  0
    3.0556    1.7911    3.8951 H   0  0  0  0  0  0  0  0  0  0  0  0
    2.6742    0.2877    7.0263 H   0  0  0  0  0  0  0  0  0  0  0  0
    2.0235    2.4561    7.3166 H   0  0  0  0  0  0  0  0  0  0  0  0
    2.9312    2.5603    5.8764 H   0  0  0  0  0  0  0  0  0  0  0  0
    0.8991    3.7914    5.5490 H   0  0  0  0  0  0  0  0  0  0  0  0
    0.7566    2.3965    4.5340 H   0  0  0  0  0  0  0  0  0  0  0  0
   -1.5560    1.6330    4.4848 H   0  0  0  0  0  0  0  0  0  0  0  0
   -1.7206    3.3532    4.7482 H   0  0  0  0  0  0  0  0  0  0  0  0
   -2.6485    2.2312    5.7233 H   0  0  0  0  0  0  0  0  0  0  0  0
   -0.4029    3.2410    9.5500 H   0  0  0  0  0  0  0  0  0  0  0  0
   -1.9624    2.5563    9.1062 H   0  0  0  0  0  0  0  0  0  0  0  0
    0.7725    1.3537    8.8196 H   0  0  0  0  0  0  0  0  0  0  0  0
   -0.7283    0.5201    9.1708 H   0  0  0  0  0  0  0  0  0  0  0  0
   -1.4475    0.5281    6.9400 H   0  0  0  0  0  0  0  0  0  0  0  0
    0.7265   -0.7337    7.3306 H   0  0  0  0  0  0  0  0  0  0  0  0
   -0.9006   -1.2905    5.5804 H   0  0  0  0  0  0  0  0  0  0  0  0
   -0.1091   -0.1883    4.4714 H   0  0  0  0  0  0  0  0  0  0  0  0
    0.9174   -2.7920    5.6311 H   0  0  0  0  0  0  0  0  0  0  0  0
    0.5991   -1.8658    3.0379 H   0  0  0  0  0  0  0  0  0  0  0  0
    3.2324   -3.2332    6.1058 H   0  0  0  0  0  0  0  0  0  0  0  0
    2.5096   -1.9727    7.0545 H   0  0  0  0  0  0  0  0  0  0  0  0
    4.1226   -1.7220    6.4084 H   0  0  0  0  0  0  0  0  0  0  0  0
    2.9363   -3.1832    3.5146 H   0  0  0  0  0  0  0  0  0  0  0  0
    5.3831   -1.4256    3.6863 H   0  0  0  0  0  0  0  0  0  0  0  0
    4.9596   -3.9923    4.7059 H   0  0  0  0  0  0  0  0  0  0  0  0
    6.3746   -3.4281    2.4677 H   0  0  0  0  0  0  0  0  0  0  0  0
    4.8198   -4.1620    2.4387 H   0  0  0  0  0  0  0  0  0  0  0  0
    6.2361   -0.7461    1.6940 H   0  0  0  0  0  0  0  0  0  0  0  0
    5.9486   -0.7976   -0.0280 H   0  0  0  0  0  0  0  0  0  0  0  0
    7.1180   -1.8745    0.7056 H   0  0  0  0  0  0  0  0  0  0  0  0
  1  2  1  0
  1 35  1  0
  1 36  1  0
  1 37  1  0
  2  3  2  0
  2  4  1  0
  4 33  1  0
  4  5  1  0
  4 38  1  1
  5  6  1  0
  5 39  1  0
  5 40  1  0
  6  7  1  0
  6 41  1  0
  6 42  1  0
  7 33  1  0
  7  8  1  6
  7  9  1  0
  8 43  1  0
  9 29  1  0
  9 10  1  0
  9 44  1  6
 10 11  1  0
 10 45  1  0
 10 46  1  0
 11 12  2  0
 11 47  1  0
 12 27  1  0
 12 13  1  0
 13 23  1  0
 13 14  1  0
 13 48  1  1
 14 15  1  0
 14 49  1  0
 14 50  1  0
 15 16  1  0
 15 51  1  0
 15 52  1  0
 16 22  1  0
 16 17  1  6
 16 18  1  0
 17 53  1  0
 17 54  1  0
 17 55  1  0
 18 19  2  0
 18 20  1  0
 20 21  1  0
 20 56  1  0
 20 57  1  0
 21 22  1  0
 21 58  1  0
 21 59  1  0
 22 23  1  0
 22 60  1  1
 23 24  1  0
 23 61  1  1
 24 25  1  0
 24 62  1  0
 24 63  1  0
 25 26  1  0
 25 27  1  0
 25 64  1  1
 26 65  1  0
 27 28  1  1
 27 29  1  0
 28 66  1  0
 28 67  1  0
 28 68  1  0
 29 30  1  0
 29 69  1  6
 30 31  1  0
 30 32  1  0
 30 70  1  6
 31 71  1  0
 32 33  1  0
 32 72  1  0
 32 73  1  0
 33 34  1  6
 34 74  1  0
 34 75  1  0
 34 76  1  0
M  END
>  <i_m_ct_stereo_status>  (34) 
1

>  <s_m_source_file>  (34) 
/var/tmp/pbs.5076255.sched01/tmpuj7nejrg/06cdl7mjn.sdf

>  <i_m_source_file_index>  (34) 
15

>  <i_lp_mmshare_version>  (34) 
48012

>  <i_f3d_flags>  (34) 
0

>  <s_epik_input>  (34) 
W0NIM11DKD1PKVtDQEhdKFtDSDJdW0NIMl0xKVtDQF0yKFtDSDNdKVtDSDJdW0NASF0oW09IXSlbQ0BIXShbQ0BASF0zW0NAXTEyW09IXSlbQ0BAXTQoW0NIM10pQyg9W0NIXVtDSDJdMylbQ0BASF01W0NASF0oW0NIMl1bQ0BIXTRbT0hdKVtDQEBIXTZbQ0BdKFtDSDNdKShbQ0gyXVtDSDJdNSlDKD1PKVtDSDJdW0NIMl02

>  <s_epik_cmdline>  (34) 
J2VwaWtfcHl0aG9uJywgJy1waHQnLCAnMi4wJywgJy1waCcsICc3LjAnLCAnLXRuJywgJzgnLCAnLW1hJywgJzIwMCcsICctaW1hZScsICc8aW5maWxlLm1hZT4nLCAnLW9tYWUnLCAnPG91dGZpbGUubWFlPic=

>  <r_lp_tautomer_probability>  (34) 
1

>  <r_epik_Ionization_Penalty>  (34) 
2.34563e-06

>  <r_epik_Ionization_Penalty_Charging>  (34) 
0

>  <r_epik_Ionization_Penalty_Neutral>  (34) 
2.34563e-06

>  <r_epik_State_Penalty>  (34) 
-0

>  <r_epik_Charging_Adjusted_Penalty>  (34) 
0

>  <i_epik_Tot_Q>  (34) 
0

>  <i_epik_Tot_abs_Q>  (34) 
0

>  <s_lp_Force_Field>  (34) 
OPLS3e

>  <r_lp_Energy>  (34) 
68.148

>  <b_lp_Chiralities_Consistent>  (34) 
1

>  <s_lp_Variant>  (34) 
9:0-1

>  <s_i_glide_gridfile>  (34) 
pfpi4k_grid

>  <i_i_glide_lignum>  (34) 
15

>  <i_i_glide_rotatable_bonds>  (34) 
4

>  <r_i_docking_score>  (34) 
-2.95119

>  <r_i_glide_ligand_efficiency>  (34) 
-0.0867996

>  <r_i_glide_ligand_efficiency_sa>  (34) 
-0.281197

>  <r_i_glide_ligand_efficiency_ln>  (34) 
-0.652

>  <r_i_glide_gscore>  (34) 
-2.95119

>  <r_i_glide_lipo>  (34) 
-0.424136

>  <r_i_glide_hbond>  (34) 
-0.16

>  <r_i_glide_metal>  (34) 
-0

>  <r_i_glide_rewards>  (34) 
-0.280834

>  <r_i_glide_evdw>  (34) 
-29.4277

>  <r_i_glide_ecoul>  (34) 
-4.09867

>  <r_i_glide_erotb>  (34) 
0

>  <r_i_glide_esite>  (34) 
-3.05931e-05

>  <r_i_glide_emodel>  (34) 
-38.3224

>  <r_i_glide_energy>  (34) 
-33.5263

>  <r_i_glide_einternal>  (34) 
2.74313

>  <r_i_glide_intrahb_reward>  (34) 
-0

>  <i_i_glide_confnum>  (34) 
1

>  <i_i_glide_posenum>  (34) 
2

>  <r_i_glide_eff_state_penalty>  (34) 
0

>  <ligand_id>  (34) 
9

>  <original_smiles>  (34) 
CC(=O)C1CCC2(O)C3CC=C4C5CCC6(C)C(=O)CCC6C5CC(O)C4(C)C3C(O)CC12C

>  <smiles>  (34) 
[H]OC1([H])C([H])([H])C2(C([H])([H])[H])C([H])(C(=O)C([H])([H])[H])C([H])([H])C([H])([H])C2(O[H])C2([H])C([H])([H])C([H])=C3C4([H])C([H])([H])C([H])([H])C5(C([H])([H])[H])C(=O)C([H])([H])C([H])([H])C5([H])C4([H])C([H])([H])C([H])(O[H])C3(C([H])([H])[H])C12[H]

$$$$
9:0:1
     RDKit          3D

 76 81  0  0  1  0  0  0  0  0999 V2000
   -1.7866    4.2260   10.9229 C   0  0  0  0  0  0  0  0  0  0  0  0
   -2.3201    3.4377    9.7237 C   0  0  0  0  0  0  0  0  0  0  0  0
   -3.1330    2.5462    9.8979 O   0  0  0  0  0  0  0  0  0  0  0  0
   -1.8687    3.8585    8.2967 C   0  0  2  0  0  0  0  0  0  0  0  0
   -2.8460    3.3302    7.2205 C   0  0  0  0  0  0  0  0  0  0  0  0
   -2.1673    2.1662    6.4904 C   0  0  0  0  0  0  0  0  0  0  0  0
   -0.7758    1.9889    7.1050 C   0  0  1  0  0  0  0  0  0  0  0  0
   -0.9459    0.9683    8.0720 O   0  0  0  0  0  0  0  0  0  0  0  0
    0.2749    1.4989    6.0509 C   0  0  2  0  0  0  0  0  0  0  0  0
    1.5263    0.8124    6.6511 C   0  0  0  0  0  0  0  0  0  0  0  0
    2.5823    0.4861    5.6258 C   0  0  0  0  0  0  0  0  0  0  0  0
    2.6085    0.9631    4.3611 C   0  0  0  0  0  0  0  0  0  0  0  0
    3.5891    0.4545    3.2813 C   0  0  1  0  0  0  0  0  0  0  0  0
    4.6436   -0.5736    3.7344 C   0  0  0  0  0  0  0  0  0  0  0  0
    4.0723   -1.9954    3.6768 C   0  0  0  0  0  0  0  0  0  0  0  0
    3.7363   -2.4584    2.2406 C   0  0  2  0  0  0  0  0  0  0  0  0
    2.6252   -3.5235    2.3091 C   0  0  0  0  0  0  0  0  0  0  0  0
    4.9570   -3.0591    1.5328 C   0  0  0  0  0  0  0  0  0  0  0  0
    5.5122   -4.1167    1.8898 O   0  0  0  0  0  0  0  0  0  0  0  0
    5.3909   -2.2884    0.3084 C   0  0  0  0  0  0  0  0  0  0  0  0
    4.6181   -0.9805    0.4282 C   0  0  0  0  0  0  0  0  0  0  0  0
    3.3777   -1.2757    1.3016 C   0  0  2  0  0  0  0  0  0  0  0  0
    2.8185    0.0054    1.9947 C   0  0  1  0  0  0  0  0  0  0  0  0
    1.2959   -0.0817    2.2396 C   0  0  0  0  0  0  0  0  0  0  0  0
    0.6891    1.2433    2.7524 C   0  0  1  0  0  0  0  0  0  0  0  0
   -0.6387    0.9537    3.1347 O   0  0  0  0  0  0  0  0  0  0  0  0
    1.5562    1.9785    3.8455 C   0  0  2  0  0  0  0  0  0  0  0  0
    2.2685    3.1169    3.0678 C   0  0  0  0  0  0  0  0  0  0  0  0
    0.6837    2.5951    5.0269 C   0  0  2  0  0  0  0  0  0  0  0  0
    1.2070    3.8014    5.8716 C   0  0  1  0  0  0  0  0  0  0  0  0
    1.5746    4.9334    5.1261 O   0  0  0  0  0  0  0  0  0  0  0  0
    0.0776    4.3538    6.7636 C   0  0  0  0  0  0  0  0  0  0  0  0
   -0.4653    3.3520    7.8116 C   0  0  1  0  0  0  0  0  0  0  0  0
    0.5927    3.2819    8.9425 C   0  0  0  0  0  0  0  0  0  0  0  0
   -2.0380    5.2812   10.8309 H   0  0  0  0  0  0  0  0  0  0  0  0
   -0.7060    4.1335   11.0278 H   0  0  0  0  0  0  0  0  0  0  0  0
   -2.2278    3.8349   11.8409 H   0  0  0  0  0  0  0  0  0  0  0  0
   -1.9017    4.9442    8.2911 H   0  0  0  0  0  0  0  0  0  0  0  0
   -3.8173    3.0137    7.6053 H   0  0  0  0  0  0  0  0  0  0  0  0
   -3.0495    4.1204    6.4936 H   0  0  0  0  0  0  0  0  0  0  0  0
   -2.7610    1.2513    6.5598 H   0  0  0  0  0  0  0  0  0  0  0  0
   -2.1190    2.4165    5.4324 H   0  0  0  0  0  0  0  0  0  0  0  0
   -0.1527    0.9423    8.5933 H   0  0  0  0  0  0  0  0  0  0  0  0
   -0.2307    0.6990    5.5060 H   0  0  0  0  0  0  0  0  0  0  0  0
    2.0039    1.3862    7.4374 H   0  0  0  0  0  0  0  0  0  0  0  0
    1.2279   -0.1336    7.0956 H   0  0  0  0  0  0  0  0  0  0  0  0
    3.3104   -0.2332    5.9634 H   0  0  0  0  0  0  0  0  0  0  0  0
    4.1742    1.3313    3.0295 H   0  0  0  0  0  0  0  0  0  0  0  0
    5.5264   -0.5166    3.0904 H   0  0  0  0  0  0  0  0  0  0  0  0
    5.0461   -0.3476    4.7143 H   0  0  0  0  0  0  0  0  0  0  0  0
    4.7823   -2.6697    4.1370 H   0  0  0  0  0  0  0  0  0  0  0  0
    3.1609   -2.0366    4.3078 H   0  0  0  0  0  0  0  0  0  0  0  0
    1.6966   -3.1029    2.6944 H   0  0  0  0  0  0  0  0  0  0  0  0
    2.9070   -4.3418    2.9708 H   0  0  0  0  0  0  0  0  0  0  0  0
    2.4148   -3.9534    1.3311 H   0  0  0  0  0  0  0  0  0  0  0  0
    6.4735   -2.1487    0.2791 H   0  0  0  0  0  0  0  0  0  0  0  0
    5.0955   -2.8414   -0.5821 H   0  0  0  0  0  0  0  0  0  0  0  0
    5.2638   -0.2244    0.8808 H   0  0  0  0  0  0  0  0  0  0  0  0
    4.3265   -0.5915   -0.5553 H   0  0  0  0  0  0  0  0  0  0  0  0
    2.6149   -1.6313    0.6055 H   0  0  0  0  0  0  0  0  0  0  0  0
    2.9388    0.7975    1.2530 H   0  0  0  0  0  0  0  0  0  0  0  0
    0.7939   -0.3597    1.3111 H   0  0  0  0  0  0  0  0  0  0  0  0
    1.0952   -0.8784    2.9560 H   0  0  0  0  0  0  0  0  0  0  0  0
    0.5746    1.9094    1.8922 H   0  0  0  0  0  0  0  0  0  0  0  0
   -1.1795    0.9441    2.3528 H   0  0  0  0  0  0  0  0  0  0  0  0
    1.5679    3.9133    2.8086 H   0  0  0  0  0  0  0  0  0  0  0  0
    2.6704    2.7875    2.1116 H   0  0  0  0  0  0  0  0  0  0  0  0
    3.1110    3.5339    3.6203 H   0  0  0  0  0  0  0  0  0  0  0  0
   -0.2043    2.9959    4.5375 H   0  0  0  0  0  0  0  0  0  0  0  0
    2.0785    3.5127    6.4706 H   0  0  0  0  0  0  0  0  0  0  0  0
    2.2328    4.6652    4.4960 H   0  0  0  0  0  0  0  0  0  0  0  0
    0.4077    5.2568    7.2737 H   0  0  0  0  0  0  0  0  0  0  0  0
   -0.7312    4.6885    6.1073 H   0  0  0  0  0  0  0  0  0  0  0  0
    1.5937    3.0495    8.5905 H   0  0  0  0  0  0  0  0  0  0  0  0
    0.3397    2.5476    9.7024 H   0  0  0  0  0  0  0  0  0  0  0  0
    0.6846    4.2536    9.4239 H   0  0  0  0  0  0  0  0  0  0  0  0
  1  2  1  0
  1 35  1  0
  1 36  1  0
  1 37  1  0
  2  3  2  0
  2  4  1  0
  4 33  1  0
  4  5  1  0
  4 38  1  1
  5  6  1  0
  5 39  1  0
  5 40  1  0
  6  7  1  0
  6 41  1  0
  6 42  1  0
  7 33  1  0
  7  8  1  1
  7  9  1  0
  8 43  1  0
  9 29  1  0
  9 10  1  0
  9 44  1  6
 10 11  1  0
 10 45  1  0
 10 46  1  0
 11 12  2  0
 11 47  1  0
 12 27  1  0
 12 13  1  0
 13 23  1  0
 13 14  1  0
 13 48  1  6
 14 15  1  0
 14 49  1  0
 14 50  1  0
 15 16  1  0
 15 51  1  0
 15 52  1  0
 16 22  1  0
 16 17  1  1
 16 18  1  0
 17 53  1  0
 17 54  1  0
 17 55  1  0
 18 19  2  0
 18 20  1  0
 20 21  1  0
 20 56  1  0
 20 57  1  0
 21 22  1  0
 21 58  1  0
 21 59  1  0
 22 23  1  0
 22 60  1  6
 23 24  1  0
 23 61  1  6
 24 25  1  0
 24 62  1  0
 24 63  1  0
 25 26  1  0
 25 27  1  0
 25 64  1  6
 26 65  1  0
 27 28  1  6
 27 29  1  0
 28 66  1  0
 28 67  1  0
 28 68  1  0
 29 30  1  0
 29 69  1  6
 30 31  1  0
 30 32  1  0
 30 70  1  1
 31 71  1  0
 32 33  1  0
 32 72  1  0
 32 73  1  0
 33 34  1  1
 34 74  1  0
 34 75  1  0
 34 76  1  0
M  END
>  <i_m_ct_stereo_status>  (35) 
1

>  <s_m_source_file>  (35) 
/var/tmp/pbs.5076255.sched01/tmpuj7nejrg/06cdl7mjn.sdf

>  <i_m_source_file_index>  (35) 
15

>  <i_lp_mmshare_version>  (35) 
48012

>  <i_f3d_flags>  (35) 
0

>  <s_epik_input>  (35) 
W0NIM11DKD1PKVtDQEhdKFtDSDJdW0NIMl0xKVtDQF0yKFtDSDNdKVtDSDJdW0NASF0oW09IXSlbQ0BIXShbQ0BASF0zW0NAXTEyW09IXSlbQ0BAXTQoW0NIM10pQyg9W0NIXVtDSDJdMylbQ0BASF01W0NASF0oW0NIMl1bQ0BIXTRbT0hdKVtDQEBIXTZbQ0BdKFtDSDNdKShbQ0gyXVtDSDJdNSlDKD1PKVtDSDJdW0NIMl02

>  <s_epik_cmdline>  (35) 
J2VwaWtfcHl0aG9uJywgJy1waHQnLCAnMi4wJywgJy1waCcsICc3LjAnLCAnLXRuJywgJzgnLCAnLW1hJywgJzIwMCcsICctaW1hZScsICc8aW5maWxlLm1hZT4nLCAnLW9tYWUnLCAnPG91dGZpbGUubWFlPic=

>  <r_lp_tautomer_probability>  (35) 
1

>  <r_epik_Ionization_Penalty>  (35) 
2.34563e-06

>  <r_epik_Ionization_Penalty_Charging>  (35) 
0

>  <r_epik_Ionization_Penalty_Neutral>  (35) 
2.34563e-06

>  <r_epik_State_Penalty>  (35) 
-0

>  <r_epik_Charging_Adjusted_Penalty>  (35) 
0

>  <i_epik_Tot_Q>  (35) 
0

>  <i_epik_Tot_abs_Q>  (35) 
0

>  <s_lp_Force_Field>  (35) 
OPLS3e

>  <r_lp_Energy>  (35) 
68.148

>  <b_lp_Chiralities_Consistent>  (35) 
1

>  <s_lp_Variant>  (35) 
9:0-1

>  <s_i_glide_gridfile>  (35) 
pfpi4k_grid

>  <i_i_glide_lignum>  (35) 
15

>  <i_i_glide_rotatable_bonds>  (35) 
4

>  <r_i_docking_score>  (35) 
-2.73983

>  <r_i_glide_ligand_efficiency>  (35) 
-0.0805834

>  <r_i_glide_ligand_efficiency_sa>  (35) 
-0.261059

>  <r_i_glide_ligand_efficiency_ln>  (35) 
-0.605306

>  <r_i_glide_gscore>  (35) 
-2.73983

>  <r_i_glide_lipo>  (35) 
-0.32908

>  <r_i_glide_hbond>  (35) 
0

>  <r_i_glide_metal>  (35) 
-0

>  <r_i_glide_rewards>  (35) 
-0.246965

>  <r_i_glide_evdw>  (35) 
-31.0972

>  <r_i_glide_ecoul>  (35) 
-3.80015

>  <r_i_glide_erotb>  (35) 
0

>  <r_i_glide_esite>  (35) 
-0.0389041

>  <r_i_glide_emodel>  (35) 
-39.5455

>  <r_i_glide_energy>  (35) 
-34.8974

>  <r_i_glide_einternal>  (35) 
1.81776

>  <r_i_glide_intrahb_reward>  (35) 
-0

>  <i_i_glide_confnum>  (35) 
1

>  <i_i_glide_posenum>  (35) 
26

>  <r_i_glide_eff_state_penalty>  (35) 
0

>  <ligand_id>  (35) 
9

>  <original_smiles>  (35) 
CC(=O)C1CCC2(O)C3CC=C4C5CCC6(C)C(=O)CCC6C5CC(O)C4(C)C3C(O)CC12C

>  <smiles>  (35) 
[H]OC1([H])C([H])([H])C2(C([H])([H])[H])C([H])(C(=O)C([H])([H])[H])C([H])([H])C([H])([H])C2(O[H])C2([H])C([H])([H])C([H])=C3C4([H])C([H])([H])C([H])([H])C5(C([H])([H])[H])C(=O)C([H])([H])C([H])([H])C5([H])C4([H])C([H])([H])C([H])(O[H])C3(C([H])([H])[H])C12[H]

$$$$
9:0:2
     RDKit          3D

 76 81  0  0  1  0  0  0  0  0999 V2000
   -1.8050    4.3530   10.8688 C   0  0  0  0  0  0  0  0  0  0  0  0
   -2.2718    3.4837    9.7023 C   0  0  0  0  0  0  0  0  0  0  0  0
   -3.0315    2.5470    9.9029 O   0  0  0  0  0  0  0  0  0  0  0  0
   -1.8154    3.8670    8.2692 C   0  0  2  0  0  0  0  0  0  0  0  0
   -2.8027    3.3302    7.2075 C   0  0  0  0  0  0  0  0  0  0  0  0
   -2.1381    2.1405    6.5039 C   0  0  0  0  0  0  0  0  0  0  0  0
   -0.7459    1.9569    7.1198 C   0  0  1  0  0  0  0  0  0  0  0  0
   -0.9331    0.9538    8.1019 O   0  0  0  0  0  0  0  0  0  0  0  0
    0.2971    1.4336    6.0745 C   0  0  2  0  0  0  0  0  0  0  0  0
    1.5372    0.7413    6.6895 C   0  0  0  0  0  0  0  0  0  0  0  0
    2.5911    0.3765    5.6747 C   0  0  0  0  0  0  0  0  0  0  0  0
    2.6256    0.8307    4.3999 C   0  0  0  0  0  0  0  0  0  0  0  0
    3.6023    0.2852    3.3296 C   0  0  1  0  0  0  0  0  0  0  0  0
    4.6350   -0.7531    3.8065 C   0  0  0  0  0  0  0  0  0  0  0  0
    4.0378   -2.1654    3.7800 C   0  0  0  0  0  0  0  0  0  0  0  0
    3.7036   -2.6549    2.3523 C   0  0  2  0  0  0  0  0  0  0  0  0
    2.5782   -3.7002    2.4414 C   0  0  0  0  0  0  0  0  0  0  0  0
    4.9183   -3.2833    1.6584 C   0  0  0  0  0  0  0  0  0  0  0  0
    5.4540   -4.3379    2.0383 O   0  0  0  0  0  0  0  0  0  0  0  0
    5.3623   -2.5449    0.4191 C   0  0  0  0  0  0  0  0  0  0  0  0
    4.6057   -1.2221    0.5107 C   0  0  0  0  0  0  0  0  0  0  0  0
    3.3620   -1.4865    1.3897 C   0  0  2  0  0  0  0  0  0  0  0  0
    2.8205   -0.1807    2.0544 C   0  0  1  0  0  0  0  0  0  0  0  0
    1.2978   -0.2422    2.3041 C   0  0  0  0  0  0  0  0  0  0  0  0
    0.7113    1.1049    2.7870 C   0  0  1  0  0  0  0  0  0  0  0  0
   -0.6241    0.8513    3.1724 O   0  0  0  0  0  0  0  0  0  0  0  0
    1.5882    1.8479    3.8663 C   0  0  2  0  0  0  0  0  0  0  0  0
    2.3132    2.9604    3.0678 C   0  0  0  0  0  0  0  0  0  0  0  0
    0.7242    2.5073    5.0302 C   0  0  2  0  0  0  0  0  0  0  0  0
    1.2646    3.7255    5.8522 C   0  0  1  0  0  0  0  0  0  0  0  0
    1.7061    4.8435    5.1104 O   0  0  0  0  0  0  0  0  0  0  0  0
    0.1352    4.3050    6.7308 C   0  0  0  0  0  0  0  0  0  0  0  0
   -0.4205    3.3291    7.8004 C   0  0  1  0  0  0  0  0  0  0  0  0
    0.6241    3.2659    8.9433 C   0  0  0  0  0  0  0  0  0  0  0  0
   -2.1290    5.3815   10.7320 H   0  0  0  0  0  0  0  0  0  0  0  0
   -0.7257    4.3408   10.9776 H   0  0  0  0  0  0  0  0  0  0  0  0
   -2.2236    3.9703   11.8013 H   0  0  0  0  0  0  0  0  0  0  0  0
   -1.8309    4.9528    8.2454 H   0  0  0  0  0  0  0  0  0  0  0  0
   -3.7775    3.0423    7.6060 H   0  0  0  0  0  0  0  0  0  0  0  0
   -2.9898    4.1097    6.4667 H   0  0  0  0  0  0  0  0  0  0  0  0
   -2.7463    1.2361    6.5908 H   0  0  0  0  0  0  0  0  0  0  0  0
   -2.0867    2.3679    5.4403 H   0  0  0  0  0  0  0  0  0  0  0  0
   -0.1500    0.9374    8.6346 H   0  0  0  0  0  0  0  0  0  0  0  0
   -0.2192    0.6290    5.5488 H   0  0  0  0  0  0  0  0  0  0  0  0
    2.0222    1.3256    7.4655 H   0  0  0  0  0  0  0  0  0  0  0  0
    1.2253   -0.1918    7.1566 H   0  0  0  0  0  0  0  0  0  0  0  0
    3.3054   -0.3465    6.0297 H   0  0  0  0  0  0  0  0  0  0  0  0
    4.2083    1.1398    3.0460 H   0  0  0  0  0  0  0  0  0  0  0  0
    5.5207   -0.7211    3.1653 H   0  0  0  0  0  0  0  0  0  0  0  0
    5.0386   -0.5109    4.7840 H   0  0  0  0  0  0  0  0  0  0  0  0
    4.7466   -2.8359    4.2502 H   0  0  0  0  0  0  0  0  0  0  0  0
    3.1334   -2.1852    4.4112 H   0  0  0  0  0  0  0  0  0  0  0  0
    1.6551   -3.2593    2.8174 H   0  0  0  0  0  0  0  0  0  0  0  0
    2.8476   -4.5086    3.1190 H   0  0  0  0  0  0  0  0  0  0  0  0
    2.3625   -4.1454    1.4727 H   0  0  0  0  0  0  0  0  0  0  0  0
    6.4459   -2.4217    0.3869 H   0  0  0  0  0  0  0  0  0  0  0  0
    5.0580   -3.1129   -0.4595 H   0  0  0  0  0  0  0  0  0  0  0  0
    5.2633   -0.4682    0.9501 H   0  0  0  0  0  0  0  0  0  0  0  0
    4.3211   -0.8486   -0.4797 H   0  0  0  0  0  0  0  0  0  0  0  0
    2.5974   -1.8447    0.6981 H   0  0  0  0  0  0  0  0  0  0  0  0
    2.9504    0.5904    1.2917 H   0  0  0  0  0  0  0  0  0  0  0  0
    0.7888   -0.5352    1.3854 H   0  0  0  0  0  0  0  0  0  0  0  0
    1.0854   -1.0190    3.0411 H   0  0  0  0  0  0  0  0  0  0  0  0
    0.6114    1.7521    1.9115 H   0  0  0  0  0  0  0  0  0  0  0  0
   -1.1750    0.9241    2.4048 H   0  0  0  0  0  0  0  0  0  0  0  0
    1.6224    3.7593    2.7896 H   0  0  0  0  0  0  0  0  0  0  0  0
    2.7203    2.6052    2.1226 H   0  0  0  0  0  0  0  0  0  0  0  0
    3.1479    3.3865    3.6222 H   0  0  0  0  0  0  0  0  0  0  0  0
   -0.1606    2.9030    4.5292 H   0  0  0  0  0  0  0  0  0  0  0  0
    2.1143    3.4258    6.4685 H   0  0  0  0  0  0  0  0  0  0  0  0
    1.1134    4.9912    4.3864 H   0  0  0  0  0  0  0  0  0  0  0  0
    0.4805    5.2072    7.2305 H   0  0  0  0  0  0  0  0  0  0  0  0
   -0.6711    4.6380    6.0724 H   0  0  0  0  0  0  0  0  0  0  0  0
    1.6247    3.0229    8.6036 H   0  0  0  0  0  0  0  0  0  0  0  0
    0.3596    2.5453    9.7162 H   0  0  0  0  0  0  0  0  0  0  0  0
    0.7242    4.2416    9.4150 H   0  0  0  0  0  0  0  0  0  0  0  0
  1  2  1  0
  1 35  1  0
  1 36  1  0
  1 37  1  0
  2  3  2  0
  2  4  1  0
  4 33  1  0
  4  5  1  0
  4 38  1  1
  5  6  1  0
  5 39  1  0
  5 40  1  0
  6  7  1  0
  6 41  1  0
  6 42  1  0
  7 33  1  0
  7  8  1  1
  7  9  1  0
  8 43  1  0
  9 29  1  0
  9 10  1  0
  9 44  1  6
 10 11  1  0
 10 45  1  0
 10 46  1  0
 11 12  2  0
 11 47  1  0
 12 27  1  0
 12 13  1  0
 13 23  1  0
 13 14  1  0
 13 48  1  6
 14 15  1  0
 14 49  1  0
 14 50  1  0
 15 16  1  0
 15 51  1  0
 15 52  1  0
 16 22  1  0
 16 17  1  1
 16 18  1  0
 17 53  1  0
 17 54  1  0
 17 55  1  0
 18 19  2  0
 18 20  1  0
 20 21  1  0
 20 56  1  0
 20 57  1  0
 21 22  1  0
 21 58  1  0
 21 59  1  0
 22 23  1  0
 22 60  1  6
 23 24  1  0
 23 61  1  6
 24 25  1  0
 24 62  1  0
 24 63  1  0
 25 26  1  0
 25 27  1  0
 25 64  1  6
 26 65  1  0
 27 28  1  6
 27 29  1  0
 28 66  1  0
 28 67  1  0
 28 68  1  0
 29 30  1  0
 29 69  1  6
 30 31  1  0
 30 32  1  0
 30 70  1  1
 31 71  1  0
 32 33  1  0
 32 72  1  0
 32 73  1  0
 33 34  1  1
 34 74  1  0
 34 75  1  0
 34 76  1  0
M  END
>  <i_m_ct_stereo_status>  (36) 
1

>  <s_m_source_file>  (36) 
/var/tmp/pbs.5076255.sched01/tmpuj7nejrg/06cdl7mjn.sdf

>  <i_m_source_file_index>  (36) 
15

>  <i_lp_mmshare_version>  (36) 
48012

>  <i_f3d_flags>  (36) 
0

>  <s_epik_input>  (36) 
W0NIM11DKD1PKVtDQEhdKFtDSDJdW0NIMl0xKVtDQF0yKFtDSDNdKVtDSDJdW0NASF0oW09IXSlbQ0BIXShbQ0BASF0zW0NAXTEyW09IXSlbQ0BAXTQoW0NIM10pQyg9W0NIXVtDSDJdMylbQ0BASF01W0NASF0oW0NIMl1bQ0BIXTRbT0hdKVtDQEBIXTZbQ0BdKFtDSDNdKShbQ0gyXVtDSDJdNSlDKD1PKVtDSDJdW0NIMl02

>  <s_epik_cmdline>  (36) 
J2VwaWtfcHl0aG9uJywgJy1waHQnLCAnMi4wJywgJy1waCcsICc3LjAnLCAnLXRuJywgJzgnLCAnLW1hJywgJzIwMCcsICctaW1hZScsICc8aW5maWxlLm1hZT4nLCAnLW9tYWUnLCAnPG91dGZpbGUubWFlPic=

>  <r_lp_tautomer_probability>  (36) 
1

>  <r_epik_Ionization_Penalty>  (36) 
2.34563e-06

>  <r_epik_Ionization_Penalty_Charging>  (36) 
0

>  <r_epik_Ionization_Penalty_Neutral>  (36) 
2.34563e-06

>  <r_epik_State_Penalty>  (36) 
-0

>  <r_epik_Charging_Adjusted_Penalty>  (36) 
0

>  <i_epik_Tot_Q>  (36) 
0

>  <i_epik_Tot_abs_Q>  (36) 
0

>  <s_lp_Force_Field>  (36) 
OPLS3e

>  <r_lp_Energy>  (36) 
68.148

>  <b_lp_Chiralities_Consistent>  (36) 
1

>  <s_lp_Variant>  (36) 
9:0-1

>  <s_i_glide_gridfile>  (36) 
pfpi4k_grid

>  <i_i_glide_lignum>  (36) 
15

>  <i_i_glide_rotatable_bonds>  (36) 
4

>  <r_i_docking_score>  (36) 
-2.60441

>  <r_i_glide_ligand_efficiency>  (36) 
-0.0766004

>  <r_i_glide_ligand_efficiency_sa>  (36) 
-0.248156

>  <r_i_glide_ligand_efficiency_ln>  (36) 
-0.575388

>  <r_i_glide_gscore>  (36) 
-2.60441

>  <r_i_glide_lipo>  (36) 
-0.271388

>  <r_i_glide_hbond>  (36) 
0

>  <r_i_glide_metal>  (36) 
-0

>  <r_i_glide_rewards>  (36) 
-0.245667

>  <r_i_glide_evdw>  (36) 
-30.8577

>  <r_i_glide_ecoul>  (36) 
-3.38975

>  <r_i_glide_erotb>  (36) 
0

>  <r_i_glide_esite>  (36) 
-0.0360105

>  <r_i_glide_emodel>  (36) 
-38.6513

>  <r_i_glide_energy>  (36) 
-34.2475

>  <r_i_glide_einternal>  (36) 
1.40073

>  <r_i_glide_intrahb_reward>  (36) 
-0

>  <i_i_glide_confnum>  (36) 
1

>  <i_i_glide_posenum>  (36) 
8

>  <r_i_glide_eff_state_penalty>  (36) 
0

>  <ligand_id>  (36) 
9

>  <original_smiles>  (36) 
CC(=O)C1CCC2(O)C3CC=C4C5CCC6(C)C(=O)CCC6C5CC(O)C4(C)C3C(O)CC12C

>  <smiles>  (36) 
[H]OC1([H])C([H])([H])C2(C([H])([H])[H])C([H])(C(=O)C([H])([H])[H])C([H])([H])C([H])([H])C2(O[H])C2([H])C([H])([H])C([H])=C3C4([H])C([H])([H])C([H])([H])C5(C([H])([H])[H])C(=O)C([H])([H])C([H])([H])C5([H])C4([H])C([H])([H])C([H])(O[H])C3(C([H])([H])[H])C12[H]

$$$$
10:0:0
     RDKit          3D

 51 55  0  0  1  0  0  0  0  0999 V2000
    4.7800   -6.9166    0.7862 C   0  0  0  0  0  0  0  0  0  0  0  0
    5.9161   -5.8835    0.9863 C   0  0  0  0  0  0  0  0  0  0  0  0
    5.5800   -4.4017    0.6311 C   0  0  2  0  0  0  0  0  0  0  0  0
    6.8596   -3.5092    0.7780 C   0  0  0  0  0  0  0  0  0  0  0  0
    6.8564   -2.0260    0.2881 C   0  0  0  0  0  0  0  0  0  0  0  0
    5.9859   -0.9460    0.9867 C   0  0  0  0  0  0  0  0  0  0  0  0
    4.4990   -1.2285    1.3718 C   0  0  2  0  0  0  0  0  0  0  0  0
    3.7353   -0.0852    1.0500 O   0  0  0  0  0  0  0  0  0  0  0  0
    4.3837   -1.2699    2.9106 C   0  0  0  0  0  0  0  0  0  0  0  0
    5.1399   -2.4698    3.4849 C   0  0  0  0  0  0  0  0  0  0  0  0
    4.6202   -3.8027    2.9324 C   0  0  1  0  0  0  0  0  0  0  0  0
    3.4564   -4.1947    3.7594 N   0  0  0  0  0  0  0  0  0  0  0  0
    4.3323   -3.8245    1.3726 C   0  0  2  0  0  0  0  0  0  0  0  0
    2.9306   -4.3574    0.9782 C   0  0  0  0  0  0  0  0  0  0  0  0
    2.4475   -2.9134    1.0637 C   0  0  0  0  0  0  0  0  0  0  0  0
    3.8722   -2.4839    0.7013 C   0  0  1  0  0  0  0  0  0  0  0  0
    4.0831   -2.4459   -0.8308 C   0  0  0  0  0  0  0  0  0  0  0  0
    3.5040   -1.4395   -1.6343 C   0  0  0  0  0  0  0  0  0  0  0  0
    3.6884   -1.4205   -3.0233 C   0  0  0  0  0  0  0  0  0  0  0  0
    4.4265   -2.4393   -3.6441 C   0  0  0  0  0  0  0  0  0  0  0  0
    4.9788   -3.4676   -2.8647 C   0  0  0  0  0  0  0  0  0  0  0  0
    4.8064   -3.4830   -1.4710 C   0  0  0  0  0  0  0  0  0  0  0  0
    5.3579   -4.5293   -0.7772 O   0  0  0  0  0  0  0  0  0  0  0  0
    5.1173   -7.9208    1.0484 H   0  0  0  0  0  0  0  0  0  0  0  0
    4.4407   -6.9453   -0.2522 H   0  0  0  0  0  0  0  0  0  0  0  0
    3.9164   -6.7206    1.4198 H   0  0  0  0  0  0  0  0  0  0  0  0
    6.3072   -5.9878    1.9991 H   0  0  0  0  0  0  0  0  0  0  0  0
    6.7501   -6.1838    0.3498 H   0  0  0  0  0  0  0  0  0  0  0  0
    7.2353   -3.5619    1.7930 H   0  0  0  0  0  0  0  0  0  0  0  0
    7.6309   -4.0043    0.1873 H   0  0  0  0  0  0  0  0  0  0  0  0
    7.8837   -1.6756    0.3864 H   0  0  0  0  0  0  0  0  0  0  0  0
    6.6991   -1.9739   -0.7892 H   0  0  0  0  0  0  0  0  0  0  0  0
    6.5280   -0.6291    1.8731 H   0  0  0  0  0  0  0  0  0  0  0  0
    6.0073   -0.0670    0.3401 H   0  0  0  0  0  0  0  0  0  0  0  0
    2.8311   -0.3447    0.9280 H   0  0  0  0  0  0  0  0  0  0  0  0
    4.7794   -0.3496    3.3476 H   0  0  0  0  0  0  0  0  0  0  0  0
    3.3386   -1.2967    3.2285 H   0  0  0  0  0  0  0  0  0  0  0  0
    6.1989   -2.3788    3.2573 H   0  0  0  0  0  0  0  0  0  0  0  0
    5.0845   -2.4574    4.5769 H   0  0  0  0  0  0  0  0  0  0  0  0
    5.3652   -4.5405    3.2029 H   0  0  0  0  0  0  0  0  0  0  0  0
    2.7207   -3.5174    3.6224 H   0  0  0  0  0  0  0  0  0  0  0  0
    3.7217   -4.2060    4.7329 H   0  0  0  0  0  0  0  0  0  0  0  0
    2.8733   -4.7503   -0.0386 H   0  0  0  0  0  0  0  0  0  0  0  0
    2.4195   -5.0334    1.6593 H   0  0  0  0  0  0  0  0  0  0  0  0
    1.7177   -2.6435    0.3129 H   0  0  0  0  0  0  0  0  0  0  0  0
    2.1069   -2.6623    2.0681 H   0  0  0  0  0  0  0  0  0  0  0  0
    2.9115   -0.6600   -1.1931 H   0  0  0  0  0  0  0  0  0  0  0  0
    3.2559   -0.6284   -3.6187 H   0  0  0  0  0  0  0  0  0  0  0  0
    4.5753   -2.4285   -4.7071 H   0  0  0  0  0  0  0  0  0  0  0  0
    5.5394   -4.2554   -3.3433 H   0  0  0  0  0  0  0  0  0  0  0  0
    3.1280   -5.1094    3.4901 H   0  0  0  0  0  0  0  0  0  0  0  0
  1  2  1  0
  1 24  1  0
  1 25  1  0
  1 26  1  0
  3  2  1  1
  2 27  1  0
  2 28  1  0
  3 13  1  0
  3 23  1  0
  3  4  1  0
  4  5  1  0
  4 29  1  0
  4 30  1  0
  5  6  1  0
  5 31  1  0
  5 32  1  0
  6  7  1  0
  6 33  1  0
  6 34  1  0
  7 16  1  0
  7  8  1  6
  7  9  1  0
  8 35  1  0
  9 10  1  0
  9 36  1  0
  9 37  1  0
 10 11  1  0
 10 38  1  0
 10 39  1  0
 11 12  1  0
 11 13  1  0
 11 40  1  6
 12 41  1  0
 12 42  1  0
 12 51  1  0
 13 16  1  0
 13 14  1  1
 14 15  1  0
 14 43  1  0
 14 44  1  0
 16 15  1  6
 15 45  1  0
 15 46  1  0
 16 17  1  0
 17 22  2  0
 17 18  1  0
 18 19  2  0
 18 47  1  0
 19 20  1  0
 19 48  1  0
 20 21  2  0
 20 49  1  0
 21 22  1  0
 21 50  1  0
 22 23  1  0
M  CHG  1  12   1
M  END
>  <i_m_ct_stereo_status>  (37) 
1

>  <s_m_source_file>  (37) 
/var/tmp/pbs.5076255.sched01/tmpuj7nejrg/06cdl7mjn.sdf

>  <i_m_source_file_index>  (37) 
16

>  <i_lp_mmshare_version>  (37) 
48012

>  <i_f3d_flags>  (37) 
0

>  <s_epik_input>  (37) 
W2NIXTFbY0hdW2NIXVtjSF1jMmMxT1tDQEBdMyhbQ0gyXVtDSDNdKVtDSDJdW0NIMl1bQ0gyXVtDQEBdKFtPSF0pKFtDQEBdMihbQ0BAXTM0NSlbQ0gyXVtDSDJdNSlbQ0gyXVtDSDJdW0NASF00W05IMl0=

>  <s_epik_cmdline>  (37) 
J2VwaWtfcHl0aG9uJywgJy1waHQnLCAnMi4wJywgJy1waCcsICc3LjAnLCAnLXRuJywgJzgnLCAnLW1hJywgJzIwMCcsICctaW1hZScsICc8aW5maWxlLm1hZT4nLCAnLW9tYWUnLCAnPG91dGZpbGUubWFlPic=

>  <r_lp_tautomer_probability>  (37) 
1

>  <r_epik_Ionization_Penalty>  (37) 
0.000650971

>  <r_epik_Ionization_Penalty_Charging>  (37) 
0.000650916

>  <r_epik_Ionization_Penalty_Neutral>  (37) 
5.46187e-08

>  <r_epik_State_Penalty>  (37) 
0.000412218

>  <r_epik_Charging_Adjusted_Penalty>  (37) 
0.00106313

>  <i_epik_Tot_Q>  (37) 
1

>  <i_epik_Tot_abs_Q>  (37) 
1

>  <s_lp_Force_Field>  (37) 
OPLS3e

>  <r_lp_Energy>  (37) 
82.4241

>  <b_lp_Chiralities_Consistent>  (37) 
1

>  <s_lp_Variant>  (37) 
10:0-1

>  <s_i_glide_gridfile>  (37) 
pfpi4k_grid

>  <i_i_glide_lignum>  (37) 
16

>  <i_i_glide_rotatable_bonds>  (37) 
2

>  <r_i_docking_score>  (37) 
-3.37562

>  <r_i_glide_ligand_efficiency>  (37) 
-0.146766

>  <r_i_glide_ligand_efficiency_sa>  (37) 
-0.417384

>  <r_i_glide_ligand_efficiency_ln>  (37) 
-0.816257

>  <r_i_glide_gscore>  (37) 
-3.37562

>  <r_i_glide_lipo>  (37) 
-0.940736

>  <r_i_glide_hbond>  (37) 
0

>  <r_i_glide_metal>  (37) 
-0

>  <r_i_glide_rewards>  (37) 
-1.26517

>  <r_i_glide_evdw>  (37) 
-21.0245

>  <r_i_glide_ecoul>  (37) 
-0.789967

>  <r_i_glide_erotb>  (37) 
0

>  <r_i_glide_esite>  (37) 
0

>  <r_i_glide_emodel>  (37) 
-24.9994

>  <r_i_glide_energy>  (37) 
-21.8144

>  <r_i_glide_einternal>  (37) 
0.778392

>  <r_i_glide_intrahb_reward>  (37) 
-0

>  <i_i_glide_confnum>  (37) 
1

>  <i_i_glide_posenum>  (37) 
33

>  <r_i_glide_eff_state_penalty>  (37) 
0

>  <ligand_id>  (37) 
10

>  <original_smiles>  (37) 
CCC12CCCC3(O)CCC(N)C14CCC34c1ccccc1O2

>  <smiles>  (37) 
[H]OC12C([H])([H])C([H])([H])C([H])([H])C3(C([H])([H])C([H])([H])[H])Oc4c([H])c([H])c([H])c([H])c4C14C([H])([H])C([H])([H])C34C([H])([N+]([H])([H])[H])C([H])([H])C2([H])[H]

$$$$
10:0:1
     RDKit          3D

 51 55  0  0  1  0  0  0  0  0999 V2000
    7.4842   -5.8162    2.1660 C   0  0  0  0  0  0  0  0  0  0  0  0
    6.3941   -5.6677    1.0763 C   0  0  0  0  0  0  0  0  0  0  0  0
    5.8991   -4.2481    0.6560 C   0  0  2  0  0  0  0  0  0  0  0  0
    7.0524   -3.2012    0.6093 C   0  0  0  0  0  0  0  0  0  0  0  0
    6.8278   -1.7793    0.0177 C   0  0  0  0  0  0  0  0  0  0  0  0
    5.8697   -0.7565    0.7020 C   0  0  0  0  0  0  0  0  0  0  0  0
    4.4574   -1.1760    1.2264 C   0  0  2  0  0  0  0  0  0  0  0  0
    3.5280   -0.1643    0.8858 O   0  0  0  0  0  0  0  0  0  0  0  0
    4.4273   -1.0953    2.7683 C   0  0  0  0  0  0  0  0  0  0  0  0
    5.3396   -2.1577    3.3588 C   0  0  0  0  0  0  0  0  0  0  0  0
    4.9917   -3.5959    2.9612 C   0  0  1  0  0  0  0  0  0  0  0  0
    3.9137   -4.0380    3.8887 N   0  0  0  0  0  0  0  0  0  0  0  0
    4.6368   -3.7704    1.4222 C   0  0  2  0  0  0  0  0  0  0  0  0
    3.3056   -4.5263    1.1644 C   0  0  0  0  0  0  0  0  0  0  0  0
    2.6242   -3.1450    1.1759 C   0  0  0  0  0  0  0  0  0  0  0  0
    3.9596   -2.5599    0.6980 C   0  0  1  0  0  0  0  0  0  0  0  0
    4.0731   -2.5924   -0.8432 C   0  0  0  0  0  0  0  0  0  0  0  0
    3.3661   -1.7032   -1.6826 C   0  0  0  0  0  0  0  0  0  0  0  0
    3.4279   -1.7912   -3.0744 C   0  0  0  0  0  0  0  0  0  0  0  0
    4.2236   -2.7851   -3.6547 C   0  0  0  0  0  0  0  0  0  0  0  0
    4.9326   -3.6749   -2.8449 C   0  0  0  0  0  0  0  0  0  0  0  0
    4.8585   -3.5952   -1.4456 C   0  0  0  0  0  0  0  0  0  0  0  0
    5.5489   -4.5243   -0.7178 O   0  0  0  0  0  0  0  0  0  0  0  0
    7.8129   -6.8607    2.1990 H   0  0  0  0  0  0  0  0  0  0  0  0
    7.1779   -5.5277    3.1583 H   0  0  0  0  0  0  0  0  0  0  0  0
    8.3828   -5.2601    1.8955 H   0  0  0  0  0  0  0  0  0  0  0  0
    6.8259   -6.1207    0.1973 H   0  0  0  0  0  0  0  0  0  0  0  0
    5.5329   -6.2957    1.2944 H   0  0  0  0  0  0  0  0  0  0  0  0
    7.4811   -3.0933    1.6016 H   0  0  0  0  0  0  0  0  0  0  0  0
    7.8309   -3.6566    0.0034 H   0  0  0  0  0  0  0  0  0  0  0  0
    7.8132   -1.3158    0.0403 H   0  0  0  0  0  0  0  0  0  0  0  0
    6.6051   -1.8354   -1.0492 H   0  0  0  0  0  0  0  0  0  0  0  0
    6.4226   -0.3050    1.5196 H   0  0  0  0  0  0  0  0  0  0  0  0
    5.7462    0.0679    0.0025 H   0  0  0  0  0  0  0  0  0  0  0  0
    2.8002   -0.5666    0.4314 H   0  0  0  0  0  0  0  0  0  0  0  0
    4.7600   -0.1001    3.0958 H   0  0  0  0  0  0  0  0  0  0  0  0
    3.4169   -1.2114    3.1556 H   0  0  0  0  0  0  0  0  0  0  0  0
    6.3134   -1.9538    2.9471 H   0  0  0  0  0  0  0  0  0  0  0  0
    5.4167   -2.0445    4.4432 H   0  0  0  0  0  0  0  0  0  0  0  0
    5.8333   -4.1844    3.2264 H   0  0  0  0  0  0  0  0  0  0  0  0
    3.0744   -3.4850    3.7795 H   0  0  0  0  0  0  0  0  0  0  0  0
    4.2531   -3.9498    4.8295 H   0  0  0  0  0  0  0  0  0  0  0  0
    3.2288   -4.9916    0.1792 H   0  0  0  0  0  0  0  0  0  0  0  0
    2.9746   -5.2363    1.9165 H   0  0  0  0  0  0  0  0  0  0  0  0
    1.8136   -3.0113    0.4416 H   0  0  0  0  0  0  0  0  0  0  0  0
    2.3212   -2.8479    2.1802 H   0  0  0  0  0  0  0  0  0  0  0  0
    2.6992   -0.9588   -1.2836 H   0  0  0  0  0  0  0  0  0  0  0  0
    2.8461   -1.1202   -3.6967 H   0  0  0  0  0  0  0  0  0  0  0  0
    4.2849   -2.8681   -4.7213 H   0  0  0  0  0  0  0  0  0  0  0  0
    5.5296   -4.4327   -3.3260 H   0  0  0  0  0  0  0  0  0  0  0  0
    3.7045   -5.0027    3.6889 H   0  0  0  0  0  0  0  0  0  0  0  0
  1  2  1  0
  1 24  1  0
  1 25  1  0
  1 26  1  0
  3  2  1  1
  2 27  1  0
  2 28  1  0
  3 13  1  0
  3 23  1  0
  3  4  1  0
  4  5  1  0
  4 29  1  0
  4 30  1  0
  5  6  1  0
  5 31  1  0
  5 32  1  0
  6  7  1  0
  6 33  1  0
  6 34  1  0
  7 16  1  0
  7  8  1  6
  7  9  1  0
  8 35  1  0
  9 10  1  0
  9 36  1  0
  9 37  1  0
 10 11  1  0
 10 38  1  0
 10 39  1  0
 11 12  1  0
 11 13  1  0
 11 40  1  1
 12 41  1  0
 12 42  1  0
 12 51  1  0
 13 16  1  0
 13 14  1  1
 14 15  1  0
 14 43  1  0
 14 44  1  0
 16 15  1  6
 15 45  1  0
 15 46  1  0
 16 17  1  0
 17 22  2  0
 17 18  1  0
 18 19  2  0
 18 47  1  0
 19 20  1  0
 19 48  1  0
 20 21  2  0
 20 49  1  0
 21 22  1  0
 21 50  1  0
 22 23  1  0
M  CHG  1  12   1
M  END
>  <i_m_ct_stereo_status>  (38) 
1

>  <s_m_source_file>  (38) 
/var/tmp/pbs.5076255.sched01/tmpuj7nejrg/06cdl7mjn.sdf

>  <i_m_source_file_index>  (38) 
16

>  <i_lp_mmshare_version>  (38) 
48012

>  <i_f3d_flags>  (38) 
0

>  <s_epik_input>  (38) 
W2NIXTFbY0hdW2NIXVtjSF1jMmMxT1tDQEBdMyhbQ0gyXVtDSDNdKVtDSDJdW0NIMl1bQ0gyXVtDQEBdKFtPSF0pKFtDQEBdMihbQ0BAXTM0NSlbQ0gyXVtDSDJdNSlbQ0gyXVtDSDJdW0NASF00W05IMl0=

>  <s_epik_cmdline>  (38) 
J2VwaWtfcHl0aG9uJywgJy1waHQnLCAnMi4wJywgJy1waCcsICc3LjAnLCAnLXRuJywgJzgnLCAnLW1hJywgJzIwMCcsICctaW1hZScsICc8aW5maWxlLm1hZT4nLCAnLW9tYWUnLCAnPG91dGZpbGUubWFlPic=

>  <r_lp_tautomer_probability>  (38) 
1

>  <r_epik_Ionization_Penalty>  (38) 
0.000650971

>  <r_epik_Ionization_Penalty_Charging>  (38) 
0.000650916

>  <r_epik_Ionization_Penalty_Neutral>  (38) 
5.46187e-08

>  <r_epik_State_Penalty>  (38) 
0.000412218

>  <r_epik_Charging_Adjusted_Penalty>  (38) 
0.00106313

>  <i_epik_Tot_Q>  (38) 
1

>  <i_epik_Tot_abs_Q>  (38) 
1

>  <s_lp_Force_Field>  (38) 
OPLS3e

>  <r_lp_Energy>  (38) 
82.4241

>  <b_lp_Chiralities_Consistent>  (38) 
1

>  <s_lp_Variant>  (38) 
10:0-1

>  <s_i_glide_gridfile>  (38) 
pfpi4k_grid

>  <i_i_glide_lignum>  (38) 
16

>  <i_i_glide_rotatable_bonds>  (38) 
2

>  <r_i_docking_score>  (38) 
-3.3459

>  <r_i_glide_ligand_efficiency>  (38) 
-0.145474

>  <r_i_glide_ligand_efficiency_sa>  (38) 
-0.413709

>  <r_i_glide_ligand_efficiency_ln>  (38) 
-0.80907

>  <r_i_glide_gscore>  (38) 
-3.3459

>  <r_i_glide_lipo>  (38) 
-0.899831

>  <r_i_glide_hbond>  (38) 
0

>  <r_i_glide_metal>  (38) 
-0

>  <r_i_glide_rewards>  (38) 
-1.26517

>  <r_i_glide_evdw>  (38) 
-18.9573

>  <r_i_glide_ecoul>  (38) 
-1.55358

>  <r_i_glide_erotb>  (38) 
0

>  <r_i_glide_esite>  (38) 
0

>  <r_i_glide_emodel>  (38) 
-22.3033

>  <r_i_glide_energy>  (38) 
-20.5109

>  <r_i_glide_einternal>  (38) 
3.60784

>  <r_i_glide_intrahb_reward>  (38) 
-0

>  <i_i_glide_confnum>  (38) 
1

>  <i_i_glide_posenum>  (38) 
4

>  <r_i_glide_eff_state_penalty>  (38) 
0

>  <ligand_id>  (38) 
10

>  <original_smiles>  (38) 
CCC12CCCC3(O)CCC(N)C14CCC34c1ccccc1O2

>  <smiles>  (38) 
[H]OC12C([H])([H])C([H])([H])C([H])([H])C3(C([H])([H])C([H])([H])[H])Oc4c([H])c([H])c([H])c([H])c4C14C([H])([H])C([H])([H])C34C([H])([N+]([H])([H])[H])C([H])([H])C2([H])[H]

$$$$
10:0:2
     RDKit          3D

 51 55  0  0  1  0  0  0  0  0999 V2000
    3.0664   -6.3583    2.4861 C   0  0  0  0  0  0  0  0  0  0  0  0
    2.4949   -5.3439    1.4560 C   0  0  0  0  0  0  0  0  0  0  0  0
    3.4168   -4.2620    0.7920 C   0  0  2  0  0  0  0  0  0  0  0  0
    4.8427   -4.8201    0.4865 C   0  0  0  0  0  0  0  0  0  0  0  0
    5.8499   -3.9944   -0.3609 C   0  0  0  0  0  0  0  0  0  0  0  0
    6.4349   -2.6568    0.1621 C   0  0  0  0  0  0  0  0  0  0  0  0
    5.5207   -1.5716    0.8141 C   0  0  2  0  0  0  0  0  0  0  0  0
    5.9310   -0.3187    0.3215 O   0  0  0  0  0  0  0  0  0  0  0  0
    5.8789   -1.4373    2.3044 C   0  0  0  0  0  0  0  0  0  0  0  0
    5.5129   -2.7066    3.0684 C   0  0  0  0  0  0  0  0  0  0  0  0
    4.0268   -3.0056    2.9536 C   0  0  1  0  0  0  0  0  0  0  0  0
    3.3133   -2.2374    4.0114 N   0  0  0  0  0  0  0  0  0  0  0  0
    3.4072   -2.8730    1.5121 C   0  0  2  0  0  0  0  0  0  0  0  0
    2.0971   -2.0598    1.4879 C   0  0  0  0  0  0  0  0  0  0  0  0
    2.9623   -0.8219    1.2527 C   0  0  0  0  0  0  0  0  0  0  0  0
    3.9974   -1.7620    0.5828 C   0  0  1  0  0  0  0  0  0  0  0  0
    3.7141   -1.9572   -0.9247 C   0  0  0  0  0  0  0  0  0  0  0  0
    4.0040   -0.9585   -1.8852 C   0  0  0  0  0  0  0  0  0  0  0  0
    3.6929   -1.1270   -3.2460 C   0  0  0  0  0  0  0  0  0  0  0  0
    3.0817   -2.3068   -3.6670 C   0  0  0  0  0  0  0  0  0  0  0  0
    2.7475   -3.2977   -2.7214 C   0  0  0  0  0  0  0  0  0  0  0  0
    3.0735   -3.1340   -1.3605 C   0  0  0  0  0  0  0  0  0  0  0  0
    2.7439   -4.1470   -0.4739 O   0  0  0  0  0  0  0  0  0  0  0  0
    2.3118   -7.1137    2.7146 H   0  0  0  0  0  0  0  0  0  0  0  0
    3.3582   -5.9494    3.4644 H   0  0  0  0  0  0  0  0  0  0  0  0
    3.9289   -6.8857    2.0726 H   0  0  0  0  0  0  0  0  0  0  0  0
    2.1242   -5.9786    0.6556 H   0  0  0  0  0  0  0  0  0  0  0  0
    1.6011   -4.8553    1.8311 H   0  0  0  0  0  0  0  0  0  0  0  0
    5.3422   -5.1180    1.4043 H   0  0  0  0  0  0  0  0  0  0  0  0
    4.6867   -5.7452   -0.0684 H   0  0  0  0  0  0  0  0  0  0  0  0
    6.7074   -4.6554   -0.4652 H   0  0  0  0  0  0  0  0  0  0  0  0
    5.5050   -3.8679   -1.3895 H   0  0  0  0  0  0  0  0  0  0  0  0
    7.2490   -2.8955    0.8438 H   0  0  0  0  0  0  0  0  0  0  0  0
    6.9464   -2.2067   -0.6850 H   0  0  0  0  0  0  0  0  0  0  0  0
    5.2214    0.2976    0.4485 H   0  0  0  0  0  0  0  0  0  0  0  0
    6.9357   -1.1933    2.4110 H   0  0  0  0  0  0  0  0  0  0  0  0
    5.3736   -0.5916    2.7693 H   0  0  0  0  0  0  0  0  0  0  0  0
    6.0682   -3.5642    2.6836 H   0  0  0  0  0  0  0  0  0  0  0  0
    5.8115   -2.6439    4.1128 H   0  0  0  0  0  0  0  0  0  0  0  0
    3.9473   -4.0255    3.3336 H   0  0  0  0  0  0  0  0  0  0  0  0
    3.3878   -1.2580    3.8328 H   0  0  0  0  0  0  0  0  0  0  0  0
    3.7330   -2.4783    4.8908 H   0  0  0  0  0  0  0  0  0  0  0  0
    1.4861   -2.2689    0.6277 H   0  0  0  0  0  0  0  0  0  0  0  0
    1.4735   -2.0638    2.3814 H   0  0  0  0  0  0  0  0  0  0  0  0
    2.5138   -0.0656    0.6020 H   0  0  0  0  0  0  0  0  0  0  0  0
    3.2865   -0.3741    2.1919 H   0  0  0  0  0  0  0  0  0  0  0  0
    4.4184   -0.0107   -1.5777 H   0  0  0  0  0  0  0  0  0  0  0  0
    3.8869   -0.3255   -3.9566 H   0  0  0  0  0  0  0  0  0  0  0  0
    2.8471   -2.4696   -4.7066 H   0  0  0  0  0  0  0  0  0  0  0  0
    2.2541   -4.1871   -3.0844 H   0  0  0  0  0  0  0  0  0  0  0  0
    2.3571   -2.5272    3.9974 H   0  0  0  0  0  0  0  0  0  0  0  0
  1  2  1  0
  1 24  1  0
  1 25  1  0
  1 26  1  0
  3  2  1  1
  2 27  1  0
  2 28  1  0
  3 13  1  0
  3 23  1  0
  3  4  1  0
  4  5  1  0
  4 29  1  0
  4 30  1  0
  5  6  1  0
  5 31  1  0
  5 32  1  0
  6  7  1  0
  6 33  1  0
  6 34  1  0
  7 16  1  0
  7  8  1  6
  7  9  1  0
  8 35  1  0
  9 10  1  0
  9 36  1  0
  9 37  1  0
 10 11  1  0
 10 38  1  0
 10 39  1  0
 11 12  1  0
 11 13  1  0
 11 40  1  1
 12 41  1  0
 12 42  1  0
 12 51  1  0
 13 16  1  0
 13 14  1  1
 14 15  1  0
 14 43  1  0
 14 44  1  0
 16 15  1  1
 15 45  1  0
 15 46  1  0
 16 17  1  0
 17 22  2  0
 17 18  1  0
 18 19  2  0
 18 47  1  0
 19 20  1  0
 19 48  1  0
 20 21  2  0
 20 49  1  0
 21 22  1  0
 21 50  1  0
 22 23  1  0
M  CHG  1  12   1
M  END
>  <i_m_ct_stereo_status>  (39) 
1

>  <s_m_source_file>  (39) 
/var/tmp/pbs.5076255.sched01/tmpuj7nejrg/06cdl7mjn.sdf

>  <i_m_source_file_index>  (39) 
16

>  <i_lp_mmshare_version>  (39) 
48012

>  <i_f3d_flags>  (39) 
0

>  <s_epik_input>  (39) 
W2NIXTFbY0hdW2NIXVtjSF1jMmMxT1tDQEBdMyhbQ0gyXVtDSDNdKVtDSDJdW0NIMl1bQ0gyXVtDQEBdKFtPSF0pKFtDQEBdMihbQ0BAXTM0NSlbQ0gyXVtDSDJdNSlbQ0gyXVtDSDJdW0NASF00W05IMl0=

>  <s_epik_cmdline>  (39) 
J2VwaWtfcHl0aG9uJywgJy1waHQnLCAnMi4wJywgJy1waCcsICc3LjAnLCAnLXRuJywgJzgnLCAnLW1hJywgJzIwMCcsICctaW1hZScsICc8aW5maWxlLm1hZT4nLCAnLW9tYWUnLCAnPG91dGZpbGUubWFlPic=

>  <r_lp_tautomer_probability>  (39) 
1

>  <r_epik_Ionization_Penalty>  (39) 
0.000650971

>  <r_epik_Ionization_Penalty_Charging>  (39) 
0.000650916

>  <r_epik_Ionization_Penalty_Neutral>  (39) 
5.46187e-08

>  <r_epik_State_Penalty>  (39) 
0.000412218

>  <r_epik_Charging_Adjusted_Penalty>  (39) 
0.00106313

>  <i_epik_Tot_Q>  (39) 
1

>  <i_epik_Tot_abs_Q>  (39) 
1

>  <s_lp_Force_Field>  (39) 
OPLS3e

>  <r_lp_Energy>  (39) 
82.4241

>  <b_lp_Chiralities_Consistent>  (39) 
1

>  <s_lp_Variant>  (39) 
10:0-1

>  <s_i_glide_gridfile>  (39) 
pfpi4k_grid

>  <i_i_glide_lignum>  (39) 
16

>  <i_i_glide_rotatable_bonds>  (39) 
2

>  <r_i_docking_score>  (39) 
-3.2285

>  <r_i_glide_ligand_efficiency>  (39) 
-0.140369

>  <r_i_glide_ligand_efficiency_sa>  (39) 
-0.399192

>  <r_i_glide_ligand_efficiency_ln>  (39) 
-0.78068

>  <r_i_glide_gscore>  (39) 
-3.2285

>  <r_i_glide_lipo>  (39) 
-0.845476

>  <r_i_glide_hbond>  (39) 
-0.0126875

>  <r_i_glide_metal>  (39) 
-0

>  <r_i_glide_rewards>  (39) 
-1.26517

>  <r_i_glide_evdw>  (39) 
-16.1707

>  <r_i_glide_ecoul>  (39) 
-1.97754

>  <r_i_glide_erotb>  (39) 
0

>  <r_i_glide_esite>  (39) 
0

>  <r_i_glide_emodel>  (39) 
-20.0504

>  <r_i_glide_energy>  (39) 
-18.1482

>  <r_i_glide_einternal>  (39) 
2.81833

>  <r_i_glide_intrahb_reward>  (39) 
-0

>  <i_i_glide_confnum>  (39) 
2

>  <i_i_glide_posenum>  (39) 
35

>  <r_i_glide_eff_state_penalty>  (39) 
0

>  <ligand_id>  (39) 
10

>  <original_smiles>  (39) 
CCC12CCCC3(O)CCC(N)C14CCC34c1ccccc1O2

>  <smiles>  (39) 
[H]OC12C([H])([H])C([H])([H])C([H])([H])C3(C([H])([H])C([H])([H])[H])Oc4c([H])c([H])c([H])c([H])c4C14C([H])([H])C([H])([H])C34C([H])([N+]([H])([H])[H])C([H])([H])C2([H])[H]

$$$$
13:0:0
     RDKit          3D

 79 86  0  0  1  0  0  0  0  0999 V2000
    0.1303   -4.1184    5.9868 C   0  0  0  0  0  0  0  0  0  0  0  0
    0.9923   -3.0803    6.0009 C   0  0  0  0  0  0  0  0  0  0  0  0
    1.3357   -2.4250    4.6370 C   0  0  1  0  0  0  0  0  0  0  0  0
    1.6271   -1.0433    4.7731 O   0  0  0  0  0  0  0  0  0  0  0  0
    0.8168    0.0888    4.4291 C   0  0  2  0  0  0  0  0  0  0  0  0
    0.5196   -0.0684    2.8611 C   0  0  0  0  0  0  0  0  0  0  0  0
   -0.4685    0.6358    2.1833 O   0  0  0  0  0  0  0  0  0  0  0  0
    2.0540    0.9542    4.8350 C   0  0  2  0  0  0  0  0  0  0  0  0
    2.1504    2.4825    4.7476 C   0  0  2  0  0  0  0  0  0  0  0  0
    0.9255    3.3397    4.4651 C   0  0  0  0  0  0  0  0  0  0  0  0
   -0.1556    3.3473    5.5789 C   0  0  2  0  0  0  0  0  0  0  0  0
    0.0779    2.3745    6.7503 C   0  0  0  0  0  0  0  0  0  0  0  0
    0.6879    2.4506    7.8216 O   0  0  0  0  0  0  0  0  0  0  0  0
   -0.9733    1.4004    6.1923 C   0  0  2  0  0  0  0  0  0  0  0  0
   -1.7829    0.9733    7.2817 O   0  0  0  0  0  0  0  0  0  0  0  0
   -0.3724    0.0911    5.5100 C   0  0  1  0  0  0  0  0  0  0  0  0
   -1.4621   -0.6532    4.9807 O   0  0  0  0  0  0  0  0  0  0  0  0
   -1.5433    2.6403    5.4043 C   0  0  0  0  0  0  0  0  0  0  0  0
   -2.6901    3.3886    6.1083 C   0  0  0  0  0  0  0  0  0  0  0  0
   -2.0564    2.4181    3.9881 C   0  0  0  0  0  0  0  0  0  0  0  0
    3.2617    2.3030    3.7285 C   0  0  0  0  0  0  0  0  0  0  0  0
    3.4378    0.8231    4.1289 C   0  0  2  0  0  0  0  0  0  0  0  0
    3.5335    0.0399    2.9653 O   0  0  0  0  0  0  0  0  0  0  0  0
    4.6642    0.3602    4.9923 C   0  0  1  0  0  0  0  0  0  0  0  0
    5.0233    1.3805    6.1003 C   0  0  0  0  0  0  0  0  0  0  0  0
    4.8024   -1.1670    5.4773 C   0  0  1  0  0  0  0  0  0  0  0  0
    3.7321   -1.9370    6.2947 C   0  0  0  0  0  0  0  0  0  0  0  0
    2.8133   -1.6335    7.2095 C   0  0  0  0  0  0  0  0  0  0  0  0
    2.8801   -0.4309    8.1444 C   0  0  0  0  0  0  0  0  0  0  0  0
    1.5832   -2.5455    7.3386 C   0  0  0  0  0  0  0  0  0  0  0  0
    1.5768   -3.4308    8.5709 C   0  0  0  0  0  0  0  0  0  0  0  0
    0.5691   -2.3242    8.4509 C   0  0  0  0  0  0  0  0  0  0  0  0
    3.6613   -3.2246    5.8348 O   0  0  0  0  0  0  0  0  0  0  0  0
    3.8907   -3.2700    4.4743 C   0  0  2  0  0  0  0  0  0  0  0  0
    5.0171   -2.2245    4.3680 C   0  0  1  0  0  0  0  0  0  0  0  0
    5.3992   -1.8336    3.0670 O   0  0  0  0  0  0  0  0  0  0  0  0
    2.4979   -3.0892    3.8214 C   0  0  1  0  0  0  0  0  0  0  0  0
    2.0788   -4.1328    2.8147 C   0  0  0  0  0  0  0  0  0  0  0  0
    2.5024   -2.8277    2.4077 O   0  0  0  0  0  0  0  0  0  0  0  0
   -0.1920   -4.6294    6.8771 H   0  0  0  0  0  0  0  0  0  0  0  0
   -0.2930   -4.4874    5.0674 H   0  0  0  0  0  0  0  0  0  0  0  0
    0.4298   -2.5508    4.0446 H   0  0  0  0  0  0  0  0  0  0  0  0
    1.3834    0.2211    2.2739 H   0  0  0  0  0  0  0  0  0  0  0  0
    0.3003   -1.1080    2.6185 H   0  0  0  0  0  0  0  0  0  0  0  0
   -0.2239    1.5666    2.1752 H   0  0  0  0  0  0  0  0  0  0  0  0
    2.2504    0.7746    5.8907 H   0  0  0  0  0  0  0  0  0  0  0  0
    2.6424    2.8663    5.6404 H   0  0  0  0  0  0  0  0  0  0  0  0
    1.2667    4.3678    4.3252 H   0  0  0  0  0  0  0  0  0  0  0  0
    0.5143    3.0698    3.4948 H   0  0  0  0  0  0  0  0  0  0  0  0
   -0.2908    4.3640    5.9558 H   0  0  0  0  0  0  0  0  0  0  0  0
   -1.9998    1.7538    7.7860 H   0  0  0  0  0  0  0  0  0  0  0  0
   -0.0020   -0.5054    6.3550 H   0  0  0  0  0  0  0  0  0  0  0  0
   -1.0985   -1.4088    4.5475 H   0  0  0  0  0  0  0  0  0  0  0  0
   -3.6099    2.7967    6.1032 H   0  0  0  0  0  0  0  0  0  0  0  0
   -2.8910    4.2744    5.5153 H   0  0  0  0  0  0  0  0  0  0  0  0
   -2.4544    3.6821    7.1455 H   0  0  0  0  0  0  0  0  0  0  0  0
   -2.9586    1.7893    3.9907 H   0  0  0  0  0  0  0  0  0  0  0  0
   -1.2771    1.9274    3.5517 H   0  0  0  0  0  0  0  0  0  0  0  0
   -2.2479    3.3614    3.4497 H   0  0  0  0  0  0  0  0  0  0  0  0
    2.9061    2.4363    2.7073 H   0  0  0  0  0  0  0  0  0  0  0  0
    4.1402    2.9141    3.9051 H   0  0  0  0  0  0  0  0  0  0  0  0
    2.8320    0.3235    2.4007 H   0  0  0  0  0  0  0  0  0  0  0  0
    5.5241    0.4773    4.3226 H   0  0  0  0  0  0  0  0  0  0  0  0
    4.1728    1.6545    6.7163 H   0  0  0  0  0  0  0  0  0  0  0  0
    5.3999    2.3130    5.6787 H   0  0  0  0  0  0  0  0  0  0  0  0
    5.8062    1.0053    6.7557 H   0  0  0  0  0  0  0  0  0  0  0  0
    5.6987   -1.1749    6.0991 H   0  0  0  0  0  0  0  0  0  0  0  0
    2.8452   -0.7890    9.1704 H   0  0  0  0  0  0  0  0  0  0  0  0
    2.0594    0.2650    8.0119 H   0  0  0  0  0  0  0  0  0  0  0  0
    3.8318    0.0768    8.0672 H   0  0  0  0  0  0  0  0  0  0  0  0
    1.2304   -4.4590    8.4848 H   0  0  0  0  0  0  0  0  0  0  0  0
    2.3868   -3.2932    9.2849 H   0  0  0  0  0  0  0  0  0  0  0  0
    0.6761   -1.4652    9.1096 H   0  0  0  0  0  0  0  0  0  0  0  0
   -0.4616   -2.6206    8.2734 H   0  0  0  0  0  0  0  0  0  0  0  0
    4.2837   -4.2487    4.2191 H   0  0  0  0  0  0  0  0  0  0  0  0
    5.8981   -2.7669    4.7024 H   0  0  0  0  0  0  0  0  0  0  0  0
    4.6721   -1.3378    2.6987 H   0  0  0  0  0  0  0  0  0  0  0  0
    2.7590   -4.9510    2.5825 H   0  0  0  0  0  0  0  0  0  0  0  0
    1.0159   -4.3255    2.6689 H   0  0  0  0  0  0  0  0  0  0  0  0
  1  2  2  0
  1 40  1  0
  1 41  1  0
  2 30  1  0
  2  3  1  0
  3 37  1  0
  3  4  1  0
  3 42  1  6
  4  5  1  0
  5 16  1  0
  5  6  1  6
  5  8  1  0
  6  7  1  0
  6 43  1  0
  6 44  1  0
  7 45  1  0
  8 22  1  0
  8  9  1  0
  8 46  1  1
  9 10  1  0
  9 21  1  0
  9 47  1  1
 10 11  1  0
 10 48  1  0
 10 49  1  0
 11 18  1  0
 11 12  1  0
 11 50  1  1
 12 13  2  0
 12 14  1  0
 14 15  1  1
 14 16  1  0
 14 18  1  0
 15 51  1  0
 16 17  1  0
 16 52  1  1
 17 53  1  0
 18 19  1  0
 18 20  1  0
 19 54  1  0
 19 55  1  0
 19 56  1  0
 20 57  1  0
 20 58  1  0
 20 59  1  0
 21 22  1  0
 21 60  1  0
 21 61  1  0
 22 23  1  6
 22 24  1  0
 23 62  1  0
 24 25  1  0
 24 26  1  0
 24 63  1  6
 25 64  1  0
 25 65  1  0
 25 66  1  0
 26 35  1  0
 26 27  1  0
 26 67  1  1
 27 28  2  3
 27 33  1  0
 28 29  1  0
 28 30  1  0
 29 68  1  0
 29 69  1  0
 29 70  1  0
 30 32  1  0
 30 31  1  0
 31 32  1  0
 31 71  1  0
 31 72  1  0
 32 73  1  0
 32 74  1  0
 33 34  1  0
 34 35  1  0
 34 37  1  0
 34 75  1  1
 35 36  1  0
 35 76  1  1
 36 77  1  0
 37 39  1  6
 37 38  1  0
 38 39  1  0
 38 78  1  0
 38 79  1  0
M  END
>  <i_m_ct_stereo_status>  (40) 
1

>  <s_m_source_file>  (40) 
/var/tmp/pbs.5076255.sched01/tmpuj7nejrg/06cdl7mjn.sdf

>  <i_m_source_file_index>  (40) 
20

>  <i_lp_mmshare_version>  (40) 
48012

>  <i_f3d_flags>  (40) 
0

>  <s_epik_input>  (40) 
W0NIMl0xW0NIMl1DMTJDKD1bQ0gyXSlbQ0BASF0zW0NAXTQoW0NIMl1PNClbQ0BASF01T0MoPUMyXFtDSDNdKVxbQ0BASF0oW0NAQEhdNVtPSF0pW0NASF0oW0NIM10pW0NAQF02KFtPSF0pW0NAQEhdN1tDQF0oTzMpKFtDSDJdW09IXSlbQ0BIXShbT0hdKVtDQEBdOChbT0hdKUMoPU8pW0NASF0oQzgoW0NIM10pW0NIM10pW0NIMl1bQ0BASF03W0NIMl02

>  <s_epik_cmdline>  (40) 
J2VwaWtfcHl0aG9uJywgJy1waHQnLCAnMi4wJywgJy1waCcsICc3LjAnLCAnLXRuJywgJzgnLCAnLW1hJywgJzIwMCcsICctaW1hZScsICc8aW5maWxlLm1hZT4nLCAnLW9tYWUnLCAnPG91dGZpbGUubWFlPic=

>  <r_lp_tautomer_probability>  (40) 
1

>  <r_epik_Ionization_Penalty>  (40) 
2.00523e-06

>  <r_epik_Ionization_Penalty_Charging>  (40) 
0

>  <r_epik_Ionization_Penalty_Neutral>  (40) 
2.00523e-06

>  <r_epik_State_Penalty>  (40) 
-0

>  <r_epik_Charging_Adjusted_Penalty>  (40) 
0

>  <i_epik_Tot_Q>  (40) 
0

>  <i_epik_Tot_abs_Q>  (40) 
0

>  <s_lp_Force_Field>  (40) 
OPLS3e

>  <r_lp_Energy>  (40) 
128.218

>  <b_lp_Chiralities_Consistent>  (40) 
1

>  <s_lp_Variant>  (40) 
13:0-1

>  <s_i_glide_gridfile>  (40) 
pfpi4k_grid

>  <i_i_glide_lignum>  (40) 
20

>  <i_i_glide_rotatable_bonds>  (40) 
6

>  <r_i_docking_score>  (40) 
-2.15418

>  <r_i_glide_ligand_efficiency>  (40) 
-0.0552354

>  <r_i_glide_ligand_efficiency_sa>  (40) 
-0.187315

>  <r_i_glide_ligand_efficiency_ln>  (40) 
-0.461917

>  <r_i_glide_gscore>  (40) 
-2.15418

>  <r_i_glide_lipo>  (40) 
-0.217265

>  <r_i_glide_hbond>  (40) 
0

>  <r_i_glide_metal>  (40) 
-0

>  <r_i_glide_rewards>  (40) 
-0.5

>  <r_i_glide_evdw>  (40) 
-18.7805

>  <r_i_glide_ecoul>  (40) 
-4.96388

>  <r_i_glide_erotb>  (40) 
0.0697829

>  <r_i_glide_esite>  (40) 
-0.000157219

>  <r_i_glide_emodel>  (40) 
-25.6529

>  <r_i_glide_energy>  (40) 
-23.7444

>  <r_i_glide_einternal>  (40) 
5.61014

>  <r_i_glide_intrahb_reward>  (40) 
-0.5

>  <i_i_glide_confnum>  (40) 
4

>  <i_i_glide_posenum>  (40) 
28

>  <r_i_glide_eff_state_penalty>  (40) 
0

>  <ligand_id>  (40) 
13

>  <original_smiles>  (40) 
C=C1C2OC3(CO)C4C(CC5C(=O)C(O)(C3O)C5(C)C)CC4(O)C(C)C3C(=C(C)C14CC4)OC(C3O)C21CO1

>  <smiles>  (40) 
[H]OC([H])([H])C12OC3([H])C(=C([H])[H])C4(C(C([H])([H])[H])=C5OC([H])(C([H])(O[H])C5([H])C([H])(C([H])([H])[H])C5(O[H])C([H])([H])C([H])(C([H])([H])C6([H])C(=O)C(O[H])(C1([H])O[H])C6(C([H])([H])[H])C([H])([H])[H])C25[H])C31OC1([H])[H])C([H])([H])C4([H])[H]

$$$$
13:0:1
     RDKit          3D

 79 86  0  0  1  0  0  0  0  0999 V2000
    0.6352   -0.7110    9.9080 C   0  0  0  0  0  0  0  0  0  0  0  0
    1.3174   -0.7942    8.7552 C   0  0  0  0  0  0  0  0  0  0  0  0
    0.6377   -1.5924    7.6080 C   0  0  1  0  0  0  0  0  0  0  0  0
    0.9738   -1.1470    6.3208 O   0  0  0  0  0  0  0  0  0  0  0  0
    0.2616   -0.2435    5.4807 C   0  0  2  0  0  0  0  0  0  0  0  0
   -1.1088   -0.8736    5.0151 C   0  0  0  0  0  0  0  0  0  0  0  0
   -1.4017   -2.1666    5.5237 O   0  0  0  0  0  0  0  0  0  0  0  0
    1.4339   -0.3669    4.4671 C   0  0  2  0  0  0  0  0  0  0  0  0
    1.4814    0.2020    3.0361 C   0  0  2  0  0  0  0  0  0  0  0  0
    0.4409    1.1930    2.5059 C   0  0  0  0  0  0  0  0  0  0  0  0
    0.4253    2.5644    3.2237 C   0  0  2  0  0  0  0  0  0  0  0  0
    1.3823    2.7305    4.4345 C   0  0  0  0  0  0  0  0  0  0  0  0
    2.5832    2.9737    4.5667 O   0  0  0  0  0  0  0  0  0  0  0  0
    0.2056    2.5663    5.4073 C   0  0  2  0  0  0  0  0  0  0  0  0
    0.3951    3.5560    6.4055 O   0  0  0  0  0  0  0  0  0  0  0  0
    0.1509    1.1808    6.1795 C   0  0  1  0  0  0  0  0  0  0  0  0
   -1.0441    1.2138    6.9605 O   0  0  0  0  0  0  0  0  0  0  0  0
   -0.7097    2.9937    4.1923 C   0  0  0  0  0  0  0  0  0  0  0  0
   -1.0142    4.4974    4.0786 C   0  0  0  0  0  0  0  0  0  0  0  0
   -2.0684    2.3267    4.0397 C   0  0  0  0  0  0  0  0  0  0  0  0
    1.5781   -1.2171    2.5069 C   0  0  0  0  0  0  0  0  0  0  0  0
    1.9005   -1.7452    3.9265 C   0  0  2  0  0  0  0  0  0  0  0  0
    1.0473   -2.8368    4.1752 O   0  0  0  0  0  0  0  0  0  0  0  0
    3.3563   -2.1836    4.3023 C   0  0  1  0  0  0  0  0  0  0  0  0
    4.4364   -1.2760    3.6680 C   0  0  0  0  0  0  0  0  0  0  0  0
    3.7284   -2.6604    5.7844 C   0  0  1  0  0  0  0  0  0  0  0  0
    3.5150   -1.8420    7.0658 C   0  0  0  0  0  0  0  0  0  0  0  0
    3.5142   -0.5269    7.3924 C   0  0  0  0  0  0  0  0  0  0  0  0
    4.2419    0.5497    6.6057 C   0  0  0  0  0  0  0  0  0  0  0  0
    2.6890   -0.0731    8.5894 C   0  0  0  0  0  0  0  0  0  0  0  0
    3.4994    0.3049    9.8173 C   0  0  0  0  0  0  0  0  0  0  0  0
    2.7384    1.3748    9.0873 C   0  0  0  0  0  0  0  0  0  0  0  0
    3.1280   -2.6777    8.0763 O   0  0  0  0  0  0  0  0  0  0  0  0
    2.3243   -3.6980    7.5847 C   0  0  2  0  0  0  0  0  0  0  0  0
    3.0837   -3.9864    6.2662 C   0  0  1  0  0  0  0  0  0  0  0  0
    2.4792   -4.8943    5.3673 O   0  0  0  0  0  0  0  0  0  0  0  0
    0.8673   -3.1489    7.6266 C   0  0  1  0  0  0  0  0  0  0  0  0
   -0.1795   -3.9847    8.3168 C   0  0  0  0  0  0  0  0  0  0  0  0
   -0.0915   -3.9317    6.8943 O   0  0  0  0  0  0  0  0  0  0  0  0
    1.0045   -0.1575   10.7612 H   0  0  0  0  0  0  0  0  0  0  0  0
   -0.3282   -1.1991   10.0218 H   0  0  0  0  0  0  0  0  0  0  0  0
   -0.4347   -1.4377    7.7030 H   0  0  0  0  0  0  0  0  0  0  0  0
   -1.9887   -0.3200    5.3523 H   0  0  0  0  0  0  0  0  0  0  0  0
   -1.1504   -0.8519    3.9250 H   0  0  0  0  0  0  0  0  0  0  0  0
   -0.5987   -2.6859    5.5637 H   0  0  0  0  0  0  0  0  0  0  0  0
    2.2998    0.0986    4.9285 H   0  0  0  0  0  0  0  0  0  0  0  0
    2.4766    0.6288    2.8925 H   0  0  0  0  0  0  0  0  0  0  0  0
    0.6447    1.3677    1.4392 H   0  0  0  0  0  0  0  0  0  0  0  0
   -0.5461    0.7316    2.5226 H   0  0  0  0  0  0  0  0  0  0  0  0
    0.6206    3.3571    2.5059 H   0  0  0  0  0  0  0  0  0  0  0  0
   -0.3830    3.5733    6.9254 H   0  0  0  0  0  0  0  0  0  0  0  0
    0.9677    1.2343    6.8969 H   0  0  0  0  0  0  0  0  0  0  0  0
   -1.0106    1.9538    7.5462 H   0  0  0  0  0  0  0  0  0  0  0  0
   -1.6816    4.8213    4.8699 H   0  0  0  0  0  0  0  0  0  0  0  0
   -1.4851    4.7388    3.1277 H   0  0  0  0  0  0  0  0  0  0  0  0
   -0.1188    5.1152    4.1384 H   0  0  0  0  0  0  0  0  0  0  0  0
   -2.7404    2.6315    4.8425 H   0  0  0  0  0  0  0  0  0  0  0  0
   -1.9661    1.2598    4.0831 H   0  0  0  0  0  0  0  0  0  0  0  0
   -2.5326    2.5510    3.0766 H   0  0  0  0  0  0  0  0  0  0  0  0
    0.6163   -1.5553    2.1224 H   0  0  0  0  0  0  0  0  0  0  0  0
    2.3651   -1.3464    1.7643 H   0  0  0  0  0  0  0  0  0  0  0  0
    0.2350   -2.6023    3.7724 H   0  0  0  0  0  0  0  0  0  0  0  0
    3.5043   -3.0943    3.7277 H   0  0  0  0  0  0  0  0  0  0  0  0
    4.2702   -0.2283    3.8836 H   0  0  0  0  0  0  0  0  0  0  0  0
    4.4448   -1.3633    2.5816 H   0  0  0  0  0  0  0  0  0  0  0  0
    5.4346   -1.5387    4.0068 H   0  0  0  0  0  0  0  0  0  0  0  0
    4.7996   -2.8412    5.7529 H   0  0  0  0  0  0  0  0  0  0  0  0
    4.9151    1.0642    7.2940 H   0  0  0  0  0  0  0  0  0  0  0  0
    3.5727    1.2938    6.1730 H   0  0  0  0  0  0  0  0  0  0  0  0
    4.8880    0.1175    5.8484 H   0  0  0  0  0  0  0  0  0  0  0  0
    3.1378   -0.0015   10.7961 H   0  0  0  0  0  0  0  0  0  0  0  0
    4.5867    0.2928    9.7088 H   0  0  0  0  0  0  0  0  0  0  0  0
    3.3144    2.1020    8.5153 H   0  0  0  0  0  0  0  0  0  0  0  0
    1.8423    1.7691    9.5681 H   0  0  0  0  0  0  0  0  0  0  0  0
    2.3947   -4.5573    8.2568 H   0  0  0  0  0  0  0  0  0  0  0  0
    3.9446   -4.5675    6.6042 H   0  0  0  0  0  0  0  0  0  0  0  0
    3.1104   -5.1160    4.7034 H   0  0  0  0  0  0  0  0  0  0  0  0
    0.1015   -4.9251    8.8102 H   0  0  0  0  0  0  0  0  0  0  0  0
   -1.0909   -3.5276    8.6802 H   0  0  0  0  0  0  0  0  0  0  0  0
  1  2  2  0
  1 40  1  0
  1 41  1  0
  2 30  1  0
  2  3  1  0
  3 37  1  0
  3  4  1  0
  3 42  1  1
  4  5  1  0
  5 16  1  0
  5  6  1  6
  5  8  1  0
  6  7  1  0
  6 43  1  0
  6 44  1  0
  7 45  1  0
  8 22  1  0
  8  9  1  0
  8 46  1  1
  9 10  1  0
  9 21  1  0
  9 47  1  1
 10 11  1  0
 10 48  1  0
 10 49  1  0
 11 18  1  0
 11 12  1  0
 11 50  1  6
 12 13  2  0
 12 14  1  0
 14 15  1  1
 14 16  1  0
 14 18  1  0
 15 51  1  0
 16 17  1  0
 16 52  1  1
 17 53  1  0
 18 19  1  0
 18 20  1  0
 19 54  1  0
 19 55  1  0
 19 56  1  0
 20 57  1  0
 20 58  1  0
 20 59  1  0
 21 22  1  0
 21 60  1  0
 21 61  1  0
 22 23  1  1
 22 24  1  0
 23 62  1  0
 24 25  1  0
 24 26  1  0
 24 63  1  6
 25 64  1  0
 25 65  1  0
 25 66  1  0
 26 35  1  0
 26 27  1  0
 26 67  1  6
 27 28  2  3
 27 33  1  0
 28 29  1  0
 28 30  1  0
 29 68  1  0
 29 69  1  0
 29 70  1  0
 30 32  1  0
 30 31  1  0
 31 32  1  0
 31 71  1  0
 31 72  1  0
 32 73  1  0
 32 74  1  0
 33 34  1  0
 34 35  1  0
 34 37  1  0
 34 75  1  1
 35 36  1  0
 35 76  1  1
 36 77  1  0
 37 39  1  6
 37 38  1  0
 38 39  1  0
 38 78  1  0
 38 79  1  0
M  END
>  <i_m_ct_stereo_status>  (41) 
1

>  <s_m_source_file>  (41) 
/var/tmp/pbs.5076255.sched01/tmpuj7nejrg/06cdl7mjn.sdf

>  <i_m_source_file_index>  (41) 
20

>  <i_lp_mmshare_version>  (41) 
48012

>  <i_f3d_flags>  (41) 
0

>  <s_epik_input>  (41) 
W0NIMl0xW0NIMl1DMTJDKD1bQ0gyXSlbQ0BASF0zW0NAXTQoW0NIMl1PNClbQ0BASF01T0MoPUMyXFtDSDNdKVxbQ0BASF0oW0NAQEhdNVtPSF0pW0NASF0oW0NIM10pW0NAQF02KFtPSF0pW0NAQEhdN1tDQF0oTzMpKFtDSDJdW09IXSlbQ0BIXShbT0hdKVtDQEBdOChbT0hdKUMoPU8pW0NASF0oQzgoW0NIM10pW0NIM10pW0NIMl1bQ0BASF03W0NIMl02

>  <s_epik_cmdline>  (41) 
J2VwaWtfcHl0aG9uJywgJy1waHQnLCAnMi4wJywgJy1waCcsICc3LjAnLCAnLXRuJywgJzgnLCAnLW1hJywgJzIwMCcsICctaW1hZScsICc8aW5maWxlLm1hZT4nLCAnLW9tYWUnLCAnPG91dGZpbGUubWFlPic=

>  <r_lp_tautomer_probability>  (41) 
1

>  <r_epik_Ionization_Penalty>  (41) 
2.00523e-06

>  <r_epik_Ionization_Penalty_Charging>  (41) 
0

>  <r_epik_Ionization_Penalty_Neutral>  (41) 
2.00523e-06

>  <r_epik_State_Penalty>  (41) 
-0

>  <r_epik_Charging_Adjusted_Penalty>  (41) 
0

>  <i_epik_Tot_Q>  (41) 
0

>  <i_epik_Tot_abs_Q>  (41) 
0

>  <s_lp_Force_Field>  (41) 
OPLS3e

>  <r_lp_Energy>  (41) 
128.218

>  <b_lp_Chiralities_Consistent>  (41) 
1

>  <s_lp_Variant>  (41) 
13:0-1

>  <s_i_glide_gridfile>  (41) 
pfpi4k_grid

>  <i_i_glide_lignum>  (41) 
20

>  <i_i_glide_rotatable_bonds>  (41) 
6

>  <r_i_docking_score>  (41) 
-2.00885

>  <r_i_glide_ligand_efficiency>  (41) 
-0.0515091

>  <r_i_glide_ligand_efficiency_sa>  (41) 
-0.174678

>  <r_i_glide_ligand_efficiency_ln>  (41) 
-0.430755

>  <r_i_glide_gscore>  (41) 
-2.00885

>  <r_i_glide_lipo>  (41) 
-0.0301125

>  <r_i_glide_hbond>  (41) 
0

>  <r_i_glide_metal>  (41) 
-0

>  <r_i_glide_rewards>  (41) 
-0.5

>  <r_i_glide_evdw>  (41) 
-20.139

>  <r_i_glide_ecoul>  (41) 
-3.52298

>  <r_i_glide_erotb>  (41) 
0.0697829

>  <r_i_glide_esite>  (41) 
-0.013127

>  <r_i_glide_emodel>  (41) 
-25.4353

>  <r_i_glide_energy>  (41) 
-23.662

>  <r_i_glide_einternal>  (41) 
12.3194

>  <r_i_glide_intrahb_reward>  (41) 
-0.5

>  <i_i_glide_confnum>  (41) 
5

>  <i_i_glide_posenum>  (41) 
20

>  <r_i_glide_eff_state_penalty>  (41) 
0

>  <ligand_id>  (41) 
13

>  <original_smiles>  (41) 
C=C1C2OC3(CO)C4C(CC5C(=O)C(O)(C3O)C5(C)C)CC4(O)C(C)C3C(=C(C)C14CC4)OC(C3O)C21CO1

>  <smiles>  (41) 
[H]OC([H])([H])C12OC3([H])C(=C([H])[H])C4(C(C([H])([H])[H])=C5OC([H])(C([H])(O[H])C5([H])C([H])(C([H])([H])[H])C5(O[H])C([H])([H])C([H])(C([H])([H])C6([H])C(=O)C(O[H])(C1([H])O[H])C6(C([H])([H])[H])C([H])([H])[H])C25[H])C31OC1([H])[H])C([H])([H])C4([H])[H]

$$$$
13:0:2
     RDKit          3D

 79 86  0  0  1  0  0  0  0  0999 V2000
    3.5958   -1.2685    8.7219 C   0  0  0  0  0  0  0  0  0  0  0  0
    3.3167   -0.7024    7.5295 C   0  0  0  0  0  0  0  0  0  0  0  0
    2.1072   -1.2692    6.7511 C   0  0  1  0  0  0  0  0  0  0  0  0
    1.5081   -0.2869    5.9384 O   0  0  0  0  0  0  0  0  0  0  0  0
    0.2821    0.3977    6.1645 C   0  0  2  0  0  0  0  0  0  0  0  0
   -0.8328   -0.7236    6.3011 C   0  0  0  0  0  0  0  0  0  0  0  0
   -2.1350   -0.3596    5.9060 O   0  0  0  0  0  0  0  0  0  0  0  0
    0.4805    1.0582    4.7716 C   0  0  2  0  0  0  0  0  0  0  0  0
   -0.4748    2.0022    4.0608 C   0  0  2  0  0  0  0  0  0  0  0  0
   -1.6825    2.6344    4.7822 C   0  0  0  0  0  0  0  0  0  0  0  0
   -1.3403    3.5856    5.9547 C   0  0  2  0  0  0  0  0  0  0  0  0
    0.1687    3.7109    6.3064 C   0  0  0  0  0  0  0  0  0  0  0  0
    1.0957    4.3730    5.8770 O   0  0  0  0  0  0  0  0  0  0  0  0
   -0.0366    2.8250    7.5378 C   0  0  2  0  0  0  0  0  0  0  0  0
    0.6890    3.4283    8.5909 O   0  0  0  0  0  0  0  0  0  0  0  0
    0.5329    1.3612    7.4068 C   0  0  1  0  0  0  0  0  0  0  0  0
    0.1440    0.6983    8.5980 O   0  0  0  0  0  0  0  0  0  0  0  0
   -1.5482    3.2405    7.4478 C   0  0  0  0  0  0  0  0  0  0  0  0
   -1.9858    4.4615    8.2888 C   0  0  0  0  0  0  0  0  0  0  0  0
   -2.5636    2.1515    7.7971 C   0  0  0  0  0  0  0  0  0  0  0  0
   -0.6462    0.9649    2.9752 C   0  0  0  0  0  0  0  0  0  0  0  0
    0.5952    0.2070    3.4955 C   0  0  2  0  0  0  0  0  0  0  0  0
    0.2810   -1.1510    3.6115 O   0  0  0  0  0  0  0  0  0  0  0  0
    1.9661    0.2679    2.7027 C   0  0  1  0  0  0  0  0  0  0  0  0
    2.2534    1.6754    2.1293 C   0  0  0  0  0  0  0  0  0  0  0  0
    3.2833   -0.4688    3.2668 C   0  0  1  0  0  0  0  0  0  0  0  0
    3.9049   -0.2378    4.6606 C   0  0  0  0  0  0  0  0  0  0  0  0
    4.0043    0.7980    5.5120 C   0  0  0  0  0  0  0  0  0  0  0  0
    3.9183    2.2595    5.1147 C   0  0  0  0  0  0  0  0  0  0  0  0
    4.1600    0.4895    7.0035 C   0  0  0  0  0  0  0  0  0  0  0  0
    5.5467    0.7558    7.5613 C   0  0  0  0  0  0  0  0  0  0  0  0
    4.4025    1.6163    8.0134 C   0  0  0  0  0  0  0  0  0  0  0  0
    4.3357   -1.4328    5.1738 O   0  0  0  0  0  0  0  0  0  0  0  0
    3.4865   -2.4629    4.7710 C   0  0  2  0  0  0  0  0  0  0  0  0
    3.2274   -2.0119    3.3157 C   0  0  1  0  0  0  0  0  0  0  0  0
    2.2487   -2.7270    2.5769 O   0  0  0  0  0  0  0  0  0  0  0  0
    2.3952   -2.5393    5.8509 C   0  0  1  0  0  0  0  0  0  0  0  0
    2.1684   -3.8804    6.5087 C   0  0  0  0  0  0  0  0  0  0  0  0
    1.2459   -3.3546    5.5548 O   0  0  0  0  0  0  0  0  0  0  0  0
    4.3992   -0.9241    9.3485 H   0  0  0  0  0  0  0  0  0  0  0  0
    3.0085   -2.0837    9.0967 H   0  0  0  0  0  0  0  0  0  0  0  0
    1.3837   -1.5996    7.4974 H   0  0  0  0  0  0  0  0  0  0  0  0
   -0.5617   -1.6202    5.7229 H   0  0  0  0  0  0  0  0  0  0  0  0
   -0.8439   -1.1352    7.3024 H   0  0  0  0  0  0  0  0  0  0  0  0
   -2.1003    0.0994    5.0842 H   0  0  0  0  0  0  0  0  0  0  0  0
    1.3767    1.6346    4.8196 H   0  0  0  0  0  0  0  0  0  0  0  0
    0.1206    2.7892    3.6124 H   0  0  0  0  0  0  0  0  0  0  0  0
   -2.2536    3.1980    4.0345 H   0  0  0  0  0  0  0  0  0  0  0  0
   -2.3585    1.8746    5.1223 H   0  0  0  0  0  0  0  0  0  0  0  0
   -1.7462    4.5718    5.7483 H   0  0  0  0  0  0  0  0  0  0  0  0
    0.4483    2.9919    9.3958 H   0  0  0  0  0  0  0  0  0  0  0  0
    1.6333    1.4841    7.4605 H   0  0  0  0  0  0  0  0  0  0  0  0
    0.5878    1.1068    9.3315 H   0  0  0  0  0  0  0  0  0  0  0  0
   -1.9721    4.2276    9.3545 H   0  0  0  0  0  0  0  0  0  0  0  0
   -3.0052    4.7606    8.0550 H   0  0  0  0  0  0  0  0  0  0  0  0
   -1.3477    5.3138    8.1341 H   0  0  0  0  0  0  0  0  0  0  0  0
   -2.5979    1.9944    8.8968 H   0  0  0  0  0  0  0  0  0  0  0  0
   -2.2897    1.2177    7.3332 H   0  0  0  0  0  0  0  0  0  0  0  0
   -3.5877    2.4446    7.4936 H   0  0  0  0  0  0  0  0  0  0  0  0
   -1.5645    0.3945    3.1071 H   0  0  0  0  0  0  0  0  0  0  0  0
   -0.5575    1.3609    1.9664 H   0  0  0  0  0  0  0  0  0  0  0  0
    0.2174   -1.4830    2.7296 H   0  0  0  0  0  0  0  0  0  0  0  0
    1.7764   -0.2862    1.7658 H   0  0  0  0  0  0  0  0  0  0  0  0
    2.1788    2.4425    2.8829 H   0  0  0  0  0  0  0  0  0  0  0  0
    1.5268    1.9367    1.3560 H   0  0  0  0  0  0  0  0  0  0  0  0
    3.2312    1.7415    1.6829 H   0  0  0  0  0  0  0  0  0  0  0  0
    4.0630   -0.1974    2.5664 H   0  0  0  0  0  0  0  0  0  0  0  0
    4.8315    2.7506    5.4549 H   0  0  0  0  0  0  0  0  0  0  0  0
    3.0804    2.7868    5.5610 H   0  0  0  0  0  0  0  0  0  0  0  0
    3.9221    2.3737    4.0461 H   0  0  0  0  0  0  0  0  0  0  0  0
    5.9803    0.0529    8.2710 H   0  0  0  0  0  0  0  0  0  0  0  0
    6.2756    1.2060    6.8821 H   0  0  0  0  0  0  0  0  0  0  0  0
    4.3803    2.6487    7.6730 H   0  0  0  0  0  0  0  0  0  0  0  0
    4.0475    1.4728    9.0263 H   0  0  0  0  0  0  0  0  0  0  0  0
    4.0665   -3.3864    4.7758 H   0  0  0  0  0  0  0  0  0  0  0  0
    4.1332   -2.3026    2.7805 H   0  0  0  0  0  0  0  0  0  0  0  0
    2.2522   -2.4086    1.6814 H   0  0  0  0  0  0  0  0  0  0  0  0
    2.7595   -4.7283    6.1644 H   0  0  0  0  0  0  0  0  0  0  0  0
    1.7716   -3.9480    7.5245 H   0  0  0  0  0  0  0  0  0  0  0  0
  1  2  2  0
  1 40  1  0
  1 41  1  0
  2 30  1  0
  2  3  1  0
  3 37  1  0
  3  4  1  0
  3 42  1  1
  4  5  1  0
  5 16  1  0
  5  6  1  6
  5  8  1  0
  6  7  1  0
  6 43  1  0
  6 44  1  0
  7 45  1  0
  8 22  1  0
  8  9  1  0
  8 46  1  1
  9 10  1  0
  9 21  1  0
  9 47  1  6
 10 11  1  0
 10 48  1  0
 10 49  1  0
 11 18  1  0
 11 12  1  0
 11 50  1  6
 12 13  2  0
 12 14  1  0
 14 15  1  1
 14 16  1  0
 14 18  1  0
 15 51  1  0
 16 17  1  0
 16 52  1  1
 17 53  1  0
 18 19  1  0
 18 20  1  0
 19 54  1  0
 19 55  1  0
 19 56  1  0
 20 57  1  0
 20 58  1  0
 20 59  1  0
 21 22  1  0
 21 60  1  0
 21 61  1  0
 22 23  1  1
 22 24  1  0
 23 62  1  0
 24 25  1  0
 24 26  1  0
 24 63  1  6
 25 64  1  0
 25 65  1  0
 25 66  1  0
 26 35  1  0
 26 27  1  0
 26 67  1  6
 27 28  2  3
 27 33  1  0
 28 29  1  0
 28 30  1  0
 29 68  1  0
 29 69  1  0
 29 70  1  0
 30 32  1  0
 30 31  1  0
 31 32  1  0
 31 71  1  0
 31 72  1  0
 32 73  1  0
 32 74  1  0
 33 34  1  0
 34 35  1  0
 34 37  1  0
 34 75  1  6
 35 36  1  0
 35 76  1  6
 36 77  1  0
 37 39  1  6
 37 38  1  0
 38 39  1  0
 38 78  1  0
 38 79  1  0
M  END
>  <i_m_ct_stereo_status>  (42) 
1

>  <s_m_source_file>  (42) 
/var/tmp/pbs.5076255.sched01/tmpuj7nejrg/06cdl7mjn.sdf

>  <i_m_source_file_index>  (42) 
20

>  <i_lp_mmshare_version>  (42) 
48012

>  <i_f3d_flags>  (42) 
0

>  <s_epik_input>  (42) 
W0NIMl0xW0NIMl1DMTJDKD1bQ0gyXSlbQ0BASF0zW0NAXTQoW0NIMl1PNClbQ0BASF01T0MoPUMyXFtDSDNdKVxbQ0BASF0oW0NAQEhdNVtPSF0pW0NASF0oW0NIM10pW0NAQF02KFtPSF0pW0NAQEhdN1tDQF0oTzMpKFtDSDJdW09IXSlbQ0BIXShbT0hdKVtDQEBdOChbT0hdKUMoPU8pW0NASF0oQzgoW0NIM10pW0NIM10pW0NIMl1bQ0BASF03W0NIMl02

>  <s_epik_cmdline>  (42) 
J2VwaWtfcHl0aG9uJywgJy1waHQnLCAnMi4wJywgJy1waCcsICc3LjAnLCAnLXRuJywgJzgnLCAnLW1hJywgJzIwMCcsICctaW1hZScsICc8aW5maWxlLm1hZT4nLCAnLW9tYWUnLCAnPG91dGZpbGUubWFlPic=

>  <r_lp_tautomer_probability>  (42) 
1

>  <r_epik_Ionization_Penalty>  (42) 
2.00523e-06

>  <r_epik_Ionization_Penalty_Charging>  (42) 
0

>  <r_epik_Ionization_Penalty_Neutral>  (42) 
2.00523e-06

>  <r_epik_State_Penalty>  (42) 
-0

>  <r_epik_Charging_Adjusted_Penalty>  (42) 
0

>  <i_epik_Tot_Q>  (42) 
0

>  <i_epik_Tot_abs_Q>  (42) 
0

>  <s_lp_Force_Field>  (42) 
OPLS3e

>  <r_lp_Energy>  (42) 
128.218

>  <b_lp_Chiralities_Consistent>  (42) 
1

>  <s_lp_Variant>  (42) 
13:0-1

>  <s_i_glide_gridfile>  (42) 
pfpi4k_grid

>  <i_i_glide_lignum>  (42) 
20

>  <i_i_glide_rotatable_bonds>  (42) 
6

>  <r_i_docking_score>  (42) 
-1.77497

>  <r_i_glide_ligand_efficiency>  (42) 
-0.0455122

>  <r_i_glide_ligand_efficiency_sa>  (42) 
-0.154341

>  <r_i_glide_ligand_efficiency_ln>  (42) 
-0.380605

>  <r_i_glide_gscore>  (42) 
-1.77497

>  <r_i_glide_lipo>  (42) 
-0.0705444

>  <r_i_glide_hbond>  (42) 
0

>  <r_i_glide_metal>  (42) 
-0

>  <r_i_glide_rewards>  (42) 
0

>  <r_i_glide_evdw>  (42) 
-19.4146

>  <r_i_glide_ecoul>  (42) 
-5.35351

>  <r_i_glide_erotb>  (42) 
0.0697829

>  <r_i_glide_esite>  (42) 
-0.000457003

>  <r_i_glide_emodel>  (42) 
-26.1086

>  <r_i_glide_energy>  (42) 
-24.7681

>  <r_i_glide_einternal>  (42) 
1.65784

>  <r_i_glide_intrahb_reward>  (42) 
-0

>  <i_i_glide_confnum>  (42) 
6

>  <i_i_glide_posenum>  (42) 
30

>  <r_i_glide_eff_state_penalty>  (42) 
0

>  <ligand_id>  (42) 
13

>  <original_smiles>  (42) 
C=C1C2OC3(CO)C4C(CC5C(=O)C(O)(C3O)C5(C)C)CC4(O)C(C)C3C(=C(C)C14CC4)OC(C3O)C21CO1

>  <smiles>  (42) 
[H]OC([H])([H])C12OC3([H])C(=C([H])[H])C4(C(C([H])([H])[H])=C5OC([H])(C([H])(O[H])C5([H])C([H])(C([H])([H])[H])C5(O[H])C([H])([H])C([H])(C([H])([H])C6([H])C(=O)C(O[H])(C1([H])O[H])C6(C([H])([H])[H])C([H])([H])[H])C25[H])C31OC1([H])[H])C([H])([H])C4([H])[H]

$$$$
13:1:0
     RDKit          3D

 79 86  0  0  1  0  0  0  0  0999 V2000
    5.6757   -0.9661    0.2076 C   0  0  0  0  0  0  0  0  0  0  0  0
    5.2453   -2.1862    0.5724 C   0  0  0  0  0  0  0  0  0  0  0  0
    6.0406   -2.9843    1.6247 C   0  0  1  0  0  0  0  0  0  0  0  0
    5.2004   -3.4877    2.6738 O   0  0  0  0  0  0  0  0  0  0  0  0
    4.6372   -2.7708    3.7979 C   0  0  2  0  0  0  0  0  0  0  0  0
    5.5508   -3.2107    5.0059 C   0  0  0  0  0  0  0  0  0  0  0  0
    4.9512   -3.7082    6.1954 O   0  0  0  0  0  0  0  0  0  0  0  0
    3.2990   -3.5700    3.6792 C   0  0  2  0  0  0  0  0  0  0  0  0
    2.0215   -3.4170    4.5241 C   0  0  2  0  0  0  0  0  0  0  0  0
    2.0145   -2.6286    5.8549 C   0  0  0  0  0  0  0  0  0  0  0  0
    2.0194   -1.0875    5.6933 C   0  0  2  0  0  0  0  0  0  0  0  0
    2.0255   -0.5980    4.2298 C   0  0  0  0  0  0  0  0  0  0  0  0
    1.1614   -0.4320    3.3761 O   0  0  0  0  0  0  0  0  0  0  0  0
    3.5044   -0.2264    4.3344 C   0  0  2  0  0  0  0  0  0  0  0  0
    3.6289    1.0497    3.7297 O   0  0  0  0  0  0  0  0  0  0  0  0
    4.4888   -1.1845    3.5439 C   0  0  1  0  0  0  0  0  0  0  0  0
    5.7468   -0.5252    3.6312 O   0  0  0  0  0  0  0  0  0  0  0  0
    3.2776   -0.1813    5.8971 C   0  0  0  0  0  0  0  0  0  0  0  0
    2.8626    1.1955    6.4677 C   0  0  0  0  0  0  0  0  0  0  0  0
    4.4344   -0.6176    6.8092 C   0  0  0  0  0  0  0  0  0  0  0  0
    1.8767   -4.9267    4.5400 C   0  0  0  0  0  0  0  0  0  0  0  0
    3.1760   -5.1169    3.7447 C   0  0  2  0  0  0  0  0  0  0  0  0
    4.0501   -5.8352    4.5672 O   0  0  0  0  0  0  0  0  0  0  0  0
    3.1344   -5.8992    2.3915 C   0  0  1  0  0  0  0  0  0  0  0  0
    1.8256   -5.6766    1.6043 C   0  0  0  0  0  0  0  0  0  0  0  0
    4.4159   -5.8805    1.4607 C   0  0  1  0  0  0  0  0  0  0  0  0
    4.5923   -5.2433    0.0730 C   0  0  0  0  0  0  0  0  0  0  0  0
    4.3233   -4.1059   -0.6060 C   0  0  0  0  0  0  0  0  0  0  0  0
    4.8024   -3.9261   -2.0444 C   0  0  0  0  0  0  0  0  0  0  0  0
    3.9927   -2.7943   -0.0114 C   0  0  0  0  0  0  0  0  0  0  0  0
    3.0736   -1.9149   -0.8760 C   0  0  0  0  0  0  0  0  0  0  0  0
    2.6031   -2.4355    0.4237 C   0  0  0  0  0  0  0  0  0  0  0  0
    5.8087   -5.6908   -0.3116 O   0  0  0  0  0  0  0  0  0  0  0  0
    6.6560   -5.5238    0.8093 C   0  0  2  0  0  0  0  0  0  0  0  0
    5.8560   -6.2415    1.8900 C   0  0  1  0  0  0  0  0  0  0  0  0
    6.3860   -5.9586    3.1601 O   0  0  0  0  0  0  0  0  0  0  0  0
    7.0469   -4.0379    0.9962 C   0  0  1  0  0  0  0  0  0  0  0  0
    8.0369   -3.4477    0.0017 C   0  0  0  0  0  0  0  0  0  0  0  0
    8.4375   -3.8593    1.3014 O   0  0  0  0  0  0  0  0  0  0  0  0
    5.1598   -0.3528   -0.5078 H   0  0  0  0  0  0  0  0  0  0  0  0
    6.5509   -0.5455    0.6672 H   0  0  0  0  0  0  0  0  0  0  0  0
    6.6844   -2.2448    2.0943 H   0  0  0  0  0  0  0  0  0  0  0  0
    6.2086   -4.0243    4.6905 H   0  0  0  0  0  0  0  0  0  0  0  0
    6.2442   -2.4200    5.2940 H   0  0  0  0  0  0  0  0  0  0  0  0
    5.6532   -3.7528    6.8262 H   0  0  0  0  0  0  0  0  0  0  0  0
    2.9349   -3.3356    2.7000 H   0  0  0  0  0  0  0  0  0  0  0  0
    1.2177   -3.1039    3.8535 H   0  0  0  0  0  0  0  0  0  0  0  0
    1.0928   -2.9208    6.4006 H   0  0  0  0  0  0  0  0  0  0  0  0
    2.8418   -2.9315    6.5013 H   0  0  0  0  0  0  0  0  0  0  0  0
    1.1831   -0.6517    6.2420 H   0  0  0  0  0  0  0  0  0  0  0  0
    4.5507    1.2770    3.7390 H   0  0  0  0  0  0  0  0  0  0  0  0
    4.1694   -1.0692    2.5062 H   0  0  0  0  0  0  0  0  0  0  0  0
    6.0065   -0.5061    4.5393 H   0  0  0  0  0  0  0  0  0  0  0  0
    3.6774    1.9193    6.4279 H   0  0  0  0  0  0  0  0  0  0  0  0
    2.5498    1.1072    7.5095 H   0  0  0  0  0  0  0  0  0  0  0  0
    2.0225    1.6311    5.9245 H   0  0  0  0  0  0  0  0  0  0  0  0
    5.3253   -0.7861    6.2295 H   0  0  0  0  0  0  0  0  0  0  0  0
    4.1926   -1.5099    7.3684 H   0  0  0  0  0  0  0  0  0  0  0  0
    4.7287    0.1505    7.5337 H   0  0  0  0  0  0  0  0  0  0  0  0
    1.9383   -5.3221    5.5521 H   0  0  0  0  0  0  0  0  0  0  0  0
    0.9780   -5.2799    4.0486 H   0  0  0  0  0  0  0  0  0  0  0  0
    4.0822   -5.3425    5.3794 H   0  0  0  0  0  0  0  0  0  0  0  0
    3.0475   -6.9533    2.6921 H   0  0  0  0  0  0  0  0  0  0  0  0
    1.4404   -4.6783    1.7797 H   0  0  0  0  0  0  0  0  0  0  0  0
    1.0503   -6.3646    1.9408 H   0  0  0  0  0  0  0  0  0  0  0  0
    1.9463   -5.8247    0.5335 H   0  0  0  0  0  0  0  0  0  0  0  0
    4.1579   -6.8293    1.0119 H   0  0  0  0  0  0  0  0  0  0  0  0
    5.4251   -3.0394   -2.1663 H   0  0  0  0  0  0  0  0  0  0  0  0
    3.9434   -3.8359   -2.7057 H   0  0  0  0  0  0  0  0  0  0  0  0
    5.3672   -4.7724   -2.4143 H   0  0  0  0  0  0  0  0  0  0  0  0
    3.1728   -0.8341   -0.9238 H   0  0  0  0  0  0  0  0  0  0  0  0
    2.5884   -2.3433   -1.7519 H   0  0  0  0  0  0  0  0  0  0  0  0
    1.8345   -3.1999    0.3300 H   0  0  0  0  0  0  0  0  0  0  0  0
    2.4304   -1.6850    1.1954 H   0  0  0  0  0  0  0  0  0  0  0  0
    7.5669   -6.0767    0.6124 H   0  0  0  0  0  0  0  0  0  0  0  0
    5.9899   -7.3225    1.7509 H   0  0  0  0  0  0  0  0  0  0  0  0
    7.2744   -6.2835    3.1916 H   0  0  0  0  0  0  0  0  0  0  0  0
    8.4798   -4.0607   -0.7767 H   0  0  0  0  0  0  0  0  0  0  0  0
    8.1196   -2.3684   -0.1229 H   0  0  0  0  0  0  0  0  0  0  0  0
  1  2  2  0
  1 40  1  0
  1 41  1  0
  2 30  1  0
  2  3  1  0
  3 37  1  0
  3  4  1  0
  3 42  1  1
  4  5  1  0
  5 16  1  0
  5  6  1  1
  5  8  1  0
  6  7  1  0
  6 43  1  0
  6 44  1  0
  7 45  1  0
  8 22  1  0
  8  9  1  0
  8 46  1  6
  9 10  1  0
  9 21  1  0
  9 47  1  6
 10 11  1  0
 10 48  1  0
 10 49  1  0
 11 18  1  0
 11 12  1  0
 11 50  1  1
 12 13  2  0
 12 14  1  0
 14 15  1  6
 14 16  1  0
 14 18  1  0
 15 51  1  0
 16 17  1  0
 16 52  1  6
 17 53  1  0
 18 19  1  0
 18 20  1  0
 19 54  1  0
 19 55  1  0
 19 56  1  0
 20 57  1  0
 20 58  1  0
 20 59  1  0
 21 22  1  0
 21 60  1  0
 21 61  1  0
 22 23  1  1
 22 24  1  0
 23 62  1  0
 24 25  1  0
 24 26  1  0
 24 63  1  1
 25 64  1  0
 25 65  1  0
 25 66  1  0
 26 35  1  0
 26 27  1  0
 26 67  1  6
 27 28  2  3
 27 33  1  0
 28 29  1  0
 28 30  1  0
 29 68  1  0
 29 69  1  0
 29 70  1  0
 30 32  1  0
 30 31  1  0
 31 32  1  0
 31 71  1  0
 31 72  1  0
 32 73  1  0
 32 74  1  0
 33 34  1  0
 34 35  1  0
 34 37  1  0
 34 75  1  6
 35 36  1  0
 35 76  1  6
 36 77  1  0
 37 39  1  1
 37 38  1  0
 38 39  1  0
 38 78  1  0
 38 79  1  0
M  END
>  <i_m_ct_stereo_status>  (43) 
1

>  <s_m_source_file>  (43) 
/var/tmp/pbs.5076255.sched01/tmpuj7nejrg/06cdl7mjn.sdf

>  <i_m_source_file_index>  (43) 
21

>  <i_lp_mmshare_version>  (43) 
48012

>  <i_f3d_flags>  (43) 
0

>  <s_epik_input>  (43) 
W0NIMl0xW0NIMl1DMTJDKD1bQ0gyXSlbQ0BASF0zW0NAXTQoW0NIMl1PNClbQ0BASF01T0MoPUMyXFtDSDNdKVxbQ0BASF0oW0NAQEhdNVtPSF0pW0NASF0oW0NIM10pW0NAQF02KFtPSF0pW0NAQEhdN1tDQF0oTzMpKFtDSDJdW09IXSlbQ0BIXShbT0hdKVtDQEBdOChbT0hdKUMoPU8pW0NASF0oQzgoW0NIM10pW0NIM10pW0NIMl1bQ0BASF03W0NIMl02

>  <s_epik_cmdline>  (43) 
J2VwaWtfcHl0aG9uJywgJy1waHQnLCAnMi4wJywgJy1waCcsICc3LjAnLCAnLXRuJywgJzgnLCAnLW1hJywgJzIwMCcsICctaW1hZScsICc8aW5maWxlLm1hZT4nLCAnLW9tYWUnLCAnPG91dGZpbGUubWFlPic=

>  <r_lp_tautomer_probability>  (43) 
1

>  <r_epik_Ionization_Penalty>  (43) 
2.00523e-06

>  <r_epik_Ionization_Penalty_Charging>  (43) 
0

>  <r_epik_Ionization_Penalty_Neutral>  (43) 
2.00523e-06

>  <r_epik_State_Penalty>  (43) 
-0

>  <r_epik_Charging_Adjusted_Penalty>  (43) 
0

>  <i_epik_Tot_Q>  (43) 
0

>  <i_epik_Tot_abs_Q>  (43) 
0

>  <s_lp_Force_Field>  (43) 
OPLS3e

>  <r_lp_Energy>  (43) 
162.839

>  <b_lp_Chiralities_Consistent>  (43) 
1

>  <s_lp_Variant>  (43) 
13:0-2

>  <s_i_glide_gridfile>  (43) 
pfpi4k_grid

>  <i_i_glide_lignum>  (43) 
21

>  <i_i_glide_rotatable_bonds>  (43) 
6

>  <r_i_docking_score>  (43) 
-1.88988

>  <r_i_glide_ligand_efficiency>  (43) 
-0.0484584

>  <r_i_glide_ligand_efficiency_sa>  (43) 
-0.164333

>  <r_i_glide_ligand_efficiency_ln>  (43) 
-0.405243

>  <r_i_glide_gscore>  (43) 
-1.88988

>  <r_i_glide_lipo>  (43) 
-0.792863

>  <r_i_glide_hbond>  (43) 
0

>  <r_i_glide_metal>  (43) 
-0

>  <r_i_glide_rewards>  (43) 
-0.5

>  <r_i_glide_evdw>  (43) 
-18.9707

>  <r_i_glide_ecoul>  (43) 
1.88048

>  <r_i_glide_erotb>  (43) 
0.0697829

>  <r_i_glide_esite>  (43) 
-0.000332776

>  <r_i_glide_emodel>  (43) 
-21.4745

>  <r_i_glide_energy>  (43) 
-17.0902

>  <r_i_glide_einternal>  (43) 
2.11097

>  <r_i_glide_intrahb_reward>  (43) 
-0.5

>  <i_i_glide_confnum>  (43) 
3

>  <i_i_glide_posenum>  (43) 
20

>  <r_i_glide_eff_state_penalty>  (43) 
0

>  <ligand_id>  (43) 
13

>  <original_smiles>  (43) 
C=C1C2OC3(CO)C4C(CC5C(=O)C(O)(C3O)C5(C)C)CC4(O)C(C)C3C(=C(C)C14CC4)OC(C3O)C21CO1

>  <smiles>  (43) 
[H]OC([H])([H])C12OC3([H])C(=C([H])[H])C4(C(C([H])([H])[H])=C5OC([H])(C([H])(O[H])C5([H])C([H])(C([H])([H])[H])C5(O[H])C([H])([H])C([H])(C([H])([H])C6([H])C(=O)C(O[H])(C1([H])O[H])C6(C([H])([H])[H])C([H])([H])[H])C25[H])C31OC1([H])[H])C([H])([H])C4([H])[H]

$$$$
13:1:1
     RDKit          3D

 79 86  0  0  1  0  0  0  0  0999 V2000
    5.5879   -1.0799   -0.0130 C   0  0  0  0  0  0  0  0  0  0  0  0
    5.1909   -2.2939    0.4094 C   0  0  0  0  0  0  0  0  0  0  0  0
    5.9973   -3.0164    1.5029 C   0  0  1  0  0  0  0  0  0  0  0  0
    5.1718   -3.5068    2.5682 O   0  0  0  0  0  0  0  0  0  0  0  0
    4.5874   -2.7519    3.6542 C   0  0  2  0  0  0  0  0  0  0  0  0
    5.5192   -3.0983    4.8701 C   0  0  0  0  0  0  0  0  0  0  0  0
    4.9654   -3.4971    6.1204 O   0  0  0  0  0  0  0  0  0  0  0  0
    3.2724   -3.5817    3.5760 C   0  0  2  0  0  0  0  0  0  0  0  0
    2.0033   -3.4188    4.4167 C   0  0  2  0  0  0  0  0  0  0  0  0
    1.9722   -2.5622    5.7124 C   0  0  0  0  0  0  0  0  0  0  0  0
    1.9528   -1.0323    5.4810 C   0  0  2  0  0  0  0  0  0  0  0  0
    1.9481   -0.6284    3.9934 C   0  0  0  0  0  0  0  0  0  0  0  0
    1.0757   -0.5142    3.1385 O   0  0  0  0  0  0  0  0  0  0  0  0
    3.4148   -0.1992    4.0746 C   0  0  2  0  0  0  0  0  0  0  0  0
    3.4470    1.0376    3.3678 O   0  0  0  0  0  0  0  0  0  0  0  0
    4.4034   -1.1880    3.3299 C   0  0  1  0  0  0  0  0  0  0  0  0
    5.6796   -0.5731    3.4423 O   0  0  0  0  0  0  0  0  0  0  0  0
    3.1866   -0.0851    5.6328 C   0  0  0  0  0  0  0  0  0  0  0  0
    2.7395    1.3073    6.1382 C   0  0  0  0  0  0  0  0  0  0  0  0
    4.3493   -0.4443    6.5614 C   0  0  0  0  0  0  0  0  0  0  0  0
    1.9104   -4.9239    4.5124 C   0  0  0  0  0  0  0  0  0  0  0  0
    3.2034   -5.1231    3.7146 C   0  0  2  0  0  0  0  0  0  0  0  0
    4.1328   -5.7737    4.5357 O   0  0  0  0  0  0  0  0  0  0  0  0
    3.1603   -5.9744    2.4061 C   0  0  1  0  0  0  0  0  0  0  0  0
    1.8503   -5.8183    1.6098 C   0  0  0  0  0  0  0  0  0  0  0  0
    4.4285   -5.9717    1.4880 C   0  0  1  0  0  0  0  0  0  0  0  0
    4.5901   -5.3916    0.0752 C   0  0  0  0  0  0  0  0  0  0  0  0
    4.3317   -4.2863   -0.6509 C   0  0  0  0  0  0  0  0  0  0  0  0
    4.7829   -4.1719   -2.1075 C   0  0  0  0  0  0  0  0  0  0  0  0
    3.9639   -2.9574   -0.1443 C   0  0  0  0  0  0  0  0  0  0  0  0
    3.0228   -2.1455   -1.0531 C   0  0  0  0  0  0  0  0  0  0  0  0
    2.5591   -2.6224    0.2660 C   0  0  0  0  0  0  0  0  0  0  0  0
    5.8080   -5.8497   -0.2444 O   0  0  0  0  0  0  0  0  0  0  0  0
    6.6675   -5.5812    0.8317 C   0  0  2  0  0  0  0  0  0  0  0  0
    5.8748   -6.2692    1.9343 C   0  0  1  0  0  0  0  0  0  0  0  0
    6.3567   -5.9486    3.2123 O   0  0  0  0  0  0  0  0  0  0  0  0
    7.0268   -4.0811    0.9306 C   0  0  1  0  0  0  0  0  0  0  0  0
    8.0272   -3.5243   -0.0637 C   0  0  0  0  0  0  0  0  0  0  0  0
    8.4004   -3.8544    1.2745 O   0  0  0  0  0  0  0  0  0  0  0  0
    5.0580   -0.5191   -0.7625 H   0  0  0  0  0  0  0  0  0  0  0  0
    6.4572   -0.6170    0.4229 H   0  0  0  0  0  0  0  0  0  0  0  0
    6.6404   -2.2503    1.9418 H   0  0  0  0  0  0  0  0  0  0  0  0
    6.1862   -3.9141    4.6182 H   0  0  0  0  0  0  0  0  0  0  0  0
    6.1619   -2.2660    5.0940 H   0  0  0  0  0  0  0  0  0  0  0  0
    5.6781   -3.4740    6.7378 H   0  0  0  0  0  0  0  0  0  0  0  0
    2.9029   -3.3982    2.5863 H   0  0  0  0  0  0  0  0  0  0  0  0
    1.1939   -3.1621    3.7397 H   0  0  0  0  0  0  0  0  0  0  0  0
    1.0641   -2.8524    6.2734 H   0  0  0  0  0  0  0  0  0  0  0  0
    2.7865   -2.8152    6.3756 H   0  0  0  0  0  0  0  0  0  0  0  0
    1.1067   -0.5881    6.0084 H   0  0  0  0  0  0  0  0  0  0  0  0
    4.2820    1.4663    3.4939 H   0  0  0  0  0  0  0  0  0  0  0  0
    4.0955   -1.1058    2.2765 H   0  0  0  0  0  0  0  0  0  0  0  0
    5.5746    0.3653    3.4049 H   0  0  0  0  0  0  0  0  0  0  0  0
    3.5399    2.0453    6.0589 H   0  0  0  0  0  0  0  0  0  0  0  0
    2.4364    1.2616    7.1858 H   0  0  0  0  0  0  0  0  0  0  0  0
    1.8912    1.6946    5.5806 H   0  0  0  0  0  0  0  0  0  0  0  0
    5.2428   -0.6254    5.9890 H   0  0  0  0  0  0  0  0  0  0  0  0
    4.1277   -1.3074    7.1720 H   0  0  0  0  0  0  0  0  0  0  0  0
    4.6385    0.3654    7.2451 H   0  0  0  0  0  0  0  0  0  0  0  0
    1.9972   -5.2705    5.5346 H   0  0  0  0  0  0  0  0  0  0  0  0
    1.0153   -5.3189    4.0429 H   0  0  0  0  0  0  0  0  0  0  0  0
    4.9714   -5.7520    4.0679 H   0  0  0  0  0  0  0  0  0  0  0  0
    3.0998   -7.0173    2.7551 H   0  0  0  0  0  0  0  0  0  0  0  0
    1.4623   -4.8138    1.7417 H   0  0  0  0  0  0  0  0  0  0  0  0
    1.0868   -6.5043    1.9868 H   0  0  0  0  0  0  0  0  0  0  0  0
    1.9673   -6.0117    0.5501 H   0  0  0  0  0  0  0  0  0  0  0  0
    4.1992   -6.9374    1.0754 H   0  0  0  0  0  0  0  0  0  0  0  0
    5.3906   -3.2810   -2.2894 H   0  0  0  0  0  0  0  0  0  0  0  0
    3.9303   -4.1180   -2.7810 H   0  0  0  0  0  0  0  0  0  0  0  0
    5.3403   -5.0385   -2.4303 H   0  0  0  0  0  0  0  0  0  0  0  0
    3.0825   -1.0612   -1.1494 H   0  0  0  0  0  0  0  0  0  0  0  0
    2.5373   -2.6281   -1.9012 H   0  0  0  0  0  0  0  0  0  0  0  0
    1.8248   -3.4165    0.1940 H   0  0  0  0  0  0  0  0  0  0  0  0
    2.3595   -1.8411    0.9957 H   0  0  0  0  0  0  0  0  0  0  0  0
    7.5848   -6.1217    0.6288 H   0  0  0  0  0  0  0  0  0  0  0  0
    6.0494   -7.3492    1.8217 H   0  0  0  0  0  0  0  0  0  0  0  0
    7.2832   -6.1478    3.2160 H   0  0  0  0  0  0  0  0  0  0  0  0
    8.4612   -4.1661   -0.8296 H   0  0  0  0  0  0  0  0  0  0  0  0
    8.0591   -2.4513   -0.2861 H   0  0  0  0  0  0  0  0  0  0  0  0
  1  2  2  0
  1 40  1  0
  1 41  1  0
  2 30  1  0
  2  3  1  0
  3 37  1  0
  3  4  1  0
  3 42  1  1
  4  5  1  0
  5 16  1  0
  5  6  1  1
  5  8  1  0
  6  7  1  0
  6 43  1  0
  6 44  1  0
  7 45  1  0
  8 22  1  0
  8  9  1  0
  8 46  1  6
  9 10  1  0
  9 21  1  0
  9 47  1  6
 10 11  1  0
 10 48  1  0
 10 49  1  0
 11 18  1  0
 11 12  1  0
 11 50  1  1
 12 13  2  0
 12 14  1  0
 14 15  1  6
 14 16  1  0
 14 18  1  0
 15 51  1  0
 16 17  1  0
 16 52  1  6
 17 53  1  0
 18 19  1  0
 18 20  1  0
 19 54  1  0
 19 55  1  0
 19 56  1  0
 20 57  1  0
 20 58  1  0
 20 59  1  0
 21 22  1  0
 21 60  1  0
 21 61  1  0
 22 23  1  1
 22 24  1  0
 23 62  1  0
 24 25  1  0
 24 26  1  0
 24 63  1  1
 25 64  1  0
 25 65  1  0
 25 66  1  0
 26 35  1  0
 26 27  1  0
 26 67  1  6
 27 28  2  3
 27 33  1  0
 28 29  1  0
 28 30  1  0
 29 68  1  0
 29 69  1  0
 29 70  1  0
 30 32  1  0
 30 31  1  0
 31 32  1  0
 31 71  1  0
 31 72  1  0
 32 73  1  0
 32 74  1  0
 33 34  1  0
 34 35  1  0
 34 37  1  0
 34 75  1  6
 35 36  1  0
 35 76  1  6
 36 77  1  0
 37 39  1  1
 37 38  1  0
 38 39  1  0
 38 78  1  0
 38 79  1  0
M  END
>  <i_m_ct_stereo_status>  (44) 
1

>  <s_m_source_file>  (44) 
/var/tmp/pbs.5076255.sched01/tmpuj7nejrg/06cdl7mjn.sdf

>  <i_m_source_file_index>  (44) 
21

>  <i_lp_mmshare_version>  (44) 
48012

>  <i_f3d_flags>  (44) 
0

>  <s_epik_input>  (44) 
W0NIMl0xW0NIMl1DMTJDKD1bQ0gyXSlbQ0BASF0zW0NAXTQoW0NIMl1PNClbQ0BASF01T0MoPUMyXFtDSDNdKVxbQ0BASF0oW0NAQEhdNVtPSF0pW0NASF0oW0NIM10pW0NAQF02KFtPSF0pW0NAQEhdN1tDQF0oTzMpKFtDSDJdW09IXSlbQ0BIXShbT0hdKVtDQEBdOChbT0hdKUMoPU8pW0NASF0oQzgoW0NIM10pW0NIM10pW0NIMl1bQ0BASF03W0NIMl02

>  <s_epik_cmdline>  (44) 
J2VwaWtfcHl0aG9uJywgJy1waHQnLCAnMi4wJywgJy1waCcsICc3LjAnLCAnLXRuJywgJzgnLCAnLW1hJywgJzIwMCcsICctaW1hZScsICc8aW5maWxlLm1hZT4nLCAnLW9tYWUnLCAnPG91dGZpbGUubWFlPic=

>  <r_lp_tautomer_probability>  (44) 
1

>  <r_epik_Ionization_Penalty>  (44) 
2.00523e-06

>  <r_epik_Ionization_Penalty_Charging>  (44) 
0

>  <r_epik_Ionization_Penalty_Neutral>  (44) 
2.00523e-06

>  <r_epik_State_Penalty>  (44) 
-0

>  <r_epik_Charging_Adjusted_Penalty>  (44) 
0

>  <i_epik_Tot_Q>  (44) 
0

>  <i_epik_Tot_abs_Q>  (44) 
0

>  <s_lp_Force_Field>  (44) 
OPLS3e

>  <r_lp_Energy>  (44) 
162.839

>  <b_lp_Chiralities_Consistent>  (44) 
1

>  <s_lp_Variant>  (44) 
13:0-2

>  <s_i_glide_gridfile>  (44) 
pfpi4k_grid

>  <i_i_glide_lignum>  (44) 
21

>  <i_i_glide_rotatable_bonds>  (44) 
6

>  <r_i_docking_score>  (44) 
-1.83549

>  <r_i_glide_ligand_efficiency>  (44) 
-0.0470638

>  <r_i_glide_ligand_efficiency_sa>  (44) 
-0.159603

>  <r_i_glide_ligand_efficiency_ln>  (44) 
-0.393581

>  <r_i_glide_gscore>  (44) 
-1.83549

>  <r_i_glide_lipo>  (44) 
-0.71545

>  <r_i_glide_hbond>  (44) 
0

>  <r_i_glide_metal>  (44) 
-0

>  <r_i_glide_rewards>  (44) 
-0.5

>  <r_i_glide_evdw>  (44) 
-17.9093

>  <r_i_glide_ecoul>  (44) 
1.37804

>  <r_i_glide_erotb>  (44) 
0.0697829

>  <r_i_glide_esite>  (44) 
-0.00106466

>  <r_i_glide_emodel>  (44) 
-18.9861

>  <r_i_glide_energy>  (44) 
-16.5312

>  <r_i_glide_einternal>  (44) 
3.38255

>  <r_i_glide_intrahb_reward>  (44) 
-0.5

>  <i_i_glide_confnum>  (44) 
1

>  <i_i_glide_posenum>  (44) 
29

>  <r_i_glide_eff_state_penalty>  (44) 
0

>  <ligand_id>  (44) 
13

>  <original_smiles>  (44) 
C=C1C2OC3(CO)C4C(CC5C(=O)C(O)(C3O)C5(C)C)CC4(O)C(C)C3C(=C(C)C14CC4)OC(C3O)C21CO1

>  <smiles>  (44) 
[H]OC([H])([H])C12OC3([H])C(=C([H])[H])C4(C(C([H])([H])[H])=C5OC([H])(C([H])(O[H])C5([H])C([H])(C([H])([H])[H])C5(O[H])C([H])([H])C([H])(C([H])([H])C6([H])C(=O)C(O[H])(C1([H])O[H])C6(C([H])([H])[H])C([H])([H])[H])C25[H])C31OC1([H])[H])C([H])([H])C4([H])[H]

$$$$
13:1:2
     RDKit          3D

 79 86  0  0  1  0  0  0  0  0999 V2000
    5.6764   -1.0568    0.2737 C   0  0  0  0  0  0  0  0  0  0  0  0
    5.2335   -2.2851    0.6151 C   0  0  0  0  0  0  0  0  0  0  0  0
    6.0251   -3.0945    1.6604 C   0  0  1  0  0  0  0  0  0  0  0  0
    5.1804   -3.6220    2.6927 O   0  0  0  0  0  0  0  0  0  0  0  0
    4.6102   -2.9125    3.8186 C   0  0  2  0  0  0  0  0  0  0  0  0
    5.5587   -3.3550    4.9932 C   0  0  0  0  0  0  0  0  0  0  0  0
    4.9568   -3.6922    6.2130 O   0  0  0  0  0  0  0  0  0  0  0  0
    3.2766   -3.7104    3.6872 C   0  0  2  0  0  0  0  0  0  0  0  0
    2.0009   -3.5770    4.5300 C   0  0  2  0  0  0  0  0  0  0  0  0
    1.9939   -2.8058    5.8702 C   0  0  0  0  0  0  0  0  0  0  0  0
    1.9988   -1.2593    5.7354 C   0  0  2  0  0  0  0  0  0  0  0  0
    2.0008   -0.7504    4.2756 C   0  0  0  0  0  0  0  0  0  0  0  0
    1.1389   -0.5791    3.4210 O   0  0  0  0  0  0  0  0  0  0  0  0
    3.4753   -0.3682    4.3919 C   0  0  2  0  0  0  0  0  0  0  0  0
    3.5994    0.9093    3.7756 O   0  0  0  0  0  0  0  0  0  0  0  0
    4.4524   -1.3248    3.5949 C   0  0  1  0  0  0  0  0  0  0  0  0
    5.7243   -0.6984    3.7350 O   0  0  0  0  0  0  0  0  0  0  0  0
    3.2466   -0.3458    5.9556 C   0  0  0  0  0  0  0  0  0  0  0  0
    2.8236    1.0186    6.5416 C   0  0  0  0  0  0  0  0  0  0  0  0
    4.3924   -0.7826    6.8764 C   0  0  0  0  0  0  0  0  0  0  0  0
    1.8611   -5.0853    4.5331 C   0  0  0  0  0  0  0  0  0  0  0  0
    3.1654   -5.2570    3.7369 C   0  0  2  0  0  0  0  0  0  0  0  0
    4.0744   -5.9724    4.5378 O   0  0  0  0  0  0  0  0  0  0  0  0
    3.1151   -6.0237    2.3724 C   0  0  1  0  0  0  0  0  0  0  0  0
    1.8146   -5.7912    1.5785 C   0  0  0  0  0  0  0  0  0  0  0  0
    4.3943   -6.0025    1.4498 C   0  0  1  0  0  0  0  0  0  0  0  0
    4.5900   -5.3374    0.0860 C   0  0  0  0  0  0  0  0  0  0  0  0
    4.3282   -4.1908   -0.5872 C   0  0  0  0  0  0  0  0  0  0  0  0
    4.8164   -3.9953   -2.0181 C   0  0  0  0  0  0  0  0  0  0  0  0
    3.9867   -2.8859    0.0165 C   0  0  0  0  0  0  0  0  0  0  0  0
    3.0672   -1.9924   -0.8384 C   0  0  0  0  0  0  0  0  0  0  0  0
    2.5868   -2.5296    0.4441 C   0  0  0  0  0  0  0  0  0  0  0  0
    5.8104   -5.7822   -0.2679 O   0  0  0  0  0  0  0  0  0  0  0  0
    6.6550   -5.6315    0.8556 C   0  0  2  0  0  0  0  0  0  0  0  0
    5.8280   -6.3634    1.8981 C   0  0  1  0  0  0  0  0  0  0  0  0
    6.2948   -6.1466    3.2038 O   0  0  0  0  0  0  0  0  0  0  0  0
    7.0407   -4.1511    1.0407 C   0  0  1  0  0  0  0  0  0  0  0  0
    8.0397   -3.5503    0.0667 C   0  0  0  0  0  0  0  0  0  0  0  0
    8.4286   -3.9755    1.3669 O   0  0  0  0  0  0  0  0  0  0  0  0
    5.1667   -0.4404   -0.4397 H   0  0  0  0  0  0  0  0  0  0  0  0
    6.5569   -0.6523    0.7405 H   0  0  0  0  0  0  0  0  0  0  0  0
    6.6663   -2.3608    2.1477 H   0  0  0  0  0  0  0  0  0  0  0  0
    6.1231   -4.2431    4.7340 H   0  0  0  0  0  0  0  0  0  0  0  0
    6.3081   -2.6172    5.2362 H   0  0  0  0  0  0  0  0  0  0  0  0
    4.5231   -2.9068    6.5559 H   0  0  0  0  0  0  0  0  0  0  0  0
    2.9145   -3.4570    2.7089 H   0  0  0  0  0  0  0  0  0  0  0  0
    1.1951   -3.2455    3.8721 H   0  0  0  0  0  0  0  0  0  0  0  0
    1.0688   -3.1004    6.4039 H   0  0  0  0  0  0  0  0  0  0  0  0
    2.8058   -3.1423    6.5080 H   0  0  0  0  0  0  0  0  0  0  0  0
    1.1550   -0.8347    6.2831 H   0  0  0  0  0  0  0  0  0  0  0  0
    4.4647    1.2426    3.9555 H   0  0  0  0  0  0  0  0  0  0  0  0
    4.1533   -1.1937    2.5527 H   0  0  0  0  0  0  0  0  0  0  0  0
    5.6888    0.1495    3.3164 H   0  0  0  0  0  0  0  0  0  0  0  0
    3.6414    1.7418    6.5188 H   0  0  0  0  0  0  0  0  0  0  0  0
    2.5097    0.9138    7.5816 H   0  0  0  0  0  0  0  0  0  0  0  0
    1.9865    1.4630    6.0029 H   0  0  0  0  0  0  0  0  0  0  0  0
    5.2868   -0.9885    6.3057 H   0  0  0  0  0  0  0  0  0  0  0  0
    4.1140   -1.6389    7.4755 H   0  0  0  0  0  0  0  0  0  0  0  0
    4.6982   -0.0077    7.5882 H   0  0  0  0  0  0  0  0  0  0  0  0
    1.9303   -5.4981    5.5341 H   0  0  0  0  0  0  0  0  0  0  0  0
    0.9630   -5.4278    4.0267 H   0  0  0  0  0  0  0  0  0  0  0  0
    4.9011   -5.9906    4.0510 H   0  0  0  0  0  0  0  0  0  0  0  0
    3.0251   -7.0849    2.6570 H   0  0  0  0  0  0  0  0  0  0  0  0
    1.4411   -4.7919    1.7661 H   0  0  0  0  0  0  0  0  0  0  0  0
    1.0335   -6.4812    1.9030 H   0  0  0  0  0  0  0  0  0  0  0  0
    1.9376   -5.9229    0.5072 H   0  0  0  0  0  0  0  0  0  0  0  0
    4.1408   -6.9445    0.9834 H   0  0  0  0  0  0  0  0  0  0  0  0
    5.4425   -3.1082   -2.1255 H   0  0  0  0  0  0  0  0  0  0  0  0
    3.9631   -3.8768   -2.6825 H   0  0  0  0  0  0  0  0  0  0  0  0
    5.3736   -4.8411   -2.3917 H   0  0  0  0  0  0  0  0  0  0  0  0
    3.1805   -0.9076   -0.8722 H   0  0  0  0  0  0  0  0  0  0  0  0
    2.5940   -2.4112   -1.7260 H   0  0  0  0  0  0  0  0  0  0  0  0
    1.8347   -3.3032    0.3444 H   0  0  0  0  0  0  0  0  0  0  0  0
    2.4205   -1.7941    1.2269 H   0  0  0  0  0  0  0  0  0  0  0  0
    7.5586   -6.1824    0.6357 H   0  0  0  0  0  0  0  0  0  0  0  0
    5.9704   -7.4410    1.7260 H   0  0  0  0  0  0  0  0  0  0  0  0
    7.2107   -6.3913    3.2236 H   0  0  0  0  0  0  0  0  0  0  0  0
    8.4760   -4.1504   -0.7284 H   0  0  0  0  0  0  0  0  0  0  0  0
    8.1202   -2.4711   -0.0553 H   0  0  0  0  0  0  0  0  0  0  0  0
  1  2  2  0
  1 40  1  0
  1 41  1  0
  2 30  1  0
  2  3  1  0
  3 37  1  0
  3  4  1  0
  3 42  1  1
  4  5  1  0
  5 16  1  0
  5  6  1  1
  5  8  1  0
  6  7  1  0
  6 43  1  0
  6 44  1  0
  7 45  1  0
  8 22  1  0
  8  9  1  0
  8 46  1  6
  9 10  1  0
  9 21  1  0
  9 47  1  6
 10 11  1  0
 10 48  1  0
 10 49  1  0
 11 18  1  0
 11 12  1  0
 11 50  1  1
 12 13  2  0
 12 14  1  0
 14 15  1  6
 14 16  1  0
 14 18  1  0
 15 51  1  0
 16 17  1  0
 16 52  1  6
 17 53  1  0
 18 19  1  0
 18 20  1  0
 19 54  1  0
 19 55  1  0
 19 56  1  0
 20 57  1  0
 20 58  1  0
 20 59  1  0
 21 22  1  0
 21 60  1  0
 21 61  1  0
 22 23  1  1
 22 24  1  0
 23 62  1  0
 24 25  1  0
 24 26  1  0
 24 63  1  1
 25 64  1  0
 25 65  1  0
 25 66  1  0
 26 35  1  0
 26 27  1  0
 26 67  1  6
 27 28  2  3
 27 33  1  0
 28 29  1  0
 28 30  1  0
 29 68  1  0
 29 69  1  0
 29 70  1  0
 30 32  1  0
 30 31  1  0
 31 32  1  0
 31 71  1  0
 31 72  1  0
 32 73  1  0
 32 74  1  0
 33 34  1  0
 34 35  1  0
 34 37  1  0
 34 75  1  6
 35 36  1  0
 35 76  1  6
 36 77  1  0
 37 39  1  1
 37 38  1  0
 38 39  1  0
 38 78  1  0
 38 79  1  0
M  END
>  <i_m_ct_stereo_status>  (45) 
1

>  <s_m_source_file>  (45) 
/var/tmp/pbs.5076255.sched01/tmpuj7nejrg/06cdl7mjn.sdf

>  <i_m_source_file_index>  (45) 
21

>  <i_lp_mmshare_version>  (45) 
48012

>  <i_f3d_flags>  (45) 
0

>  <s_epik_input>  (45) 
W0NIMl0xW0NIMl1DMTJDKD1bQ0gyXSlbQ0BASF0zW0NAXTQoW0NIMl1PNClbQ0BASF01T0MoPUMyXFtDSDNdKVxbQ0BASF0oW0NAQEhdNVtPSF0pW0NASF0oW0NIM10pW0NAQF02KFtPSF0pW0NAQEhdN1tDQF0oTzMpKFtDSDJdW09IXSlbQ0BIXShbT0hdKVtDQEBdOChbT0hdKUMoPU8pW0NASF0oQzgoW0NIM10pW0NIM10pW0NIMl1bQ0BASF03W0NIMl02

>  <s_epik_cmdline>  (45) 
J2VwaWtfcHl0aG9uJywgJy1waHQnLCAnMi4wJywgJy1waCcsICc3LjAnLCAnLXRuJywgJzgnLCAnLW1hJywgJzIwMCcsICctaW1hZScsICc8aW5maWxlLm1hZT4nLCAnLW9tYWUnLCAnPG91dGZpbGUubWFlPic=

>  <r_lp_tautomer_probability>  (45) 
1

>  <r_epik_Ionization_Penalty>  (45) 
2.00523e-06

>  <r_epik_Ionization_Penalty_Charging>  (45) 
0

>  <r_epik_Ionization_Penalty_Neutral>  (45) 
2.00523e-06

>  <r_epik_State_Penalty>  (45) 
-0

>  <r_epik_Charging_Adjusted_Penalty>  (45) 
0

>  <i_epik_Tot_Q>  (45) 
0

>  <i_epik_Tot_abs_Q>  (45) 
0

>  <s_lp_Force_Field>  (45) 
OPLS3e

>  <r_lp_Energy>  (45) 
162.839

>  <b_lp_Chiralities_Consistent>  (45) 
1

>  <s_lp_Variant>  (45) 
13:0-2

>  <s_i_glide_gridfile>  (45) 
pfpi4k_grid

>  <i_i_glide_lignum>  (45) 
21

>  <i_i_glide_rotatable_bonds>  (45) 
6

>  <r_i_docking_score>  (45) 
-1.8152

>  <r_i_glide_ligand_efficiency>  (45) 
-0.0465436

>  <r_i_glide_ligand_efficiency_sa>  (45) 
-0.157839

>  <r_i_glide_ligand_efficiency_ln>  (45) 
-0.38923

>  <r_i_glide_gscore>  (45) 
-1.8152

>  <r_i_glide_lipo>  (45) 
-0.779399

>  <r_i_glide_hbond>  (45) 
0

>  <r_i_glide_metal>  (45) 
-0

>  <r_i_glide_rewards>  (45) 
-0.5

>  <r_i_glide_evdw>  (45) 
-17.1393

>  <r_i_glide_ecoul>  (45) 
1.67756

>  <r_i_glide_erotb>  (45) 
0.0697829

>  <r_i_glide_esite>  (45) 
-0.000254857

>  <r_i_glide_emodel>  (45) 
-19.4261

>  <r_i_glide_energy>  (45) 
-15.4617

>  <r_i_glide_einternal>  (45) 
2.31533

>  <r_i_glide_intrahb_reward>  (45) 
-0.5

>  <i_i_glide_confnum>  (45) 
6

>  <i_i_glide_posenum>  (45) 
1

>  <r_i_glide_eff_state_penalty>  (45) 
0

>  <ligand_id>  (45) 
13

>  <original_smiles>  (45) 
C=C1C2OC3(CO)C4C(CC5C(=O)C(O)(C3O)C5(C)C)CC4(O)C(C)C3C(=C(C)C14CC4)OC(C3O)C21CO1

>  <smiles>  (45) 
[H]OC([H])([H])C12OC3([H])C(=C([H])[H])C4(C(C([H])([H])[H])=C5OC([H])(C([H])(O[H])C5([H])C([H])(C([H])([H])[H])C5(O[H])C([H])([H])C([H])(C([H])([H])C6([H])C(=O)C(O[H])(C1([H])O[H])C6(C([H])([H])[H])C([H])([H])[H])C25[H])C31OC1([H])[H])C([H])([H])C4([H])[H]

$$$$
13:2:0
     RDKit          3D

 79 86  0  0  1  0  0  0  0  0999 V2000
   -0.0521   -6.9958    2.8427 C   0  0  0  0  0  0  0  0  0  0  0  0
    0.8508   -6.7357    3.7987 C   0  0  0  0  0  0  0  0  0  0  0  0
    1.8788   -5.5974    3.5782 C   0  0  1  0  0  0  0  0  0  0  0  0
    2.0759   -5.1730    2.2224 O   0  0  0  0  0  0  0  0  0  0  0  0
    3.3957   -5.1643    1.5709 C   0  0  2  0  0  0  0  0  0  0  0  0
    3.3369   -6.4016    0.6233 C   0  0  0  0  0  0  0  0  0  0  0  0
    2.8135   -7.5507    1.2824 O   0  0  0  0  0  0  0  0  0  0  0  0
    4.6953   -5.2079    2.5319 C   0  0  2  0  0  0  0  0  0  0  0  0
    6.1582   -5.0276    2.0473 C   0  0  2  0  0  0  0  0  0  0  0  0
    6.6218   -4.5783    0.6710 C   0  0  0  0  0  0  0  0  0  0  0  0
    6.2736   -3.1486    0.2661 C   0  0  2  0  0  0  0  0  0  0  0  0
    5.3330   -2.4184    1.2471 C   0  0  0  0  0  0  0  0  0  0  0  0
    5.5045   -1.7551    2.2677 O   0  0  0  0  0  0  0  0  0  0  0  0
    4.1501   -2.6818    0.3156 C   0  0  2  0  0  0  0  0  0  0  0  0
    3.4193   -1.4760    0.2277 O   0  0  0  0  0  0  0  0  0  0  0  0
    3.1168   -3.7532    0.8180 C   0  0  1  0  0  0  0  0  0  0  0  0
    2.2340   -3.9097   -0.2784 O   0  0  0  0  0  0  0  0  0  0  0  0
    5.2071   -2.8825   -0.8258 C   0  0  0  0  0  0  0  0  0  0  0  0
    5.5473   -1.6515   -1.6749 C   0  0  0  0  0  0  0  0  0  0  0  0
    4.9251   -3.9859   -1.8320 C   0  0  0  0  0  0  0  0  0  0  0  0
    6.4767   -6.4532    2.4418 C   0  0  0  0  0  0  0  0  0  0  0  0
    5.2606   -6.4547    3.3687 C   0  0  2  0  0  0  0  0  0  0  0  0
    4.6181   -7.6758    3.1875 O   0  0  0  0  0  0  0  0  0  0  0  0
    5.4901   -6.3700    4.9610 C   0  0  1  0  0  0  0  0  0  0  0  0
    6.7065   -5.5001    5.3483 C   0  0  0  0  0  0  0  0  0  0  0  0
    4.2661   -5.8788    5.8297 C   0  0  1  0  0  0  0  0  0  0  0  0
    2.9348   -6.6074    6.0972 C   0  0  0  0  0  0  0  0  0  0  0  0
    2.4081   -7.7145    5.5437 C   0  0  0  0  0  0  0  0  0  0  0  0
    3.1438   -8.9954    5.2152 C   0  0  0  0  0  0  0  0  0  0  0  0
    0.9733   -7.6259    5.0544 C   0  0  0  0  0  0  0  0  0  0  0  0
    0.0244   -8.7855    5.3378 C   0  0  0  0  0  0  0  0  0  0  0  0
   -0.1574   -7.4762    6.0512 C   0  0  0  0  0  0  0  0  0  0  0  0
    2.0172   -5.6658    6.4696 O   0  0  0  0  0  0  0  0  0  0  0  0
    2.3804   -4.4130    5.9701 C   0  0  1  0  0  0  0  0  0  0  0  0
    3.9352   -4.4215    6.1189 C   0  0  1  0  0  0  0  0  0  0  0  0
    4.2898   -4.1008    7.4457 O   0  0  0  0  0  0  0  0  0  0  0  0
    1.7391   -4.3676    4.5468 C   0  0  1  0  0  0  0  0  0  0  0  0
    1.3034   -3.0289    3.9926 C   0  0  0  0  0  0  0  0  0  0  0  0
    0.3874   -3.9097    4.6289 O   0  0  0  0  0  0  0  0  0  0  0  0
   -0.7680   -7.8035    2.9180 H   0  0  0  0  0  0  0  0  0  0  0  0
   -0.0632   -6.4137    1.9327 H   0  0  0  0  0  0  0  0  0  0  0  0
    2.7455   -6.1945    3.6448 H   0  0  0  0  0  0  0  0  0  0  0  0
    2.6676   -6.2543   -0.2220 H   0  0  0  0  0  0  0  0  0  0  0  0
    4.3125   -6.6543    0.2184 H   0  0  0  0  0  0  0  0  0  0  0  0
    3.4091   -7.7858    1.9850 H   0  0  0  0  0  0  0  0  0  0  0  0
    4.5911   -4.3812    3.2208 H   0  0  0  0  0  0  0  0  0  0  0  0
    6.5973   -4.3837    2.7983 H   0  0  0  0  0  0  0  0  0  0  0  0
    7.7137   -4.6720    0.6344 H   0  0  0  0  0  0  0  0  0  0  0  0
    6.2666   -5.2942   -0.0708 H   0  0  0  0  0  0  0  0  0  0  0  0
    7.1620   -2.5476    0.0729 H   0  0  0  0  0  0  0  0  0  0  0  0
    2.6531   -1.6374   -0.3110 H   0  0  0  0  0  0  0  0  0  0  0  0
    2.5592   -3.1782    1.5549 H   0  0  0  0  0  0  0  0  0  0  0  0
    2.6766   -4.3785   -0.9731 H   0  0  0  0  0  0  0  0  0  0  0  0
    4.7208   -1.3562   -2.3188 H   0  0  0  0  0  0  0  0  0  0  0  0
    6.4098   -1.8565   -2.2971 H   0  0  0  0  0  0  0  0  0  0  0  0
    5.7923   -0.7786   -1.0637 H   0  0  0  0  0  0  0  0  0  0  0  0
    4.1627   -3.6881   -2.5491 H   0  0  0  0  0  0  0  0  0  0  0  0
    4.5682   -4.8791   -1.3301 H   0  0  0  0  0  0  0  0  0  0  0  0
    5.8219   -4.2420   -2.3861 H   0  0  0  0  0  0  0  0  0  0  0  0
    6.3809   -7.1220    1.5814 H   0  0  0  0  0  0  0  0  0  0  0  0
    7.4536   -6.5590    2.9107 H   0  0  0  0  0  0  0  0  0  0  0  0
    5.2233   -8.3383    3.4937 H   0  0  0  0  0  0  0  0  0  0  0  0
    5.7569   -7.3625    5.3303 H   0  0  0  0  0  0  0  0  0  0  0  0
    6.5727   -4.4707    5.0226 H   0  0  0  0  0  0  0  0  0  0  0  0
    7.6410   -5.8621    4.9293 H   0  0  0  0  0  0  0  0  0  0  0  0
    6.8378   -5.4733    6.4311 H   0  0  0  0  0  0  0  0  0  0  0  0
    3.9773   -5.5520    4.8868 H   0  0  0  0  0  0  0  0  0  0  0  0
    2.7830   -9.7803    5.8749 H   0  0  0  0  0  0  0  0  0  0  0  0
    4.2147   -8.9178    5.3840 H   0  0  0  0  0  0  0  0  0  0  0  0
    2.9469   -9.3127    4.1878 H   0  0  0  0  0  0  0  0  0  0  0  0
   -0.7367   -9.0734    4.6195 H   0  0  0  0  0  0  0  0  0  0  0  0
    0.3968   -9.6157    5.9375 H   0  0  0  0  0  0  0  0  0  0  0  0
    0.1015   -7.4402    7.1066 H   0  0  0  0  0  0  0  0  0  0  0  0
   -0.9572   -6.8111    5.7378 H   0  0  0  0  0  0  0  0  0  0  0  0
    1.9330   -3.6241    6.5788 H   0  0  0  0  0  0  0  0  0  0  0  0
    4.4043   -3.6793    5.4671 H   0  0  0  0  0  0  0  0  0  0  0  0
    3.9077   -4.7571    8.0143 H   0  0  0  0  0  0  0  0  0  0  0  0
    1.5209   -2.1290    4.5607 H   0  0  0  0  0  0  0  0  0  0  0  0
    1.0519   -2.8948    2.9489 H   0  0  0  0  0  0  0  0  0  0  0  0
  1  2  2  0
  1 40  1  0
  1 41  1  0
  2 30  1  0
  2  3  1  0
  3 37  1  0
  3  4  1  0
  3 42  1  1
  4  5  1  0
  5 16  1  0
  5  6  1  6
  5  8  1  0
  6  7  1  0
  6 43  1  0
  6 44  1  0
  7 45  1  0
  8 22  1  0
  8  9  1  0
  8 46  1  1
  9 10  1  0
  9 21  1  0
  9 47  1  1
 10 11  1  0
 10 48  1  0
 10 49  1  0
 11 18  1  0
 11 12  1  0
 11 50  1  6
 12 13  2  0
 12 14  1  0
 14 15  1  6
 14 16  1  0
 14 18  1  0
 15 51  1  0
 16 17  1  0
 16 52  1  1
 17 53  1  0
 18 19  1  0
 18 20  1  0
 19 54  1  0
 19 55  1  0
 19 56  1  0
 20 57  1  0
 20 58  1  0
 20 59  1  0
 21 22  1  0
 21 60  1  0
 21 61  1  0
 22 23  1  1
 22 24  1  0
 23 62  1  0
 24 25  1  0
 24 26  1  0
 24 63  1  1
 25 64  1  0
 25 65  1  0
 25 66  1  0
 26 35  1  0
 26 27  1  0
 26 67  1  1
 27 28  2  3
 27 33  1  0
 28 29  1  0
 28 30  1  0
 29 68  1  0
 29 69  1  0
 29 70  1  0
 30 32  1  0
 30 31  1  0
 31 32  1  0
 31 71  1  0
 31 72  1  0
 32 73  1  0
 32 74  1  0
 33 34  1  0
 34 35  1  0
 34 37  1  0
 34 75  1  1
 35 36  1  0
 35 76  1  6
 36 77  1  0
 37 39  1  1
 37 38  1  0
 38 39  1  0
 38 78  1  0
 38 79  1  0
M  END
>  <i_m_ct_stereo_status>  (46) 
1

>  <s_m_source_file>  (46) 
/var/tmp/pbs.5076255.sched01/tmpuj7nejrg/06cdl7mjn.sdf

>  <i_m_source_file_index>  (46) 
22

>  <i_lp_mmshare_version>  (46) 
48012

>  <i_f3d_flags>  (46) 
0

>  <s_epik_input>  (46) 
W0NIMl0xW0NIMl1DMTJDKD1bQ0gyXSlbQ0BASF0zW0NAXTQoW0NIMl1PNClbQ0BASF01T0MoPUMyXFtDSDNdKVxbQ0BASF0oW0NAQEhdNVtPSF0pW0NASF0oW0NIM10pW0NAQF02KFtPSF0pW0NAQEhdN1tDQF0oTzMpKFtDSDJdW09IXSlbQ0BIXShbT0hdKVtDQEBdOChbT0hdKUMoPU8pW0NASF0oQzgoW0NIM10pW0NIM10pW0NIMl1bQ0BASF03W0NIMl02

>  <s_epik_cmdline>  (46) 
J2VwaWtfcHl0aG9uJywgJy1waHQnLCAnMi4wJywgJy1waCcsICc3LjAnLCAnLXRuJywgJzgnLCAnLW1hJywgJzIwMCcsICctaW1hZScsICc8aW5maWxlLm1hZT4nLCAnLW9tYWUnLCAnPG91dGZpbGUubWFlPic=

>  <r_lp_tautomer_probability>  (46) 
1

>  <r_epik_Ionization_Penalty>  (46) 
2.00523e-06

>  <r_epik_Ionization_Penalty_Charging>  (46) 
0

>  <r_epik_Ionization_Penalty_Neutral>  (46) 
2.00523e-06

>  <r_epik_State_Penalty>  (46) 
-0

>  <r_epik_Charging_Adjusted_Penalty>  (46) 
0

>  <i_epik_Tot_Q>  (46) 
0

>  <i_epik_Tot_abs_Q>  (46) 
0

>  <s_lp_Force_Field>  (46) 
OPLS3e

>  <r_lp_Energy>  (46) 
179.251

>  <b_lp_Chiralities_Consistent>  (46) 
1

>  <s_lp_Variant>  (46) 
13:0-3

>  <s_i_glide_gridfile>  (46) 
pfpi4k_grid

>  <i_i_glide_lignum>  (46) 
22

>  <i_i_glide_rotatable_bonds>  (46) 
6

>  <r_i_docking_score>  (46) 
-2.56387

>  <r_i_glide_ligand_efficiency>  (46) 
-0.0657402

>  <r_i_glide_ligand_efficiency_sa>  (46) 
-0.222939

>  <r_i_glide_ligand_efficiency_ln>  (46) 
-0.549766

>  <r_i_glide_gscore>  (46) 
-2.56387

>  <r_i_glide_lipo>  (46) 
-0.324469

>  <r_i_glide_hbond>  (46) 
0

>  <r_i_glide_metal>  (46) 
-0

>  <r_i_glide_rewards>  (46) 
-0.57456

>  <r_i_glide_evdw>  (46) 
-22.8267

>  <r_i_glide_ecoul>  (46) 
-3.95526

>  <r_i_glide_erotb>  (46) 
0.0697829

>  <r_i_glide_esite>  (46) 
0

>  <r_i_glide_emodel>  (46) 
-31.774

>  <r_i_glide_energy>  (46) 
-26.7819

>  <r_i_glide_einternal>  (46) 
8.1809

>  <r_i_glide_intrahb_reward>  (46) 
-0.5

>  <i_i_glide_confnum>  (46) 
3

>  <i_i_glide_posenum>  (46) 
14

>  <r_i_glide_eff_state_penalty>  (46) 
0

>  <ligand_id>  (46) 
13

>  <original_smiles>  (46) 
C=C1C2OC3(CO)C4C(CC5C(=O)C(O)(C3O)C5(C)C)CC4(O)C(C)C3C(=C(C)C14CC4)OC(C3O)C21CO1

>  <smiles>  (46) 
[H]OC([H])([H])C12OC3([H])C(=C([H])[H])C4(C(C([H])([H])[H])=C5OC([H])(C([H])(O[H])C5([H])C([H])(C([H])([H])[H])C5(O[H])C([H])([H])C([H])(C([H])([H])C6([H])C(=O)C(O[H])(C1([H])O[H])C6(C([H])([H])[H])C([H])([H])[H])C25[H])C31OC1([H])[H])C([H])([H])C4([H])[H]

$$$$
13:2:1
     RDKit          3D

 79 86  0  0  1  0  0  0  0  0999 V2000
   -0.1112   -7.4389    1.7312 C   0  0  0  0  0  0  0  0  0  0  0  0
    0.6602   -7.5144    2.8315 C   0  0  0  0  0  0  0  0  0  0  0  0
    1.6087   -6.3393    3.1754 C   0  0  1  0  0  0  0  0  0  0  0  0
    1.9443   -5.4558    2.0980 O   0  0  0  0  0  0  0  0  0  0  0  0
    3.3251   -5.1260    1.6928 C   0  0  2  0  0  0  0  0  0  0  0  0
    3.3957   -6.0086    0.3980 C   0  0  0  0  0  0  0  0  0  0  0  0
    4.6101   -6.0426   -0.3086 O   0  0  0  0  0  0  0  0  0  0  0  0
    4.4814   -5.4532    2.7688 C   0  0  2  0  0  0  0  0  0  0  0  0
    5.9789   -5.0538    2.6037 C   0  0  2  0  0  0  0  0  0  0  0  0
    6.5444   -4.1156    1.5449 C   0  0  0  0  0  0  0  0  0  0  0  0
    6.1008   -2.6549    1.6147 C   0  0  2  0  0  0  0  0  0  0  0  0
    4.9910   -2.3645    2.6456 C   0  0  0  0  0  0  0  0  0  0  0  0
    4.9795   -2.1191    3.8501 O   0  0  0  0  0  0  0  0  0  0  0  0
    3.9557   -2.3200    1.5192 C   0  0  2  0  0  0  0  0  0  0  0  0
    3.1264   -1.1951    1.7680 O   0  0  0  0  0  0  0  0  0  0  0  0
    2.9908   -3.5602    1.4550 C   0  0  1  0  0  0  0  0  0  0  0  0
    2.3022   -3.4054    0.2139 O   0  0  0  0  0  0  0  0  0  0  0  0
    5.1533   -2.0547    0.5420 C   0  0  0  0  0  0  0  0  0  0  0  0
    5.4760   -0.5873    0.2475 C   0  0  0  0  0  0  0  0  0  0  0  0
    5.0858   -2.7190   -0.8311 C   0  0  0  0  0  0  0  0  0  0  0  0
    6.3566   -6.5174    2.4905 C   0  0  0  0  0  0  0  0  0  0  0  0
    5.0347   -6.9031    3.1597 C   0  0  2  0  0  0  0  0  0  0  0  0
    4.4854   -7.9740    2.4461 O   0  0  0  0  0  0  0  0  0  0  0  0
    5.0681   -7.3957    4.6918 C   0  0  1  0  0  0  0  0  0  0  0  0
    6.1494   -6.6770    5.5314 C   0  0  0  0  0  0  0  0  0  0  0  0
    3.7172   -7.3085    5.5027 C   0  0  1  0  0  0  0  0  0  0  0  0
    2.4329   -8.1439    5.3062 C   0  0  0  0  0  0  0  0  0  0  0  0
    2.0690   -9.0017    4.3359 C   0  0  0  0  0  0  0  0  0  0  0  0
    2.9518  -10.0416    3.6736 C   0  0  0  0  0  0  0  0  0  0  0  0
    0.7014   -8.7861    3.7097 C   0  0  0  0  0  0  0  0  0  0  0  0
   -0.1649  -10.0048    3.4260 C   0  0  0  0  0  0  0  0  0  0  0  0
   -0.5459   -9.0563    4.5320 C   0  0  0  0  0  0  0  0  0  0  0  0
    1.4023   -7.4421    5.8649 O   0  0  0  0  0  0  0  0  0  0  0  0
    1.7046   -6.0789    5.8910 C   0  0  1  0  0  0  0  0  0  0  0  0
    3.2232   -6.0762    6.2494 C   0  0  1  0  0  0  0  0  0  0  0  0
    3.3992   -6.2507    7.6390 O   0  0  0  0  0  0  0  0  0  0  0  0
    1.2450   -5.5515    4.4929 C   0  0  1  0  0  0  0  0  0  0  0  0
    0.7426   -4.1279    4.3963 C   0  0  0  0  0  0  0  0  0  0  0  0
   -0.1554   -5.2295    4.5411 O   0  0  0  0  0  0  0  0  0  0  0  0
   -0.7615   -8.2468    1.4250 H   0  0  0  0  0  0  0  0  0  0  0  0
   -0.0900   -6.5655    1.0972 H   0  0  0  0  0  0  0  0  0  0  0  0
    2.5013   -6.8978    3.1520 H   0  0  0  0  0  0  0  0  0  0  0  0
    3.1546   -7.0408    0.6365 H   0  0  0  0  0  0  0  0  0  0  0  0
    2.6218   -5.7319   -0.3168 H   0  0  0  0  0  0  0  0  0  0  0  0
    4.4070   -6.1673   -1.2283 H   0  0  0  0  0  0  0  0  0  0  0  0
    4.1950   -4.9461    3.6853 H   0  0  0  0  0  0  0  0  0  0  0  0
    6.3087   -4.7193    3.5873 H   0  0  0  0  0  0  0  0  0  0  0  0
    7.6362   -4.1405    1.6256 H   0  0  0  0  0  0  0  0  0  0  0  0
    6.3566   -4.5211    0.5542 H   0  0  0  0  0  0  0  0  0  0  0  0
    6.9498   -1.9893    1.7633 H   0  0  0  0  0  0  0  0  0  0  0  0
    2.5497   -1.0677    1.0295 H   0  0  0  0  0  0  0  0  0  0  0  0
    2.2699   -3.3188    2.2353 H   0  0  0  0  0  0  0  0  0  0  0  0
    2.0777   -2.4930    0.0847 H   0  0  0  0  0  0  0  0  0  0  0  0
    4.6920   -0.1230   -0.3467 H   0  0  0  0  0  0  0  0  0  0  0  0
    6.4112   -0.4932   -0.3017 H   0  0  0  0  0  0  0  0  0  0  0  0
    5.5871    0.0110    1.1558 H   0  0  0  0  0  0  0  0  0  0  0  0
    4.4056   -2.1906   -1.4978 H   0  0  0  0  0  0  0  0  0  0  0  0
    4.6847   -3.7153   -0.7448 H   0  0  0  0  0  0  0  0  0  0  0  0
    6.0658   -2.7999   -1.3045 H   0  0  0  0  0  0  0  0  0  0  0  0
    6.4204   -6.8291    1.4456 H   0  0  0  0  0  0  0  0  0  0  0  0
    7.2723   -6.7841    3.0167 H   0  0  0  0  0  0  0  0  0  0  0  0
    4.9840   -8.7434    2.6749 H   0  0  0  0  0  0  0  0  0  0  0  0
    5.3770   -8.4412    4.7155 H   0  0  0  0  0  0  0  0  0  0  0  0
    5.9781   -5.6016    5.5779 H   0  0  0  0  0  0  0  0  0  0  0  0
    7.1553   -6.8343    5.1500 H   0  0  0  0  0  0  0  0  0  0  0  0
    6.1495   -7.0410    6.5605 H   0  0  0  0  0  0  0  0  0  0  0  0
    3.5080   -6.6734    4.7073 H   0  0  0  0  0  0  0  0  0  0  0  0
    2.5967  -11.0297    3.9558 H   0  0  0  0  0  0  0  0  0  0  0  0
    3.9859   -9.9794    4.0044 H   0  0  0  0  0  0  0  0  0  0  0  0
    2.9000   -9.9709    2.5866 H   0  0  0  0  0  0  0  0  0  0  0  0
   -0.8021  -10.0342    2.5484 H   0  0  0  0  0  0  0  0  0  0  0  0
    0.2060  -10.9756    3.7395 H   0  0  0  0  0  0  0  0  0  0  0  0
   -0.4138   -9.4139    5.5533 H   0  0  0  0  0  0  0  0  0  0  0  0
   -1.4076   -8.4179    4.3827 H   0  0  0  0  0  0  0  0  0  0  0  0
    1.1202   -5.5836    6.6660 H   0  0  0  0  0  0  0  0  0  0  0  0
    3.6909   -5.1282    5.9749 H   0  0  0  0  0  0  0  0  0  0  0  0
    3.1027   -7.1225    7.8617 H   0  0  0  0  0  0  0  0  0  0  0  0
    0.8043   -3.4861    5.2725 H   0  0  0  0  0  0  0  0  0  0  0  0
    0.6119   -3.6353    3.4402 H   0  0  0  0  0  0  0  0  0  0  0  0
  1  2  2  0
  1 40  1  0
  1 41  1  0
  2 30  1  0
  2  3  1  0
  3 37  1  0
  3  4  1  0
  3 42  1  1
  4  5  1  0
  5 16  1  0
  5  6  1  6
  5  8  1  0
  6  7  1  0
  6 43  1  0
  6 44  1  0
  7 45  1  0
  8 22  1  0
  8  9  1  0
  8 46  1  1
  9 10  1  0
  9 21  1  0
  9 47  1  1
 10 11  1  0
 10 48  1  0
 10 49  1  0
 11 18  1  0
 11 12  1  0
 11 50  1  1
 12 13  2  0
 12 14  1  0
 14 15  1  1
 14 16  1  0
 14 18  1  0
 15 51  1  0
 16 17  1  0
 16 52  1  1
 17 53  1  0
 18 19  1  0
 18 20  1  0
 19 54  1  0
 19 55  1  0
 19 56  1  0
 20 57  1  0
 20 58  1  0
 20 59  1  0
 21 22  1  0
 21 60  1  0
 21 61  1  0
 22 23  1  6
 22 24  1  0
 23 62  1  0
 24 25  1  0
 24 26  1  0
 24 63  1  6
 25 64  1  0
 25 65  1  0
 25 66  1  0
 26 35  1  0
 26 27  1  0
 26 67  1  1
 27 28  2  3
 27 33  1  0
 28 29  1  0
 28 30  1  0
 29 68  1  0
 29 69  1  0
 29 70  1  0
 30 32  1  0
 30 31  1  0
 31 32  1  0
 31 71  1  0
 31 72  1  0
 32 73  1  0
 32 74  1  0
 33 34  1  0
 34 35  1  0
 34 37  1  0
 34 75  1  1
 35 36  1  0
 35 76  1  6
 36 77  1  0
 37 39  1  1
 37 38  1  0
 38 39  1  0
 38 78  1  0
 38 79  1  0
M  END
>  <i_m_ct_stereo_status>  (47) 
1

>  <s_m_source_file>  (47) 
/var/tmp/pbs.5076255.sched01/tmpuj7nejrg/06cdl7mjn.sdf

>  <i_m_source_file_index>  (47) 
22

>  <i_lp_mmshare_version>  (47) 
48012

>  <i_f3d_flags>  (47) 
0

>  <s_epik_input>  (47) 
W0NIMl0xW0NIMl1DMTJDKD1bQ0gyXSlbQ0BASF0zW0NAXTQoW0NIMl1PNClbQ0BASF01T0MoPUMyXFtDSDNdKVxbQ0BASF0oW0NAQEhdNVtPSF0pW0NASF0oW0NIM10pW0NAQF02KFtPSF0pW0NAQEhdN1tDQF0oTzMpKFtDSDJdW09IXSlbQ0BIXShbT0hdKVtDQEBdOChbT0hdKUMoPU8pW0NASF0oQzgoW0NIM10pW0NIM10pW0NIMl1bQ0BASF03W0NIMl02

>  <s_epik_cmdline>  (47) 
J2VwaWtfcHl0aG9uJywgJy1waHQnLCAnMi4wJywgJy1waCcsICc3LjAnLCAnLXRuJywgJzgnLCAnLW1hJywgJzIwMCcsICctaW1hZScsICc8aW5maWxlLm1hZT4nLCAnLW9tYWUnLCAnPG91dGZpbGUubWFlPic=

>  <r_lp_tautomer_probability>  (47) 
1

>  <r_epik_Ionization_Penalty>  (47) 
2.00523e-06

>  <r_epik_Ionization_Penalty_Charging>  (47) 
0

>  <r_epik_Ionization_Penalty_Neutral>  (47) 
2.00523e-06

>  <r_epik_State_Penalty>  (47) 
-0

>  <r_epik_Charging_Adjusted_Penalty>  (47) 
0

>  <i_epik_Tot_Q>  (47) 
0

>  <i_epik_Tot_abs_Q>  (47) 
0

>  <s_lp_Force_Field>  (47) 
OPLS3e

>  <r_lp_Energy>  (47) 
179.251

>  <b_lp_Chiralities_Consistent>  (47) 
1

>  <s_lp_Variant>  (47) 
13:0-3

>  <s_i_glide_gridfile>  (47) 
pfpi4k_grid

>  <i_i_glide_lignum>  (47) 
22

>  <i_i_glide_rotatable_bonds>  (47) 
6

>  <r_i_docking_score>  (47) 
-2.46419

>  <r_i_glide_ligand_efficiency>  (47) 
-0.0631845

>  <r_i_glide_ligand_efficiency_sa>  (47) 
-0.214272

>  <r_i_glide_ligand_efficiency_ln>  (47) 
-0.528393

>  <r_i_glide_gscore>  (47) 
-2.46419

>  <r_i_glide_lipo>  (47) 
-0.354418

>  <r_i_glide_hbond>  (47) 
0

>  <r_i_glide_metal>  (47) 
-0

>  <r_i_glide_rewards>  (47) 
-0.077281

>  <r_i_glide_evdw>  (47) 
-24.3429

>  <r_i_glide_ecoul>  (47) 
-5.90088

>  <r_i_glide_erotb>  (47) 
0.0697829

>  <r_i_glide_esite>  (47) 
0

>  <r_i_glide_emodel>  (47) 
-33.4412

>  <r_i_glide_energy>  (47) 
-30.2438

>  <r_i_glide_einternal>  (47) 
2.32116

>  <r_i_glide_intrahb_reward>  (47) 
-0

>  <i_i_glide_confnum>  (47) 
4

>  <i_i_glide_posenum>  (47) 
39

>  <r_i_glide_eff_state_penalty>  (47) 
0

>  <ligand_id>  (47) 
13

>  <original_smiles>  (47) 
C=C1C2OC3(CO)C4C(CC5C(=O)C(O)(C3O)C5(C)C)CC4(O)C(C)C3C(=C(C)C14CC4)OC(C3O)C21CO1

>  <smiles>  (47) 
[H]OC([H])([H])C12OC3([H])C(=C([H])[H])C4(C(C([H])([H])[H])=C5OC([H])(C([H])(O[H])C5([H])C([H])(C([H])([H])[H])C5(O[H])C([H])([H])C([H])(C([H])([H])C6([H])C(=O)C(O[H])(C1([H])O[H])C6(C([H])([H])[H])C([H])([H])[H])C25[H])C31OC1([H])[H])C([H])([H])C4([H])[H]

$$$$
13:2:2
     RDKit          3D

 79 86  0  0  1  0  0  0  0  0999 V2000
    0.0083   -7.3484    1.4882 C   0  0  0  0  0  0  0  0  0  0  0  0
    0.8088   -7.5521    2.5466 C   0  0  0  0  0  0  0  0  0  0  0  0
    1.7417   -6.3922    2.9873 C   0  0  1  0  0  0  0  0  0  0  0  0
    2.0331   -5.3875    2.0105 O   0  0  0  0  0  0  0  0  0  0  0  0
    3.3917   -4.9803    1.6076 C   0  0  2  0  0  0  0  0  0  0  0  0
    3.4467   -5.7220    0.2401 C   0  0  0  0  0  0  0  0  0  0  0  0
    4.6273   -5.6535   -0.5090 O   0  0  0  0  0  0  0  0  0  0  0  0
    4.5777   -5.4072    2.5990 C   0  0  2  0  0  0  0  0  0  0  0  0
    6.0761   -4.9526    2.4431 C   0  0  2  0  0  0  0  0  0  0  0  0
    6.5845   -3.8916    1.5061 C   0  0  0  0  0  0  0  0  0  0  0  0
    6.1221   -2.4587    1.7416 C   0  0  2  0  0  0  0  0  0  0  0  0
    5.0103   -2.3235    2.8224 C   0  0  0  0  0  0  0  0  0  0  0  0
    5.0040   -2.1897    4.0477 O   0  0  0  0  0  0  0  0  0  0  0  0
    3.9683   -2.1696    1.7050 C   0  0  2  0  0  0  0  0  0  0  0  0
    3.1027   -1.1085    2.0588 O   0  0  0  0  0  0  0  0  0  0  0  0
    3.0236   -3.4075    1.5723 C   0  0  1  0  0  0  0  0  0  0  0  0
    2.3263   -3.1046    0.3732 O   0  0  0  0  0  0  0  0  0  0  0  0
    5.1437   -1.7484    0.7584 C   0  0  0  0  0  0  0  0  0  0  0  0
    5.4199   -0.2681    0.6334 C   0  0  0  0  0  0  0  0  0  0  0  0
    5.0483   -2.2334   -0.6773 C   0  0  0  0  0  0  0  0  0  0  0  0
    6.4645   -6.4039    2.1659 C   0  0  0  0  0  0  0  0  0  0  0  0
    5.1811   -6.8769    2.8488 C   0  0  2  0  0  0  0  0  0  0  0  0
    4.6422   -7.8828    2.0261 O   0  0  0  0  0  0  0  0  0  0  0  0
    5.2570   -7.5519    4.2883 C   0  0  1  0  0  0  0  0  0  0  0  0
    6.3459   -6.9053    5.1716 C   0  0  0  0  0  0  0  0  0  0  0  0
    3.9265   -7.5786    5.1281 C   0  0  1  0  0  0  0  0  0  0  0  0
    2.6563   -8.4181    4.8811 C   0  0  0  0  0  0  0  0  0  0  0  0
    2.2917   -9.1407    3.8061 C   0  0  0  0  0  0  0  0  0  0  0  0
    3.1606  -10.1014    3.0263 C   0  0  0  0  0  0  0  0  0  0  0  0
    0.8960   -8.9032    3.2525 C   0  0  0  0  0  0  0  0  0  0  0  0
    0.0395  -10.1113    2.8662 C   0  0  0  0  0  0  0  0  0  0  0  0
   -0.3235   -9.3152    4.0741 C   0  0  0  0  0  0  0  0  0  0  0  0
    1.6132   -7.7931    5.5231 O   0  0  0  0  0  0  0  0  0  0  0  0
    1.8970   -6.4436    5.7069 C   0  0  1  0  0  0  0  0  0  0  0  0
    3.4362   -6.4471    6.0127 C   0  0  1  0  0  0  0  0  0  0  0  0
    3.6257   -6.7677    7.3800 O   0  0  0  0  0  0  0  0  0  0  0  0
    1.4043   -5.7670    4.3850 C   0  0  1  0  0  0  0  0  0  0  0  0
    0.8723   -4.3455    4.4631 C   0  0  0  0  0  0  0  0  0  0  0  0
   -0.0220   -5.4764    4.4943 O   0  0  0  0  0  0  0  0  0  0  0  0
   -0.6459   -8.1281    1.1081 H   0  0  0  0  0  0  0  0  0  0  0  0
   -0.0045   -6.4129    0.9476 H   0  0  0  0  0  0  0  0  0  0  0  0
    2.6441   -6.9190    2.8782 H   0  0  0  0  0  0  0  0  0  0  0  0
    3.2682   -6.7751    0.3624 H   0  0  0  0  0  0  0  0  0  0  0  0
    2.6112   -5.3982   -0.3899 H   0  0  0  0  0  0  0  0  0  0  0  0
    4.3830   -5.8033   -1.4128 H   0  0  0  0  0  0  0  0  0  0  0  0
    4.3253   -5.0170    3.5874 H   0  0  0  0  0  0  0  0  0  0  0  0
    6.4157   -4.7417    3.4609 H   0  0  0  0  0  0  0  0  0  0  0  0
    7.6784   -3.9031    1.5443 H   0  0  0  0  0  0  0  0  0  0  0  0
    6.3796   -4.1857    0.4695 H   0  0  0  0  0  0  0  0  0  0  0  0
    6.9469   -1.7861    1.9387 H   0  0  0  0  0  0  0  0  0  0  0  0
    3.6519   -0.3701    2.2407 H   0  0  0  0  0  0  0  0  0  0  0  0
    2.3273   -3.2740    2.3701 H   0  0  0  0  0  0  0  0  0  0  0  0
    2.0974   -2.1794    0.3879 H   0  0  0  0  0  0  0  0  0  0  0  0
    4.6151    0.2422    0.1231 H   0  0  0  0  0  0  0  0  0  0  0  0
    6.3406   -0.0771    0.0849 H   0  0  0  0  0  0  0  0  0  0  0  0
    5.5526    0.2085    1.6108 H   0  0  0  0  0  0  0  0  0  0  0  0
    4.3518   -1.6400   -1.2579 H   0  0  0  0  0  0  0  0  0  0  0  0
    4.6437   -3.2225   -0.6990 H   0  0  0  0  0  0  0  0  0  0  0  0
    6.0141   -2.2608   -1.1750 H   0  0  0  0  0  0  0  0  0  0  0  0
    6.5055   -6.5804    1.0877 H   0  0  0  0  0  0  0  0  0  0  0  0
    7.4036   -6.6868    2.6376 H   0  0  0  0  0  0  0  0  0  0  0  0
    5.1552   -8.6582    2.1567 H   0  0  0  0  0  0  0  0  0  0  0  0
    5.5834   -8.5747    4.1871 H   0  0  0  0  0  0  0  0  0  0  0  0
    6.1544   -5.8415    5.3484 H   0  0  0  0  0  0  0  0  0  0  0  0
    7.3423   -6.9928    4.7567 H   0  0  0  0  0  0  0  0  0  0  0  0
    6.3794   -7.3793    6.1595 H   0  0  0  0  0  0  0  0  0  0  0  0
    3.6863   -6.8612    4.4205 H   0  0  0  0  0  0  0  0  0  0  0  0
    2.8287  -11.1246    3.1987 H   0  0  0  0  0  0  0  0  0  0  0  0
    4.2062  -10.0595    3.3387 H   0  0  0  0  0  0  0  0  0  0  0  0
    3.0876   -9.9113    1.9512 H   0  0  0  0  0  0  0  0  0  0  0  0
   -0.6344  -10.0665    2.0185 H   0  0  0  0  0  0  0  0  0  0  0  0
    0.4443  -11.1035    3.0479 H   0  0  0  0  0  0  0  0  0  0  0  0
   -0.1570   -9.7714    5.0407 H   0  0  0  0  0  0  0  0  0  0  0  0
   -1.1993   -8.6749    4.0177 H   0  0  0  0  0  0  0  0  0  0  0  0
    1.3224   -6.0495    6.5439 H   0  0  0  0  0  0  0  0  0  0  0  0
    3.8722   -5.4633    5.8441 H   0  0  0  0  0  0  0  0  0  0  0  0
    3.2900   -7.6311    7.5268 H   0  0  0  0  0  0  0  0  0  0  0  0
    0.9393   -3.8111    5.4090 H   0  0  0  0  0  0  0  0  0  0  0  0
    0.6902   -3.7516    3.5799 H   0  0  0  0  0  0  0  0  0  0  0  0
  1  2  2  0
  1 40  1  0
  1 41  1  0
  2 30  1  0
  2  3  1  0
  3 37  1  0
  3  4  1  0
  3 42  1  1
  4  5  1  0
  5 16  1  0
  5  6  1  6
  5  8  1  0
  6  7  1  0
  6 43  1  0
  6 44  1  0
  7 45  1  0
  8 22  1  0
  8  9  1  0
  8 46  1  1
  9 10  1  0
  9 21  1  0
  9 47  1  1
 10 11  1  0
 10 48  1  0
 10 49  1  0
 11 18  1  0
 11 12  1  0
 11 50  1  1
 12 13  2  0
 12 14  1  0
 14 15  1  1
 14 16  1  0
 14 18  1  0
 15 51  1  0
 16 17  1  0
 16 52  1  1
 17 53  1  0
 18 19  1  0
 18 20  1  0
 19 54  1  0
 19 55  1  0
 19 56  1  0
 20 57  1  0
 20 58  1  0
 20 59  1  0
 21 22  1  0
 21 60  1  0
 21 61  1  0
 22 23  1  6
 22 24  1  0
 23 62  1  0
 24 25  1  0
 24 26  1  0
 24 63  1  6
 25 64  1  0
 25 65  1  0
 25 66  1  0
 26 35  1  0
 26 27  1  0
 26 67  1  1
 27 28  2  3
 27 33  1  0
 28 29  1  0
 28 30  1  0
 29 68  1  0
 29 69  1  0
 29 70  1  0
 30 32  1  0
 30 31  1  0
 31 32  1  0
 31 71  1  0
 31 72  1  0
 32 73  1  0
 32 74  1  0
 33 34  1  0
 34 35  1  0
 34 37  1  0
 34 75  1  1
 35 36  1  0
 35 76  1  6
 36 77  1  0
 37 39  1  1
 37 38  1  0
 38 39  1  0
 38 78  1  0
 38 79  1  0
M  END
>  <i_m_ct_stereo_status>  (48) 
1

>  <s_m_source_file>  (48) 
/var/tmp/pbs.5076255.sched01/tmpuj7nejrg/06cdl7mjn.sdf

>  <i_m_source_file_index>  (48) 
22

>  <i_lp_mmshare_version>  (48) 
48012

>  <i_f3d_flags>  (48) 
0

>  <s_epik_input>  (48) 
W0NIMl0xW0NIMl1DMTJDKD1bQ0gyXSlbQ0BASF0zW0NAXTQoW0NIMl1PNClbQ0BASF01T0MoPUMyXFtDSDNdKVxbQ0BASF0oW0NAQEhdNVtPSF0pW0NASF0oW0NIM10pW0NAQF02KFtPSF0pW0NAQEhdN1tDQF0oTzMpKFtDSDJdW09IXSlbQ0BIXShbT0hdKVtDQEBdOChbT0hdKUMoPU8pW0NASF0oQzgoW0NIM10pW0NIM10pW0NIMl1bQ0BASF03W0NIMl02

>  <s_epik_cmdline>  (48) 
J2VwaWtfcHl0aG9uJywgJy1waHQnLCAnMi4wJywgJy1waCcsICc3LjAnLCAnLXRuJywgJzgnLCAnLW1hJywgJzIwMCcsICctaW1hZScsICc8aW5maWxlLm1hZT4nLCAnLW9tYWUnLCAnPG91dGZpbGUubWFlPic=

>  <r_lp_tautomer_probability>  (48) 
1

>  <r_epik_Ionization_Penalty>  (48) 
2.00523e-06

>  <r_epik_Ionization_Penalty_Charging>  (48) 
0

>  <r_epik_Ionization_Penalty_Neutral>  (48) 
2.00523e-06

>  <r_epik_State_Penalty>  (48) 
-0

>  <r_epik_Charging_Adjusted_Penalty>  (48) 
0

>  <i_epik_Tot_Q>  (48) 
0

>  <i_epik_Tot_abs_Q>  (48) 
0

>  <s_lp_Force_Field>  (48) 
OPLS3e

>  <r_lp_Energy>  (48) 
179.251

>  <b_lp_Chiralities_Consistent>  (48) 
1

>  <s_lp_Variant>  (48) 
13:0-3

>  <s_i_glide_gridfile>  (48) 
pfpi4k_grid

>  <i_i_glide_lignum>  (48) 
22

>  <i_i_glide_rotatable_bonds>  (48) 
6

>  <r_i_docking_score>  (48) 
-2.33182

>  <r_i_glide_ligand_efficiency>  (48) 
-0.0597903

>  <r_i_glide_ligand_efficiency_sa>  (48) 
-0.202762

>  <r_i_glide_ligand_efficiency_ln>  (48) 
-0.500009

>  <r_i_glide_gscore>  (48) 
-2.33182

>  <r_i_glide_lipo>  (48) 
-0.436802

>  <r_i_glide_hbond>  (48) 
0

>  <r_i_glide_metal>  (48) 
-0

>  <r_i_glide_rewards>  (48) 
-0.0802807

>  <r_i_glide_evdw>  (48) 
-23.3539

>  <r_i_glide_ecoul>  (48) 
-4.77886

>  <r_i_glide_erotb>  (48) 
0.0697829

>  <r_i_glide_esite>  (48) 
0

>  <r_i_glide_emodel>  (48) 
-29.736

>  <r_i_glide_energy>  (48) 
-28.1327

>  <r_i_glide_einternal>  (48) 
4.57492

>  <r_i_glide_intrahb_reward>  (48) 
-0

>  <i_i_glide_confnum>  (48) 
4

>  <i_i_glide_posenum>  (48) 
30

>  <r_i_glide_eff_state_penalty>  (48) 
0

>  <ligand_id>  (48) 
13

>  <original_smiles>  (48) 
C=C1C2OC3(CO)C4C(CC5C(=O)C(O)(C3O)C5(C)C)CC4(O)C(C)C3C(=C(C)C14CC4)OC(C3O)C21CO1

>  <smiles>  (48) 
[H]OC([H])([H])C12OC3([H])C(=C([H])[H])C4(C(C([H])([H])[H])=C5OC([H])(C([H])(O[H])C5([H])C([H])(C([H])([H])[H])C5(O[H])C([H])([H])C([H])(C([H])([H])C6([H])C(=O)C(O[H])(C1([H])O[H])C6(C([H])([H])[H])C([H])([H])[H])C25[H])C31OC1([H])[H])C([H])([H])C4([H])[H]

$$$$
14:0:0
     RDKit          3D

 75 81  0  0  1  0  0  0  0  0999 V2000
    2.9483   -0.1704    7.0535 C   0  0  0  0  0  0  0  0  0  0  0  0
    2.3387   -0.1229    5.6186 C   0  0  1  0  0  0  0  0  0  0  0  0
    0.8212   -0.4609    5.6904 C   0  0  0  0  0  0  0  0  0  0  0  0
    0.0579    0.6241    4.9051 C   0  0  1  0  0  0  0  0  0  0  0  0
   -1.4643    0.7090    5.1974 C   0  0  0  0  0  0  0  0  0  0  0  0
   -1.9929    1.9100    6.0226 C   0  0  1  0  0  0  0  0  0  0  0  0
   -2.4474    1.5222    7.2985 O   0  0  0  0  0  0  0  0  0  0  0  0
   -2.4843    2.7054    8.0143 C   0  0  1  0  0  0  0  0  0  0  0  0
   -2.3756    2.4389    9.4135 O   0  0  0  0  0  0  0  0  0  0  0  0
   -1.4771    3.5573    7.5903 O   0  0  0  0  0  0  0  0  0  0  0  0
   -1.0452    3.0639    6.3281 C   0  0  1  0  0  0  0  0  0  0  0  0
    0.4541    2.6995    6.3339 C   0  0  1  0  0  0  0  0  0  0  0  0
    0.6874    1.9685    7.5156 O   0  0  0  0  0  0  0  0  0  0  0  0
    0.8839    1.9177    5.0406 C   0  0  2  0  0  0  0  0  0  0  0  0
    0.6386    2.8955    3.8545 C   0  0  0  0  0  0  0  0  0  0  0  0
    2.3693    1.3681    5.1214 C   0  0  2  0  0  0  0  0  0  0  0  0
    3.2298    1.4880    3.8441 C   0  0  0  0  0  0  0  0  0  0  0  0
    2.7919    0.4891    2.7546 C   0  0  1  0  0  0  0  0  0  0  0  0
    3.4072    0.8378    1.5446 O   0  0  0  0  0  0  0  0  0  0  0  0
    2.9443   -1.0252    3.1603 C   0  0  2  0  0  0  0  0  0  0  0  0
    1.6647   -1.5336    2.8200 O   0  0  0  0  0  0  0  0  0  0  0  0
    3.0775   -1.1549    4.6947 C   0  0  0  0  0  0  0  0  0  0  0  0
    3.8843   -2.1054    5.2238 C   0  0  0  0  0  0  0  0  0  0  0  0
    4.6676   -3.1584    4.4816 C   0  0  0  0  0  0  0  0  0  0  0  0
    4.3458   -3.2877    2.9822 C   0  0  1  0  0  0  0  0  0  0  0  0
    3.4971   -4.5445    2.5497 C   0  0  0  0  0  0  0  0  0  0  0  0
    4.0641   -5.8396    3.1940 C   0  0  0  0  0  0  0  0  0  0  0  0
    2.0108   -4.4590    2.9525 C   0  0  0  0  0  0  0  0  0  0  0  0
    3.6353   -4.7016    1.0052 C   0  0  1  0  0  0  0  0  0  0  0  0
    2.8190   -5.7323    0.4794 O   0  0  0  0  0  0  0  0  0  0  0  0
    3.3630   -3.4270    0.2676 C   0  0  2  0  0  0  0  0  0  0  0  0
    4.5633   -2.6668   -0.0074 O   0  0  0  0  0  0  0  0  0  0  0  0
    3.6051   -2.0588    0.8828 C   0  0  2  0  0  0  0  0  0  0  0  0
    4.0337   -1.8734    2.3404 C   0  0  1  0  0  0  0  0  0  0  0  0
    5.4115   -1.1242    2.3530 C   0  0  0  0  0  0  0  0  0  0  0  0
    2.6174    0.6190    7.7154 H   0  0  0  0  0  0  0  0  0  0  0  0
    4.0354   -0.0696    7.0213 H   0  0  0  0  0  0  0  0  0  0  0  0
    2.7030   -1.1043    7.5616 H   0  0  0  0  0  0  0  0  0  0  0  0
    0.6000   -1.4577    5.3139 H   0  0  0  0  0  0  0  0  0  0  0  0
    0.4853   -0.4559    6.7295 H   0  0  0  0  0  0  0  0  0  0  0  0
    0.1150    0.3129    3.8569 H   0  0  0  0  0  0  0  0  0  0  0  0
   -1.9850    0.7133    4.2459 H   0  0  0  0  0  0  0  0  0  0  0  0
   -1.7933   -0.2132    5.6785 H   0  0  0  0  0  0  0  0  0  0  0  0
   -2.8537    2.3415    5.5018 H   0  0  0  0  0  0  0  0  0  0  0  0
   -3.4437    3.2064    7.8578 H   0  0  0  0  0  0  0  0  0  0  0  0
   -2.6466    3.1972    9.8842 H   0  0  0  0  0  0  0  0  0  0  0  0
   -1.2183    3.8664    5.6122 H   0  0  0  0  0  0  0  0  0  0  0  0
    1.0349    3.6211    6.4109 H   0  0  0  0  0  0  0  0  0  0  0  0
    1.6078    1.8245    7.5905 H   0  0  0  0  0  0  0  0  0  0  0  0
    1.1736    3.8342    4.0026 H   0  0  0  0  0  0  0  0  0  0  0  0
   -0.4146    3.1400    3.7337 H   0  0  0  0  0  0  0  0  0  0  0  0
    0.9314    2.5297    2.8765 H   0  0  0  0  0  0  0  0  0  0  0  0
    2.8913    1.9900    5.8486 H   0  0  0  0  0  0  0  0  0  0  0  0
    3.2163    2.5162    3.4737 H   0  0  0  0  0  0  0  0  0  0  0  0
    4.2757    1.3057    4.1001 H   0  0  0  0  0  0  0  0  0  0  0  0
    1.7537    0.6930    2.5268 H   0  0  0  0  0  0  0  0  0  0  0  0
    3.9303    1.6223    1.6814 H   0  0  0  0  0  0  0  0  0  0  0  0
    1.4895   -1.2717    1.9348 H   0  0  0  0  0  0  0  0  0  0  0  0
    4.0251   -2.2122    6.2835 H   0  0  0  0  0  0  0  0  0  0  0  0
    5.7206   -2.8912    4.5939 H   0  0  0  0  0  0  0  0  0  0  0  0
    4.5497   -4.0954    5.0201 H   0  0  0  0  0  0  0  0  0  0  0  0
    5.3101   -3.5800    2.5669 H   0  0  0  0  0  0  0  0  0  0  0  0
    3.6602   -6.7364    2.7198 H   0  0  0  0  0  0  0  0  0  0  0  0
    3.8037   -5.9217    4.2492 H   0  0  0  0  0  0  0  0  0  0  0  0
    5.1527   -5.8883    3.1047 H   0  0  0  0  0  0  0  0  0  0  0  0
    1.5378   -5.4408    2.9767 H   0  0  0  0  0  0  0  0  0  0  0  0
    1.4595   -3.8777    2.2159 H   0  0  0  0  0  0  0  0  0  0  0  0
    1.8765   -3.9977    3.9310 H   0  0  0  0  0  0  0  0  0  0  0  0
    4.6667   -4.9763    0.7786 H   0  0  0  0  0  0  0  0  0  0  0  0
    3.0309   -5.8377   -0.4370 H   0  0  0  0  0  0  0  0  0  0  0  0
    2.6790   -3.4738   -0.5757 H   0  0  0  0  0  0  0  0  0  0  0  0
    3.0388   -1.2616    0.4126 H   0  0  0  0  0  0  0  0  0  0  0  0
    6.2441   -1.7649    2.0584 H   0  0  0  0  0  0  0  0  0  0  0  0
    5.6453   -0.7340    3.3471 H   0  0  0  0  0  0  0  0  0  0  0  0
    5.4777   -0.2938    1.6557 H   0  0  0  0  0  0  0  0  0  0  0  0
  2  1  1  1
  1 36  1  0
  1 37  1  0
  1 38  1  0
  2 16  1  0
  2 22  1  0
  2  3  1  0
  3  4  1  0
  3 39  1  0
  3 40  1  0
  4 14  1  0
  4  5  1  0
  4 41  1  6
  5  6  1  0
  5 42  1  0
  5 43  1  0
  6 11  1  0
  6  7  1  0
  6 44  1  6
  7  8  1  0
  8  9  1  0
  8 10  1  0
  8 45  1  1
  9 46  1  0
 10 11  1  0
 11 12  1  0
 11 47  1  6
 12 13  1  0
 12 14  1  0
 12 48  1  1
 13 49  1  0
 14 15  1  6
 14 16  1  0
 15 50  1  0
 15 51  1  0
 15 52  1  0
 16 17  1  0
 16 53  1  1
 17 18  1  0
 17 54  1  0
 17 55  1  0
 18 19  1  0
 18 20  1  0
 18 56  1  6
 19 57  1  0
 20 34  1  0
 20 21  1  6
 20 22  1  0
 21 58  1  0
 22 23  2  0
 23 24  1  0
 23 59  1  0
 24 25  1  0
 24 60  1  0
 24 61  1  0
 25 34  1  0
 25 26  1  0
 25 62  1  6
 26 27  1  0
 26 28  1  0
 26 29  1  0
 27 63  1  0
 27 64  1  0
 27 65  1  0
 28 66  1  0
 28 67  1  0
 28 68  1  0
 29 30  1  0
 29 31  1  0
 29 69  1  1
 30 70  1  0
 31 33  1  0
 31 32  1  0
 31 71  1  6
 32 33  1  0
 33 34  1  0
 33 72  1  6
 34 35  1  6
 35 73  1  0
 35 74  1  0
 35 75  1  0
M  END
>  <i_m_ct_stereo_status>  (49) 
1

>  <s_m_source_file>  (49) 
/var/tmp/pbs.5076255.sched01/tmpuj7nejrg/06cdl7mjn.sdf

>  <i_m_source_file_index>  (49) 
24

>  <i_lp_mmshare_version>  (49) 
48012

>  <i_f3d_flags>  (49) 
0

>  <s_epik_input>  (49) 
TzFbQ0BASF0oW09IXSlPW0NAQEhdKFtDQEhdMltPSF0pW0NASF0xW0NIMl1bQ0BIXShbQ0gyXTMpW0NAXTIoW0NIM10pW0NAQEhdKFtDQEBdMzRbQ0gzXSlbQ0gyXVtDQEBIXShbT0hdKVtDQF01KFtPSF0pQzQ9W0NIXVtDSDJdW0NAQEhdNltDQEBdNShbQ0gzXSlbQ0BASF03W0NAQEhdKE83KVtDQEhdKFtPSF0pQzYoW0NIM10pW0NIM10=

>  <s_epik_cmdline>  (49) 
J2VwaWtfcHl0aG9uJywgJy1waHQnLCAnMi4wJywgJy1waCcsICc3LjAnLCAnLXRuJywgJzgnLCAnLW1hJywgJzIwMCcsICctaW1hZScsICc8aW5maWxlLm1hZT4nLCAnLW9tYWUnLCAnPG91dGZpbGUubWFlPic=

>  <r_lp_tautomer_probability>  (49) 
1

>  <r_epik_Ionization_Penalty>  (49) 
2.71319e-05

>  <r_epik_Ionization_Penalty_Charging>  (49) 
0

>  <r_epik_Ionization_Penalty_Neutral>  (49) 
2.71319e-05

>  <r_epik_State_Penalty>  (49) 
-0

>  <r_epik_Charging_Adjusted_Penalty>  (49) 
0

>  <i_epik_Tot_Q>  (49) 
0

>  <i_epik_Tot_abs_Q>  (49) 
0

>  <s_epik_Chemistry_Notes>  (49) 
This compound contains an acetal/aminal-like group ( X-CH(R)-Y where X, Y are N, S, or O) that may be acid/base labile, releasing an aldehyde.

>  <s_lp_Force_Field>  (49) 
OPLS3e

>  <r_lp_Energy>  (49) 
82.3414

>  <b_lp_Chiralities_Consistent>  (49) 
1

>  <s_lp_Variant>  (49) 
14:0-1

>  <s_i_glide_gridfile>  (49) 
pfpi4k_grid

>  <i_i_glide_lignum>  (49) 
24

>  <i_i_glide_rotatable_bonds>  (49) 
5

>  <r_i_docking_score>  (49) 
-3.21314

>  <r_i_glide_ligand_efficiency>  (49) 
-0.0918039

>  <r_i_glide_ligand_efficiency_sa>  (49) 
-0.300297

>  <r_i_glide_ligand_efficiency_ln>  (49) 
-0.705355

>  <r_i_glide_gscore>  (49) 
-3.21314

>  <r_i_glide_lipo>  (49) 
-0.175936

>  <r_i_glide_hbond>  (49) 
-0.299549

>  <r_i_glide_metal>  (49) 
-0

>  <r_i_glide_rewards>  (49) 
-0.154421

>  <r_i_glide_evdw>  (49) 
-27.0822

>  <r_i_glide_ecoul>  (49) 
-8.19411

>  <r_i_glide_erotb>  (49) 
0

>  <r_i_glide_esite>  (49) 
0

>  <r_i_glide_emodel>  (49) 
-41.2218

>  <r_i_glide_energy>  (49) 
-35.2764

>  <r_i_glide_einternal>  (49) 
4.01486

>  <r_i_glide_intrahb_reward>  (49) 
-0

>  <i_i_glide_confnum>  (49) 
1

>  <i_i_glide_posenum>  (49) 
2

>  <r_i_glide_eff_state_penalty>  (49) 
0

>  <ligand_id>  (49) 
14

>  <original_smiles>  (49) 
CC12CC3CC4OC(O)OC4C(O)C3(C)C1CC(O)C1(O)C2=CCC2C(C)(C)C(O)C3OC3C21C

>  <smiles>  (49) 
[H]OC1([H])OC2([H])C([H])([H])C3([H])C([H])([H])C4(C([H])([H])[H])C5=C([H])C([H])([H])C6([H])C(C([H])([H])[H])(C([H])([H])[H])C([H])(O[H])C7([H])OC7([H])C6(C([H])([H])[H])C5(O[H])C([H])(O[H])C([H])([H])C4([H])C3(C([H])([H])[H])C([H])(O[H])C2([H])O1

$$$$
14:0:1
     RDKit          3D

 75 81  0  0  1  0  0  0  0  0999 V2000
    3.3601   -0.1075    5.9646 C   0  0  0  0  0  0  0  0  0  0  0  0
    2.6524   -0.5462    4.6479 C   0  0  1  0  0  0  0  0  0  0  0  0
    1.1557   -0.8277    4.9439 C   0  0  0  0  0  0  0  0  0  0  0  0
    0.3172   -0.0667    3.8977 C   0  0  1  0  0  0  0  0  0  0  0  0
   -1.1783    0.1306    4.2590 C   0  0  0  0  0  0  0  0  0  0  0  0
   -1.6755    1.5361    4.6585 C   0  0  1  0  0  0  0  0  0  0  0  0
   -1.9808    1.6011    6.0337 O   0  0  0  0  0  0  0  0  0  0  0  0
   -2.0230    2.9604    6.3119 C   0  0  1  0  0  0  0  0  0  0  0  0
   -1.8209    3.1985    7.6786 O   0  0  0  0  0  0  0  0  0  0  0  0
   -1.0734    3.6113    5.5302 O   0  0  0  0  0  0  0  0  0  0  0  0
   -0.7235    2.7240    4.4783 C   0  0  1  0  0  0  0  0  0  0  0  0
    0.7801    2.3705    4.5094 C   0  0  1  0  0  0  0  0  0  0  0  0
    1.0935    2.0901    5.8567 O   0  0  0  0  0  0  0  0  0  0  0  0
    1.1297    1.1916    3.5324 C   0  0  2  0  0  0  0  0  0  0  0  0
    0.7877    1.7022    2.1007 C   0  0  0  0  0  0  0  0  0  0  0  0
    2.6238    0.6865    3.6717 C   0  0  2  0  0  0  0  0  0  0  0  0
    3.3920    0.3638    2.3684 C   0  0  0  0  0  0  0  0  0  0  0  0
    2.9046   -0.9359    1.7075 C   0  0  1  0  0  0  0  0  0  0  0  0
    3.4091   -0.9697    0.3868 O   0  0  0  0  0  0  0  0  0  0  0  0
    3.1042   -2.2253    2.6004 C   0  0  2  0  0  0  0  0  0  0  0  0
    1.8212   -2.8051    2.5733 O   0  0  0  0  0  0  0  0  0  0  0  0
    3.3513   -1.8289    4.0759 C   0  0  0  0  0  0  0  0  0  0  0  0
    4.1966   -2.5590    4.8417 C   0  0  0  0  0  0  0  0  0  0  0  0
    4.9291   -3.8148    4.4526 C   0  0  0  0  0  0  0  0  0  0  0  0
    4.5117   -4.4342    3.1084 C   0  0  1  0  0  0  0  0  0  0  0  0
    3.6541   -5.7595    3.1882 C   0  0  0  0  0  0  0  0  0  0  0  0
    4.2881   -6.7628    4.1887 C   0  0  0  0  0  0  0  0  0  0  0  0
    2.1930   -5.5286    3.6343 C   0  0  0  0  0  0  0  0  0  0  0  0
    3.6913   -6.4301    1.7905 C   0  0  1  0  0  0  0  0  0  0  0  0
    2.8630   -7.5737    1.7099 O   0  0  0  0  0  0  0  0  0  0  0  0
    3.3456   -5.4748    0.6788 C   0  0  2  0  0  0  0  0  0  0  0  0
    4.5076   -4.8730    0.0938 O   0  0  0  0  0  0  0  0  0  0  0  0
    3.6135   -3.9888    0.7716 C   0  0  2  0  0  0  0  0  0  0  0  0
    4.1425   -3.3201    2.0500 C   0  0  1  0  0  0  0  0  0  0  0  0
    5.4996   -2.6221    1.7051 C   0  0  0  0  0  0  0  0  0  0  0  0
    3.0586    0.8669    6.3317 H   0  0  0  0  0  0  0  0  0  0  0  0
    4.4397   -0.0312    5.8272 H   0  0  0  0  0  0  0  0  0  0  0  0
    3.1650   -0.8077    6.7788 H   0  0  0  0  0  0  0  0  0  0  0  0
    0.9213   -1.8947    4.9393 H   0  0  0  0  0  0  0  0  0  0  0  0
    0.8954   -0.4784    5.9441 H   0  0  0  0  0  0  0  0  0  0  0  0
    0.3046   -0.7071    3.0182 H   0  0  0  0  0  0  0  0  0  0  0  0
   -1.7670   -0.1784    3.3953 H   0  0  0  0  0  0  0  0  0  0  0  0
   -1.4613   -0.5701    5.0445 H   0  0  0  0  0  0  0  0  0  0  0  0
   -2.5891    1.7572    4.1030 H   0  0  0  0  0  0  0  0  0  0  0  0
   -3.0023    3.3691    6.0448 H   0  0  0  0  0  0  0  0  0  0  0  0
   -0.9592    2.8747    7.8877 H   0  0  0  0  0  0  0  0  0  0  0  0
   -0.9613    3.2374    3.5488 H   0  0  0  0  0  0  0  0  0  0  0  0
    1.3494    3.2566    4.2224 H   0  0  0  0  0  0  0  0  0  0  0  0
    0.6016    1.3237    6.1123 H   0  0  0  0  0  0  0  0  0  0  0  0
    1.3321    2.6212    1.8879 H   0  0  0  0  0  0  0  0  0  0  0  0
   -0.2723    1.9170    1.9779 H   0  0  0  0  0  0  0  0  0  0  0  0
    1.0086    1.0229    1.2853 H   0  0  0  0  0  0  0  0  0  0  0  0
    3.1826    1.5146    4.1109 H   0  0  0  0  0  0  0  0  0  0  0  0
    3.3369    1.2066    1.6762 H   0  0  0  0  0  0  0  0  0  0  0  0
    4.4541    0.2613    2.5952 H   0  0  0  0  0  0  0  0  0  0  0  0
    1.8433   -0.8187    1.5182 H   0  0  0  0  0  0  0  0  0  0  0  0
    2.6711   -1.0504   -0.2140 H   0  0  0  0  0  0  0  0  0  0  0  0
    1.4230   -2.5637    1.7497 H   0  0  0  0  0  0  0  0  0  0  0  0
    4.4094   -2.3025    5.8634 H   0  0  0  0  0  0  0  0  0  0  0  0
    5.9766   -3.5346    4.4025 H   0  0  0  0  0  0  0  0  0  0  0  0
    4.8611   -4.5116    5.2819 H   0  0  0  0  0  0  0  0  0  0  0  0
    5.4504   -4.8597    2.7509 H   0  0  0  0  0  0  0  0  0  0  0  0
    3.8676   -7.7644    4.0882 H   0  0  0  0  0  0  0  0  0  0  0  0
    4.1049   -6.4772    5.2241 H   0  0  0  0  0  0  0  0  0  0  0  0
    5.3652   -6.8469    4.0435 H   0  0  0  0  0  0  0  0  0  0  0  0
    1.7465   -6.4429    4.0348 H   0  0  0  0  0  0  0  0  0  0  0  0
    1.5581   -5.2327    2.7968 H   0  0  0  0  0  0  0  0  0  0  0  0
    2.1254   -4.7642    4.4108 H   0  0  0  0  0  0  0  0  0  0  0  0
    4.7039   -6.7737    1.5827 H   0  0  0  0  0  0  0  0  0  0  0  0
    3.2110   -8.2424    2.2843 H   0  0  0  0  0  0  0  0  0  0  0  0
    2.6091   -5.8101   -0.0447 H   0  0  0  0  0  0  0  0  0  0  0  0
    3.0059   -3.3838    0.1083 H   0  0  0  0  0  0  0  0  0  0  0  0
    6.3226   -3.3310    1.5831 H   0  0  0  0  0  0  0  0  0  0  0  0
    5.7961   -1.9230    2.4882 H   0  0  0  0  0  0  0  0  0  0  0  0
    5.4883   -2.0714    0.7664 H   0  0  0  0  0  0  0  0  0  0  0  0
  2  1  1  1
  1 36  1  0
  1 37  1  0
  1 38  1  0
  2 16  1  0
  2 22  1  0
  2  3  1  0
  3  4  1  0
  3 39  1  0
  3 40  1  0
  4 14  1  0
  4  5  1  0
  4 41  1  6
  5  6  1  0
  5 42  1  0
  5 43  1  0
  6 11  1  0
  6  7  1  0
  6 44  1  6
  7  8  1  0
  8  9  1  0
  8 10  1  0
  8 45  1  6
  9 46  1  0
 10 11  1  0
 11 12  1  0
 11 47  1  6
 12 13  1  0
 12 14  1  0
 12 48  1  6
 13 49  1  0
 14 15  1  6
 14 16  1  0
 15 50  1  0
 15 51  1  0
 15 52  1  0
 16 17  1  0
 16 53  1  1
 17 18  1  0
 17 54  1  0
 17 55  1  0
 18 19  1  0
 18 20  1  0
 18 56  1  6
 19 57  1  0
 20 34  1  0
 20 21  1  1
 20 22  1  0
 21 58  1  0
 22 23  2  0
 23 24  1  0
 23 59  1  0
 24 25  1  0
 24 60  1  0
 24 61  1  0
 25 34  1  0
 25 26  1  0
 25 62  1  6
 26 27  1  0
 26 28  1  0
 26 29  1  0
 27 63  1  0
 27 64  1  0
 27 65  1  0
 28 66  1  0
 28 67  1  0
 28 68  1  0
 29 30  1  0
 29 31  1  0
 29 69  1  6
 30 70  1  0
 31 33  1  0
 31 32  1  0
 31 71  1  6
 32 33  1  0
 33 34  1  0
 33 72  1  6
 34 35  1  6
 35 73  1  0
 35 74  1  0
 35 75  1  0
M  END
>  <i_m_ct_stereo_status>  (50) 
1

>  <s_m_source_file>  (50) 
/var/tmp/pbs.5076255.sched01/tmpuj7nejrg/06cdl7mjn.sdf

>  <i_m_source_file_index>  (50) 
24

>  <i_lp_mmshare_version>  (50) 
48012

>  <i_f3d_flags>  (50) 
0

>  <s_epik_input>  (50) 
TzFbQ0BASF0oW09IXSlPW0NAQEhdKFtDQEhdMltPSF0pW0NASF0xW0NIMl1bQ0BIXShbQ0gyXTMpW0NAXTIoW0NIM10pW0NAQEhdKFtDQEBdMzRbQ0gzXSlbQ0gyXVtDQEBIXShbT0hdKVtDQF01KFtPSF0pQzQ9W0NIXVtDSDJdW0NAQEhdNltDQEBdNShbQ0gzXSlbQ0BASF03W0NAQEhdKE83KVtDQEhdKFtPSF0pQzYoW0NIM10pW0NIM10=

>  <s_epik_cmdline>  (50) 
J2VwaWtfcHl0aG9uJywgJy1waHQnLCAnMi4wJywgJy1waCcsICc3LjAnLCAnLXRuJywgJzgnLCAnLW1hJywgJzIwMCcsICctaW1hZScsICc8aW5maWxlLm1hZT4nLCAnLW9tYWUnLCAnPG91dGZpbGUubWFlPic=

>  <r_lp_tautomer_probability>  (50) 
1

>  <r_epik_Ionization_Penalty>  (50) 
2.71319e-05

>  <r_epik_Ionization_Penalty_Charging>  (50) 
0

>  <r_epik_Ionization_Penalty_Neutral>  (50) 
2.71319e-05

>  <r_epik_State_Penalty>  (50) 
-0

>  <r_epik_Charging_Adjusted_Penalty>  (50) 
0

>  <i_epik_Tot_Q>  (50) 
0

>  <i_epik_Tot_abs_Q>  (50) 
0

>  <s_epik_Chemistry_Notes>  (50) 
This compound contains an acetal/aminal-like group ( X-CH(R)-Y where X, Y are N, S, or O) that may be acid/base labile, releasing an aldehyde.

>  <s_lp_Force_Field>  (50) 
OPLS3e

>  <r_lp_Energy>  (50) 
82.3414

>  <b_lp_Chiralities_Consistent>  (50) 
1

>  <s_lp_Variant>  (50) 
14:0-1

>  <s_i_glide_gridfile>  (50) 
pfpi4k_grid

>  <i_i_glide_lignum>  (50) 
24

>  <i_i_glide_rotatable_bonds>  (50) 
5

>  <r_i_docking_score>  (50) 
-2.6346

>  <r_i_glide_ligand_efficiency>  (50) 
-0.0752743

>  <r_i_glide_ligand_efficiency_sa>  (50) 
-0.246227

>  <r_i_glide_ligand_efficiency_ln>  (50) 
-0.578353

>  <r_i_glide_gscore>  (50) 
-2.6346

>  <r_i_glide_lipo>  (50) 
-0.169387

>  <r_i_glide_hbond>  (50) 
0

>  <r_i_glide_metal>  (50) 
-0

>  <r_i_glide_rewards>  (50) 
-0.160684

>  <r_i_glide_evdw>  (50) 
-29.7627

>  <r_i_glide_ecoul>  (50) 
-5.44262

>  <r_i_glide_erotb>  (50) 
0

>  <r_i_glide_esite>  (50) 
0

>  <r_i_glide_emodel>  (50) 
-40.581

>  <r_i_glide_energy>  (50) 
-35.2053

>  <r_i_glide_einternal>  (50) 
2.12319

>  <r_i_glide_intrahb_reward>  (50) 
-0

>  <i_i_glide_confnum>  (50) 
2

>  <i_i_glide_posenum>  (50) 
7

>  <r_i_glide_eff_state_penalty>  (50) 
0

>  <ligand_id>  (50) 
14

>  <original_smiles>  (50) 
CC12CC3CC4OC(O)OC4C(O)C3(C)C1CC(O)C1(O)C2=CCC2C(C)(C)C(O)C3OC3C21C

>  <smiles>  (50) 
[H]OC1([H])OC2([H])C([H])([H])C3([H])C([H])([H])C4(C([H])([H])[H])C5=C([H])C([H])([H])C6([H])C(C([H])([H])[H])(C([H])([H])[H])C([H])(O[H])C7([H])OC7([H])C6(C([H])([H])[H])C5(O[H])C([H])(O[H])C([H])([H])C4([H])C3(C([H])([H])[H])C([H])(O[H])C2([H])O1

$$$$
14:0:2
     RDKit          3D

 75 81  0  0  1  0  0  0  0  0999 V2000
    4.6079   -3.8517    4.1797 C   0  0  0  0  0  0  0  0  0  0  0  0
    3.0518   -3.7458    4.2489 C   0  0  1  0  0  0  0  0  0  0  0  0
    2.4485   -4.3049    2.9315 C   0  0  0  0  0  0  0  0  0  0  0  0
    1.3428   -5.3121    3.3084 C   0  0  1  0  0  0  0  0  0  0  0  0
    0.9041   -6.2834    2.1766 C   0  0  0  0  0  0  0  0  0  0  0  0
    1.3182   -7.7686    2.2583 C   0  0  1  0  0  0  0  0  0  0  0  0
    2.2881   -8.0866    1.2982 O   0  0  0  0  0  0  0  0  0  0  0  0
    2.8516   -9.2689    1.7357 C   0  0  1  0  0  0  0  0  0  0  0  0
    4.1281   -9.4563    1.1659 O   0  0  0  0  0  0  0  0  0  0  0  0
    2.8954   -9.2582    3.1265 O   0  0  0  0  0  0  0  0  0  0  0  0
    1.9628   -8.2735    3.5519 C   0  0  1  0  0  0  0  0  0  0  0  0
    2.6702   -7.1955    4.3996 C   0  0  1  0  0  0  0  0  0  0  0  0
    3.8753   -6.8967    3.7361 O   0  0  0  0  0  0  0  0  0  0  0  0
    1.7694   -5.9352    4.6496 C   0  0  2  0  0  0  0  0  0  0  0  0
    0.5455   -6.4500    5.4656 C   0  0  0  0  0  0  0  0  0  0  0  0
    2.5397   -4.7412    5.3516 C   0  0  2  0  0  0  0  0  0  0  0  0
    1.7963   -3.9793    6.4729 C   0  0  0  0  0  0  0  0  0  0  0  0
    0.6804   -3.0687    5.9300 C   0  0  1  0  0  0  0  0  0  0  0  0
   -0.1318   -2.6854    7.0262 O   0  0  0  0  0  0  0  0  0  0  0  0
    1.2063   -1.9300    4.9720 C   0  0  2  0  0  0  0  0  0  0  0  0
    0.3648   -2.0781    3.8592 O   0  0  0  0  0  0  0  0  0  0  0  0
    2.6380   -2.2461    4.4630 C   0  0  0  0  0  0  0  0  0  0  0  0
    3.5242   -1.2480    4.2660 C   0  0  0  0  0  0  0  0  0  0  0  0
    3.2878    0.2338    4.4239 C   0  0  0  0  0  0  0  0  0  0  0  0
    1.8149    0.6437    4.6110 C   0  0  1  0  0  0  0  0  0  0  0  0
    1.1122    1.3294    3.3720 C   0  0  0  0  0  0  0  0  0  0  0  0
    2.0202    2.4351    2.7719 C   0  0  0  0  0  0  0  0  0  0  0  0
    0.7747    0.3483    2.2280 C   0  0  0  0  0  0  0  0  0  0  0  0
   -0.1722    2.0298    3.8921 C   0  0  1  0  0  0  0  0  0  0  0  0
   -0.9598    2.5988    2.8643 O   0  0  0  0  0  0  0  0  0  0  0  0
   -1.0345    1.1091    4.7213 C   0  0  2  0  0  0  0  0  0  0  0  0
   -0.7846    1.2162    6.1294 O   0  0  0  0  0  0  0  0  0  0  0  0
   -0.4591   -0.0366    5.5282 C   0  0  2  0  0  0  0  0  0  0  0  0
    1.0290   -0.4195    5.4778 C   0  0  1  0  0  0  0  0  0  0  0  0
    1.6246   -0.2898    6.9156 C   0  0  0  0  0  0  0  0  0  0  0  0
    4.9866   -4.8682    4.2081 H   0  0  0  0  0  0  0  0  0  0  0  0
    5.0804   -3.3546    5.0282 H   0  0  0  0  0  0  0  0  0  0  0  0
    5.0030   -3.4161    3.2607 H   0  0  0  0  0  0  0  0  0  0  0  0
    2.0699   -3.5154    2.2782 H   0  0  0  0  0  0  0  0  0  0  0  0
    3.2173   -4.8218    2.3536 H   0  0  0  0  0  0  0  0  0  0  0  0
    0.4693   -4.6967    3.5122 H   0  0  0  0  0  0  0  0  0  0  0  0
   -0.1823   -6.2595    2.1157 H   0  0  0  0  0  0  0  0  0  0  0  0
    1.2475   -5.8943    1.2176 H   0  0  0  0  0  0  0  0  0  0  0  0
    0.4432   -8.3873    2.0470 H   0  0  0  0  0  0  0  0  0  0  0  0
    2.2176  -10.1073    1.4295 H   0  0  0  0  0  0  0  0  0  0  0  0
    4.2015  -10.3728    0.9164 H   0  0  0  0  0  0  0  0  0  0  0  0
    1.2110   -8.7773    4.1543 H   0  0  0  0  0  0  0  0  0  0  0  0
    2.9495   -7.6366    5.3582 H   0  0  0  0  0  0  0  0  0  0  0  0
    4.3167   -7.7194    3.5740 H   0  0  0  0  0  0  0  0  0  0  0  0
    0.8737   -6.9557    6.3734 H   0  0  0  0  0  0  0  0  0  0  0  0
   -0.0521   -7.1622    4.9001 H   0  0  0  0  0  0  0  0  0  0  0  0
   -0.1630   -5.6888    5.7709 H   0  0  0  0  0  0  0  0  0  0  0  0
    3.3935   -5.1930    5.8573 H   0  0  0  0  0  0  0  0  0  0  0  0
    1.4075   -4.6773    7.2139 H   0  0  0  0  0  0  0  0  0  0  0  0
    2.5134   -3.3662    7.0185 H   0  0  0  0  0  0  0  0  0  0  0  0
   -0.0066   -3.6870    5.3616 H   0  0  0  0  0  0  0  0  0  0  0  0
    0.4303   -2.2735    7.6668 H   0  0  0  0  0  0  0  0  0  0  0  0
    0.6684   -1.4858    3.1891 H   0  0  0  0  0  0  0  0  0  0  0  0
    4.5391   -1.4277    3.9443 H   0  0  0  0  0  0  0  0  0  0  0  0
    3.8521    0.5425    5.3038 H   0  0  0  0  0  0  0  0  0  0  0  0
    3.7642    0.7366    3.5881 H   0  0  0  0  0  0  0  0  0  0  0  0
    1.9071    1.5189    5.2553 H   0  0  0  0  0  0  0  0  0  0  0  0
    1.4741    3.0768    2.0805 H   0  0  0  0  0  0  0  0  0  0  0  0
    2.8426    2.0233    2.1870 H   0  0  0  0  0  0  0  0  0  0  0  0
    2.4403    3.0765    3.5465 H   0  0  0  0  0  0  0  0  0  0  0  0
    0.6411    0.8715    1.2774 H   0  0  0  0  0  0  0  0  0  0  0  0
   -0.1734   -0.1623    2.4059 H   0  0  0  0  0  0  0  0  0  0  0  0
    1.5634   -0.3915    2.0714 H   0  0  0  0  0  0  0  0  0  0  0  0
    0.1143    2.8538    4.5444 H   0  0  0  0  0  0  0  0  0  0  0  0
   -0.4206    3.1396    2.2902 H   0  0  0  0  0  0  0  0  0  0  0  0
   -2.0886    1.0622    4.4627 H   0  0  0  0  0  0  0  0  0  0  0  0
   -1.1635   -0.8301    5.7519 H   0  0  0  0  0  0  0  0  0  0  0  0
    1.7854    0.7483    7.2126 H   0  0  0  0  0  0  0  0  0  0  0  0
    2.5894   -0.7947    6.9878 H   0  0  0  0  0  0  0  0  0  0  0  0
    0.9858   -0.6854    7.6993 H   0  0  0  0  0  0  0  0  0  0  0  0
  2  1  1  6
  1 36  1  0
  1 37  1  0
  1 38  1  0
  2 16  1  0
  2 22  1  0
  2  3  1  0
  3  4  1  0
  3 39  1  0
  3 40  1  0
  4 14  1  0
  4  5  1  0
  4 41  1  1
  5  6  1  0
  5 42  1  0
  5 43  1  0
  6 11  1  0
  6  7  1  0
  6 44  1  6
  7  8  1  0
  8  9  1  0
  8 10  1  0
  8 45  1  1
  9 46  1  0
 10 11  1  0
 11 12  1  0
 11 47  1  1
 12 13  1  0
 12 14  1  0
 12 48  1  1
 13 49  1  0
 14 15  1  1
 14 16  1  0
 15 50  1  0
 15 51  1  0
 15 52  1  0
 16 17  1  0
 16 53  1  1
 17 18  1  0
 17 54  1  0
 17 55  1  0
 18 19  1  0
 18 20  1  0
 18 56  1  6
 19 57  1  0
 20 34  1  0
 20 21  1  6
 20 22  1  0
 21 58  1  0
 22 23  2  0
 23 24  1  0
 23 59  1  0
 24 25  1  0
 24 60  1  0
 24 61  1  0
 25 34  1  0
 25 26  1  0
 25 62  1  1
 26 27  1  0
 26 28  1  0
 26 29  1  0
 27 63  1  0
 27 64  1  0
 27 65  1  0
 28 66  1  0
 28 67  1  0
 28 68  1  0
 29 30  1  0
 29 31  1  0
 29 69  1  1
 30 70  1  0
 31 33  1  0
 31 32  1  0
 31 71  1  1
 32 33  1  0
 33 34  1  0
 33 72  1  1
 34 35  1  1
 35 73  1  0
 35 74  1  0
 35 75  1  0
M  END
>  <i_m_ct_stereo_status>  (51) 
1

>  <s_m_source_file>  (51) 
/var/tmp/pbs.5076255.sched01/tmpuj7nejrg/06cdl7mjn.sdf

>  <i_m_source_file_index>  (51) 
24

>  <i_lp_mmshare_version>  (51) 
48012

>  <i_f3d_flags>  (51) 
0

>  <s_epik_input>  (51) 
TzFbQ0BASF0oW09IXSlPW0NAQEhdKFtDQEhdMltPSF0pW0NASF0xW0NIMl1bQ0BIXShbQ0gyXTMpW0NAXTIoW0NIM10pW0NAQEhdKFtDQEBdMzRbQ0gzXSlbQ0gyXVtDQEBIXShbT0hdKVtDQF01KFtPSF0pQzQ9W0NIXVtDSDJdW0NAQEhdNltDQEBdNShbQ0gzXSlbQ0BASF03W0NAQEhdKE83KVtDQEhdKFtPSF0pQzYoW0NIM10pW0NIM10=

>  <s_epik_cmdline>  (51) 
J2VwaWtfcHl0aG9uJywgJy1waHQnLCAnMi4wJywgJy1waCcsICc3LjAnLCAnLXRuJywgJzgnLCAnLW1hJywgJzIwMCcsICctaW1hZScsICc8aW5maWxlLm1hZT4nLCAnLW9tYWUnLCAnPG91dGZpbGUubWFlPic=

>  <r_lp_tautomer_probability>  (51) 
1

>  <r_epik_Ionization_Penalty>  (51) 
2.71319e-05

>  <r_epik_Ionization_Penalty_Charging>  (51) 
0

>  <r_epik_Ionization_Penalty_Neutral>  (51) 
2.71319e-05

>  <r_epik_State_Penalty>  (51) 
-0

>  <r_epik_Charging_Adjusted_Penalty>  (51) 
0

>  <i_epik_Tot_Q>  (51) 
0

>  <i_epik_Tot_abs_Q>  (51) 
0

>  <s_epik_Chemistry_Notes>  (51) 
This compound contains an acetal/aminal-like group ( X-CH(R)-Y where X, Y are N, S, or O) that may be acid/base labile, releasing an aldehyde.

>  <s_lp_Force_Field>  (51) 
OPLS3e

>  <r_lp_Energy>  (51) 
82.3414

>  <b_lp_Chiralities_Consistent>  (51) 
1

>  <s_lp_Variant>  (51) 
14:0-1

>  <s_i_glide_gridfile>  (51) 
pfpi4k_grid

>  <i_i_glide_lignum>  (51) 
24

>  <i_i_glide_rotatable_bonds>  (51) 
5

>  <r_i_docking_score>  (51) 
-2.5981

>  <r_i_glide_ligand_efficiency>  (51) 
-0.0742314

>  <r_i_glide_ligand_efficiency_sa>  (51) 
-0.242816

>  <r_i_glide_ligand_efficiency_ln>  (51) 
-0.57034

>  <r_i_glide_gscore>  (51) 
-2.5981

>  <r_i_glide_lipo>  (51) 
-0.0120172

>  <r_i_glide_hbond>  (51) 
-0.152

>  <r_i_glide_metal>  (51) 
-0

>  <r_i_glide_rewards>  (51) 
-0.050443

>  <r_i_glide_evdw>  (51) 
-28.3727

>  <r_i_glide_ecoul>  (51) 
-6.26953

>  <r_i_glide_erotb>  (51) 
0

>  <r_i_glide_esite>  (51) 
-0.0245715

>  <r_i_glide_emodel>  (51) 
-39.6385

>  <r_i_glide_energy>  (51) 
-34.6423

>  <r_i_glide_einternal>  (51) 
2.79716

>  <r_i_glide_intrahb_reward>  (51) 
-0

>  <i_i_glide_confnum>  (51) 
2

>  <i_i_glide_posenum>  (51) 
40

>  <r_i_glide_eff_state_penalty>  (51) 
0

>  <ligand_id>  (51) 
14

>  <original_smiles>  (51) 
CC12CC3CC4OC(O)OC4C(O)C3(C)C1CC(O)C1(O)C2=CCC2C(C)(C)C(O)C3OC3C21C

>  <smiles>  (51) 
[H]OC1([H])OC2([H])C([H])([H])C3([H])C([H])([H])C4(C([H])([H])[H])C5=C([H])C([H])([H])C6([H])C(C([H])([H])[H])(C([H])([H])[H])C([H])(O[H])C7([H])OC7([H])C6(C([H])([H])[H])C5(O[H])C([H])(O[H])C([H])([H])C4([H])C3(C([H])([H])[H])C([H])(O[H])C2([H])O1

$$$$
15:0:0
     RDKit          3D

 44 48  0  0  1  0  0  0  0  0999 V2000
    7.5007   -5.3768    1.8793 C   0  0  0  0  0  0  0  0  0  0  0  0
    6.4990   -4.6214    1.1309 N   0  0  0  0  0  0  0  0  0  0  0  0
    5.3302   -5.4398    0.7472 C   0  0  2  0  0  0  0  0  0  0  0  0
    4.5825   -4.6578   -0.3089 C   0  0  0  0  0  0  0  0  0  0  0  0
    4.5678   -3.3110   -0.3418 C   0  0  0  0  0  0  0  0  0  0  0  0
    4.0817   -2.5450   -1.5075 C   0  0  0  0  0  0  0  0  0  0  0  0
    3.1122   -3.0530   -2.3987 C   0  0  0  0  0  0  0  0  0  0  0  0
    2.7008   -2.3150   -3.5236 C   0  0  0  0  0  0  0  0  0  0  0  0
    3.2514   -1.0430   -3.7642 C   0  0  0  0  0  0  0  0  0  0  0  0
    4.2075   -0.5215   -2.8752 C   0  0  0  0  0  0  0  0  0  0  0  0
    4.6301   -1.2614   -1.7557 C   0  0  0  0  0  0  0  0  0  0  0  0
    5.5551   -0.6863   -0.9100 O   0  0  0  0  0  0  0  0  0  0  0  0
    6.2138   -1.5354    0.0298 C   0  0  0  0  0  0  0  0  0  0  0  0
    5.2416   -2.4873    0.7638 C   0  0  1  0  0  0  0  0  0  0  0  0
    4.1660   -1.6314    1.4813 C   0  0  0  0  0  0  0  0  0  0  0  0
    6.0553   -3.3771    1.7967 C   0  0  1  0  0  0  0  0  0  0  0  0
    5.3531   -3.7229    3.1622 C   0  0  0  0  0  0  0  0  0  0  0  0
    4.3904   -4.8695    2.9816 C   0  0  0  0  0  0  0  0  0  0  0  0
    4.3714   -5.6508    1.9108 C   0  0  0  0  0  0  0  0  0  0  0  0
    3.2871   -6.7028    1.9526 C   0  0  0  0  0  0  0  0  0  0  0  0
    2.5907   -6.4613    3.3161 C   0  0  0  0  0  0  0  0  0  0  0  0
    3.3457   -5.2714    3.9022 C   0  0  0  0  0  0  0  0  0  0  0  0
    3.0715   -4.7639    4.9848 O   0  0  0  0  0  0  0  0  0  0  0  0
    7.8630   -6.2101    1.2759 H   0  0  0  0  0  0  0  0  0  0  0  0
    7.1215   -5.7871    2.8167 H   0  0  0  0  0  0  0  0  0  0  0  0
    8.3641   -4.7461    2.0976 H   0  0  0  0  0  0  0  0  0  0  0  0
    5.6549   -6.3973    0.3404 H   0  0  0  0  0  0  0  0  0  0  0  0
    4.1879   -5.2400   -1.1205 H   0  0  0  0  0  0  0  0  0  0  0  0
    2.6475   -4.0022   -2.2102 H   0  0  0  0  0  0  0  0  0  0  0  0
    1.9454   -2.7152   -4.1857 H   0  0  0  0  0  0  0  0  0  0  0  0
    2.9162   -0.4602   -4.6112 H   0  0  0  0  0  0  0  0  0  0  0  0
    4.6039    0.4696   -3.0405 H   0  0  0  0  0  0  0  0  0  0  0  0
    6.9701   -2.1113   -0.5074 H   0  0  0  0  0  0  0  0  0  0  0  0
    6.7505   -0.9039    0.7393 H   0  0  0  0  0  0  0  0  0  0  0  0
    4.6037   -1.0053    2.2610 H   0  0  0  0  0  0  0  0  0  0  0  0
    3.3949   -2.2600    1.9307 H   0  0  0  0  0  0  0  0  0  0  0  0
    3.6421   -0.9629    0.7959 H   0  0  0  0  0  0  0  0  0  0  0  0
    6.9498   -2.8086    2.0445 H   0  0  0  0  0  0  0  0  0  0  0  0
    6.0826   -4.0529    3.9007 H   0  0  0  0  0  0  0  0  0  0  0  0
    4.8596   -2.8655    3.6174 H   0  0  0  0  0  0  0  0  0  0  0  0
    2.5909   -6.5630    1.1261 H   0  0  0  0  0  0  0  0  0  0  0  0
    3.7155   -7.7033    1.8960 H   0  0  0  0  0  0  0  0  0  0  0  0
    1.5347   -6.2164    3.2043 H   0  0  0  0  0  0  0  0  0  0  0  0
    2.6739   -7.3239    3.9782 H   0  0  0  0  0  0  0  0  0  0  0  0
  1  2  1  0
  1 24  1  0
  1 25  1  0
  1 26  1  0
  2 16  1  0
  2  3  1  0
  3 19  1  0
  3  4  1  0
  3 27  1  6
  4  5  2  0
  4 28  1  0
  5 14  1  0
  5  6  1  0
  6 11  2  0
  6  7  1  0
  7  8  2  0
  7 29  1  0
  8  9  1  0
  8 30  1  0
  9 10  2  0
  9 31  1  0
 10 11  1  0
 10 32  1  0
 11 12  1  0
 12 13  1  0
 13 14  1  0
 13 33  1  0
 13 34  1  0
 14 15  1  1
 14 16  1  0
 15 35  1  0
 15 36  1  0
 15 37  1  0
 16 17  1  0
 16 38  1  1
 17 18  1  0
 17 39  1  0
 17 40  1  0
 18 22  1  0
 18 19  2  0
 19 20  1  0
 20 21  1  0
 20 41  1  0
 20 42  1  0
 21 22  1  0
 21 43  1  0
 21 44  1  0
 22 23  2  0
M  END
>  <i_m_ct_stereo_status>  (52) 
1

>  <s_m_source_file>  (52) 
/var/tmp/pbs.5076255.sched01/tmpuj7nejrg/06cdl7mjn.sdf

>  <i_m_source_file_index>  (52) 
25

>  <i_lp_mmshare_version>  (52) 
48012

>  <i_f3d_flags>  (52) 
0

>  <s_epik_input>  (52) 
W0NIM11OMVtDQEBIXTJbQ0gyXUMoQyg9TylbQ0gyXVtDSDJdMyk9QzNbQ0hdMVtDSF09QyhbQ0BAXTI0W0NIM10pYzVjKE9bQ0gyXTQpW2NIXVtjSF1bY0hdW2NIXTU=

>  <s_epik_cmdline>  (52) 
J2VwaWtfcHl0aG9uJywgJy1waHQnLCAnMi4wJywgJy1waCcsICc3LjAnLCAnLXRuJywgJzgnLCAnLW1hJywgJzIwMCcsICctaW1hZScsICc8aW5maWxlLm1hZT4nLCAnLW9tYWUnLCAnPG91dGZpbGUubWFlPic=

>  <r_lp_tautomer_probability>  (52) 
0.499977

>  <r_epik_Ionization_Penalty>  (52) 
0.0378448

>  <r_epik_Ionization_Penalty_Charging>  (52) 
0

>  <r_epik_Ionization_Penalty_Neutral>  (52) 
0.0378448

>  <r_epik_State_Penalty>  (52) 
0.369757

>  <r_epik_Charging_Adjusted_Penalty>  (52) 
0.369757

>  <i_epik_Tot_Q>  (52) 
0

>  <i_epik_Tot_abs_Q>  (52) 
0

>  <s_lp_Force_Field>  (52) 
OPLS3e

>  <r_lp_Energy>  (52) 
20.8788

>  <b_lp_Chiralities_Consistent>  (52) 
1

>  <s_lp_Variant>  (52) 
15:0-1

>  <s_i_glide_gridfile>  (52) 
pfpi4k_grid

>  <i_i_glide_lignum>  (52) 
25

>  <i_i_glide_rotatable_bonds>  (52) 
0

>  <r_i_docking_score>  (52) 
-3.66441

>  <r_i_glide_ligand_efficiency>  (52) 
-0.159322

>  <r_i_glide_ligand_efficiency_sa>  (52) 
-0.453091

>  <r_i_glide_ligand_efficiency_ln>  (52) 
-0.886088

>  <r_i_glide_gscore>  (52) 
-3.66441

>  <r_i_glide_lipo>  (52) 
-0.966265

>  <r_i_glide_hbond>  (52) 
-0.0111353

>  <r_i_glide_metal>  (52) 
-0

>  <r_i_glide_rewards>  (52) 
-1.31328

>  <r_i_glide_evdw>  (52) 
-21.4041

>  <r_i_glide_ecoul>  (52) 
-2.02354

>  <r_i_glide_erotb>  (52) 
0

>  <r_i_glide_esite>  (52) 
0

>  <r_i_glide_emodel>  (52) 
-28.9762

>  <r_i_glide_energy>  (52) 
-23.4276

>  <r_i_glide_einternal>  (52) 
0

>  <r_i_glide_intrahb_reward>  (52) 
-0

>  <i_i_glide_confnum>  (52) 
1

>  <i_i_glide_posenum>  (52) 
35

>  <r_i_glide_eff_state_penalty>  (52) 
0

>  <ligand_id>  (52) 
15

>  <original_smiles>  (52) 
CN1C2C=C3c4ccccc4OCC3(C)C1CC1=C2CCC1=O

>  <smiles>  (52) 
[H]C1=C2c3c([H])c([H])c([H])c([H])c3OC([H])([H])C2(C([H])([H])[H])C2([H])N(C([H])([H])[H])C1([H])C1=C(C(=O)C([H])([H])C1([H])[H])C2([H])[H]

$$$$
15:0:1
     RDKit          3D

 44 48  0  0  1  0  0  0  0  0999 V2000
    8.1860   -2.3878    0.1906 C   0  0  0  0  0  0  0  0  0  0  0  0
    7.0236   -3.0606    0.7641 N   0  0  0  0  0  0  0  0  0  0  0  0
    5.8792   -2.1531    0.9931 C   0  0  2  0  0  0  0  0  0  0  0  0
    4.9142   -2.8742    1.9073 C   0  0  0  0  0  0  0  0  0  0  0  0
    4.7990   -4.2190    1.9084 C   0  0  0  0  0  0  0  0  0  0  0  0
    4.0726   -4.9593    2.9601 C   0  0  0  0  0  0  0  0  0  0  0  0
    3.0299   -4.3754    3.7115 C   0  0  0  0  0  0  0  0  0  0  0  0
    2.3842   -5.1007    4.7306 C   0  0  0  0  0  0  0  0  0  0  0  0
    2.7788   -6.4237    5.0070 C   0  0  0  0  0  0  0  0  0  0  0  0
    3.8152   -7.0159    4.2642 C   0  0  0  0  0  0  0  0  0  0  0  0
    4.4681   -6.2932    3.2478 C   0  0  0  0  0  0  0  0  0  0  0  0
    5.4685   -6.9340    2.5466 O   0  0  0  0  0  0  0  0  0  0  0  0
    6.3293   -6.1313    1.7373 C   0  0  0  0  0  0  0  0  0  0  0  0
    5.5609   -5.0850    0.8946 C   0  0  1  0  0  0  0  0  0  0  0  0
    4.5301   -5.8328    0.0049 C   0  0  0  0  0  0  0  0  0  0  0  0
    6.5884   -4.2558    0.0139 C   0  0  1  0  0  0  0  0  0  0  0  0
    6.1293   -3.8329   -1.4318 C   0  0  0  0  0  0  0  0  0  0  0  0
    5.2508   -2.6156   -1.3764 C   0  0  0  0  0  0  0  0  0  0  0  0
    5.1260   -1.8585   -0.2942 C   0  0  0  0  0  0  0  0  0  0  0  0
    4.1407   -0.7370   -0.4638 C   0  0  0  0  0  0  0  0  0  0  0  0
    3.6771   -0.8771   -1.9386 C   0  0  0  0  0  0  0  0  0  0  0  0
    4.4018   -2.1162   -2.4402 C   0  0  0  0  0  0  0  0  0  0  0  0
    4.2728   -2.5642   -3.5766 O   0  0  0  0  0  0  0  0  0  0  0  0
    8.5189   -1.5944    0.8615 H   0  0  0  0  0  0  0  0  0  0  0  0
    7.9870   -1.9414   -0.7827 H   0  0  0  0  0  0  0  0  0  0  0  0
    9.0152   -3.0889    0.0803 H   0  0  0  0  0  0  0  0  0  0  0  0
    6.2175   -1.2298    1.4660 H   0  0  0  0  0  0  0  0  0  0  0  0
    4.4188   -2.2612    2.6389 H   0  0  0  0  0  0  0  0  0  0  0  0
    2.7064   -3.3669    3.5067 H   0  0  0  0  0  0  0  0  0  0  0  0
    1.5863   -4.6461    5.2971 H   0  0  0  0  0  0  0  0  0  0  0  0
    2.2919   -6.9814    5.7941 H   0  0  0  0  0  0  0  0  0  0  0  0
    4.1159   -8.0306    4.4793 H   0  0  0  0  0  0  0  0  0  0  0  0
    7.0452   -5.6308    2.3930 H   0  0  0  0  0  0  0  0  0  0  0  0
    6.9119   -6.7904    1.0927 H   0  0  0  0  0  0  0  0  0  0  0  0
    5.0102   -6.4839   -0.7204 H   0  0  0  0  0  0  0  0  0  0  0  0
    3.8957   -5.1337   -0.5403 H   0  0  0  0  0  0  0  0  0  0  0  0
    3.8597   -6.4662    0.5847 H   0  0  0  0  0  0  0  0  0  0  0  0
    7.4675   -4.8855   -0.1073 H   0  0  0  0  0  0  0  0  0  0  0  0
    6.9930   -3.5717   -2.0460 H   0  0  0  0  0  0  0  0  0  0  0  0
    5.5982   -4.6165   -1.9722 H   0  0  0  0  0  0  0  0  0  0  0  0
    3.3060   -0.8391    0.2299 H   0  0  0  0  0  0  0  0  0  0  0  0
    4.6292    0.2045   -0.2745 H   0  0  0  0  0  0  0  0  0  0  0  0
    2.6083   -1.0379   -1.9973 H   0  0  0  0  0  0  0  0  0  0  0  0
    3.9302   -0.0128   -2.5515 H   0  0  0  0  0  0  0  0  0  0  0  0
  1  2  1  0
  1 24  1  0
  1 25  1  0
  1 26  1  0
  2 16  1  0
  2  3  1  0
  3 19  1  0
  3  4  1  0
  3 27  1  1
  4  5  2  0
  4 28  1  0
  5 14  1  0
  5  6  1  0
  6 11  2  0
  6  7  1  0
  7  8  2  0
  7 29  1  0
  8  9  1  0
  8 30  1  0
  9 10  2  0
  9 31  1  0
 10 11  1  0
 10 32  1  0
 11 12  1  0
 12 13  1  0
 13 14  1  0
 13 33  1  0
 13 34  1  0
 14 15  1  6
 14 16  1  0
 15 35  1  0
 15 36  1  0
 15 37  1  0
 16 17  1  0
 16 38  1  6
 17 18  1  0
 17 39  1  0
 17 40  1  0
 18 22  1  0
 18 19  2  0
 19 20  1  0
 20 21  1  0
 20 41  1  0
 20 42  1  0
 21 22  1  0
 21 43  1  0
 21 44  1  0
 22 23  2  0
M  END
>  <i_m_ct_stereo_status>  (53) 
1

>  <s_m_source_file>  (53) 
/var/tmp/pbs.5076255.sched01/tmpuj7nejrg/06cdl7mjn.sdf

>  <i_m_source_file_index>  (53) 
25

>  <i_lp_mmshare_version>  (53) 
48012

>  <i_f3d_flags>  (53) 
0

>  <s_epik_input>  (53) 
W0NIM11OMVtDQEBIXTJbQ0gyXUMoQyg9TylbQ0gyXVtDSDJdMyk9QzNbQ0hdMVtDSF09QyhbQ0BAXTI0W0NIM10pYzVjKE9bQ0gyXTQpW2NIXVtjSF1bY0hdW2NIXTU=

>  <s_epik_cmdline>  (53) 
J2VwaWtfcHl0aG9uJywgJy1waHQnLCAnMi4wJywgJy1waCcsICc3LjAnLCAnLXRuJywgJzgnLCAnLW1hJywgJzIwMCcsICctaW1hZScsICc8aW5maWxlLm1hZT4nLCAnLW9tYWUnLCAnPG91dGZpbGUubWFlPic=

>  <r_lp_tautomer_probability>  (53) 
0.499977

>  <r_epik_Ionization_Penalty>  (53) 
0.0378448

>  <r_epik_Ionization_Penalty_Charging>  (53) 
0

>  <r_epik_Ionization_Penalty_Neutral>  (53) 
0.0378448

>  <r_epik_State_Penalty>  (53) 
0.369757

>  <r_epik_Charging_Adjusted_Penalty>  (53) 
0.369757

>  <i_epik_Tot_Q>  (53) 
0

>  <i_epik_Tot_abs_Q>  (53) 
0

>  <s_lp_Force_Field>  (53) 
OPLS3e

>  <r_lp_Energy>  (53) 
20.8788

>  <b_lp_Chiralities_Consistent>  (53) 
1

>  <s_lp_Variant>  (53) 
15:0-1

>  <s_i_glide_gridfile>  (53) 
pfpi4k_grid

>  <i_i_glide_lignum>  (53) 
25

>  <i_i_glide_rotatable_bonds>  (53) 
0

>  <r_i_docking_score>  (53) 
-3.28569

>  <r_i_glide_ligand_efficiency>  (53) 
-0.142856

>  <r_i_glide_ligand_efficiency_sa>  (53) 
-0.406263

>  <r_i_glide_ligand_efficiency_ln>  (53) 
-0.794509

>  <r_i_glide_gscore>  (53) 
-3.28569

>  <r_i_glide_lipo>  (53) 
-0.626454

>  <r_i_glide_hbond>  (53) 
0

>  <r_i_glide_metal>  (53) 
-0

>  <r_i_glide_rewards>  (53) 
-1.36726

>  <r_i_glide_evdw>  (53) 
-20.5254

>  <r_i_glide_ecoul>  (53) 
-1.77136

>  <r_i_glide_erotb>  (53) 
0

>  <r_i_glide_esite>  (53) 
0

>  <r_i_glide_emodel>  (53) 
-27.2637

>  <r_i_glide_energy>  (53) 
-22.2968

>  <r_i_glide_einternal>  (53) 
0

>  <r_i_glide_intrahb_reward>  (53) 
-0

>  <i_i_glide_confnum>  (53) 
1

>  <i_i_glide_posenum>  (53) 
17

>  <r_i_glide_eff_state_penalty>  (53) 
0

>  <ligand_id>  (53) 
15

>  <original_smiles>  (53) 
CN1C2C=C3c4ccccc4OCC3(C)C1CC1=C2CCC1=O

>  <smiles>  (53) 
[H]C1=C2c3c([H])c([H])c([H])c([H])c3OC([H])([H])C2(C([H])([H])[H])C2([H])N(C([H])([H])[H])C1([H])C1=C(C(=O)C([H])([H])C1([H])[H])C2([H])[H]

$$$$
15:0:2
     RDKit          3D

 44 48  0  0  1  0  0  0  0  0999 V2000
    7.7138   -2.5777   -0.5771 C   0  0  0  0  0  0  0  0  0  0  0  0
    6.4994   -2.9745    0.1283 N   0  0  0  0  0  0  0  0  0  0  0  0
    5.4274   -1.9585    0.0773 C   0  0  2  0  0  0  0  0  0  0  0  0
    4.4021   -2.3427    1.1233 C   0  0  0  0  0  0  0  0  0  0  0  0
    4.1865   -3.6243    1.4861 C   0  0  0  0  0  0  0  0  0  0  0  0
    3.4028   -4.0003    2.6805 C   0  0  0  0  0  0  0  0  0  0  0  0
    2.4005   -3.1619    3.2209 C   0  0  0  0  0  0  0  0  0  0  0  0
    1.6991   -3.5402    4.3805 C   0  0  0  0  0  0  0  0  0  0  0  0
    1.9909   -4.7622    5.0139 C   0  0  0  0  0  0  0  0  0  0  0  0
    2.9853   -5.6058    4.4838 C   0  0  0  0  0  0  0  0  0  0  0  0
    3.6952   -5.2324    3.3258 C   0  0  0  0  0  0  0  0  0  0  0  0
    4.6505   -6.1071    2.8500 O   0  0  0  0  0  0  0  0  0  0  0  0
    5.5716   -5.6151    1.8761 C   0  0  0  0  0  0  0  0  0  0  0  0
    4.8869   -4.7837    0.7654 C   0  0  1  0  0  0  0  0  0  0  0  0
    3.8143   -5.6725    0.0859 C   0  0  0  0  0  0  0  0  0  0  0  0
    5.9701   -4.2922   -0.2832 C   0  0  1  0  0  0  0  0  0  0  0  0
    5.5302   -4.2396   -1.7943 C   0  0  0  0  0  0  0  0  0  0  0  0
    4.7492   -2.9935   -2.0827 C   0  0  0  0  0  0  0  0  0  0  0  0
    4.7078   -1.9554   -1.2664 C   0  0  0  0  0  0  0  0  0  0  0  0
    3.8345   -0.8387   -1.7728 C   0  0  0  0  0  0  0  0  0  0  0  0
    3.3129   -1.3575   -3.1375 C   0  0  0  0  0  0  0  0  0  0  0  0
    3.9533   -2.7309   -3.2677 C   0  0  0  0  0  0  0  0  0  0  0  0
    3.8280   -3.4399   -4.2629 O   0  0  0  0  0  0  0  0  0  0  0  0
    8.1103   -1.6684   -0.1231 H   0  0  0  0  0  0  0  0  0  0  0  0
    7.5554   -2.3892   -1.6400 H   0  0  0  0  0  0  0  0  0  0  0  0
    8.4880   -3.3400   -0.4777 H   0  0  0  0  0  0  0  0  0  0  0  0
    5.8332   -0.9693    0.3006 H   0  0  0  0  0  0  0  0  0  0  0  0
    3.9488   -1.5214    1.6525 H   0  0  0  0  0  0  0  0  0  0  0  0
    2.1552   -2.2243    2.7451 H   0  0  0  0  0  0  0  0  0  0  0  0
    0.9346   -2.8912    4.7854 H   0  0  0  0  0  0  0  0  0  0  0  0
    1.4612   -5.0523    5.9102 H   0  0  0  0  0  0  0  0  0  0  0  0
    3.2116   -6.5431    4.9722 H   0  0  0  0  0  0  0  0  0  0  0  0
    6.3181   -5.0096    2.3912 H   0  0  0  0  0  0  0  0  0  0  0  0
    6.1047   -6.4663    1.4498 H   0  0  0  0  0  0  0  0  0  0  0  0
    4.2613   -6.5222   -0.4327 H   0  0  0  0  0  0  0  0  0  0  0  0
    3.2344   -5.0888   -0.6309 H   0  0  0  0  0  0  0  0  0  0  0  0
    3.0932   -6.0811    0.7931 H   0  0  0  0  0  0  0  0  0  0  0  0
    6.7912   -5.0046   -0.2258 H   0  0  0  0  0  0  0  0  0  0  0  0
    6.3830   -4.1573   -2.4641 H   0  0  0  0  0  0  0  0  0  0  0  0
    5.0025   -5.1246   -2.1229 H   0  0  0  0  0  0  0  0  0  0  0  0
    3.0185   -0.6918   -1.0638 H   0  0  0  0  0  0  0  0  0  0  0  0
    4.4105    0.0798   -1.8943 H   0  0  0  0  0  0  0  0  0  0  0  0
    2.2261   -1.4530   -3.1580 H   0  0  0  0  0  0  0  0  0  0  0  0
    3.6279   -0.7191   -3.9647 H   0  0  0  0  0  0  0  0  0  0  0  0
  1  2  1  0
  1 24  1  0
  1 25  1  0
  1 26  1  0
  2 16  1  0
  2  3  1  0
  3 19  1  0
  3  4  1  0
  3 27  1  1
  4  5  2  0
  4 28  1  0
  5 14  1  0
  5  6  1  0
  6 11  2  0
  6  7  1  0
  7  8  2  0
  7 29  1  0
  8  9  1  0
  8 30  1  0
  9 10  2  0
  9 31  1  0
 10 11  1  0
 10 32  1  0
 11 12  1  0
 12 13  1  0
 13 14  1  0
 13 33  1  0
 13 34  1  0
 14 15  1  6
 14 16  1  0
 15 35  1  0
 15 36  1  0
 15 37  1  0
 16 17  1  0
 16 38  1  6
 17 18  1  0
 17 39  1  0
 17 40  1  0
 18 22  1  0
 18 19  2  0
 19 20  1  0
 20 21  1  0
 20 41  1  0
 20 42  1  0
 21 22  1  0
 21 43  1  0
 21 44  1  0
 22 23  2  0
M  END
>  <i_m_ct_stereo_status>  (54) 
1

>  <s_m_source_file>  (54) 
/var/tmp/pbs.5076255.sched01/tmpuj7nejrg/06cdl7mjn.sdf

>  <i_m_source_file_index>  (54) 
25

>  <i_lp_mmshare_version>  (54) 
48012

>  <i_f3d_flags>  (54) 
0

>  <s_epik_input>  (54) 
W0NIM11OMVtDQEBIXTJbQ0gyXUMoQyg9TylbQ0gyXVtDSDJdMyk9QzNbQ0hdMVtDSF09QyhbQ0BAXTI0W0NIM10pYzVjKE9bQ0gyXTQpW2NIXVtjSF1bY0hdW2NIXTU=

>  <s_epik_cmdline>  (54) 
J2VwaWtfcHl0aG9uJywgJy1waHQnLCAnMi4wJywgJy1waCcsICc3LjAnLCAnLXRuJywgJzgnLCAnLW1hJywgJzIwMCcsICctaW1hZScsICc8aW5maWxlLm1hZT4nLCAnLW9tYWUnLCAnPG91dGZpbGUubWFlPic=

>  <r_lp_tautomer_probability>  (54) 
0.499977

>  <r_epik_Ionization_Penalty>  (54) 
0.0378448

>  <r_epik_Ionization_Penalty_Charging>  (54) 
0

>  <r_epik_Ionization_Penalty_Neutral>  (54) 
0.0378448

>  <r_epik_State_Penalty>  (54) 
0.369757

>  <r_epik_Charging_Adjusted_Penalty>  (54) 
0.369757

>  <i_epik_Tot_Q>  (54) 
0

>  <i_epik_Tot_abs_Q>  (54) 
0

>  <s_lp_Force_Field>  (54) 
OPLS3e

>  <r_lp_Energy>  (54) 
20.8788

>  <b_lp_Chiralities_Consistent>  (54) 
1

>  <s_lp_Variant>  (54) 
15:0-1

>  <s_i_glide_gridfile>  (54) 
pfpi4k_grid

>  <i_i_glide_lignum>  (54) 
25

>  <i_i_glide_rotatable_bonds>  (54) 
0

>  <r_i_docking_score>  (54) 
-3.21409

>  <r_i_glide_ligand_efficiency>  (54) 
-0.139743

>  <r_i_glide_ligand_efficiency_sa>  (54) 
-0.397411

>  <r_i_glide_ligand_efficiency_ln>  (54) 
-0.777197

>  <r_i_glide_gscore>  (54) 
-3.21409

>  <r_i_glide_lipo>  (54) 
-0.237632

>  <r_i_glide_hbond>  (54) 
-0.131127

>  <r_i_glide_metal>  (54) 
-0

>  <r_i_glide_rewards>  (54) 
-1.50617

>  <r_i_glide_evdw>  (54) 
-20.9227

>  <r_i_glide_ecoul>  (54) 
-1.95356

>  <r_i_glide_erotb>  (54) 
0

>  <r_i_glide_esite>  (54) 
0

>  <r_i_glide_emodel>  (54) 
-27.7302

>  <r_i_glide_energy>  (54) 
-22.8762

>  <r_i_glide_einternal>  (54) 
0

>  <r_i_glide_intrahb_reward>  (54) 
-0

>  <i_i_glide_confnum>  (54) 
2

>  <i_i_glide_posenum>  (54) 
31

>  <r_i_glide_eff_state_penalty>  (54) 
0

>  <ligand_id>  (54) 
15

>  <original_smiles>  (54) 
CN1C2C=C3c4ccccc4OCC3(C)C1CC1=C2CCC1=O

>  <smiles>  (54) 
[H]C1=C2c3c([H])c([H])c([H])c([H])c3OC([H])([H])C2(C([H])([H])[H])C2([H])N(C([H])([H])[H])C1([H])C1=C(C(=O)C([H])([H])C1([H])[H])C2([H])[H]

$$$$
15:1:0
     RDKit          3D

 44 48  0  0  1  0  0  0  0  0999 V2000
    7.6553   -4.2351    0.6278 C   0  0  0  0  0  0  0  0  0  0  0  0
    6.4425   -4.6779    1.3159 N   0  0  0  0  0  0  0  0  0  0  0  0
    5.5907   -5.5897    0.5189 C   0  0  2  0  0  0  0  0  0  0  0  0
    5.0147   -4.7994   -0.6426 C   0  0  0  0  0  0  0  0  0  0  0  0
    4.7037   -3.4947   -0.5352 C   0  0  0  0  0  0  0  0  0  0  0  0
    4.3541   -2.6545   -1.7011 C   0  0  0  0  0  0  0  0  0  0  0  0
    3.8550   -3.1959   -2.9055 C   0  0  0  0  0  0  0  0  0  0  0  0
    3.5228   -2.3748   -3.9953 C   0  0  0  0  0  0  0  0  0  0  0  0
    3.7170   -0.9892   -3.9184 C   0  0  0  0  0  0  0  0  0  0  0  0
    4.2147   -0.4346   -2.7271 C   0  0  0  0  0  0  0  0  0  0  0  0
    4.5342   -1.2570   -1.6207 C   0  0  0  0  0  0  0  0  0  0  0  0
    4.9895   -0.6537   -0.4728 O   0  0  0  0  0  0  0  0  0  0  0  0
    5.6231   -1.4626    0.5070 C   0  0  0  0  0  0  0  0  0  0  0  0
    4.8374   -2.7611    0.8024 C   0  0  1  0  0  0  0  0  0  0  0  0
    3.4188   -2.3581    1.2818 C   0  0  0  0  0  0  0  0  0  0  0  0
    5.6032   -3.6102    1.9065 C   0  0  1  0  0  0  0  0  0  0  0  0
    4.7701   -4.2872    3.0784 C   0  0  0  0  0  0  0  0  0  0  0  0
    4.7141   -5.8122    2.8728 C   0  0  2  0  0  0  0  0  0  0  0  0
    4.4258   -6.1057    1.4061 C   0  0  2  0  0  0  0  0  0  0  0  0
    4.0241   -7.5631    1.4629 C   0  0  0  0  0  0  0  0  0  0  0  0
    3.5629   -7.9071    2.6779 C   0  0  0  0  0  0  0  0  0  0  0  0
    3.7419   -6.7489    3.5637 C   0  0  0  0  0  0  0  0  0  0  0  0
    3.2559   -6.5393    4.6726 O   0  0  0  0  0  0  0  0  0  0  0  0
    8.2612   -5.1015    0.3587 H   0  0  0  0  0  0  0  0  0  0  0  0
    8.2664   -3.6101    1.2841 H   0  0  0  0  0  0  0  0  0  0  0  0
    7.4550   -3.6792   -0.2884 H   0  0  0  0  0  0  0  0  0  0  0  0
    6.2063   -6.4073    0.1522 H   0  0  0  0  0  0  0  0  0  0  0  0
    4.9665   -5.3280   -1.5787 H   0  0  0  0  0  0  0  0  0  0  0  0
    3.6959   -4.2421   -3.0131 H   0  0  0  0  0  0  0  0  0  0  0  0
    3.1129   -2.8233   -4.8829 H   0  0  0  0  0  0  0  0  0  0  0  0
    3.4734   -0.3493   -4.7534 H   0  0  0  0  0  0  0  0  0  0  0  0
    4.3428    0.6332   -2.6702 H   0  0  0  0  0  0  0  0  0  0  0  0
    6.6272   -1.6778    0.1403 H   0  0  0  0  0  0  0  0  0  0  0  0
    5.7490   -0.8645    1.4100 H   0  0  0  0  0  0  0  0  0  0  0  0
    3.4519   -1.8312    2.2368 H   0  0  0  0  0  0  0  0  0  0  0  0
    2.7765   -3.2342    1.3864 H   0  0  0  0  0  0  0  0  0  0  0  0
    2.9109   -1.7048    0.5746 H   0  0  0  0  0  0  0  0  0  0  0  0
    6.2808   -2.9221    2.4137 H   0  0  0  0  0  0  0  0  0  0  0  0
    5.2978   -4.1117    4.0171 H   0  0  0  0  0  0  0  0  0  0  0  0
    3.7813   -3.8677    3.2439 H   0  0  0  0  0  0  0  0  0  0  0  0
    4.0584   -8.2138    0.6028 H   0  0  0  0  0  0  0  0  0  0  0  0
    3.5110   -5.5863    1.1141 H   0  0  0  0  0  0  0  0  0  0  0  0
    3.1915   -8.8689    2.9924 H   0  0  0  0  0  0  0  0  0  0  0  0
    5.6965   -6.2133    3.1266 H   0  0  0  0  0  0  0  0  0  0  0  0
  1  2  1  0
  1 24  1  0
  1 25  1  0
  1 26  1  0
  2 16  1  0
  2  3  1  0
  3  4  1  0
  3 27  1  6
  3 19  1  0
  4  5  2  0
  4 28  1  0
  5 14  1  0
  5  6  1  0
  6 11  2  0
  6  7  1  0
  7  8  2  0
  7 29  1  0
  8  9  1  0
  8 30  1  0
  9 10  2  0
  9 31  1  0
 10 11  1  0
 10 32  1  0
 11 12  1  0
 12 13  1  0
 13 14  1  0
 13 33  1  0
 13 34  1  0
 14 15  1  1
 14 16  1  0
 15 35  1  0
 15 36  1  0
 15 37  1  0
 16 17  1  0
 16 38  1  1
 17 39  1  0
 17 40  1  0
 17 18  1  0
 18 19  1  0
 18 44  1  1
 18 22  1  0
 19 20  1  0
 19 42  1  6
 20 41  1  0
 20 21  2  0
 21 22  1  0
 21 43  1  0
 22 23  2  0
M  END
>  <i_m_ct_stereo_status>  (55) 
1

>  <s_m_source_file>  (55) 
/var/tmp/pbs.5076255.sched01/tmpuj7nejrg/06cdl7mjn.sdf

>  <i_m_source_file_index>  (55) 
26

>  <i_lp_mmshare_version>  (55) 
48012

>  <i_f3d_flags>  (55) 
0

>  <s_epik_input>  (55) 
W0NIM11OMVtDQEBIXTJbQ0gyXUMoQyg9TylbQ0gyXVtDSDJdMyk9QzNbQ0hdMVtDSF09QyhbQ0BAXTI0W0NIM10pYzVjKE9bQ0gyXTQpW2NIXVtjSF1bY0hdW2NIXTU=

>  <s_epik_cmdline>  (55) 
J2VwaWtfcHl0aG9uJywgJy1waHQnLCAnMi4wJywgJy1waCcsICc3LjAnLCAnLXRuJywgJzgnLCAnLW1hJywgJzIwMCcsICctaW1hZScsICc8aW5maWxlLm1hZT4nLCAnLW9tYWUnLCAnPG91dGZpbGUubWFlPic=

>  <r_lp_tautomer_probability>  (55) 
0.499977

>  <r_epik_Ionization_Penalty>  (55) 
0.606118

>  <r_epik_Ionization_Penalty_Charging>  (55) 
0

>  <r_epik_Ionization_Penalty_Neutral>  (55) 
0.606118

>  <r_epik_State_Penalty>  (55) 
0.890747

>  <r_epik_Charging_Adjusted_Penalty>  (55) 
0.890747

>  <i_epik_Tot_Q>  (55) 
0

>  <i_epik_Tot_abs_Q>  (55) 
0

>  <s_lp_Force_Field>  (55) 
OPLS3e

>  <r_lp_Energy>  (55) 
45.7697

>  <b_lp_Chiralities_Consistent>  (55) 
1

>  <s_lp_Variant>  (55) 
15:0-2

>  <s_i_glide_gridfile>  (55) 
pfpi4k_grid

>  <i_i_glide_lignum>  (55) 
26

>  <i_i_glide_rotatable_bonds>  (55) 
0

>  <r_i_docking_score>  (55) 
-3.51938

>  <r_i_glide_ligand_efficiency>  (55) 
-0.153017

>  <r_i_glide_ligand_efficiency_sa>  (55) 
-0.435159

>  <r_i_glide_ligand_efficiency_ln>  (55) 
-0.851019

>  <r_i_glide_gscore>  (55) 
-3.51938

>  <r_i_glide_lipo>  (55) 
-0.946908

>  <r_i_glide_hbond>  (55) 
0

>  <r_i_glide_metal>  (55) 
-0

>  <r_i_glide_rewards>  (55) 
-1.31328

>  <r_i_glide_evdw>  (55) 
-22.8774

>  <r_i_glide_ecoul>  (55) 
-0.76886

>  <r_i_glide_erotb>  (55) 
0

>  <r_i_glide_esite>  (55) 
0

>  <r_i_glide_emodel>  (55) 
-29.535

>  <r_i_glide_energy>  (55) 
-23.6463

>  <r_i_glide_einternal>  (55) 
0

>  <r_i_glide_intrahb_reward>  (55) 
-0

>  <i_i_glide_confnum>  (55) 
2

>  <i_i_glide_posenum>  (55) 
38

>  <r_i_glide_eff_state_penalty>  (55) 
0

>  <ligand_id>  (55) 
15

>  <original_smiles>  (55) 
CN1C2C=C3c4ccccc4OCC3(C)C1CC1=C2CCC1=O

>  <smiles>  (55) 
[H]C1=C([H])C2([H])C3([H])C([H])=C4c5c([H])c([H])c([H])c([H])c5OC([H])([H])C4(C([H])([H])[H])C([H])(N3C([H])([H])[H])C([H])([H])C2([H])C1=O

$$$$
15:1:1
     RDKit          3D

 44 48  0  0  1  0  0  0  0  0999 V2000
    6.3268   -1.0347    1.1088 C   0  0  0  0  0  0  0  0  0  0  0  0
    5.6220   -1.7417    0.0464 N   0  0  0  0  0  0  0  0  0  0  0  0
    4.3428   -1.1080   -0.3476 C   0  0  2  0  0  0  0  0  0  0  0  0
    3.3774   -1.2277    0.8174 C   0  0  0  0  0  0  0  0  0  0  0  0
    3.3794   -2.2947    1.6427 C   0  0  0  0  0  0  0  0  0  0  0  0
    2.5851   -2.3479    2.8896 C   0  0  0  0  0  0  0  0  0  0  0  0
    1.4352   -1.5492    3.0935 C   0  0  0  0  0  0  0  0  0  0  0  0
    0.7242   -1.6047    4.3077 C   0  0  0  0  0  0  0  0  0  0  0  0
    1.1524   -2.4658    5.3349 C   0  0  0  0  0  0  0  0  0  0  0  0
    2.2868   -3.2727    5.1409 C   0  0  0  0  0  0  0  0  0  0  0  0
    3.0042   -3.2188    3.9314 C   0  0  0  0  0  0  0  0  0  0  0  0
    4.0968   -4.0488    3.8042 O   0  0  0  0  0  0  0  0  0  0  0  0
    5.0168   -3.7663    2.7532 C   0  0  0  0  0  0  0  0  0  0  0  0
    4.3217   -3.4819    1.3974 C   0  0  1  0  0  0  0  0  0  0  0  0
    3.4632   -4.7233    1.0385 C   0  0  0  0  0  0  0  0  0  0  0  0
    5.4164   -3.1912    0.2758 C   0  0  1  0  0  0  0  0  0  0  0  0
    5.2301   -3.8451   -1.1594 C   0  0  0  0  0  0  0  0  0  0  0  0
    4.8212   -2.7755   -2.1858 C   0  0  2  0  0  0  0  0  0  0  0  0
    3.7633   -1.8715   -1.5692 C   0  0  2  0  0  0  0  0  0  0  0  0
    3.2341   -1.1606   -2.7908 C   0  0  0  0  0  0  0  0  0  0  0  0
    3.4396   -1.8733   -3.9080 C   0  0  0  0  0  0  0  0  0  0  0  0
    4.2378   -3.0512   -3.5548 C   0  0  0  0  0  0  0  0  0  0  0  0
    4.5009   -4.0310   -4.2497 O   0  0  0  0  0  0  0  0  0  0  0  0
    6.5280   -0.0185    0.7696 H   0  0  0  0  0  0  0  0  0  0  0  0
    7.2904   -1.5064    1.3141 H   0  0  0  0  0  0  0  0  0  0  0  0
    5.7613   -0.9645    2.0404 H   0  0  0  0  0  0  0  0  0  0  0  0
    4.5198   -0.0579   -0.5805 H   0  0  0  0  0  0  0  0  0  0  0  0
    2.7311   -0.3807    0.9751 H   0  0  0  0  0  0  0  0  0  0  0  0
    1.0789   -0.8887    2.3172 H   0  0  0  0  0  0  0  0  0  0  0  0
   -0.1485   -0.9852    4.4518 H   0  0  0  0  0  0  0  0  0  0  0  0
    0.6183   -2.5045    6.2713 H   0  0  0  0  0  0  0  0  0  0  0  0
    2.6186   -3.9347    5.9291 H   0  0  0  0  0  0  0  0  0  0  0  0
    5.6182   -2.9142    3.0706 H   0  0  0  0  0  0  0  0  0  0  0  0
    5.7049   -4.6075    2.6659 H   0  0  0  0  0  0  0  0  0  0  0  0
    4.0834   -5.5994    0.8495 H   0  0  0  0  0  0  0  0  0  0  0  0
    2.8469   -4.5383    0.1582 H   0  0  0  0  0  0  0  0  0  0  0  0
    2.7712   -4.9936    1.8346 H   0  0  0  0  0  0  0  0  0  0  0  0
    6.3631   -3.5867    0.6437 H   0  0  0  0  0  0  0  0  0  0  0  0
    6.1959   -4.2335   -1.4772 H   0  0  0  0  0  0  0  0  0  0  0  0
    4.5676   -4.7065   -1.2004 H   0  0  0  0  0  0  0  0  0  0  0  0
    2.6811   -0.2366   -2.7351 H   0  0  0  0  0  0  0  0  0  0  0  0
    2.9254   -2.4870   -1.2330 H   0  0  0  0  0  0  0  0  0  0  0  0
    3.1248   -1.6165   -4.9060 H   0  0  0  0  0  0  0  0  0  0  0  0
    5.7082   -2.1767   -2.3990 H   0  0  0  0  0  0  0  0  0  0  0  0
  1  2  1  0
  1 24  1  0
  1 25  1  0
  1 26  1  0
  2 16  1  0
  2  3  1  0
  3  4  1  0
  3 27  1  6
  3 19  1  0
  4  5  2  0
  4 28  1  0
  5 14  1  0
  5  6  1  0
  6 11  2  0
  6  7  1  0
  7  8  2  0
  7 29  1  0
  8  9  1  0
  8 30  1  0
  9 10  2  0
  9 31  1  0
 10 11  1  0
 10 32  1  0
 11 12  1  0
 12 13  1  0
 13 14  1  0
 13 33  1  0
 13 34  1  0
 14 15  1  6
 14 16  1  0
 15 35  1  0
 15 36  1  0
 15 37  1  0
 16 17  1  0
 16 38  1  1
 17 39  1  0
 17 40  1  0
 17 18  1  0
 18 19  1  0
 18 44  1  6
 18 22  1  0
 19 20  1  0
 19 42  1  1
 20 41  1  0
 20 21  2  0
 21 22  1  0
 21 43  1  0
 22 23  2  0
M  END
>  <i_m_ct_stereo_status>  (56) 
1

>  <s_m_source_file>  (56) 
/var/tmp/pbs.5076255.sched01/tmpuj7nejrg/06cdl7mjn.sdf

>  <i_m_source_file_index>  (56) 
26

>  <i_lp_mmshare_version>  (56) 
48012

>  <i_f3d_flags>  (56) 
0

>  <s_epik_input>  (56) 
W0NIM11OMVtDQEBIXTJbQ0gyXUMoQyg9TylbQ0gyXVtDSDJdMyk9QzNbQ0hdMVtDSF09QyhbQ0BAXTI0W0NIM10pYzVjKE9bQ0gyXTQpW2NIXVtjSF1bY0hdW2NIXTU=

>  <s_epik_cmdline>  (56) 
J2VwaWtfcHl0aG9uJywgJy1waHQnLCAnMi4wJywgJy1waCcsICc3LjAnLCAnLXRuJywgJzgnLCAnLW1hJywgJzIwMCcsICctaW1hZScsICc8aW5maWxlLm1hZT4nLCAnLW9tYWUnLCAnPG91dGZpbGUubWFlPic=

>  <r_lp_tautomer_probability>  (56) 
0.499977

>  <r_epik_Ionization_Penalty>  (56) 
0.606118

>  <r_epik_Ionization_Penalty_Charging>  (56) 
0

>  <r_epik_Ionization_Penalty_Neutral>  (56) 
0.606118

>  <r_epik_State_Penalty>  (56) 
0.890747

>  <r_epik_Charging_Adjusted_Penalty>  (56) 
0.890747

>  <i_epik_Tot_Q>  (56) 
0

>  <i_epik_Tot_abs_Q>  (56) 
0

>  <s_lp_Force_Field>  (56) 
OPLS3e

>  <r_lp_Energy>  (56) 
45.7697

>  <b_lp_Chiralities_Consistent>  (56) 
1

>  <s_lp_Variant>  (56) 
15:0-2

>  <s_i_glide_gridfile>  (56) 
pfpi4k_grid

>  <i_i_glide_lignum>  (56) 
26

>  <i_i_glide_rotatable_bonds>  (56) 
0

>  <r_i_docking_score>  (56) 
-3.45647

>  <r_i_glide_ligand_efficiency>  (56) 
-0.150281

>  <r_i_glide_ligand_efficiency_sa>  (56) 
-0.42738

>  <r_i_glide_ligand_efficiency_ln>  (56) 
-0.835806

>  <r_i_glide_gscore>  (56) 
-3.45647

>  <r_i_glide_lipo>  (56) 
-0.372526

>  <r_i_glide_hbond>  (56) 
0

>  <r_i_glide_metal>  (56) 
-0

>  <r_i_glide_rewards>  (56) 
-1.58324

>  <r_i_glide_evdw>  (56) 
-24.8107

>  <r_i_glide_ecoul>  (56) 
-1.7345

>  <r_i_glide_erotb>  (56) 
0

>  <r_i_glide_esite>  (56) 
0

>  <r_i_glide_emodel>  (56) 
-32.3422

>  <r_i_glide_energy>  (56) 
-26.5452

>  <r_i_glide_einternal>  (56) 
0

>  <r_i_glide_intrahb_reward>  (56) 
-0

>  <i_i_glide_confnum>  (56) 
2

>  <i_i_glide_posenum>  (56) 
29

>  <r_i_glide_eff_state_penalty>  (56) 
0

>  <ligand_id>  (56) 
15

>  <original_smiles>  (56) 
CN1C2C=C3c4ccccc4OCC3(C)C1CC1=C2CCC1=O

>  <smiles>  (56) 
[H]C1=C([H])C2([H])C3([H])C([H])=C4c5c([H])c([H])c([H])c([H])c5OC([H])([H])C4(C([H])([H])[H])C([H])(N3C([H])([H])[H])C([H])([H])C2([H])C1=O

$$$$
15:1:2
     RDKit          3D

 44 48  0  0  1  0  0  0  0  0999 V2000
    5.8086   -4.9405    1.5798 C   0  0  0  0  0  0  0  0  0  0  0  0
    4.5437   -4.6835    2.2679 N   0  0  0  0  0  0  0  0  0  0  0  0
    3.3590   -5.2776    1.6081 C   0  0  2  0  0  0  0  0  0  0  0  0
    3.1445   -4.5536    0.2894 C   0  0  0  0  0  0  0  0  0  0  0  0
    3.4332   -3.2433    0.1379 C   0  0  0  0  0  0  0  0  0  0  0  0
    3.4363   -2.5670   -1.1789 C   0  0  0  0  0  0  0  0  0  0  0  0
    2.7016   -3.0592   -2.2809 C   0  0  0  0  0  0  0  0  0  0  0  0
    2.7485   -2.4129   -3.5289 C   0  0  0  0  0  0  0  0  0  0  0  0
    3.5180   -1.2486   -3.6915 C   0  0  0  0  0  0  0  0  0  0  0  0
    4.2358   -0.7370   -2.5985 C   0  0  0  0  0  0  0  0  0  0  0  0
    4.2105   -1.3893   -1.3503 C   0  0  0  0  0  0  0  0  0  0  0  0
    4.9321   -0.8255   -0.3196 O   0  0  0  0  0  0  0  0  0  0  0  0
    5.1722   -1.6331    0.8293 C   0  0  0  0  0  0  0  0  0  0  0  0
    3.9142   -2.3952    1.3237 C   0  0  1  0  0  0  0  0  0  0  0  0
    2.8206   -1.3431    1.6443 C   0  0  0  0  0  0  0  0  0  0  0  0
    4.2786   -3.2660    2.6085 C   0  0  1  0  0  0  0  0  0  0  0  0
    3.2654   -3.2847    3.8338 C   0  0  0  0  0  0  0  0  0  0  0  0
    2.5445   -4.6464    3.9185 C   0  0  2  0  0  0  0  0  0  0  0  0
    2.1168   -5.0614    2.5170 C   0  0  2  0  0  0  0  0  0  0  0  0
    1.1276   -6.1671    2.8189 C   0  0  0  0  0  0  0  0  0  0  0  0
    0.6073   -6.0384    4.0521 C   0  0  0  0  0  0  0  0  0  0  0  0
    1.2886   -4.9216    4.7205 C   0  0  0  0  0  0  0  0  0  0  0  0
    0.9591   -4.3226    5.7429 O   0  0  0  0  0  0  0  0  0  0  0  0
    5.9770   -6.0182    1.5082 H   0  0  0  0  0  0  0  0  0  0  0  0
    6.6483   -4.5218    2.1399 H   0  0  0  0  0  0  0  0  0  0  0  0
    5.8373   -4.5371    0.5662 H   0  0  0  0  0  0  0  0  0  0  0  0
    3.5459   -6.3394    1.4330 H   0  0  0  0  0  0  0  0  0  0  0  0
    2.8369   -5.1670   -0.5388 H   0  0  0  0  0  0  0  0  0  0  0  0
    2.0824   -3.9323   -2.1896 H   0  0  0  0  0  0  0  0  0  0  0  0
    2.1748   -2.8112   -4.3521 H   0  0  0  0  0  0  0  0  0  0  0  0
    3.5485   -0.7434   -4.6464 H   0  0  0  0  0  0  0  0  0  0  0  0
    4.8139    0.1678   -2.7128 H   0  0  0  0  0  0  0  0  0  0  0  0
    5.9717   -2.3265    0.5700 H   0  0  0  0  0  0  0  0  0  0  0  0
    5.5701   -0.9939    1.6182 H   0  0  0  0  0  0  0  0  0  0  0  0
    3.1058   -0.7111    2.4839 H   0  0  0  0  0  0  0  0  0  0  0  0
    1.8666   -1.8199    1.8706 H   0  0  0  0  0  0  0  0  0  0  0  0
    2.6233   -0.6787    0.8022 H   0  0  0  0  0  0  0  0  0  0  0  0
    5.2041   -2.8608    3.0161 H   0  0  0  0  0  0  0  0  0  0  0  0
    3.8426   -3.1734    4.7521 H   0  0  0  0  0  0  0  0  0  0  0  0
    2.5583   -2.4582    3.8675 H   0  0  0  0  0  0  0  0  0  0  0  0
    0.8514   -6.9221    2.0971 H   0  0  0  0  0  0  0  0  0  0  0  0
    1.5150   -4.2551    2.0947 H   0  0  0  0  0  0  0  0  0  0  0  0
   -0.1353   -6.6656    4.5229 H   0  0  0  0  0  0  0  0  0  0  0  0
    3.2697   -5.3723    4.2923 H   0  0  0  0  0  0  0  0  0  0  0  0
  1  2  1  0
  1 24  1  0
  1 25  1  0
  1 26  1  0
  2 16  1  0
  2  3  1  0
  3  4  1  0
  3 27  1  6
  3 19  1  0
  4  5  2  0
  4 28  1  0
  5 14  1  0
  5  6  1  0
  6 11  2  0
  6  7  1  0
  7  8  2  0
  7 29  1  0
  8  9  1  0
  8 30  1  0
  9 10  2  0
  9 31  1  0
 10 11  1  0
 10 32  1  0
 11 12  1  0
 12 13  1  0
 13 14  1  0
 13 33  1  0
 13 34  1  0
 14 15  1  1
 14 16  1  0
 15 35  1  0
 15 36  1  0
 15 37  1  0
 16 17  1  0
 16 38  1  1
 17 39  1  0
 17 40  1  0
 17 18  1  0
 18 19  1  0
 18 44  1  1
 18 22  1  0
 19 20  1  0
 19 42  1  6
 20 41  1  0
 20 21  2  0
 21 22  1  0
 21 43  1  0
 22 23  2  0
M  END
>  <i_m_ct_stereo_status>  (57) 
1

>  <s_m_source_file>  (57) 
/var/tmp/pbs.5076255.sched01/tmpuj7nejrg/06cdl7mjn.sdf

>  <i_m_source_file_index>  (57) 
26

>  <i_lp_mmshare_version>  (57) 
48012

>  <i_f3d_flags>  (57) 
0

>  <s_epik_input>  (57) 
W0NIM11OMVtDQEBIXTJbQ0gyXUMoQyg9TylbQ0gyXVtDSDJdMyk9QzNbQ0hdMVtDSF09QyhbQ0BAXTI0W0NIM10pYzVjKE9bQ0gyXTQpW2NIXVtjSF1bY0hdW2NIXTU=

>  <s_epik_cmdline>  (57) 
J2VwaWtfcHl0aG9uJywgJy1waHQnLCAnMi4wJywgJy1waCcsICc3LjAnLCAnLXRuJywgJzgnLCAnLW1hJywgJzIwMCcsICctaW1hZScsICc8aW5maWxlLm1hZT4nLCAnLW9tYWUnLCAnPG91dGZpbGUubWFlPic=

>  <r_lp_tautomer_probability>  (57) 
0.499977

>  <r_epik_Ionization_Penalty>  (57) 
0.606118

>  <r_epik_Ionization_Penalty_Charging>  (57) 
0

>  <r_epik_Ionization_Penalty_Neutral>  (57) 
0.606118

>  <r_epik_State_Penalty>  (57) 
0.890747

>  <r_epik_Charging_Adjusted_Penalty>  (57) 
0.890747

>  <i_epik_Tot_Q>  (57) 
0

>  <i_epik_Tot_abs_Q>  (57) 
0

>  <s_lp_Force_Field>  (57) 
OPLS3e

>  <r_lp_Energy>  (57) 
45.7697

>  <b_lp_Chiralities_Consistent>  (57) 
1

>  <s_lp_Variant>  (57) 
15:0-2

>  <s_i_glide_gridfile>  (57) 
pfpi4k_grid

>  <i_i_glide_lignum>  (57) 
26

>  <i_i_glide_rotatable_bonds>  (57) 
0

>  <r_i_docking_score>  (57) 
-3.35535

>  <r_i_glide_ligand_efficiency>  (57) 
-0.145885

>  <r_i_glide_ligand_efficiency_sa>  (57) 
-0.414877

>  <r_i_glide_ligand_efficiency_ln>  (57) 
-0.811354

>  <r_i_glide_gscore>  (57) 
-3.35535

>  <r_i_glide_lipo>  (57) 
-0.645617

>  <r_i_glide_hbond>  (57) 
0

>  <r_i_glide_metal>  (57) 
-0

>  <r_i_glide_rewards>  (57) 
-1.31328

>  <r_i_glide_evdw>  (57) 
-24.0562

>  <r_i_glide_ecoul>  (57) 
-1.28368

>  <r_i_glide_erotb>  (57) 
0

>  <r_i_glide_esite>  (57) 
-0.00109589

>  <r_i_glide_emodel>  (57) 
-30.9712

>  <r_i_glide_energy>  (57) 
-25.3399

>  <r_i_glide_einternal>  (57) 
0

>  <r_i_glide_intrahb_reward>  (57) 
-0

>  <i_i_glide_confnum>  (57) 
1

>  <i_i_glide_posenum>  (57) 
36

>  <r_i_glide_eff_state_penalty>  (57) 
0

>  <ligand_id>  (57) 
15

>  <original_smiles>  (57) 
CN1C2C=C3c4ccccc4OCC3(C)C1CC1=C2CCC1=O

>  <smiles>  (57) 
[H]C1=C([H])C2([H])C3([H])C([H])=C4c5c([H])c([H])c([H])c([H])c5OC([H])([H])C4(C([H])([H])[H])C([H])(N3C([H])([H])[H])C([H])([H])C2([H])C1=O

$$$$
15:2:0
     RDKit          3D

 44 48  0  0  1  0  0  0  0  0999 V2000
    6.4796   -0.7051    0.7847 C   0  0  0  0  0  0  0  0  0  0  0  0
    5.7303   -1.4393   -0.2269 N   0  0  0  0  0  0  0  0  0  0  0  0
    4.3477   -0.9563   -0.3473 C   0  0  2  0  0  0  0  0  0  0  0  0
    3.5045   -1.3470    0.8518 C   0  0  0  0  0  0  0  0  0  0  0  0
    3.7547   -2.4347    1.6021 C   0  0  0  0  0  0  0  0  0  0  0  0
    3.0892   -2.6974    2.8938 C   0  0  0  0  0  0  0  0  0  0  0  0
    1.8120   -2.1787    3.2103 C   0  0  0  0  0  0  0  0  0  0  0  0
    1.2276   -2.4232    4.4653 C   0  0  0  0  0  0  0  0  0  0  0  0
    1.9124   -3.1908    5.4218 C   0  0  0  0  0  0  0  0  0  0  0  0
    3.1818   -3.7171    5.1181 C   0  0  0  0  0  0  0  0  0  0  0  0
    3.7735   -3.4718    3.8651 C   0  0  0  0  0  0  0  0  0  0  0  0
    5.0123   -4.0318    3.6202 O   0  0  0  0  0  0  0  0  0  0  0  0
    5.7442   -3.5617    2.4840 C   0  0  0  0  0  0  0  0  0  0  0  0
    4.8684   -3.4077    1.2180 C   0  0  1  0  0  0  0  0  0  0  0  0
    4.2616   -4.8028    0.9086 C   0  0  0  0  0  0  0  0  0  0  0  0
    5.7309   -2.8911   -0.0105 C   0  0  1  0  0  0  0  0  0  0  0  0
    5.3801   -3.4426   -1.4194 C   0  0  0  0  0  0  0  0  0  0  0  0
    4.0199   -2.9555   -2.0006 C   0  0  1  0  0  0  0  0  0  0  0  0
    3.6947   -1.4824   -1.6426 C   0  0  2  0  0  0  0  0  0  0  0  0
    4.0272   -0.7075   -2.8955 C   0  0  0  0  0  0  0  0  0  0  0  0
    4.2067   -1.4926   -3.9513 C   0  0  0  0  0  0  0  0  0  0  0  0
    4.1086   -2.8817   -3.5247 C   0  0  0  0  0  0  0  0  0  0  0  0
    4.1808   -3.8590   -4.2620 O   0  0  0  0  0  0  0  0  0  0  0  0
    6.5544    0.3336    0.4720 H   0  0  0  0  0  0  0  0  0  0  0  0
    7.4950   -1.0969    0.8782 H   0  0  0  0  0  0  0  0  0  0  0  0
    6.0054   -0.7046    1.7668 H   0  0  0  0  0  0  0  0  0  0  0  0
    4.3636    0.1335   -0.3685 H   0  0  0  0  0  0  0  0  0  0  0  0
    2.7389   -0.6371    1.1184 H   0  0  0  0  0  0  0  0  0  0  0  0
    1.2669   -1.5943    2.4844 H   0  0  0  0  0  0  0  0  0  0  0  0
    0.2486   -2.0203    4.6934 H   0  0  0  0  0  0  0  0  0  0  0  0
    1.4743   -3.3717    6.3925 H   0  0  0  0  0  0  0  0  0  0  0  0
    3.7093   -4.3069    5.8547 H   0  0  0  0  0  0  0  0  0  0  0  0
    6.1926   -2.6094    2.7593 H   0  0  0  0  0  0  0  0  0  0  0  0
    6.5689   -4.2504    2.2900 H   0  0  0  0  0  0  0  0  0  0  0  0
    5.0358   -5.5201    0.6303 H   0  0  0  0  0  0  0  0  0  0  0  0
    3.5298   -4.7620    0.1028 H   0  0  0  0  0  0  0  0  0  0  0  0
    3.7354   -5.2249    1.7646 H   0  0  0  0  0  0  0  0  0  0  0  0
    6.7597   -3.1971    0.1775 H   0  0  0  0  0  0  0  0  0  0  0  0
    6.1918   -3.1391   -2.0886 H   0  0  0  0  0  0  0  0  0  0  0  0
    5.4221   -4.5292   -1.4330 H   0  0  0  0  0  0  0  0  0  0  0  0
    4.0225    0.3708   -2.9347 H   0  0  0  0  0  0  0  0  0  0  0  0
    2.6139   -1.3904   -1.5545 H   0  0  0  0  0  0  0  0  0  0  0  0
    4.3832   -1.1764   -4.9674 H   0  0  0  0  0  0  0  0  0  0  0  0
    3.2090   -3.6189   -1.6847 H   0  0  0  0  0  0  0  0  0  0  0  0
  1  2  1  0
  1 24  1  0
  1 25  1  0
  1 26  1  0
  2 16  1  0
  2  3  1  0
  3  4  1  0
  3 27  1  6
  3 19  1  0
  4  5  2  0
  4 28  1  0
  5 14  1  0
  5  6  1  0
  6 11  2  0
  6  7  1  0
  7  8  2  0
  7 29  1  0
  8  9  1  0
  8 30  1  0
  9 10  2  0
  9 31  1  0
 10 11  1  0
 10 32  1  0
 11 12  1  0
 12 13  1  0
 13 14  1  0
 13 33  1  0
 13 34  1  0
 14 15  1  6
 14 16  1  0
 15 35  1  0
 15 36  1  0
 15 37  1  0
 16 17  1  0
 16 38  1  1
 17 39  1  0
 17 40  1  0
 17 18  1  0
 18 19  1  0
 18 44  1  6
 18 22  1  0
 19 20  1  0
 19 42  1  1
 20 41  1  0
 20 21  2  0
 21 22  1  0
 21 43  1  0
 22 23  2  0
M  END
>  <i_m_ct_stereo_status>  (58) 
1

>  <s_m_source_file>  (58) 
/var/tmp/pbs.5076255.sched01/tmpuj7nejrg/06cdl7mjn.sdf

>  <i_m_source_file_index>  (58) 
27

>  <i_lp_mmshare_version>  (58) 
48012

>  <i_f3d_flags>  (58) 
0

>  <s_epik_input>  (58) 
W0NIM11OMVtDQEBIXTJbQ0gyXUMoQyg9TylbQ0gyXVtDSDJdMyk9QzNbQ0hdMVtDSF09QyhbQ0BAXTI0W0NIM10pYzVjKE9bQ0gyXTQpW2NIXVtjSF1bY0hdW2NIXTU=

>  <s_epik_cmdline>  (58) 
J2VwaWtfcHl0aG9uJywgJy1waHQnLCAnMi4wJywgJy1waCcsICc3LjAnLCAnLXRuJywgJzgnLCAnLW1hJywgJzIwMCcsICctaW1hZScsICc8aW5maWxlLm1hZT4nLCAnLW9tYWUnLCAnPG91dGZpbGUubWFlPic=

>  <r_lp_tautomer_probability>  (58) 
0.499977

>  <r_epik_Ionization_Penalty>  (58) 
0.606118

>  <r_epik_Ionization_Penalty_Charging>  (58) 
0

>  <r_epik_Ionization_Penalty_Neutral>  (58) 
0.606118

>  <r_epik_State_Penalty>  (58) 
0.890747

>  <r_epik_Charging_Adjusted_Penalty>  (58) 
0.890747

>  <i_epik_Tot_Q>  (58) 
0

>  <i_epik_Tot_abs_Q>  (58) 
0

>  <s_lp_Force_Field>  (58) 
OPLS3e

>  <r_lp_Energy>  (58) 
31.0476

>  <b_lp_Chiralities_Consistent>  (58) 
1

>  <s_lp_Variant>  (58) 
15:0-3

>  <s_i_glide_gridfile>  (58) 
pfpi4k_grid

>  <i_i_glide_lignum>  (58) 
27

>  <i_i_glide_rotatable_bonds>  (58) 
0

>  <r_i_docking_score>  (58) 
-3.5926

>  <r_i_glide_ligand_efficiency>  (58) 
-0.1562

>  <r_i_glide_ligand_efficiency_sa>  (58) 
-0.444212

>  <r_i_glide_ligand_efficiency_ln>  (58) 
-0.868723

>  <r_i_glide_gscore>  (58) 
-3.5926

>  <r_i_glide_lipo>  (58) 
-0.395427

>  <r_i_glide_hbond>  (58) 
-0.0272362

>  <r_i_glide_metal>  (58) 
-0

>  <r_i_glide_rewards>  (58) 
-1.57837

>  <r_i_glide_evdw>  (58) 
-24.386

>  <r_i_glide_ecoul>  (58) 
-2.48178

>  <r_i_glide_erotb>  (58) 
0

>  <r_i_glide_esite>  (58) 
0

>  <r_i_glide_emodel>  (58) 
-32.8308

>  <r_i_glide_energy>  (58) 
-26.8678

>  <r_i_glide_einternal>  (58) 
0

>  <r_i_glide_intrahb_reward>  (58) 
-0

>  <i_i_glide_confnum>  (58) 
1

>  <i_i_glide_posenum>  (58) 
1

>  <r_i_glide_eff_state_penalty>  (58) 
0

>  <ligand_id>  (58) 
15

>  <original_smiles>  (58) 
CN1C2C=C3c4ccccc4OCC3(C)C1CC1=C2CCC1=O

>  <smiles>  (58) 
[H]C1=C([H])C2([H])C3([H])C([H])=C4c5c([H])c([H])c([H])c([H])c5OC([H])([H])C4(C([H])([H])[H])C([H])(N3C([H])([H])[H])C([H])([H])C2([H])C1=O

$$$$
15:2:1
     RDKit          3D

 44 48  0  0  1  0  0  0  0  0999 V2000
    6.6191   -4.5970    1.2173 C   0  0  0  0  0  0  0  0  0  0  0  0
    5.3725   -4.4856    1.9742 N   0  0  0  0  0  0  0  0  0  0  0  0
    4.2610   -5.2104    1.3427 C   0  0  2  0  0  0  0  0  0  0  0  0
    3.7793   -4.4975    0.0885 C   0  0  0  0  0  0  0  0  0  0  0  0
    3.8965   -3.1697   -0.0935 C   0  0  0  0  0  0  0  0  0  0  0  0
    3.6545   -2.5112   -1.3928 C   0  0  0  0  0  0  0  0  0  0  0  0
    2.7899   -3.0569   -2.3668 C   0  0  0  0  0  0  0  0  0  0  0  0
    2.6161   -2.4259   -3.6116 C   0  0  0  0  0  0  0  0  0  0  0  0
    3.2893   -1.2245   -3.8916 C   0  0  0  0  0  0  0  0  0  0  0  0
    4.1270   -0.6552   -2.9174 C   0  0  0  0  0  0  0  0  0  0  0  0
    4.3286   -1.2966   -1.6797 C   0  0  0  0  0  0  0  0  0  0  0  0
    5.1647   -0.6865   -0.7659 O   0  0  0  0  0  0  0  0  0  0  0  0
    5.5858   -1.4530    0.3623 C   0  0  0  0  0  0  0  0  0  0  0  0
    4.4401   -2.2712    1.0114 C   0  0  1  0  0  0  0  0  0  0  0  0
    3.3397   -1.2640    1.4489 C   0  0  0  0  0  0  0  0  0  0  0  0
    4.9683   -3.1017    2.2560 C   0  0  1  0  0  0  0  0  0  0  0  0
    4.0180   -3.2645    3.4732 C   0  0  0  0  0  0  0  0  0  0  0  0
    2.7781   -4.1740    3.2289 C   0  0  1  0  0  0  0  0  0  0  0  0
    3.0868   -5.4002    2.3296 C   0  0  2  0  0  0  0  0  0  0  0  0
    3.2111   -6.5476    3.3069 C   0  0  0  0  0  0  0  0  0  0  0  0
    2.7649   -6.2540    4.5315 C   0  0  0  0  0  0  0  0  0  0  0  0
    2.3644   -4.8523    4.5350 C   0  0  0  0  0  0  0  0  0  0  0  0
    1.7932   -4.2510    5.4415 O   0  0  0  0  0  0  0  0  0  0  0  0
    6.9452   -5.6378    1.2009 H   0  0  0  0  0  0  0  0  0  0  0  0
    7.4149   -4.0202    1.6909 H   0  0  0  0  0  0  0  0  0  0  0  0
    6.5258   -4.2650    0.1833 H   0  0  0  0  0  0  0  0  0  0  0  0
    4.6237   -6.1912    1.0337 H   0  0  0  0  0  0  0  0  0  0  0  0
    3.4308   -5.1352   -0.7055 H   0  0  0  0  0  0  0  0  0  0  0  0
    2.2365   -3.9573   -2.1747 H   0  0  0  0  0  0  0  0  0  0  0  0
    1.9404   -2.8613   -4.3329 H   0  0  0  0  0  0  0  0  0  0  0  0
    3.1393   -0.7254   -4.8396 H   0  0  0  0  0  0  0  0  0  0  0  0
    4.6047    0.2936   -3.1145 H   0  0  0  0  0  0  0  0  0  0  0  0
    6.3865   -2.1053    0.0178 H   0  0  0  0  0  0  0  0  0  0  0  0
    6.0340   -0.7734    1.0878 H   0  0  0  0  0  0  0  0  0  0  0  0
    3.6925   -0.6045    2.2418 H   0  0  0  0  0  0  0  0  0  0  0  0
    2.4396   -1.7673    1.7988 H   0  0  0  0  0  0  0  0  0  0  0  0
    3.0114   -0.6238    0.6294 H   0  0  0  0  0  0  0  0  0  0  0  0
    5.8392   -2.5740    2.6422 H   0  0  0  0  0  0  0  0  0  0  0  0
    4.6185   -3.6801    4.2869 H   0  0  0  0  0  0  0  0  0  0  0  0
    3.7002   -2.2952    3.8574 H   0  0  0  0  0  0  0  0  0  0  0  0
    3.5558   -7.5244    3.0009 H   0  0  0  0  0  0  0  0  0  0  0  0
    2.1952   -5.6313    1.7460 H   0  0  0  0  0  0  0  0  0  0  0  0
    2.6938   -6.9188    5.3823 H   0  0  0  0  0  0  0  0  0  0  0  0
    1.9455   -3.5996    2.8243 H   0  0  0  0  0  0  0  0  0  0  0  0
  1  2  1  0
  1 24  1  0
  1 25  1  0
  1 26  1  0
  2 16  1  0
  2  3  1  0
  3  4  1  0
  3 27  1  6
  3 19  1  0
  4  5  2  0
  4 28  1  0
  5 14  1  0
  5  6  1  0
  6 11  2  0
  6  7  1  0
  7  8  2  0
  7 29  1  0
  8  9  1  0
  8 30  1  0
  9 10  2  0
  9 31  1  0
 10 11  1  0
 10 32  1  0
 11 12  1  0
 12 13  1  0
 13 14  1  0
 13 33  1  0
 13 34  1  0
 14 15  1  1
 14 16  1  0
 15 35  1  0
 15 36  1  0
 15 37  1  0
 16 17  1  0
 16 38  1  1
 17 39  1  0
 17 40  1  0
 17 18  1  0
 18 19  1  0
 18 44  1  6
 18 22  1  0
 19 20  1  0
 19 42  1  6
 20 41  1  0
 20 21  2  0
 21 22  1  0
 21 43  1  0
 22 23  2  0
M  END
>  <i_m_ct_stereo_status>  (59) 
1

>  <s_m_source_file>  (59) 
/var/tmp/pbs.5076255.sched01/tmpuj7nejrg/06cdl7mjn.sdf

>  <i_m_source_file_index>  (59) 
27

>  <i_lp_mmshare_version>  (59) 
48012

>  <i_f3d_flags>  (59) 
0

>  <s_epik_input>  (59) 
W0NIM11OMVtDQEBIXTJbQ0gyXUMoQyg9TylbQ0gyXVtDSDJdMyk9QzNbQ0hdMVtDSF09QyhbQ0BAXTI0W0NIM10pYzVjKE9bQ0gyXTQpW2NIXVtjSF1bY0hdW2NIXTU=

>  <s_epik_cmdline>  (59) 
J2VwaWtfcHl0aG9uJywgJy1waHQnLCAnMi4wJywgJy1waCcsICc3LjAnLCAnLXRuJywgJzgnLCAnLW1hJywgJzIwMCcsICctaW1hZScsICc8aW5maWxlLm1hZT4nLCAnLW9tYWUnLCAnPG91dGZpbGUubWFlPic=

>  <r_lp_tautomer_probability>  (59) 
0.499977

>  <r_epik_Ionization_Penalty>  (59) 
0.606118

>  <r_epik_Ionization_Penalty_Charging>  (59) 
0

>  <r_epik_Ionization_Penalty_Neutral>  (59) 
0.606118

>  <r_epik_State_Penalty>  (59) 
0.890747

>  <r_epik_Charging_Adjusted_Penalty>  (59) 
0.890747

>  <i_epik_Tot_Q>  (59) 
0

>  <i_epik_Tot_abs_Q>  (59) 
0

>  <s_lp_Force_Field>  (59) 
OPLS3e

>  <r_lp_Energy>  (59) 
31.0476

>  <b_lp_Chiralities_Consistent>  (59) 
1

>  <s_lp_Variant>  (59) 
15:0-3

>  <s_i_glide_gridfile>  (59) 
pfpi4k_grid

>  <i_i_glide_lignum>  (59) 
27

>  <i_i_glide_rotatable_bonds>  (59) 
0

>  <r_i_docking_score>  (59) 
-3.53739

>  <r_i_glide_ligand_efficiency>  (59) 
-0.1538

>  <r_i_glide_ligand_efficiency_sa>  (59) 
-0.437386

>  <r_i_glide_ligand_efficiency_ln>  (59) 
-0.855374

>  <r_i_glide_gscore>  (59) 
-3.53739

>  <r_i_glide_lipo>  (59) 
-0.839097

>  <r_i_glide_hbond>  (59) 
0

>  <r_i_glide_metal>  (59) 
-0

>  <r_i_glide_rewards>  (59) 
-1.31328

>  <r_i_glide_evdw>  (59) 
-23.1407

>  <r_i_glide_ecoul>  (59) 
-1.51991

>  <r_i_glide_erotb>  (59) 
0

>  <r_i_glide_esite>  (59) 
0

>  <r_i_glide_emodel>  (59) 
-30.5344

>  <r_i_glide_energy>  (59) 
-24.6606

>  <r_i_glide_einternal>  (59) 
0

>  <r_i_glide_intrahb_reward>  (59) 
-0

>  <i_i_glide_confnum>  (59) 
1

>  <i_i_glide_posenum>  (59) 
15

>  <r_i_glide_eff_state_penalty>  (59) 
0

>  <ligand_id>  (59) 
15

>  <original_smiles>  (59) 
CN1C2C=C3c4ccccc4OCC3(C)C1CC1=C2CCC1=O

>  <smiles>  (59) 
[H]C1=C([H])C2([H])C3([H])C([H])=C4c5c([H])c([H])c([H])c([H])c5OC([H])([H])C4(C([H])([H])[H])C([H])(N3C([H])([H])[H])C([H])([H])C2([H])C1=O

$$$$
15:2:2
     RDKit          3D

 44 48  0  0  1  0  0  0  0  0999 V2000
    5.7672   -4.9267    1.8351 C   0  0  0  0  0  0  0  0  0  0  0  0
    4.4353   -4.6961    2.3930 N   0  0  0  0  0  0  0  0  0  0  0  0
    3.3714   -5.3189    1.5942 C   0  0  2  0  0  0  0  0  0  0  0  0
    3.1511   -4.5709    0.2878 C   0  0  0  0  0  0  0  0  0  0  0  0
    3.4168   -3.2606    0.1360 C   0  0  0  0  0  0  0  0  0  0  0  0
    3.4321   -2.5879   -1.1799 C   0  0  0  0  0  0  0  0  0  0  0  0
    2.6804   -3.0579   -2.2792 C   0  0  0  0  0  0  0  0  0  0  0  0
    2.7518   -2.4158   -3.5288 C   0  0  0  0  0  0  0  0  0  0  0  0
    3.5660   -1.2817   -3.6933 C   0  0  0  0  0  0  0  0  0  0  0  0
    4.3045   -0.7955   -2.6014 C   0  0  0  0  0  0  0  0  0  0  0  0
    4.2524   -1.4430   -1.3511 C   0  0  0  0  0  0  0  0  0  0  0  0
    4.9964   -0.9081   -0.3189 O   0  0  0  0  0  0  0  0  0  0  0  0
    5.1712   -1.7045    0.8534 C   0  0  0  0  0  0  0  0  0  0  0  0
    3.8703   -2.4102    1.3167 C   0  0  1  0  0  0  0  0  0  0  0  0
    2.8139   -1.3039    1.5942 C   0  0  0  0  0  0  0  0  0  0  0  0
    4.1255   -3.2788    2.6212 C   0  0  1  0  0  0  0  0  0  0  0  0
    2.9908   -3.3448    3.6807 C   0  0  0  0  0  0  0  0  0  0  0  0
    1.7238   -4.1407    3.2492 C   0  0  1  0  0  0  0  0  0  0  0  0
    2.0493   -5.3929    2.3918 C   0  0  2  0  0  0  0  0  0  0  0  0
    1.9180   -6.5424    3.3670 C   0  0  0  0  0  0  0  0  0  0  0  0
    1.3203   -6.2012    4.5120 C   0  0  0  0  0  0  0  0  0  0  0  0
    1.0545   -4.7677    4.4717 C   0  0  0  0  0  0  0  0  0  0  0  0
    0.4022   -4.1136    5.2829 O   0  0  0  0  0  0  0  0  0  0  0  0
    5.9944   -5.9938    1.8561 H   0  0  0  0  0  0  0  0  0  0  0  0
    6.5271   -4.4259    2.4382 H   0  0  0  0  0  0  0  0  0  0  0  0
    5.8656   -4.5907    0.8021 H   0  0  0  0  0  0  0  0  0  0  0  0
    3.6850   -6.3304    1.3358 H   0  0  0  0  0  0  0  0  0  0  0  0
    2.8649   -5.1793   -0.5524 H   0  0  0  0  0  0  0  0  0  0  0  0
    2.0329   -3.9101   -2.1838 H   0  0  0  0  0  0  0  0  0  0  0  0
    2.1639   -2.7950   -4.3505 H   0  0  0  0  0  0  0  0  0  0  0  0
    3.6156   -0.7812   -4.6501 H   0  0  0  0  0  0  0  0  0  0  0  0
    4.9179    0.0852   -2.7179 H   0  0  0  0  0  0  0  0  0  0  0  0
    5.9514   -2.4299    0.6300 H   0  0  0  0  0  0  0  0  0  0  0  0
    5.5654   -1.0673    1.6458 H   0  0  0  0  0  0  0  0  0  0  0  0
    3.1022   -0.6756    2.4367 H   0  0  0  0  0  0  0  0  0  0  0  0
    1.8278   -1.7195    1.7987 H   0  0  0  0  0  0  0  0  0  0  0  0
    2.6733   -0.6394    0.7409 H   0  0  0  0  0  0  0  0  0  0  0  0
    4.9748   -2.8336    3.1392 H   0  0  0  0  0  0  0  0  0  0  0  0
    3.4206   -3.8106    4.5712 H   0  0  0  0  0  0  0  0  0  0  0  0
    2.7090   -2.3480    4.0196 H   0  0  0  0  0  0  0  0  0  0  0  0
    2.2133   -7.5483    3.1075 H   0  0  0  0  0  0  0  0  0  0  0  0
    1.2410   -5.5491    1.6782 H   0  0  0  0  0  0  0  0  0  0  0  0
    1.0622   -6.8512    5.3357 H   0  0  0  0  0  0  0  0  0  0  0  0
    1.0202   -3.4897    2.7325 H   0  0  0  0  0  0  0  0  0  0  0  0
  1  2  1  0
  1 24  1  0
  1 25  1  0
  1 26  1  0
  2 16  1  0
  2  3  1  0
  3  4  1  0
  3 27  1  6
  3 19  1  0
  4  5  2  0
  4 28  1  0
  5 14  1  0
  5  6  1  0
  6 11  2  0
  6  7  1  0
  7  8  2  0
  7 29  1  0
  8  9  1  0
  8 30  1  0
  9 10  2  0
  9 31  1  0
 10 11  1  0
 10 32  1  0
 11 12  1  0
 12 13  1  0
 13 14  1  0
 13 33  1  0
 13 34  1  0
 14 15  1  1
 14 16  1  0
 15 35  1  0
 15 36  1  0
 15 37  1  0
 16 17  1  0
 16 38  1  1
 17 39  1  0
 17 40  1  0
 17 18  1  0
 18 19  1  0
 18 44  1  6
 18 22  1  0
 19 20  1  0
 19 42  1  6
 20 41  1  0
 20 21  2  0
 21 22  1  0
 21 43  1  0
 22 23  2  0
M  END
>  <i_m_ct_stereo_status>  (60) 
1

>  <s_m_source_file>  (60) 
/var/tmp/pbs.5076255.sched01/tmpuj7nejrg/06cdl7mjn.sdf

>  <i_m_source_file_index>  (60) 
27

>  <i_lp_mmshare_version>  (60) 
48012

>  <i_f3d_flags>  (60) 
0

>  <s_epik_input>  (60) 
W0NIM11OMVtDQEBIXTJbQ0gyXUMoQyg9TylbQ0gyXVtDSDJdMyk9QzNbQ0hdMVtDSF09QyhbQ0BAXTI0W0NIM10pYzVjKE9bQ0gyXTQpW2NIXVtjSF1bY0hdW2NIXTU=

>  <s_epik_cmdline>  (60) 
J2VwaWtfcHl0aG9uJywgJy1waHQnLCAnMi4wJywgJy1waCcsICc3LjAnLCAnLXRuJywgJzgnLCAnLW1hJywgJzIwMCcsICctaW1hZScsICc8aW5maWxlLm1hZT4nLCAnLW9tYWUnLCAnPG91dGZpbGUubWFlPic=

>  <r_lp_tautomer_probability>  (60) 
0.499977

>  <r_epik_Ionization_Penalty>  (60) 
0.606118

>  <r_epik_Ionization_Penalty_Charging>  (60) 
0

>  <r_epik_Ionization_Penalty_Neutral>  (60) 
0.606118

>  <r_epik_State_Penalty>  (60) 
0.890747

>  <r_epik_Charging_Adjusted_Penalty>  (60) 
0.890747

>  <i_epik_Tot_Q>  (60) 
0

>  <i_epik_Tot_abs_Q>  (60) 
0

>  <s_lp_Force_Field>  (60) 
OPLS3e

>  <r_lp_Energy>  (60) 
31.0476

>  <b_lp_Chiralities_Consistent>  (60) 
1

>  <s_lp_Variant>  (60) 
15:0-3

>  <s_i_glide_gridfile>  (60) 
pfpi4k_grid

>  <i_i_glide_lignum>  (60) 
27

>  <i_i_glide_rotatable_bonds>  (60) 
0

>  <r_i_docking_score>  (60) 
-3.29534

>  <r_i_glide_ligand_efficiency>  (60) 
-0.143276

>  <r_i_glide_ligand_efficiency_sa>  (60) 
-0.407457

>  <r_i_glide_ligand_efficiency_ln>  (60) 
-0.796843

>  <r_i_glide_gscore>  (60) 
-3.29534

>  <r_i_glide_lipo>  (60) 
-0.587591

>  <r_i_glide_hbond>  (60) 
0

>  <r_i_glide_metal>  (60) 
-0

>  <r_i_glide_rewards>  (60) 
-1.31328

>  <r_i_glide_evdw>  (60) 
-24.1289

>  <r_i_glide_ecoul>  (60) 
-1.24322

>  <r_i_glide_erotb>  (60) 
0

>  <r_i_glide_esite>  (60) 
-0.00154448

>  <r_i_glide_emodel>  (60) 
-30.8428

>  <r_i_glide_energy>  (60) 
-25.3721

>  <r_i_glide_einternal>  (60) 
0

>  <r_i_glide_intrahb_reward>  (60) 
-0

>  <i_i_glide_confnum>  (60) 
1

>  <i_i_glide_posenum>  (60) 
2

>  <r_i_glide_eff_state_penalty>  (60) 
0

>  <ligand_id>  (60) 
15

>  <original_smiles>  (60) 
CN1C2C=C3c4ccccc4OCC3(C)C1CC1=C2CCC1=O

>  <smiles>  (60) 
[H]C1=C([H])C2([H])C3([H])C([H])=C4c5c([H])c([H])c([H])c([H])c5OC([H])([H])C4(C([H])([H])[H])C([H])(N3C([H])([H])[H])C([H])([H])C2([H])C1=O

$$$$
15:3:0
     RDKit          3D

 45 49  0  0  1  0  0  0  0  0999 V2000
    7.1030   -5.5257    1.9460 C   0  0  0  0  0  0  0  0  0  0  0  0
    5.9838   -4.7406    1.3483 N   0  0  1  0  0  0  0  0  0  0  0  0
    4.7372   -5.4875    0.9754 C   0  0  2  0  0  0  0  0  0  0  0  0
    4.2159   -4.6600   -0.1846 C   0  0  0  0  0  0  0  0  0  0  0  0
    4.2827   -3.3116   -0.2142 C   0  0  0  0  0  0  0  0  0  0  0  0
    3.9354   -2.5277   -1.4234 C   0  0  0  0  0  0  0  0  0  0  0  0
    3.0497   -3.0106   -2.4179 C   0  0  0  0  0  0  0  0  0  0  0  0
    2.7694   -2.2556   -3.5699 C   0  0  0  0  0  0  0  0  0  0  0  0
    3.3565   -0.9888   -3.7360 C   0  0  0  0  0  0  0  0  0  0  0  0
    4.2135   -0.4859   -2.7455 C   0  0  0  0  0  0  0  0  0  0  0  0
    4.5188   -1.2476   -1.5981 C   0  0  0  0  0  0  0  0  0  0  0  0
    5.3572   -0.6887   -0.6630 O   0  0  0  0  0  0  0  0  0  0  0  0
    5.9210   -1.5577    0.3136 C   0  0  0  0  0  0  0  0  0  0  0  0
    4.8854   -2.5141    0.9572 C   0  0  1  0  0  0  0  0  0  0  0  0
    3.7689   -1.6612    1.6073 C   0  0  0  0  0  0  0  0  0  0  0  0
    5.6286   -3.4467    2.0149 C   0  0  1  0  0  0  0  0  0  0  0  0
    4.9252   -3.7247    3.4065 C   0  0  0  0  0  0  0  0  0  0  0  0
    4.3184   -5.1404    3.4349 C   0  0  2  0  0  0  0  0  0  0  0  0
    3.6688   -5.4671    2.1062 C   0  0  2  0  0  0  0  0  0  0  0  0
    2.8257   -6.6733    2.4702 C   0  0  0  0  0  0  0  0  0  0  0  0
    2.5400   -6.7011    3.7825 C   0  0  0  0  0  0  0  0  0  0  0  0
    3.2626   -5.5977    4.4231 C   0  0  0  0  0  0  0  0  0  0  0  0
    3.1198   -5.1350    5.5510 O   0  0  0  0  0  0  0  0  0  0  0  0
    6.9843   -5.7394    3.0050 H   0  0  0  0  0  0  0  0  0  0  0  0
    8.0345   -4.9688    1.8458 H   0  0  0  0  0  0  0  0  0  0  0  0
    7.2353   -6.4744    1.4228 H   0  0  0  0  0  0  0  0  0  0  0  0
    4.9786   -6.4968    0.6354 H   0  0  0  0  0  0  0  0  0  0  0  0
    3.8541   -5.2033   -1.0311 H   0  0  0  0  0  0  0  0  0  0  0  0
    2.5450   -3.9516   -2.3011 H   0  0  0  0  0  0  0  0  0  0  0  0
    2.0796   -2.6312   -4.3109 H   0  0  0  0  0  0  0  0  0  0  0  0
    3.1210   -0.3902   -4.6064 H   0  0  0  0  0  0  0  0  0  0  0  0
    4.6201    0.5043   -2.8554 H   0  0  0  0  0  0  0  0  0  0  0  0
    6.7150   -2.1281   -0.1756 H   0  0  0  0  0  0  0  0  0  0  0  0
    6.4027   -0.9391    1.0729 H   0  0  0  0  0  0  0  0  0  0  0  0
    4.1521   -1.0509    2.4261 H   0  0  0  0  0  0  0  0  0  0  0  0
    2.9534   -2.2816    1.9844 H   0  0  0  0  0  0  0  0  0  0  0  0
    3.3112   -0.9764    0.8921 H   0  0  0  0  0  0  0  0  0  0  0  0
    6.5708   -2.9507    2.2430 H   0  0  0  0  0  0  0  0  0  0  0  0
    5.6860   -3.6955    4.1884 H   0  0  0  0  0  0  0  0  0  0  0  0
    4.2055   -2.9672    3.7066 H   0  0  0  0  0  0  0  0  0  0  0  0
    2.4605   -7.3809    1.7384 H   0  0  0  0  0  0  0  0  0  0  0  0
    2.9340   -4.6950    1.8748 H   0  0  0  0  0  0  0  0  0  0  0  0
    1.9407   -7.4291    4.3159 H   0  0  0  0  0  0  0  0  0  0  0  0
    5.1109   -5.8584    3.6203 H   0  0  0  0  0  0  0  0  0  0  0  0
    6.3656   -4.4715    0.4506 H   0  0  0  0  0  0  0  0  0  0  0  0
  1  2  1  0
  1 24  1  0
  1 25  1  0
  1 26  1  0
  2 16  1  0
  2  3  1  0
  2 45  1  6
  3  4  1  0
  3 27  1  6
  3 19  1  0
  4  5  2  0
  4 28  1  0
  5 14  1  0
  5  6  1  0
  6 11  2  0
  6  7  1  0
  7  8  2  0
  7 29  1  0
  8  9  1  0
  8 30  1  0
  9 10  2  0
  9 31  1  0
 10 11  1  0
 10 32  1  0
 11 12  1  0
 12 13  1  0
 13 14  1  0
 13 33  1  0
 13 34  1  0
 14 15  1  1
 14 16  1  0
 15 35  1  0
 15 36  1  0
 15 37  1  0
 16 17  1  0
 16 38  1  1
 17 39  1  0
 17 40  1  0
 17 18  1  0
 18 19  1  0
 18 44  1  1
 18 22  1  0
 19 20  1  0
 19 42  1  6
 20 41  1  0
 20 21  2  0
 21 22  1  0
 21 43  1  0
 22 23  2  0
M  CHG  1   2   1
M  END
>  <i_m_ct_stereo_status>  (61) 
1

>  <s_m_source_file>  (61) 
/var/tmp/pbs.5076255.sched01/tmpuj7nejrg/06cdl7mjn.sdf

>  <i_m_source_file_index>  (61) 
28

>  <i_lp_mmshare_version>  (61) 
48012

>  <i_f3d_flags>  (61) 
0

>  <s_epik_input>  (61) 
W0NIM11OMVtDQEBIXTJbQ0gyXUMoQyg9TylbQ0gyXVtDSDJdMyk9QzNbQ0hdMVtDSF09QyhbQ0BAXTI0W0NIM10pYzVjKE9bQ0gyXTQpW2NIXVtjSF1bY0hdW2NIXTU=

>  <s_epik_cmdline>  (61) 
J2VwaWtfcHl0aG9uJywgJy1waHQnLCAnMi4wJywgJy1waCcsICc3LjAnLCAnLXRuJywgJzgnLCAnLW1hJywgJzIwMCcsICctaW1hZScsICc8aW5maWxlLm1hZT4nLCAnLW9tYWUnLCAnPG91dGZpbGUubWFlPic=

>  <r_lp_tautomer_probability>  (61) 
0.499977

>  <r_epik_Ionization_Penalty>  (61) 
0.263967

>  <r_epik_Ionization_Penalty_Charging>  (61) 
0.263967

>  <r_epik_Ionization_Penalty_Neutral>  (61) 
0

>  <r_epik_State_Penalty>  (61) 
1.04664

>  <r_epik_Charging_Adjusted_Penalty>  (61) 
1.3106

>  <i_epik_Tot_Q>  (61) 
1

>  <i_epik_Tot_abs_Q>  (61) 
1

>  <s_lp_Force_Field>  (61) 
OPLS3e

>  <r_lp_Energy>  (61) 
54.1101

>  <b_lp_Chiralities_Consistent>  (61) 
1

>  <s_lp_Variant>  (61) 
15:0-4

>  <s_i_glide_gridfile>  (61) 
pfpi4k_grid

>  <i_i_glide_lignum>  (61) 
28

>  <i_i_glide_rotatable_bonds>  (61) 
0

>  <r_i_docking_score>  (61) 
-3.74554

>  <r_i_glide_ligand_efficiency>  (61) 
-0.162849

>  <r_i_glide_ligand_efficiency_sa>  (61) 
-0.463122

>  <r_i_glide_ligand_efficiency_ln>  (61) 
-0.905705

>  <r_i_glide_gscore>  (61) 
-3.74554

>  <r_i_glide_lipo>  (61) 
-0.943503

>  <r_i_glide_hbond>  (61) 
0

>  <r_i_glide_metal>  (61) 
-0

>  <r_i_glide_rewards>  (61) 
-1.3064

>  <r_i_glide_evdw>  (61) 
-20.409

>  <r_i_glide_ecoul>  (61) 
-3.16788

>  <r_i_glide_erotb>  (61) 
0

>  <r_i_glide_esite>  (61) 
0

>  <r_i_glide_emodel>  (61) 
-31.2155

>  <r_i_glide_energy>  (61) 
-23.5768

>  <r_i_glide_einternal>  (61) 
0

>  <r_i_glide_intrahb_reward>  (61) 
-0

>  <i_i_glide_confnum>  (61) 
1

>  <i_i_glide_posenum>  (61) 
16

>  <r_i_glide_eff_state_penalty>  (61) 
0

>  <ligand_id>  (61) 
15

>  <original_smiles>  (61) 
CN1C2C=C3c4ccccc4OCC3(C)C1CC1=C2CCC1=O

>  <smiles>  (61) 
[H]C1=C([H])C2([H])C([H])(C1=O)C([H])([H])C1([H])C3(C([H])([H])[H])C(=C([H])C2([H])[N+]1([H])C([H])([H])[H])c1c([H])c([H])c([H])c([H])c1OC3([H])[H]

$$$$
15:3:1
     RDKit          3D

 45 49  0  0  1  0  0  0  0  0999 V2000
    7.6189   -5.3617    1.7613 C   0  0  0  0  0  0  0  0  0  0  0  0
    6.4252   -4.7387    1.1175 N   0  0  1  0  0  0  0  0  0  0  0  0
    5.3901   -5.6622    0.5433 C   0  0  2  0  0  0  0  0  0  0  0  0
    4.8245   -4.8307   -0.5936 C   0  0  0  0  0  0  0  0  0  0  0  0
    4.6276   -3.4972   -0.4926 C   0  0  0  0  0  0  0  0  0  0  0  0
    4.2386   -2.6551   -1.6529 C   0  0  0  0  0  0  0  0  0  0  0  0
    3.5773   -3.1742   -2.7876 C   0  0  0  0  0  0  0  0  0  0  0  0
    3.2316   -2.3617   -3.8807 C   0  0  0  0  0  0  0  0  0  0  0  0
    3.5605   -0.9977   -3.8596 C   0  0  0  0  0  0  0  0  0  0  0  0
    4.2175   -0.4628   -2.7391 C   0  0  0  0  0  0  0  0  0  0  0  0
    4.5601   -1.2749   -1.6365 C   0  0  0  0  0  0  0  0  0  0  0  0
    5.1842   -0.6770   -0.5663 O   0  0  0  0  0  0  0  0  0  0  0  0
    5.8190   -1.5311    0.3798 C   0  0  0  0  0  0  0  0  0  0  0  0
    4.9434   -2.7352    0.8103 C   0  0  1  0  0  0  0  0  0  0  0  0
    3.6230   -2.1889    1.4075 C   0  0  0  0  0  0  0  0  0  0  0  0
    5.7573   -3.6203    1.8568 C   0  0  1  0  0  0  0  0  0  0  0  0
    4.9999   -4.1815    3.1282 C   0  0  0  0  0  0  0  0  0  0  0  0
    4.6884   -5.6815    2.9588 C   0  0  2  0  0  0  0  0  0  0  0  0
    4.2418   -5.9732    1.5419 C   0  0  2  0  0  0  0  0  0  0  0  0
    3.6322   -7.3526    1.6965 C   0  0  0  0  0  0  0  0  0  0  0  0
    3.2381   -7.5830    2.9609 C   0  0  0  0  0  0  0  0  0  0  0  0
    3.6615   -6.4405    3.7746 C   0  0  0  0  0  0  0  0  0  0  0  0
    3.3252   -6.1431    4.9183 O   0  0  0  0  0  0  0  0  0  0  0  0
    7.4503   -5.7109    2.7765 H   0  0  0  0  0  0  0  0  0  0  0  0
    8.4268   -4.6324    1.8185 H   0  0  0  0  0  0  0  0  0  0  0  0
    7.9879   -6.2037    1.1725 H   0  0  0  0  0  0  0  0  0  0  0  0
    5.8540   -6.5641    0.1472 H   0  0  0  0  0  0  0  0  0  0  0  0
    4.6496   -5.3629   -1.5139 H   0  0  0  0  0  0  0  0  0  0  0  0
    3.3014   -4.2083   -2.8401 H   0  0  0  0  0  0  0  0  0  0  0  0
    2.7044   -2.7901   -4.7189 H   0  0  0  0  0  0  0  0  0  0  0  0
    3.3004   -0.3621   -4.6948 H   0  0  0  0  0  0  0  0  0  0  0  0
    4.4560    0.5865   -2.7192 H   0  0  0  0  0  0  0  0  0  0  0  0
    6.7528   -1.8802   -0.0692 H   0  0  0  0  0  0  0  0  0  0  0  0
    6.0956   -0.9215    1.2412 H   0  0  0  0  0  0  0  0  0  0  0  0
    3.7983   -1.6128    2.3167 H   0  0  0  0  0  0  0  0  0  0  0  0
    2.9170   -2.9900    1.6331 H   0  0  0  0  0  0  0  0  0  0  0  0
    3.1039   -1.5258    0.7138 H   0  0  0  0  0  0  0  0  0  0  0  0
    6.5554   -2.9834    2.2346 H   0  0  0  0  0  0  0  0  0  0  0  0
    5.6642   -4.0977    3.9909 H   0  0  0  0  0  0  0  0  0  0  0  0
    4.1181   -3.6137    3.4146 H   0  0  0  0  0  0  0  0  0  0  0  0
    3.4838   -8.0299    0.8690 H   0  0  0  0  0  0  0  0  0  0  0  0
    3.3903   -5.3364    1.2993 H   0  0  0  0  0  0  0  0  0  0  0  0
    2.7493   -8.4657    3.3524 H   0  0  0  0  0  0  0  0  0  0  0  0
    5.5891   -6.2516    3.1631 H   0  0  0  0  0  0  0  0  0  0  0  0
    6.8267   -4.3029    0.2990 H   0  0  0  0  0  0  0  0  0  0  0  0
  1  2  1  0
  1 24  1  0
  1 25  1  0
  1 26  1  0
  2 16  1  0
  2  3  1  0
  2 45  1  6
  3  4  1  0
  3 27  1  6
  3 19  1  0
  4  5  2  0
  4 28  1  0
  5 14  1  0
  5  6  1  0
  6 11  2  0
  6  7  1  0
  7  8  2  0
  7 29  1  0
  8  9  1  0
  8 30  1  0
  9 10  2  0
  9 31  1  0
 10 11  1  0
 10 32  1  0
 11 12  1  0
 12 13  1  0
 13 14  1  0
 13 33  1  0
 13 34  1  0
 14 15  1  1
 14 16  1  0
 15 35  1  0
 15 36  1  0
 15 37  1  0
 16 17  1  0
 16 38  1  1
 17 39  1  0
 17 40  1  0
 17 18  1  0
 18 19  1  0
 18 44  1  6
 18 22  1  0
 19 20  1  0
 19 42  1  6
 20 41  1  0
 20 21  2  0
 21 22  1  0
 21 43  1  0
 22 23  2  0
M  CHG  1   2   1
M  END
>  <i_m_ct_stereo_status>  (62) 
1

>  <s_m_source_file>  (62) 
/var/tmp/pbs.5076255.sched01/tmpuj7nejrg/06cdl7mjn.sdf

>  <i_m_source_file_index>  (62) 
28

>  <i_lp_mmshare_version>  (62) 
48012

>  <i_f3d_flags>  (62) 
0

>  <s_epik_input>  (62) 
W0NIM11OMVtDQEBIXTJbQ0gyXUMoQyg9TylbQ0gyXVtDSDJdMyk9QzNbQ0hdMVtDSF09QyhbQ0BAXTI0W0NIM10pYzVjKE9bQ0gyXTQpW2NIXVtjSF1bY0hdW2NIXTU=

>  <s_epik_cmdline>  (62) 
J2VwaWtfcHl0aG9uJywgJy1waHQnLCAnMi4wJywgJy1waCcsICc3LjAnLCAnLXRuJywgJzgnLCAnLW1hJywgJzIwMCcsICctaW1hZScsICc8aW5maWxlLm1hZT4nLCAnLW9tYWUnLCAnPG91dGZpbGUubWFlPic=

>  <r_lp_tautomer_probability>  (62) 
0.499977

>  <r_epik_Ionization_Penalty>  (62) 
0.263967

>  <r_epik_Ionization_Penalty_Charging>  (62) 
0.263967

>  <r_epik_Ionization_Penalty_Neutral>  (62) 
0

>  <r_epik_State_Penalty>  (62) 
1.04664

>  <r_epik_Charging_Adjusted_Penalty>  (62) 
1.3106

>  <i_epik_Tot_Q>  (62) 
1

>  <i_epik_Tot_abs_Q>  (62) 
1

>  <s_lp_Force_Field>  (62) 
OPLS3e

>  <r_lp_Energy>  (62) 
54.1101

>  <b_lp_Chiralities_Consistent>  (62) 
1

>  <s_lp_Variant>  (62) 
15:0-4

>  <s_i_glide_gridfile>  (62) 
pfpi4k_grid

>  <i_i_glide_lignum>  (62) 
28

>  <i_i_glide_rotatable_bonds>  (62) 
0

>  <r_i_docking_score>  (62) 
-3.72833

>  <r_i_glide_ligand_efficiency>  (62) 
-0.162101

>  <r_i_glide_ligand_efficiency_sa>  (62) 
-0.460994

>  <r_i_glide_ligand_efficiency_ln>  (62) 
-0.901543

>  <r_i_glide_gscore>  (62) 
-3.72833

>  <r_i_glide_lipo>  (62) 
-0.957442

>  <r_i_glide_hbond>  (62) 
0

>  <r_i_glide_metal>  (62) 
-0

>  <r_i_glide_rewards>  (62) 
-1.3064

>  <r_i_glide_evdw>  (62) 
-20.1982

>  <r_i_glide_ecoul>  (62) 
-3.03047

>  <r_i_glide_erotb>  (62) 
0

>  <r_i_glide_esite>  (62) 
0

>  <r_i_glide_emodel>  (62) 
-30.8386

>  <r_i_glide_energy>  (62) 
-23.2287

>  <r_i_glide_einternal>  (62) 
0

>  <r_i_glide_intrahb_reward>  (62) 
-0

>  <i_i_glide_confnum>  (62) 
1

>  <i_i_glide_posenum>  (62) 
13

>  <r_i_glide_eff_state_penalty>  (62) 
0

>  <ligand_id>  (62) 
15

>  <original_smiles>  (62) 
CN1C2C=C3c4ccccc4OCC3(C)C1CC1=C2CCC1=O

>  <smiles>  (62) 
[H]C1=C([H])C2([H])C([H])(C1=O)C([H])([H])C1([H])C3(C([H])([H])[H])C(=C([H])C2([H])[N+]1([H])C([H])([H])[H])c1c([H])c([H])c([H])c([H])c1OC3([H])[H]

$$$$
15:3:2
     RDKit          3D

 45 49  0  0  1  0  0  0  0  0999 V2000
    5.6100   -5.6811    2.8256 C   0  0  0  0  0  0  0  0  0  0  0  0
    4.7184   -4.8168    1.9988 N   0  0  1  0  0  0  0  0  0  0  0  0
    3.4495   -5.4294    1.4784 C   0  0  2  0  0  0  0  0  0  0  0  0
    3.2240   -4.6563    0.1902 C   0  0  0  0  0  0  0  0  0  0  0  0
    3.4918   -3.3335    0.0831 C   0  0  0  0  0  0  0  0  0  0  0  0
    3.4492   -2.6125   -1.2104 C   0  0  0  0  0  0  0  0  0  0  0  0
    2.6647   -3.0571   -2.3005 C   0  0  0  0  0  0  0  0  0  0  0  0
    2.6690   -2.3744   -3.5248 C   0  0  0  0  0  0  0  0  0  0  0  0
    3.4464   -1.2153   -3.6852 C   0  0  0  0  0  0  0  0  0  0  0  0
    4.2138   -0.7453   -2.6064 C   0  0  0  0  0  0  0  0  0  0  0  0
    4.2278   -1.4360   -1.3772 C   0  0  0  0  0  0  0  0  0  0  0  0
    4.9887   -0.9124   -0.3571 O   0  0  0  0  0  0  0  0  0  0  0  0
    5.2636   -1.7583    0.7544 C   0  0  0  0  0  0  0  0  0  0  0  0
    4.0184   -2.5171    1.2825 C   0  0  1  0  0  0  0  0  0  0  0  0
    2.9470   -1.4713    1.6839 C   0  0  0  0  0  0  0  0  0  0  0  0
    4.4523   -3.4352    2.5122 C   0  0  1  0  0  0  0  0  0  0  0  0
    3.5106   -3.4942    3.7837 C   0  0  0  0  0  0  0  0  0  0  0  0
    2.7145   -4.8139    3.8134 C   0  0  2  0  0  0  0  0  0  0  0  0
    2.2382   -5.1717    2.4205 C   0  0  2  0  0  0  0  0  0  0  0  0
    1.1853   -6.2228    2.7198 C   0  0  0  0  0  0  0  0  0  0  0  0
    0.6999   -6.0951    3.9664 C   0  0  0  0  0  0  0  0  0  0  0  0
    1.4628   -5.0402    4.6399 C   0  0  0  0  0  0  0  0  0  0  0  0
    1.2088   -4.4593    5.6934 O   0  0  0  0  0  0  0  0  0  0  0  0
    5.3030   -5.7816    3.8626 H   0  0  0  0  0  0  0  0  0  0  0  0
    6.6141   -5.2584    2.8402 H   0  0  0  0  0  0  0  0  0  0  0  0
    5.6854   -6.6813    2.3967 H   0  0  0  0  0  0  0  0  0  0  0  0
    3.5975   -6.4881    1.2563 H   0  0  0  0  0  0  0  0  0  0  0  0
    2.9047   -5.2349   -0.6603 H   0  0  0  0  0  0  0  0  0  0  0  0
    2.0397   -3.9318   -2.2129 H   0  0  0  0  0  0  0  0  0  0  0  0
    2.0549   -2.7404   -4.3329 H   0  0  0  0  0  0  0  0  0  0  0  0
    3.4401   -0.6804   -4.6238 H   0  0  0  0  0  0  0  0  0  0  0  0
    4.7941    0.1564   -2.7172 H   0  0  0  0  0  0  0  0  0  0  0  0
    6.0363   -2.4658    0.4437 H   0  0  0  0  0  0  0  0  0  0  0  0
    5.7042   -1.1422    1.5405 H   0  0  0  0  0  0  0  0  0  0  0  0
    3.2825   -0.8438    2.5111 H   0  0  0  0  0  0  0  0  0  0  0  0
    2.0025   -1.9431    1.9639 H   0  0  0  0  0  0  0  0  0  0  0  0
    2.7041   -0.7982    0.8599 H   0  0  0  0  0  0  0  0  0  0  0  0
    5.4054   -3.0461    2.8734 H   0  0  0  0  0  0  0  0  0  0  0  0
    4.1403   -3.4910    4.6757 H   0  0  0  0  0  0  0  0  0  0  0  0
    2.8675   -2.6265    3.9115 H   0  0  0  0  0  0  0  0  0  0  0  0
    0.8468   -6.9457    1.9896 H   0  0  0  0  0  0  0  0  0  0  0  0
    1.6713   -4.3273    2.0305 H   0  0  0  0  0  0  0  0  0  0  0  0
   -0.0670   -6.6919    4.4456 H   0  0  0  0  0  0  0  0  0  0  0  0
    3.3615   -5.6067    4.1747 H   0  0  0  0  0  0  0  0  0  0  0  0
    5.2673   -4.6789    1.1620 H   0  0  0  0  0  0  0  0  0  0  0  0
  1  2  1  0
  1 24  1  0
  1 25  1  0
  1 26  1  0
  2 16  1  0
  2  3  1  0
  2 45  1  6
  3  4  1  0
  3 27  1  6
  3 19  1  0
  4  5  2  0
  4 28  1  0
  5 14  1  0
  5  6  1  0
  6 11  2  0
  6  7  1  0
  7  8  2  0
  7 29  1  0
  8  9  1  0
  8 30  1  0
  9 10  2  0
  9 31  1  0
 10 11  1  0
 10 32  1  0
 11 12  1  0
 12 13  1  0
 13 14  1  0
 13 33  1  0
 13 34  1  0
 14 15  1  1
 14 16  1  0
 15 35  1  0
 15 36  1  0
 15 37  1  0
 16 17  1  0
 16 38  1  1
 17 39  1  0
 17 40  1  0
 17 18  1  0
 18 19  1  0
 18 44  1  1
 18 22  1  0
 19 20  1  0
 19 42  1  6
 20 41  1  0
 20 21  2  0
 21 22  1  0
 21 43  1  0
 22 23  2  0
M  CHG  1   2   1
M  END
>  <i_m_ct_stereo_status>  (63) 
1

>  <s_m_source_file>  (63) 
/var/tmp/pbs.5076255.sched01/tmpuj7nejrg/06cdl7mjn.sdf

>  <i_m_source_file_index>  (63) 
28

>  <i_lp_mmshare_version>  (63) 
48012

>  <i_f3d_flags>  (63) 
0

>  <s_epik_input>  (63) 
W0NIM11OMVtDQEBIXTJbQ0gyXUMoQyg9TylbQ0gyXVtDSDJdMyk9QzNbQ0hdMVtDSF09QyhbQ0BAXTI0W0NIM10pYzVjKE9bQ0gyXTQpW2NIXVtjSF1bY0hdW2NIXTU=

>  <s_epik_cmdline>  (63) 
J2VwaWtfcHl0aG9uJywgJy1waHQnLCAnMi4wJywgJy1waCcsICc3LjAnLCAnLXRuJywgJzgnLCAnLW1hJywgJzIwMCcsICctaW1hZScsICc8aW5maWxlLm1hZT4nLCAnLW9tYWUnLCAnPG91dGZpbGUubWFlPic=

>  <r_lp_tautomer_probability>  (63) 
0.499977

>  <r_epik_Ionization_Penalty>  (63) 
0.263967

>  <r_epik_Ionization_Penalty_Charging>  (63) 
0.263967

>  <r_epik_Ionization_Penalty_Neutral>  (63) 
0

>  <r_epik_State_Penalty>  (63) 
1.04664

>  <r_epik_Charging_Adjusted_Penalty>  (63) 
1.3106

>  <i_epik_Tot_Q>  (63) 
1

>  <i_epik_Tot_abs_Q>  (63) 
1

>  <s_lp_Force_Field>  (63) 
OPLS3e

>  <r_lp_Energy>  (63) 
54.1101

>  <b_lp_Chiralities_Consistent>  (63) 
1

>  <s_lp_Variant>  (63) 
15:0-4

>  <s_i_glide_gridfile>  (63) 
pfpi4k_grid

>  <i_i_glide_lignum>  (63) 
28

>  <i_i_glide_rotatable_bonds>  (63) 
0

>  <r_i_docking_score>  (63) 
-3.53454

>  <r_i_glide_ligand_efficiency>  (63) 
-0.153676

>  <r_i_glide_ligand_efficiency_sa>  (63) 
-0.437033

>  <r_i_glide_ligand_efficiency_ln>  (63) 
-0.854684

>  <r_i_glide_gscore>  (63) 
-3.53454

>  <r_i_glide_lipo>  (63) 
-0.627415

>  <r_i_glide_hbond>  (63) 
0

>  <r_i_glide_metal>  (63) 
-0

>  <r_i_glide_rewards>  (63) 
-1.3064

>  <r_i_glide_evdw>  (63) 
-23.1978

>  <r_i_glide_ecoul>  (63) 
-2.92985

>  <r_i_glide_erotb>  (63) 
0

>  <r_i_glide_esite>  (63) 
-0.00135427

>  <r_i_glide_emodel>  (63) 
-33.3515

>  <r_i_glide_energy>  (63) 
-26.1277

>  <r_i_glide_einternal>  (63) 
0

>  <r_i_glide_intrahb_reward>  (63) 
-0

>  <i_i_glide_confnum>  (63) 
1

>  <i_i_glide_posenum>  (63) 
3

>  <r_i_glide_eff_state_penalty>  (63) 
0

>  <ligand_id>  (63) 
15

>  <original_smiles>  (63) 
CN1C2C=C3c4ccccc4OCC3(C)C1CC1=C2CCC1=O

>  <smiles>  (63) 
[H]C1=C([H])C2([H])C([H])(C1=O)C([H])([H])C1([H])C3(C([H])([H])[H])C(=C([H])C2([H])[N+]1([H])C([H])([H])[H])c1c([H])c([H])c([H])c([H])c1OC3([H])[H]

$$$$
15:4:0
     RDKit          3D

 45 49  0  0  1  0  0  0  0  0999 V2000
    7.3614   -5.4304    2.0902 C   0  0  0  0  0  0  0  0  0  0  0  0
    6.3564   -4.6778    1.2938 N   0  0  1  0  0  0  0  0  0  0  0  0
    5.2843   -5.5136    0.6992 C   0  0  2  0  0  0  0  0  0  0  0  0
    4.5926   -4.6727   -0.3521 C   0  0  0  0  0  0  0  0  0  0  0  0
    4.5028   -3.3330   -0.3041 C   0  0  0  0  0  0  0  0  0  0  0  0
    4.0528   -2.5285   -1.4589 C   0  0  0  0  0  0  0  0  0  0  0  0
    3.1372   -3.0106   -2.4214 C   0  0  0  0  0  0  0  0  0  0  0  0
    2.7768   -2.2318   -3.5345 C   0  0  0  0  0  0  0  0  0  0  0  0
    3.3201   -0.9440   -3.6914 C   0  0  0  0  0  0  0  0  0  0  0  0
    4.2158   -0.4469   -2.7281 C   0  0  0  0  0  0  0  0  0  0  0  0
    4.5970   -1.2310   -1.6208 C   0  0  0  0  0  0  0  0  0  0  0  0
    5.4738   -0.6844   -0.7077 O   0  0  0  0  0  0  0  0  0  0  0  0
    6.0578   -1.5542    0.2650 C   0  0  0  0  0  0  0  0  0  0  0  0
    5.0409   -2.5442    0.8853 C   0  0  1  0  0  0  0  0  0  0  0  0
    3.8957   -1.7235    1.5385 C   0  0  0  0  0  0  0  0  0  0  0  0
    5.7496   -3.4845    1.9465 C   0  0  1  0  0  0  0  0  0  0  0  0
    4.8946   -3.9702    3.1522 C   0  0  0  0  0  0  0  0  0  0  0  0
    3.8166   -5.0413    2.8104 C   0  0  1  0  0  0  0  0  0  0  0  0
    4.2472   -6.0529    1.7152 C   0  0  2  0  0  0  0  0  0  0  0  0
    4.6109   -7.3033    2.4908 C   0  0  0  0  0  0  0  0  0  0  0  0
    4.2101   -7.2703    3.7659 C   0  0  0  0  0  0  0  0  0  0  0  0
    3.6060   -5.9676    4.0116 C   0  0  0  0  0  0  0  0  0  0  0  0
    3.0260   -5.6058    5.0321 O   0  0  0  0  0  0  0  0  0  0  0  0
    6.9231   -5.9163    2.9616 H   0  0  0  0  0  0  0  0  0  0  0  0
    8.1559   -4.7693    2.4306 H   0  0  0  0  0  0  0  0  0  0  0  0
    7.8309   -6.2034    1.4792 H   0  0  0  0  0  0  0  0  0  0  0  0
    5.7490   -6.3437    0.1697 H   0  0  0  0  0  0  0  0  0  0  0  0
    4.2600   -5.2074   -1.2178 H   0  0  0  0  0  0  0  0  0  0  0  0
    2.6757   -3.9746   -2.3069 H   0  0  0  0  0  0  0  0  0  0  0  0
    2.0670   -2.6064   -4.2565 H   0  0  0  0  0  0  0  0  0  0  0  0
    3.0323   -0.3281   -4.5298 H   0  0  0  0  0  0  0  0  0  0  0  0
    4.6071    0.5487   -2.8352 H   0  0  0  0  0  0  0  0  0  0  0  0
    6.8671   -2.0992   -0.2247 H   0  0  0  0  0  0  0  0  0  0  0  0
    6.5201   -0.9351    1.0353 H   0  0  0  0  0  0  0  0  0  0  0  0
    4.2527   -1.1449    2.3923 H   0  0  0  0  0  0  0  0  0  0  0  0
    3.0754   -2.3610    1.8744 H   0  0  0  0  0  0  0  0  0  0  0  0
    3.4476   -1.0091    0.8447 H   0  0  0  0  0  0  0  0  0  0  0  0
    6.5605   -2.8943    2.3641 H   0  0  0  0  0  0  0  0  0  0  0  0
    5.5806   -4.3628    3.9078 H   0  0  0  0  0  0  0  0  0  0  0  0
    4.4258   -3.1295    3.6625 H   0  0  0  0  0  0  0  0  0  0  0  0
    5.0632   -8.1624    2.0192 H   0  0  0  0  0  0  0  0  0  0  0  0
    3.3598   -6.3407    1.1497 H   0  0  0  0  0  0  0  0  0  0  0  0
    4.2880   -8.0579    4.5007 H   0  0  0  0  0  0  0  0  0  0  0  0
    2.8776   -4.5595    2.5336 H   0  0  0  0  0  0  0  0  0  0  0  0
    6.8735   -4.3160    0.5053 H   0  0  0  0  0  0  0  0  0  0  0  0
  1  2  1  0
  1 24  1  0
  1 25  1  0
  1 26  1  0
  2 16  1  0
  2  3  1  0
  2 45  1  6
  3  4  1  0
  3 27  1  6
  3 19  1  0
  4  5  2  0
  4 28  1  0
  5 14  1  0
  5  6  1  0
  6 11  2  0
  6  7  1  0
  7  8  2  0
  7 29  1  0
  8  9  1  0
  8 30  1  0
  9 10  2  0
  9 31  1  0
 10 11  1  0
 10 32  1  0
 11 12  1  0
 12 13  1  0
 13 14  1  0
 13 33  1  0
 13 34  1  0
 14 15  1  1
 14 16  1  0
 15 35  1  0
 15 36  1  0
 15 37  1  0
 16 17  1  0
 16 38  1  1
 17 39  1  0
 17 40  1  0
 17 18  1  0
 18 19  1  0
 18 44  1  6
 18 22  1  0
 19 20  1  0
 19 42  1  6
 20 41  1  0
 20 21  2  0
 21 22  1  0
 21 43  1  0
 22 23  2  0
M  CHG  1   2   1
M  END
>  <i_m_ct_stereo_status>  (64) 
1

>  <s_m_source_file>  (64) 
/var/tmp/pbs.5076255.sched01/tmpuj7nejrg/06cdl7mjn.sdf

>  <i_m_source_file_index>  (64) 
29

>  <i_lp_mmshare_version>  (64) 
48012

>  <i_f3d_flags>  (64) 
0

>  <s_epik_input>  (64) 
W0NIM11OMVtDQEBIXTJbQ0gyXUMoQyg9TylbQ0gyXVtDSDJdMyk9QzNbQ0hdMVtDSF09QyhbQ0BAXTI0W0NIM10pYzVjKE9bQ0gyXTQpW2NIXVtjSF1bY0hdW2NIXTU=

>  <s_epik_cmdline>  (64) 
J2VwaWtfcHl0aG9uJywgJy1waHQnLCAnMi4wJywgJy1waCcsICc3LjAnLCAnLXRuJywgJzgnLCAnLW1hJywgJzIwMCcsICctaW1hZScsICc8aW5maWxlLm1hZT4nLCAnLW9tYWUnLCAnPG91dGZpbGUubWFlPic=

>  <r_lp_tautomer_probability>  (64) 
0.499977

>  <r_epik_Ionization_Penalty>  (64) 
0.263967

>  <r_epik_Ionization_Penalty_Charging>  (64) 
0.263967

>  <r_epik_Ionization_Penalty_Neutral>  (64) 
0

>  <r_epik_State_Penalty>  (64) 
1.04664

>  <r_epik_Charging_Adjusted_Penalty>  (64) 
1.3106

>  <i_epik_Tot_Q>  (64) 
1

>  <i_epik_Tot_abs_Q>  (64) 
1

>  <s_lp_Force_Field>  (64) 
OPLS3e

>  <r_lp_Energy>  (64) 
38.0926

>  <b_lp_Chiralities_Consistent>  (64) 
1

>  <s_lp_Variant>  (64) 
15:0-5

>  <s_i_glide_gridfile>  (64) 
pfpi4k_grid

>  <i_i_glide_lignum>  (64) 
29

>  <i_i_glide_rotatable_bonds>  (64) 
0

>  <r_i_docking_score>  (64) 
-3.76369

>  <r_i_glide_ligand_efficiency>  (64) 
-0.163639

>  <r_i_glide_ligand_efficiency_sa>  (64) 
-0.465367

>  <r_i_glide_ligand_efficiency_ln>  (64) 
-0.910095

>  <r_i_glide_gscore>  (64) 
-3.76369

>  <r_i_glide_lipo>  (64) 
-0.994863

>  <r_i_glide_hbond>  (64) 
0

>  <r_i_glide_metal>  (64) 
-0

>  <r_i_glide_rewards>  (64) 
-1.3064

>  <r_i_glide_evdw>  (64) 
-19.9278

>  <r_i_glide_ecoul>  (64) 
-3.1069

>  <r_i_glide_erotb>  (64) 
0

>  <r_i_glide_esite>  (64) 
0

>  <r_i_glide_emodel>  (64) 
-31.6377

>  <r_i_glide_energy>  (64) 
-23.0347

>  <r_i_glide_einternal>  (64) 
0

>  <r_i_glide_intrahb_reward>  (64) 
-0

>  <i_i_glide_confnum>  (64) 
2

>  <i_i_glide_posenum>  (64) 
29

>  <r_i_glide_eff_state_penalty>  (64) 
0

>  <ligand_id>  (64) 
15

>  <original_smiles>  (64) 
CN1C2C=C3c4ccccc4OCC3(C)C1CC1=C2CCC1=O

>  <smiles>  (64) 
[H]C1=C([H])C2([H])C([H])(C1=O)C([H])([H])C1([H])C3(C([H])([H])[H])C(=C([H])C2([H])[N+]1([H])C([H])([H])[H])c1c([H])c([H])c([H])c([H])c1OC3([H])[H]

$$$$
15:4:1
     RDKit          3D

 45 49  0  0  1  0  0  0  0  0999 V2000
    5.3409   -5.5096    3.2435 C   0  0  0  0  0  0  0  0  0  0  0  0
    4.6773   -4.7207    2.1717 N   0  0  1  0  0  0  0  0  0  0  0  0
    3.5787   -5.4263    1.4601 C   0  0  2  0  0  0  0  0  0  0  0  0
    3.2802   -4.6449    0.1930 C   0  0  0  0  0  0  0  0  0  0  0  0
    3.4742   -3.3165    0.0811 C   0  0  0  0  0  0  0  0  0  0  0  0
    3.4236   -2.6160   -1.2166 C   0  0  0  0  0  0  0  0  0  0  0  0
    2.6137   -3.0557   -2.2888 C   0  0  0  0  0  0  0  0  0  0  0  0
    2.6318   -2.3917   -3.5243 C   0  0  0  0  0  0  0  0  0  0  0  0
    3.4505   -1.2630   -3.7078 C   0  0  0  0  0  0  0  0  0  0  0  0
    4.2464   -0.8056   -2.6419 C   0  0  0  0  0  0  0  0  0  0  0  0
    4.2477   -1.4773   -1.4043 C   0  0  0  0  0  0  0  0  0  0  0  0
    5.0486   -0.9792   -0.3981 O   0  0  0  0  0  0  0  0  0  0  0  0
    5.2397   -1.7862    0.7654 C   0  0  0  0  0  0  0  0  0  0  0  0
    3.9403   -2.4696    1.2652 C   0  0  1  0  0  0  0  0  0  0  0  0
    2.8949   -1.3630    1.5737 C   0  0  0  0  0  0  0  0  0  0  0  0
    4.2299   -3.3525    2.5508 C   0  0  1  0  0  0  0  0  0  0  0  0
    3.0876   -3.4857    3.5982 C   0  0  0  0  0  0  0  0  0  0  0  0
    1.8886   -4.3766    3.1611 C   0  0  1  0  0  0  0  0  0  0  0  0
    2.2858   -5.6040    2.2961 C   0  0  2  0  0  0  0  0  0  0  0  0
    2.2314   -6.7684    3.2645 C   0  0  0  0  0  0  0  0  0  0  0  0
    1.6225   -6.4724    4.4172 C   0  0  0  0  0  0  0  0  0  0  0  0
    1.2719   -5.0586    4.3875 C   0  0  0  0  0  0  0  0  0  0  0  0
    0.5935   -4.4520    5.2130 O   0  0  0  0  0  0  0  0  0  0  0  0
    4.6580   -5.7769    4.0484 H   0  0  0  0  0  0  0  0  0  0  0  0
    6.1699   -4.9495    3.6751 H   0  0  0  0  0  0  0  0  0  0  0  0
    5.7457   -6.4364    2.8338 H   0  0  0  0  0  0  0  0  0  0  0  0
    3.9491   -6.4013    1.1393 H   0  0  0  0  0  0  0  0  0  0  0  0
    3.0001   -5.2305   -0.6651 H   0  0  0  0  0  0  0  0  0  0  0  0
    1.9647   -3.9097   -2.1772 H   0  0  0  0  0  0  0  0  0  0  0  0
    1.9979   -2.7475   -4.3211 H   0  0  0  0  0  0  0  0  0  0  0  0
    3.4581   -0.7464   -4.6561 H   0  0  0  0  0  0  0  0  0  0  0  0
    4.8628    0.0696   -2.7630 H   0  0  0  0  0  0  0  0  0  0  0  0
    5.9923   -2.5379    0.5188 H   0  0  0  0  0  0  0  0  0  0  0  0
    5.6727   -1.1552    1.5433 H   0  0  0  0  0  0  0  0  0  0  0  0
    3.2034   -0.7385    2.4128 H   0  0  0  0  0  0  0  0  0  0  0  0
    1.9106   -1.7776    1.7984 H   0  0  0  0  0  0  0  0  0  0  0  0
    2.7396   -0.6894    0.7290 H   0  0  0  0  0  0  0  0  0  0  0  0
    5.0588   -2.8738    3.0715 H   0  0  0  0  0  0  0  0  0  0  0  0
    3.5262   -3.8794    4.5191 H   0  0  0  0  0  0  0  0  0  0  0  0
    2.7219   -2.5065    3.9032 H   0  0  0  0  0  0  0  0  0  0  0  0
    2.5719   -7.7575    2.9960 H   0  0  0  0  0  0  0  0  0  0  0  0
    1.4772   -5.8063    1.5966 H   0  0  0  0  0  0  0  0  0  0  0  0
    1.4002   -7.1433    5.2353 H   0  0  0  0  0  0  0  0  0  0  0  0
    1.1402   -3.7740    2.6492 H   0  0  0  0  0  0  0  0  0  0  0  0
    5.3978   -4.5838    1.4739 H   0  0  0  0  0  0  0  0  0  0  0  0
  1  2  1  0
  1 24  1  0
  1 25  1  0
  1 26  1  0
  2 16  1  0
  2  3  1  0
  2 45  1  6
  3  4  1  0
  3 27  1  6
  3 19  1  0
  4  5  2  0
  4 28  1  0
  5 14  1  0
  5  6  1  0
  6 11  2  0
  6  7  1  0
  7  8  2  0
  7 29  1  0
  8  9  1  0
  8 30  1  0
  9 10  2  0
  9 31  1  0
 10 11  1  0
 10 32  1  0
 11 12  1  0
 12 13  1  0
 13 14  1  0
 13 33  1  0
 13 34  1  0
 14 15  1  1
 14 16  1  0
 15 35  1  0
 15 36  1  0
 15 37  1  0
 16 17  1  0
 16 38  1  1
 17 39  1  0
 17 40  1  0
 17 18  1  0
 18 19  1  0
 18 44  1  6
 18 22  1  0
 19 20  1  0
 19 42  1  6
 20 41  1  0
 20 21  2  0
 21 22  1  0
 21 43  1  0
 22 23  2  0
M  CHG  1   2   1
M  END
>  <i_m_ct_stereo_status>  (65) 
1

>  <s_m_source_file>  (65) 
/var/tmp/pbs.5076255.sched01/tmpuj7nejrg/06cdl7mjn.sdf

>  <i_m_source_file_index>  (65) 
29

>  <i_lp_mmshare_version>  (65) 
48012

>  <i_f3d_flags>  (65) 
0

>  <s_epik_input>  (65) 
W0NIM11OMVtDQEBIXTJbQ0gyXUMoQyg9TylbQ0gyXVtDSDJdMyk9QzNbQ0hdMVtDSF09QyhbQ0BAXTI0W0NIM10pYzVjKE9bQ0gyXTQpW2NIXVtjSF1bY0hdW2NIXTU=

>  <s_epik_cmdline>  (65) 
J2VwaWtfcHl0aG9uJywgJy1waHQnLCAnMi4wJywgJy1waCcsICc3LjAnLCAnLXRuJywgJzgnLCAnLW1hJywgJzIwMCcsICctaW1hZScsICc8aW5maWxlLm1hZT4nLCAnLW9tYWUnLCAnPG91dGZpbGUubWFlPic=

>  <r_lp_tautomer_probability>  (65) 
0.499977

>  <r_epik_Ionization_Penalty>  (65) 
0.263967

>  <r_epik_Ionization_Penalty_Charging>  (65) 
0.263967

>  <r_epik_Ionization_Penalty_Neutral>  (65) 
0

>  <r_epik_State_Penalty>  (65) 
1.04664

>  <r_epik_Charging_Adjusted_Penalty>  (65) 
1.3106

>  <i_epik_Tot_Q>  (65) 
1

>  <i_epik_Tot_abs_Q>  (65) 
1

>  <s_lp_Force_Field>  (65) 
OPLS3e

>  <r_lp_Energy>  (65) 
38.0926

>  <b_lp_Chiralities_Consistent>  (65) 
1

>  <s_lp_Variant>  (65) 
15:0-5

>  <s_i_glide_gridfile>  (65) 
pfpi4k_grid

>  <i_i_glide_lignum>  (65) 
29

>  <i_i_glide_rotatable_bonds>  (65) 
0

>  <r_i_docking_score>  (65) 
-3.48644

>  <r_i_glide_ligand_efficiency>  (65) 
-0.151584

>  <r_i_glide_ligand_efficiency_sa>  (65) 
-0.431085

>  <r_i_glide_ligand_efficiency_ln>  (65) 
-0.843052

>  <r_i_glide_gscore>  (65) 
-3.48644

>  <r_i_glide_lipo>  (65) 
-0.585763

>  <r_i_glide_hbond>  (65) 
0

>  <r_i_glide_metal>  (65) 
-0

>  <r_i_glide_rewards>  (65) 
-1.3064

>  <r_i_glide_evdw>  (65) 
-23.1728

>  <r_i_glide_ecoul>  (65) 
-2.88788

>  <r_i_glide_erotb>  (65) 
0

>  <r_i_glide_esite>  (65) 
-0.00245169

>  <r_i_glide_emodel>  (65) 
-34.0399

>  <r_i_glide_energy>  (65) 
-26.0606

>  <r_i_glide_einternal>  (65) 
0

>  <r_i_glide_intrahb_reward>  (65) 
-0

>  <i_i_glide_confnum>  (65) 
2

>  <i_i_glide_posenum>  (65) 
37

>  <r_i_glide_eff_state_penalty>  (65) 
0

>  <ligand_id>  (65) 
15

>  <original_smiles>  (65) 
CN1C2C=C3c4ccccc4OCC3(C)C1CC1=C2CCC1=O

>  <smiles>  (65) 
[H]C1=C([H])C2([H])C([H])(C1=O)C([H])([H])C1([H])C3(C([H])([H])[H])C(=C([H])C2([H])[N+]1([H])C([H])([H])[H])c1c([H])c([H])c([H])c([H])c1OC3([H])[H]

$$$$
15:4:2
     RDKit          3D

 45 49  0  0  1  0  0  0  0  0999 V2000
    0.7616  -11.4969    4.3833 C   0  0  0  0  0  0  0  0  0  0  0  0
    1.9265  -10.6014    4.1762 N   0  0  1  0  0  0  0  0  0  0  0  0
    1.9009   -9.8499    2.8951 C   0  0  2  0  0  0  0  0  0  0  0  0
    3.2928   -9.2947    2.6614 C   0  0  0  0  0  0  0  0  0  0  0  0
    4.1338   -8.9743    3.6657 C   0  0  0  0  0  0  0  0  0  0  0  0
    5.5590   -8.6710    3.4359 C   0  0  0  0  0  0  0  0  0  0  0  0
    6.0301   -8.0957    2.2299 C   0  0  0  0  0  0  0  0  0  0  0  0
    7.4024   -7.8601    2.0418 C   0  0  0  0  0  0  0  0  0  0  0  0
    8.3171   -8.1968    3.0559 C   0  0  0  0  0  0  0  0  0  0  0  0
    7.8638   -8.7691    4.2561 C   0  0  0  0  0  0  0  0  0  0  0  0
    6.4911   -9.0080    4.4527 C   0  0  0  0  0  0  0  0  0  0  0  0
    6.0990   -9.5479    5.6604 O   0  0  0  0  0  0  0  0  0  0  0  0
    4.7585  -10.0326    5.7710 C   0  0  0  0  0  0  0  0  0  0  0  0
    3.7116   -9.0833    5.1336 C   0  0  1  0  0  0  0  0  0  0  0  0
    3.8345   -7.6967    5.8283 C   0  0  0  0  0  0  0  0  0  0  0  0
    2.2494   -9.6760    5.2961 C   0  0  1  0  0  0  0  0  0  0  0  0
    1.0844   -8.6554    5.4417 C   0  0  0  0  0  0  0  0  0  0  0  0
    0.7172   -7.8773    4.1425 C   0  0  1  0  0  0  0  0  0  0  0  0
    0.8509   -8.7104    2.8401 C   0  0  2  0  0  0  0  0  0  0  0  0
   -0.5788   -9.0879    2.5009 C   0  0  0  0  0  0  0  0  0  0  0  0
   -1.4898   -8.4033    3.1962 C   0  0  0  0  0  0  0  0  0  0  0  0
   -0.7787   -7.5474    4.1353 C   0  0  0  0  0  0  0  0  0  0  0  0
   -1.2667   -6.6669    4.8412 O   0  0  0  0  0  0  0  0  0  0  0  0
   -0.1785  -10.9509    4.4367 H   0  0  0  0  0  0  0  0  0  0  0  0
    0.8835  -12.0658    5.2975 H   0  0  0  0  0  0  0  0  0  0  0  0
    0.6869  -12.2240    3.5721 H   0  0  0  0  0  0  0  0  0  0  0  0
    1.7172  -10.5569    2.0866 H   0  0  0  0  0  0  0  0  0  0  0  0
    3.6165   -9.2732    1.6331 H   0  0  0  0  0  0  0  0  0  0  0  0
    5.3412   -7.8243    1.4439 H   0  0  0  0  0  0  0  0  0  0  0  0
    7.7652   -7.4322    1.1177 H   0  0  0  0  0  0  0  0  0  0  0  0
    9.3739   -8.0364    2.8991 H   0  0  0  0  0  0  0  0  0  0  0  0
    8.5738   -9.0343    5.0241 H   0  0  0  0  0  0  0  0  0  0  0  0
    4.7203  -11.0145    5.2951 H   0  0  0  0  0  0  0  0  0  0  0  0
    4.5463  -10.1931    6.8295 H   0  0  0  0  0  0  0  0  0  0  0  0
    3.5456   -7.7450    6.8799 H   0  0  0  0  0  0  0  0  0  0  0  0
    3.2211   -6.9366    5.3398 H   0  0  0  0  0  0  0  0  0  0  0  0
    4.8557   -7.3090    5.8086 H   0  0  0  0  0  0  0  0  0  0  0  0
    2.2517  -10.2604    6.2152 H   0  0  0  0  0  0  0  0  0  0  0  0
    0.2092   -9.2009    5.8073 H   0  0  0  0  0  0  0  0  0  0  0  0
    1.2836   -7.9490    6.2479 H   0  0  0  0  0  0  0  0  0  0  0  0
   -0.8208   -9.7789    1.7080 H   0  0  0  0  0  0  0  0  0  0  0  0
    1.1481   -8.0406    2.0345 H   0  0  0  0  0  0  0  0  0  0  0  0
   -2.5643   -8.4495    3.0940 H   0  0  0  0  0  0  0  0  0  0  0  0
    1.3046   -6.9613    4.0708 H   0  0  0  0  0  0  0  0  0  0  0  0
    2.7160  -11.2291    4.1116 H   0  0  0  0  0  0  0  0  0  0  0  0
  1  2  1  0
  1 24  1  0
  1 25  1  0
  1 26  1  0
  2 16  1  0
  2  3  1  0
  2 45  1  6
  3  4  1  0
  3 27  1  6
  3 19  1  0
  4  5  2  0
  4 28  1  0
  5 14  1  0
  5  6  1  0
  6 11  2  0
  6  7  1  0
  7  8  2  0
  7 29  1  0
  8  9  1  0
  8 30  1  0
  9 10  2  0
  9 31  1  0
 10 11  1  0
 10 32  1  0
 11 12  1  0
 12 13  1  0
 13 14  1  0
 13 33  1  0
 13 34  1  0
 14 15  1  1
 14 16  1  0
 15 35  1  0
 15 36  1  0
 15 37  1  0
 16 17  1  0
 16 38  1  1
 17 39  1  0
 17 40  1  0
 17 18  1  0
 18 19  1  0
 18 44  1  6
 18 22  1  0
 19 20  1  0
 19 42  1  6
 20 41  1  0
 20 21  2  0
 21 22  1  0
 21 43  1  0
 22 23  2  0
M  CHG  1   2   1
M  END
>  <i_m_ct_stereo_status>  (66) 
1

>  <s_m_source_file>  (66) 
/var/tmp/pbs.5076255.sched01/tmpuj7nejrg/06cdl7mjn.sdf

>  <i_m_source_file_index>  (66) 
29

>  <i_lp_mmshare_version>  (66) 
48012

>  <i_f3d_flags>  (66) 
0

>  <s_epik_input>  (66) 
W0NIM11OMVtDQEBIXTJbQ0gyXUMoQyg9TylbQ0gyXVtDSDJdMyk9QzNbQ0hdMVtDSF09QyhbQ0BAXTI0W0NIM10pYzVjKE9bQ0gyXTQpW2NIXVtjSF1bY0hdW2NIXTU=

>  <s_epik_cmdline>  (66) 
J2VwaWtfcHl0aG9uJywgJy1waHQnLCAnMi4wJywgJy1waCcsICc3LjAnLCAnLXRuJywgJzgnLCAnLW1hJywgJzIwMCcsICctaW1hZScsICc8aW5maWxlLm1hZT4nLCAnLW9tYWUnLCAnPG91dGZpbGUubWFlPic=

>  <r_lp_tautomer_probability>  (66) 
0.499977

>  <r_epik_Ionization_Penalty>  (66) 
0.263967

>  <r_epik_Ionization_Penalty_Charging>  (66) 
0.263967

>  <r_epik_Ionization_Penalty_Neutral>  (66) 
0

>  <r_epik_State_Penalty>  (66) 
1.04664

>  <r_epik_Charging_Adjusted_Penalty>  (66) 
1.3106

>  <i_epik_Tot_Q>  (66) 
1

>  <i_epik_Tot_abs_Q>  (66) 
1

>  <s_lp_Force_Field>  (66) 
OPLS3e

>  <r_lp_Energy>  (66) 
38.0926

>  <b_lp_Chiralities_Consistent>  (66) 
1

>  <s_lp_Variant>  (66) 
15:0-5

>  <s_i_glide_gridfile>  (66) 
pfpi4k_grid

>  <i_i_glide_lignum>  (66) 
29

>  <i_i_glide_rotatable_bonds>  (66) 
0

>  <r_i_docking_score>  (66) 
-3.22337

>  <r_i_glide_ligand_efficiency>  (66) 
-0.140147

>  <r_i_glide_ligand_efficiency_sa>  (66) 
-0.398559

>  <r_i_glide_ligand_efficiency_ln>  (66) 
-0.779441

>  <r_i_glide_gscore>  (66) 
-3.22337

>  <r_i_glide_lipo>  (66) 
-0.13816

>  <r_i_glide_hbond>  (66) 
0

>  <r_i_glide_metal>  (66) 
-0

>  <r_i_glide_rewards>  (66) 
-1.3064

>  <r_i_glide_evdw>  (66) 
-18.9883

>  <r_i_glide_ecoul>  (66) 
-5.08615

>  <r_i_glide_erotb>  (66) 
0

>  <r_i_glide_esite>  (66) 
-0.0664733

>  <r_i_glide_emodel>  (66) 
-31.4523

>  <r_i_glide_energy>  (66) 
-24.0745

>  <r_i_glide_einternal>  (66) 
0

>  <r_i_glide_intrahb_reward>  (66) 
-0

>  <i_i_glide_confnum>  (66) 
2

>  <i_i_glide_posenum>  (66) 
27

>  <r_i_glide_eff_state_penalty>  (66) 
0

>  <ligand_id>  (66) 
15

>  <original_smiles>  (66) 
CN1C2C=C3c4ccccc4OCC3(C)C1CC1=C2CCC1=O

>  <smiles>  (66) 
[H]C1=C([H])C2([H])C([H])(C1=O)C([H])([H])C1([H])C3(C([H])([H])[H])C(=C([H])C2([H])[N+]1([H])C([H])([H])[H])c1c([H])c([H])c([H])c([H])c1OC3([H])[H]

$$$$
15:5:0
     RDKit          3D

 45 49  0  0  1  0  0  0  0  0999 V2000
    7.0738   -5.6609    2.1560 C   0  0  0  0  0  0  0  0  0  0  0  0
    6.1290   -4.8354    1.3595 N   0  0  1  0  0  0  0  0  0  0  0  0
    4.9428   -5.5944    0.8631 C   0  0  2  0  0  0  0  0  0  0  0  0
    4.3365   -4.7438   -0.2285 C   0  0  0  0  0  0  0  0  0  0  0  0
    4.3581   -3.3967   -0.2204 C   0  0  0  0  0  0  0  0  0  0  0  0
    3.9643   -2.5945   -1.4029 C   0  0  0  0  0  0  0  0  0  0  0  0
    3.0406   -3.0573   -2.3706 C   0  0  0  0  0  0  0  0  0  0  0  0
    2.7267   -2.2853   -3.5089 C   0  0  0  0  0  0  0  0  0  0  0  0
    3.3172   -1.0220   -3.6782 C   0  0  0  0  0  0  0  0  0  0  0  0
    4.2128   -0.5423   -2.7092 C   0  0  0  0  0  0  0  0  0  0  0  0
    4.5552   -1.3189   -1.5819 C   0  0  0  0  0  0  0  0  0  0  0  0
    5.4353   -0.7853   -0.6656 O   0  0  0  0  0  0  0  0  0  0  0  0
    6.0013   -1.6666    0.3035 C   0  0  0  0  0  0  0  0  0  0  0  0
    4.9651   -2.6174    0.9498 C   0  0  1  0  0  0  0  0  0  0  0  0
    3.8540   -1.7629    1.6132 C   0  0  0  0  0  0  0  0  0  0  0  0
    5.6922   -3.5566    2.0069 C   0  0  1  0  0  0  0  0  0  0  0  0
    4.9028   -3.8947    3.3174 C   0  0  0  0  0  0  0  0  0  0  0  0
    3.9152   -5.0153    3.0583 C   0  0  0  0  0  0  0  0  0  0  0  0
    3.9182   -5.7798    1.9724 C   0  0  0  0  0  0  0  0  0  0  0  0
    2.8084   -6.8097    1.9563 C   0  0  0  0  0  0  0  0  0  0  0  0
    2.0582   -6.5642    3.2900 C   0  0  0  0  0  0  0  0  0  0  0  0
    2.8232   -5.4069    3.9264 C   0  0  0  0  0  0  0  0  0  0  0  0
    2.5211   -4.9061    5.0034 O   0  0  0  0  0  0  0  0  0  0  0  0
    6.5991   -6.1026    3.0345 H   0  0  0  0  0  0  0  0  0  0  0  0
    7.9246   -5.0662    2.4879 H   0  0  0  0  0  0  0  0  0  0  0  0
    7.4682   -6.4825    1.5553 H   0  0  0  0  0  0  0  0  0  0  0  0
    5.2547   -6.5562    0.4530 H   0  0  0  0  0  0  0  0  0  0  0  0
    3.9870   -5.2756   -1.0875 H   0  0  0  0  0  0  0  0  0  0  0  0
    2.5392   -3.9969   -2.2442 H   0  0  0  0  0  0  0  0  0  0  0  0
    2.0096   -2.6525   -4.2280 H   0  0  0  0  0  0  0  0  0  0  0  0
    3.0569   -0.4096   -4.5290 H   0  0  0  0  0  0  0  0  0  0  0  0
    4.6315    0.4446   -2.8194 H   0  0  0  0  0  0  0  0  0  0  0  0
    6.7845   -2.2422   -0.1946 H   0  0  0  0  0  0  0  0  0  0  0  0
    6.4950   -1.0571    1.0624 H   0  0  0  0  0  0  0  0  0  0  0  0
    4.2452   -1.1541    2.4297 H   0  0  0  0  0  0  0  0  0  0  0  0
    3.0415   -2.3826    1.9988 H   0  0  0  0  0  0  0  0  0  0  0  0
    3.3870   -1.0748    0.9060 H   0  0  0  0  0  0  0  0  0  0  0  0
    6.5906   -3.0251    2.3150 H   0  0  0  0  0  0  0  0  0  0  0  0
    5.5980   -4.2483    4.0823 H   0  0  0  0  0  0  0  0  0  0  0  0
    4.4092   -3.0309    3.7606 H   0  0  0  0  0  0  0  0  0  0  0  0
    2.1523   -6.6499    1.1009 H   0  0  0  0  0  0  0  0  0  0  0  0
    3.2089   -7.8234    1.9108 H   0  0  0  0  0  0  0  0  0  0  0  0
    1.0200   -6.2816    3.1330 H   0  0  0  0  0  0  0  0  0  0  0  0
    2.0824   -7.4350    3.9426 H   0  0  0  0  0  0  0  0  0  0  0  0
    6.6461   -4.5695    0.5350 H   0  0  0  0  0  0  0  0  0  0  0  0
  1  2  1  0
  1 24  1  0
  1 25  1  0
  1 26  1  0
  2 16  1  0
  2  3  1  0
  2 45  1  6
  3 19  1  0
  3  4  1  0
  3 27  1  6
  4  5  2  0
  4 28  1  0
  5 14  1  0
  5  6  1  0
  6 11  2  0
  6  7  1  0
  7  8  2  0
  7 29  1  0
  8  9  1  0
  8 30  1  0
  9 10  2  0
  9 31  1  0
 10 11  1  0
 10 32  1  0
 11 12  1  0
 12 13  1  0
 13 14  1  0
 13 33  1  0
 13 34  1  0
 14 15  1  1
 14 16  1  0
 15 35  1  0
 15 36  1  0
 15 37  1  0
 16 17  1  0
 16 38  1  1
 17 18  1  0
 17 39  1  0
 17 40  1  0
 18 22  1  0
 18 19  2  0
 19 20  1  0
 20 21  1  0
 20 41  1  0
 20 42  1  0
 21 22  1  0
 21 43  1  0
 21 44  1  0
 22 23  2  0
M  CHG  1   2   1
M  END
>  <i_m_ct_stereo_status>  (67) 
1

>  <s_m_source_file>  (67) 
/var/tmp/pbs.5076255.sched01/tmpuj7nejrg/06cdl7mjn.sdf

>  <i_m_source_file_index>  (67) 
30

>  <i_lp_mmshare_version>  (67) 
48012

>  <i_f3d_flags>  (67) 
0

>  <s_epik_input>  (67) 
W0NIM11OMVtDQEBIXTJbQ0gyXUMoQyg9TylbQ0gyXVtDSDJdMyk9QzNbQ0hdMVtDSF09QyhbQ0BAXTI0W0NIM10pYzVjKE9bQ0gyXTQpW2NIXVtjSF1bY0hdW2NIXTU=

>  <s_epik_cmdline>  (67) 
J2VwaWtfcHl0aG9uJywgJy1waHQnLCAnMi4wJywgJy1waCcsICc3LjAnLCAnLXRuJywgJzgnLCAnLW1hJywgJzIwMCcsICctaW1hZScsICc8aW5maWxlLm1hZT4nLCAnLW9tYWUnLCAnPG91dGZpbGUubWFlPic=

>  <r_lp_tautomer_probability>  (67) 
0.499977

>  <r_epik_Ionization_Penalty>  (67) 
1.64865

>  <r_epik_Ionization_Penalty_Charging>  (67) 
1.64865

>  <r_epik_Ionization_Penalty_Neutral>  (67) 
0

>  <r_epik_State_Penalty>  (67) 
1.56763

>  <r_epik_Charging_Adjusted_Penalty>  (67) 
3.21628

>  <i_epik_Tot_Q>  (67) 
1

>  <i_epik_Tot_abs_Q>  (67) 
1

>  <s_lp_Force_Field>  (67) 
OPLS3e

>  <r_lp_Energy>  (67) 
25.3052

>  <b_lp_Chiralities_Consistent>  (67) 
1

>  <s_lp_Variant>  (67) 
15:0-6

>  <s_i_glide_gridfile>  (67) 
pfpi4k_grid

>  <i_i_glide_lignum>  (67) 
30

>  <i_i_glide_rotatable_bonds>  (67) 
0

>  <r_i_docking_score>  (67) 
-3.71668

>  <r_i_glide_ligand_efficiency>  (67) 
-0.161595

>  <r_i_glide_ligand_efficiency_sa>  (67) 
-0.459554

>  <r_i_glide_ligand_efficiency_ln>  (67) 
-0.898727

>  <r_i_glide_gscore>  (67) 
-3.71668

>  <r_i_glide_lipo>  (67) 
-0.924569

>  <r_i_glide_hbond>  (67) 
0

>  <r_i_glide_metal>  (67) 
-0

>  <r_i_glide_rewards>  (67) 
-1.3064

>  <r_i_glide_evdw>  (67) 
-20.4881

>  <r_i_glide_ecoul>  (67) 
-3.07531

>  <r_i_glide_erotb>  (67) 
0

>  <r_i_glide_esite>  (67) 
-9.57376e-06

>  <r_i_glide_emodel>  (67) 
-31.5739

>  <r_i_glide_energy>  (67) 
-23.5634

>  <r_i_glide_einternal>  (67) 
0

>  <r_i_glide_intrahb_reward>  (67) 
-0

>  <i_i_glide_confnum>  (67) 
1

>  <i_i_glide_posenum>  (67) 
16

>  <r_i_glide_eff_state_penalty>  (67) 
0

>  <ligand_id>  (67) 
15

>  <original_smiles>  (67) 
CN1C2C=C3c4ccccc4OCC3(C)C1CC1=C2CCC1=O

>  <smiles>  (67) 
[H]C1=C2c3c([H])c([H])c([H])c([H])c3OC([H])([H])C2(C([H])([H])[H])C2([H])C([H])([H])C3=C(C([H])([H])C([H])([H])C3=O)C1([H])[N+]2([H])C([H])([H])[H]

$$$$
15:5:1
     RDKit          3D

 45 49  0  0  1  0  0  0  0  0999 V2000
    2.5516  -11.9350    3.4219 C   0  0  0  0  0  0  0  0  0  0  0  0
    3.0301  -10.5602    3.1383 N   0  0  1  0  0  0  0  0  0  0  0  0
    1.9846   -9.6736    2.5415 C   0  0  2  0  0  0  0  0  0  0  0  0
    2.7152   -8.4845    1.9597 C   0  0  0  0  0  0  0  0  0  0  0  0
    3.8503   -7.9929    2.5015 C   0  0  0  0  0  0  0  0  0  0  0  0
    4.6861   -6.9850    1.8097 C   0  0  0  0  0  0  0  0  0  0  0  0
    4.1516   -6.0807    0.8605 C   0  0  0  0  0  0  0  0  0  0  0  0
    4.9851   -5.1557    0.2027 C   0  0  0  0  0  0  0  0  0  0  0  0
    6.3631   -5.1224    0.4877 C   0  0  0  0  0  0  0  0  0  0  0  0
    6.9055   -6.0145    1.4303 C   0  0  0  0  0  0  0  0  0  0  0  0
    6.0778   -6.9457    2.0897 C   0  0  0  0  0  0  0  0  0  0  0  0
    6.6639   -7.7764    3.0188 O   0  0  0  0  0  0  0  0  0  0  0  0
    5.9120   -8.9055    3.4622 C   0  0  0  0  0  0  0  0  0  0  0  0
    4.4407   -8.5644    3.8016 C   0  0  1  0  0  0  0  0  0  0  0  0
    4.4320   -7.4600    4.8929 C   0  0  0  0  0  0  0  0  0  0  0  0
    3.6940   -9.8782    4.2968 C   0  0  1  0  0  0  0  0  0  0  0  0
    2.6508   -9.7073    5.4536 C   0  0  0  0  0  0  0  0  0  0  0  0
    1.3327   -9.2129    4.9011 C   0  0  0  0  0  0  0  0  0  0  0  0
    1.0163   -9.1861    3.6109 C   0  0  0  0  0  0  0  0  0  0  0  0
   -0.3538   -8.6119    3.3342 C   0  0  0  0  0  0  0  0  0  0  0  0
   -0.8933   -8.2548    4.7433 C   0  0  0  0  0  0  0  0  0  0  0  0
    0.2403   -8.6662    5.6796 C   0  0  0  0  0  0  0  0  0  0  0  0
    0.2155   -8.5045    6.8967 O   0  0  0  0  0  0  0  0  0  0  0  0
    1.6978  -11.9531    4.1015 H   0  0  0  0  0  0  0  0  0  0  0  0
    3.3434  -12.5418    3.8612 H   0  0  0  0  0  0  0  0  0  0  0  0
    2.2474  -12.4178    2.4928 H   0  0  0  0  0  0  0  0  0  0  0  0
    1.4526  -10.2032    1.7503 H   0  0  0  0  0  0  0  0  0  0  0  0
    2.3315   -8.1216    1.0229 H   0  0  0  0  0  0  0  0  0  0  0  0
    3.0967   -6.0764    0.6330 H   0  0  0  0  0  0  0  0  0  0  0  0
    4.5665   -4.4753   -0.5244 H   0  0  0  0  0  0  0  0  0  0  0  0
    7.0056   -4.4195   -0.0235 H   0  0  0  0  0  0  0  0  0  0  0  0
    7.9635   -5.9954    1.6432 H   0  0  0  0  0  0  0  0  0  0  0  0
    5.9565   -9.6631    2.6765 H   0  0  0  0  0  0  0  0  0  0  0  0
    6.4231   -9.3258    4.3300 H   0  0  0  0  0  0  0  0  0  0  0  0
    4.8779   -7.8066    5.8262 H   0  0  0  0  0  0  0  0  0  0  0  0
    3.4217   -7.1036    5.1042 H   0  0  0  0  0  0  0  0  0  0  0  0
    4.9988   -6.5786    4.5906 H   0  0  0  0  0  0  0  0  0  0  0  0
    4.4560  -10.5552    4.6846 H   0  0  0  0  0  0  0  0  0  0  0  0
    2.4550  -10.6745    5.9244 H   0  0  0  0  0  0  0  0  0  0  0  0
    3.0010   -9.0716    6.2646 H   0  0  0  0  0  0  0  0  0  0  0  0
   -0.2759   -7.7253    2.7056 H   0  0  0  0  0  0  0  0  0  0  0  0
   -0.9943   -9.3440    2.8406 H   0  0  0  0  0  0  0  0  0  0  0  0
   -1.1005   -7.1921    4.8476 H   0  0  0  0  0  0  0  0  0  0  0  0
   -1.8019   -8.8021    4.9830 H   0  0  0  0  0  0  0  0  0  0  0  0
    3.7342  -10.6875    2.4181 H   0  0  0  0  0  0  0  0  0  0  0  0
  1  2  1  0
  1 24  1  0
  1 25  1  0
  1 26  1  0
  2 16  1  0
  2  3  1  0
  2 45  1  6
  3 19  1  0
  3  4  1  0
  3 27  1  6
  4  5  2  0
  4 28  1  0
  5 14  1  0
  5  6  1  0
  6 11  2  0
  6  7  1  0
  7  8  2  0
  7 29  1  0
  8  9  1  0
  8 30  1  0
  9 10  2  0
  9 31  1  0
 10 11  1  0
 10 32  1  0
 11 12  1  0
 12 13  1  0
 13 14  1  0
 13 33  1  0
 13 34  1  0
 14 15  1  1
 14 16  1  0
 15 35  1  0
 15 36  1  0
 15 37  1  0
 16 17  1  0
 16 38  1  1
 17 18  1  0
 17 39  1  0
 17 40  1  0
 18 22  1  0
 18 19  2  0
 19 20  1  0
 20 21  1  0
 20 41  1  0
 20 42  1  0
 21 22  1  0
 21 43  1  0
 21 44  1  0
 22 23  2  0
M  CHG  1   2   1
M  END
>  <i_m_ct_stereo_status>  (68) 
1

>  <s_m_source_file>  (68) 
/var/tmp/pbs.5076255.sched01/tmpuj7nejrg/06cdl7mjn.sdf

>  <i_m_source_file_index>  (68) 
30

>  <i_lp_mmshare_version>  (68) 
48012

>  <i_f3d_flags>  (68) 
0

>  <s_epik_input>  (68) 
W0NIM11OMVtDQEBIXTJbQ0gyXUMoQyg9TylbQ0gyXVtDSDJdMyk9QzNbQ0hdMVtDSF09QyhbQ0BAXTI0W0NIM10pYzVjKE9bQ0gyXTQpW2NIXVtjSF1bY0hdW2NIXTU=

>  <s_epik_cmdline>  (68) 
J2VwaWtfcHl0aG9uJywgJy1waHQnLCAnMi4wJywgJy1waCcsICc3LjAnLCAnLXRuJywgJzgnLCAnLW1hJywgJzIwMCcsICctaW1hZScsICc8aW5maWxlLm1hZT4nLCAnLW9tYWUnLCAnPG91dGZpbGUubWFlPic=

>  <r_lp_tautomer_probability>  (68) 
0.499977

>  <r_epik_Ionization_Penalty>  (68) 
1.64865

>  <r_epik_Ionization_Penalty_Charging>  (68) 
1.64865

>  <r_epik_Ionization_Penalty_Neutral>  (68) 
0

>  <r_epik_State_Penalty>  (68) 
1.56763

>  <r_epik_Charging_Adjusted_Penalty>  (68) 
3.21628

>  <i_epik_Tot_Q>  (68) 
1

>  <i_epik_Tot_abs_Q>  (68) 
1

>  <s_lp_Force_Field>  (68) 
OPLS3e

>  <r_lp_Energy>  (68) 
25.3052

>  <b_lp_Chiralities_Consistent>  (68) 
1

>  <s_lp_Variant>  (68) 
15:0-6

>  <s_i_glide_gridfile>  (68) 
pfpi4k_grid

>  <i_i_glide_lignum>  (68) 
30

>  <i_i_glide_rotatable_bonds>  (68) 
0

>  <r_i_docking_score>  (68) 
-3.6251

>  <r_i_glide_ligand_efficiency>  (68) 
-0.157613

>  <r_i_glide_ligand_efficiency_sa>  (68) 
-0.448231

>  <r_i_glide_ligand_efficiency_ln>  (68) 
-0.876582

>  <r_i_glide_gscore>  (68) 
-3.6251

>  <r_i_glide_lipo>  (68) 
-0.516975

>  <r_i_glide_hbond>  (68) 
0

>  <r_i_glide_metal>  (68) 
-0

>  <r_i_glide_rewards>  (68) 
-1.3064

>  <r_i_glide_evdw>  (68) 
-19.4942

>  <r_i_glide_ecoul>  (68) 
-5.02757

>  <r_i_glide_erotb>  (68) 
0

>  <r_i_glide_esite>  (68) 
-0.0728755

>  <r_i_glide_emodel>  (68) 
-32.3466

>  <r_i_glide_energy>  (68) 
-24.5218

>  <r_i_glide_einternal>  (68) 
0

>  <r_i_glide_intrahb_reward>  (68) 
-0

>  <i_i_glide_confnum>  (68) 
2

>  <i_i_glide_posenum>  (68) 
1

>  <r_i_glide_eff_state_penalty>  (68) 
0

>  <ligand_id>  (68) 
15

>  <original_smiles>  (68) 
CN1C2C=C3c4ccccc4OCC3(C)C1CC1=C2CCC1=O

>  <smiles>  (68) 
[H]C1=C2c3c([H])c([H])c([H])c([H])c3OC([H])([H])C2(C([H])([H])[H])C2([H])C([H])([H])C3=C(C([H])([H])C([H])([H])C3=O)C1([H])[N+]2([H])C([H])([H])[H]

$$$$
15:5:2
     RDKit          3D

 45 49  0  0  1  0  0  0  0  0999 V2000
    6.2532   -5.6770    2.6198 C   0  0  0  0  0  0  0  0  0  0  0  0
    5.4446   -4.8351    1.6975 N   0  0  1  0  0  0  0  0  0  0  0  0
    4.1391   -5.4520    1.3065 C   0  0  2  0  0  0  0  0  0  0  0  0
    3.6545   -4.6937    0.0926 C   0  0  0  0  0  0  0  0  0  0  0  0
    3.9131   -3.3844   -0.0990 C   0  0  0  0  0  0  0  0  0  0  0  0
    3.6409   -2.7075   -1.3851 C   0  0  0  0  0  0  0  0  0  0  0  0
    2.6430   -3.1529   -2.2830 C   0  0  0  0  0  0  0  0  0  0  0  0
    2.4497   -2.5219   -3.5233 C   0  0  0  0  0  0  0  0  0  0  0  0
    3.2298   -1.4061   -3.8717 C   0  0  0  0  0  0  0  0  0  0  0  0
    4.2039   -0.9365   -2.9734 C   0  0  0  0  0  0  0  0  0  0  0  0
    4.4306   -1.5848   -1.7443 C   0  0  0  0  0  0  0  0  0  0  0  0
    5.4081   -1.0735   -0.9194 O   0  0  0  0  0  0  0  0  0  0  0  0
    5.8322   -1.8840    0.1761 C   0  0  0  0  0  0  0  0  0  0  0  0
    4.6611   -2.5446    0.9457 C   0  0  1  0  0  0  0  0  0  0  0  0
    3.7193   -1.4260    1.4627 C   0  0  0  0  0  0  0  0  0  0  0  0
    5.2380   -3.4181    2.1430 C   0  0  1  0  0  0  0  0  0  0  0  0
    4.4235   -3.4188    3.4792 C   0  0  0  0  0  0  0  0  0  0  0  0
    3.2621   -4.3857    3.3820 C   0  0  0  0  0  0  0  0  0  0  0  0
    3.1187   -5.2958    2.4253 C   0  0  0  0  0  0  0  0  0  0  0  0
    1.8584   -6.1189    2.5538 C   0  0  0  0  0  0  0  0  0  0  0  0
    1.1816   -5.5553    3.8299 C   0  0  0  0  0  0  0  0  0  0  0  0
    2.1347   -4.4598    4.2902 C   0  0  0  0  0  0  0  0  0  0  0  0
    1.9338   -3.7598    5.2796 O   0  0  0  0  0  0  0  0  0  0  0  0
    5.7266   -5.8961    3.5483 H   0  0  0  0  0  0  0  0  0  0  0  0
    7.1928   -5.1873    2.8683 H   0  0  0  0  0  0  0  0  0  0  0  0
    6.4972   -6.6306    2.1516 H   0  0  0  0  0  0  0  0  0  0  0  0
    4.2851   -6.5044    1.0534 H   0  0  0  0  0  0  0  0  0  0  0  0
    3.1802   -5.2879   -0.6670 H   0  0  0  0  0  0  0  0  0  0  0  0
    2.0067   -3.9888   -2.0345 H   0  0  0  0  0  0  0  0  0  0  0  0
    1.6770   -2.8712   -4.1923 H   0  0  0  0  0  0  0  0  0  0  0  0
    3.0601   -0.8977   -4.8102 H   0  0  0  0  0  0  0  0  0  0  0  0
    4.7782   -0.0633   -3.2158 H   0  0  0  0  0  0  0  0  0  0  0  0
    6.5020   -2.6495   -0.2232 H   0  0  0  0  0  0  0  0  0  0  0  0
    6.4306   -1.2593    0.8413 H   0  0  0  0  0  0  0  0  0  0  0  0
    4.2178   -0.7748    2.1818 H   0  0  0  0  0  0  0  0  0  0  0  0
    2.8207   -1.8355    1.9296 H   0  0  0  0  0  0  0  0  0  0  0  0
    3.3606   -0.7840    0.6565 H   0  0  0  0  0  0  0  0  0  0  0  0
    6.2153   -3.0035    2.3925 H   0  0  0  0  0  0  0  0  0  0  0  0
    5.0636   -3.7647    4.2950 H   0  0  0  0  0  0  0  0  0  0  0  0
    4.0882   -2.4300    3.7821 H   0  0  0  0  0  0  0  0  0  0  0  0
    1.2249   -5.9831    1.6790 H   0  0  0  0  0  0  0  0  0  0  0  0
    2.0865   -7.1787    2.6665 H   0  0  0  0  0  0  0  0  0  0  0  0
    0.2074   -5.1227    3.6253 H   0  0  0  0  0  0  0  0  0  0  0  0
    1.0701   -6.3089    4.6070 H   0  0  0  0  0  0  0  0  0  0  0  0
    5.9887   -4.7853    0.8447 H   0  0  0  0  0  0  0  0  0  0  0  0
  1  2  1  0
  1 24  1  0
  1 25  1  0
  1 26  1  0
  2 16  1  0
  2  3  1  0
  2 45  1  6
  3 19  1  0
  3  4  1  0
  3 27  1  6
  4  5  2  0
  4 28  1  0
  5 14  1  0
  5  6  1  0
  6 11  2  0
  6  7  1  0
  7  8  2  0
  7 29  1  0
  8  9  1  0
  8 30  1  0
  9 10  2  0
  9 31  1  0
 10 11  1  0
 10 32  1  0
 11 12  1  0
 12 13  1  0
 13 14  1  0
 13 33  1  0
 13 34  1  0
 14 15  1  1
 14 16  1  0
 15 35  1  0
 15 36  1  0
 15 37  1  0
 16 17  1  0
 16 38  1  1
 17 18  1  0
 17 39  1  0
 17 40  1  0
 18 22  1  0
 18 19  2  0
 19 20  1  0
 20 21  1  0
 20 41  1  0
 20 42  1  0
 21 22  1  0
 21 43  1  0
 21 44  1  0
 22 23  2  0
M  CHG  1   2   1
M  END
>  <i_m_ct_stereo_status>  (69) 
1

>  <s_m_source_file>  (69) 
/var/tmp/pbs.5076255.sched01/tmpuj7nejrg/06cdl7mjn.sdf

>  <i_m_source_file_index>  (69) 
30

>  <i_lp_mmshare_version>  (69) 
48012

>  <i_f3d_flags>  (69) 
0

>  <s_epik_input>  (69) 
W0NIM11OMVtDQEBIXTJbQ0gyXUMoQyg9TylbQ0gyXVtDSDJdMyk9QzNbQ0hdMVtDSF09QyhbQ0BAXTI0W0NIM10pYzVjKE9bQ0gyXTQpW2NIXVtjSF1bY0hdW2NIXTU=

>  <s_epik_cmdline>  (69) 
J2VwaWtfcHl0aG9uJywgJy1waHQnLCAnMi4wJywgJy1waCcsICc3LjAnLCAnLXRuJywgJzgnLCAnLW1hJywgJzIwMCcsICctaW1hZScsICc8aW5maWxlLm1hZT4nLCAnLW9tYWUnLCAnPG91dGZpbGUubWFlPic=

>  <r_lp_tautomer_probability>  (69) 
0.499977

>  <r_epik_Ionization_Penalty>  (69) 
1.64865

>  <r_epik_Ionization_Penalty_Charging>  (69) 
1.64865

>  <r_epik_Ionization_Penalty_Neutral>  (69) 
0

>  <r_epik_State_Penalty>  (69) 
1.56763

>  <r_epik_Charging_Adjusted_Penalty>  (69) 
3.21628

>  <i_epik_Tot_Q>  (69) 
1

>  <i_epik_Tot_abs_Q>  (69) 
1

>  <s_lp_Force_Field>  (69) 
OPLS3e

>  <r_lp_Energy>  (69) 
25.3052

>  <b_lp_Chiralities_Consistent>  (69) 
1

>  <s_lp_Variant>  (69) 
15:0-6

>  <s_i_glide_gridfile>  (69) 
pfpi4k_grid

>  <i_i_glide_lignum>  (69) 
30

>  <i_i_glide_rotatable_bonds>  (69) 
0

>  <r_i_docking_score>  (69) 
-3.48545

>  <r_i_glide_ligand_efficiency>  (69) 
-0.151541

>  <r_i_glide_ligand_efficiency_sa>  (69) 
-0.430963

>  <r_i_glide_ligand_efficiency_ln>  (69) 
-0.842813

>  <r_i_glide_gscore>  (69) 
-3.48545

>  <r_i_glide_lipo>  (69) 
-0.673058

>  <r_i_glide_hbond>  (69) 
0

>  <r_i_glide_metal>  (69) 
-0

>  <r_i_glide_rewards>  (69) 
-1.3064

>  <r_i_glide_evdw>  (69) 
-21.8104

>  <r_i_glide_ecoul>  (69) 
-2.76977

>  <r_i_glide_erotb>  (69) 
0

>  <r_i_glide_esite>  (69) 
0

>  <r_i_glide_emodel>  (69) 
-32.1027

>  <r_i_glide_energy>  (69) 
-24.5802

>  <r_i_glide_einternal>  (69) 
0

>  <r_i_glide_intrahb_reward>  (69) 
-0

>  <i_i_glide_confnum>  (69) 
1

>  <i_i_glide_posenum>  (69) 
19

>  <r_i_glide_eff_state_penalty>  (69) 
0

>  <ligand_id>  (69) 
15

>  <original_smiles>  (69) 
CN1C2C=C3c4ccccc4OCC3(C)C1CC1=C2CCC1=O

>  <smiles>  (69) 
[H]C1=C2c3c([H])c([H])c([H])c([H])c3OC([H])([H])C2(C([H])([H])[H])C2([H])C([H])([H])C3=C(C([H])([H])C([H])([H])C3=O)C1([H])[N+]2([H])C([H])([H])[H]

$$$$
17:0:0
     RDKit          3D

 36 40  0  0  1  0  0  0  0  0999 V2000
    1.8281   -1.4258    3.9898 C   0  0  0  0  0  0  0  0  0  0  0  0
    2.5384   -0.4244    3.0612 C   0  0  0  0  0  0  0  0  0  0  0  0
    3.8735   -1.1274    2.7175 C   0  0  0  0  0  0  0  0  0  0  0  0
    1.7239    0.1955    1.8771 C   0  0  1  0  0  0  0  0  0  0  0  0
    0.2990    0.6164    2.2858 C   0  0  0  0  0  0  0  0  0  0  0  0
    0.1957    1.3545    3.4052 C   0  0  0  0  0  0  0  0  0  0  0  0
   -0.8617    1.6233    4.3321 C   0  0  0  0  0  0  0  0  0  0  0  0
   -0.2947    1.2635    5.5636 C   0  0  0  0  0  0  0  0  0  0  0  0
   -1.0550    1.5190    6.7148 C   0  0  0  0  0  0  0  0  0  0  0  0
   -2.2214    2.3080    6.5970 C   0  0  0  0  0  0  0  0  0  0  0  0
   -2.4670    2.9777    5.3760 C   0  0  0  0  0  0  0  0  0  0  0  0
   -1.6204    2.7949    4.2635 C   0  0  0  0  0  0  0  0  0  0  0  0
   -0.9926    4.0175    3.6821 C   0  0  0  0  0  0  0  0  0  0  0  0
   -1.7006    4.9395    3.2614 O   0  0  0  0  0  0  0  0  0  0  0  0
    0.5006    4.1945    3.8483 C   0  0  0  0  0  0  0  0  0  0  0  0
    1.4618    3.2690    4.1471 C   0  0  0  0  0  0  0  0  0  0  0  0
    1.3991    1.7269    4.1917 C   0  0  1  0  0  0  0  0  0  0  0  0
    1.0827    1.1968    5.4985 O   0  0  0  0  0  0  0  0  0  0  0  0
    2.6262    1.0696    3.5128 C   0  0  2  0  0  0  0  0  0  0  0  0
    2.6836    1.3834    2.0038 C   0  0  0  0  0  0  0  0  0  0  0  0
    1.7175   -2.4079    3.5236 H   0  0  0  0  0  0  0  0  0  0  0  0
    0.8272   -1.1080    4.2678 H   0  0  0  0  0  0  0  0  0  0  0  0
    2.3806   -1.5671    4.9216 H   0  0  0  0  0  0  0  0  0  0  0  0
    4.5275   -0.5549    2.0650 H   0  0  0  0  0  0  0  0  0  0  0  0
    3.7128   -2.0804    2.2137 H   0  0  0  0  0  0  0  0  0  0  0  0
    4.4602   -1.3352    3.6131 H   0  0  0  0  0  0  0  0  0  0  0  0
    1.8062   -0.3393    0.9358 H   0  0  0  0  0  0  0  0  0  0  0  0
   -0.5373    0.1769    1.7675 H   0  0  0  0  0  0  0  0  0  0  0  0
   -0.6680    1.2827    7.7015 H   0  0  0  0  0  0  0  0  0  0  0  0
   -2.7717    2.6011    7.4749 H   0  0  0  0  0  0  0  0  0  0  0  0
   -3.1020    3.8443    5.4191 H   0  0  0  0  0  0  0  0  0  0  0  0
    0.8361    5.2183    3.7641 H   0  0  0  0  0  0  0  0  0  0  0  0
    2.4599    3.6384    4.2573 H   0  0  0  0  0  0  0  0  0  0  0  0
    3.5690    1.2850    4.0079 H   0  0  0  0  0  0  0  0  0  0  0  0
    3.6512    1.2486    1.5273 H   0  0  0  0  0  0  0  0  0  0  0  0
    2.2263    2.3282    1.7009 H   0  0  0  0  0  0  0  0  0  0  0  0
  1  2  1  0
  1 21  1  0
  1 22  1  0
  1 23  1  0
  2 19  1  0
  2  3  1  0
  2  4  1  0
  3 24  1  0
  3 25  1  0
  3 26  1  0
  4 20  1  0
  4  5  1  0
  4 27  1  6
  5  6  2  0
  5 28  1  0
  6 17  1  0
  6  7  1  0
  7 12  1  0
  7  8  2  0
  8 18  1  0
  8  9  1  0
  9 10  2  0
  9 29  1  0
 10 11  1  0
 10 30  1  0
 11 12  2  0
 11 31  1  0
 12 13  1  0
 13 14  2  0
 13 15  1  0
 15 16  2  0
 15 32  1  0
 16 17  1  0
 16 33  1  0
 17 18  1  1
 17 19  1  0
 19 20  1  0
 19 34  1  1
 20 35  1  0
 20 36  1  0
M  END
>  <i_m_ct_stereo_status>  (70) 
1

>  <s_m_source_file>  (70) 
/var/tmp/pbs.5076255.sched01/tmpuj7nejrg/06cdl7mjn.sdf

>  <i_m_source_file_index>  (70) 
33

>  <i_lp_mmshare_version>  (70) 
48012

>  <i_f3d_flags>  (70) 
0

>  <s_epik_input>  (70) 
W0NIMl0xW0NAQEhdMkMoW0NIM10pKFtDSDNdKVtDQEhdMVtDSF09QyhbQ0BAXTIzNCljNWMoTzQpW2NIXVtjSF1bY0hdYzVDKD1PKVtDSF09W0NIXTM=

>  <s_epik_cmdline>  (70) 
J2VwaWtfcHl0aG9uJywgJy1waHQnLCAnMi4wJywgJy1waCcsICc3LjAnLCAnLXRuJywgJzgnLCAnLW1hJywgJzIwMCcsICctaW1hZScsICc8aW5maWxlLm1hZT4nLCAnLW9tYWUnLCAnPG91dGZpbGUubWFlPic=

>  <r_lp_tautomer_probability>  (70) 
1

>  <r_epik_Ionization_Penalty>  (70) 
0

>  <r_epik_Ionization_Penalty_Charging>  (70) 
0

>  <r_epik_Ionization_Penalty_Neutral>  (70) 
0

>  <r_epik_State_Penalty>  (70) 
-0

>  <r_epik_Charging_Adjusted_Penalty>  (70) 
0

>  <i_epik_Tot_Q>  (70) 
0

>  <i_epik_Tot_abs_Q>  (70) 
0

>  <s_lp_Force_Field>  (70) 
OPLS3e

>  <r_lp_Energy>  (70) 
126.077

>  <b_lp_Chiralities_Consistent>  (70) 
1

>  <s_lp_Variant>  (70) 
17:0-1

>  <s_i_glide_gridfile>  (70) 
pfpi4k_grid

>  <i_i_glide_lignum>  (70) 
33

>  <i_i_glide_rotatable_bonds>  (70) 
0

>  <r_i_docking_score>  (70) 
-3.29379

>  <r_i_glide_ligand_efficiency>  (70) 
-0.164689

>  <r_i_glide_ligand_efficiency_sa>  (70) 
-0.447035

>  <r_i_glide_ligand_efficiency_ln>  (70) 
-0.824326

>  <r_i_glide_gscore>  (70) 
-3.29379

>  <r_i_glide_lipo>  (70) 
-0.0566173

>  <r_i_glide_hbond>  (70) 
-0.16

>  <r_i_glide_metal>  (70) 
-0

>  <r_i_glide_rewards>  (70) 
-1.60692

>  <r_i_glide_evdw>  (70) 
-16.7325

>  <r_i_glide_ecoul>  (70) 
-3.55749

>  <r_i_glide_erotb>  (70) 
0

>  <r_i_glide_esite>  (70) 
-0.1

>  <r_i_glide_emodel>  (70) 
-24.2665

>  <r_i_glide_energy>  (70) 
-20.29

>  <r_i_glide_einternal>  (70) 
0

>  <r_i_glide_intrahb_reward>  (70) 
-0

>  <i_i_glide_confnum>  (70) 
1

>  <i_i_glide_posenum>  (70) 
8

>  <r_i_glide_eff_state_penalty>  (70) 
0

>  <ligand_id>  (70) 
17

>  <original_smiles>  (70) 
CC1(C)C2C=C3c4c5cccc4C(=O)C=CC3(O5)C1C2

>  <smiles>  (70) 
[H]C1=C([H])C23Oc4c([H])c([H])c([H])c(c4C2=C([H])C2([H])C([H])([H])C3([H])C2(C([H])([H])[H])C([H])([H])[H])C1=O

$$$$
17:0:1
     RDKit          3D

 36 40  0  0  1  0  0  0  0  0999 V2000
    3.1412   -0.7078    4.7726 C   0  0  0  0  0  0  0  0  0  0  0  0
    3.0709   -0.0041    3.4032 C   0  0  0  0  0  0  0  0  0  0  0  0
    4.4449   -0.3081    2.7615 C   0  0  0  0  0  0  0  0  0  0  0  0
    1.7972   -0.2317    2.5170 C   0  0  1  0  0  0  0  0  0  0  0  0
    0.4948   -0.1756    3.3367 C   0  0  0  0  0  0  0  0  0  0  0  0
    0.3535    0.8805    4.1593 C   0  0  0  0  0  0  0  0  0  0  0  0
   -0.4560    1.1532    5.3192 C   0  0  0  0  0  0  0  0  0  0  0  0
    0.4950    1.5448    6.2645 C   0  0  0  0  0  0  0  0  0  0  0  0
    0.0176    1.9800    7.5152 C   0  0  0  0  0  0  0  0  0  0  0  0
   -1.3662    2.2205    7.6567 C   0  0  0  0  0  0  0  0  0  0  0  0
   -2.1846    2.2270    6.5042 C   0  0  0  0  0  0  0  0  0  0  0  0
   -1.6464    1.8871    5.2394 C   0  0  0  0  0  0  0  0  0  0  0  0
   -1.7938    2.8860    4.1453 C   0  0  0  0  0  0  0  0  0  0  0  0
   -2.9093    3.2383    3.7461 O   0  0  0  0  0  0  0  0  0  0  0  0
   -0.5493    3.5922    3.6756 C   0  0  0  0  0  0  0  0  0  0  0  0
    0.7649    3.2374    3.7956 C   0  0  0  0  0  0  0  0  0  0  0  0
    1.4143    1.9155    4.2720 C   0  0  1  0  0  0  0  0  0  0  0  0
    1.6961    1.8964    5.6884 O   0  0  0  0  0  0  0  0  0  0  0  0
    2.5901    1.4845    3.3639 C   0  0  2  0  0  0  0  0  0  0  0  0
    2.1187    1.1537    1.9299 C   0  0  0  0  0  0  0  0  0  0  0  0
    3.3701   -1.7713    4.6720 H   0  0  0  0  0  0  0  0  0  0  0  0
    2.2091   -0.6478    5.3337 H   0  0  0  0  0  0  0  0  0  0  0  0
    3.9143   -0.2657    5.4064 H   0  0  0  0  0  0  0  0  0  0  0  0
    4.5858    0.1251    1.7742 H   0  0  0  0  0  0  0  0  0  0  0  0
    4.6086   -1.3787    2.6419 H   0  0  0  0  0  0  0  0  0  0  0  0
    5.2633    0.0740    3.3723 H   0  0  0  0  0  0  0  0  0  0  0  0
    1.8605   -1.0554    1.8070 H   0  0  0  0  0  0  0  0  0  0  0  0
   -0.1561   -1.0341    3.3496 H   0  0  0  0  0  0  0  0  0  0  0  0
    0.7053    2.2972    8.2918 H   0  0  0  0  0  0  0  0  0  0  0  0
   -1.7413    2.6458    8.5733 H   0  0  0  0  0  0  0  0  0  0  0  0
   -3.1160    2.7668    6.5523 H   0  0  0  0  0  0  0  0  0  0  0  0
   -0.7313    4.5360    3.1808 H   0  0  0  0  0  0  0  0  0  0  0  0
    1.4796    3.9284    3.3849 H   0  0  0  0  0  0  0  0  0  0  0  0
    3.4251    2.1845    3.3690 H   0  0  0  0  0  0  0  0  0  0  0  0
    2.8955    1.1693    1.1728 H   0  0  0  0  0  0  0  0  0  0  0  0
    1.2384    1.6979    1.5807 H   0  0  0  0  0  0  0  0  0  0  0  0
  1  2  1  0
  1 21  1  0
  1 22  1  0
  1 23  1  0
  2 19  1  0
  2  3  1  0
  2  4  1  0
  3 24  1  0
  3 25  1  0
  3 26  1  0
  4 20  1  0
  4  5  1  0
  4 27  1  6
  5  6  2  0
  5 28  1  0
  6 17  1  0
  6  7  1  0
  7 12  1  0
  7  8  2  0
  8 18  1  0
  8  9  1  0
  9 10  2  0
  9 29  1  0
 10 11  1  0
 10 30  1  0
 11 12  2  0
 11 31  1  0
 12 13  1  0
 13 14  2  0
 13 15  1  0
 15 16  2  0
 15 32  1  0
 16 17  1  0
 16 33  1  0
 17 18  1  1
 17 19  1  0
 19 20  1  0
 19 34  1  6
 20 35  1  0
 20 36  1  0
M  END
>  <i_m_ct_stereo_status>  (71) 
1

>  <s_m_source_file>  (71) 
/var/tmp/pbs.5076255.sched01/tmpuj7nejrg/06cdl7mjn.sdf

>  <i_m_source_file_index>  (71) 
33

>  <i_lp_mmshare_version>  (71) 
48012

>  <i_f3d_flags>  (71) 
0

>  <s_epik_input>  (71) 
W0NIMl0xW0NAQEhdMkMoW0NIM10pKFtDSDNdKVtDQEhdMVtDSF09QyhbQ0BAXTIzNCljNWMoTzQpW2NIXVtjSF1bY0hdYzVDKD1PKVtDSF09W0NIXTM=

>  <s_epik_cmdline>  (71) 
J2VwaWtfcHl0aG9uJywgJy1waHQnLCAnMi4wJywgJy1waCcsICc3LjAnLCAnLXRuJywgJzgnLCAnLW1hJywgJzIwMCcsICctaW1hZScsICc8aW5maWxlLm1hZT4nLCAnLW9tYWUnLCAnPG91dGZpbGUubWFlPic=

>  <r_lp_tautomer_probability>  (71) 
1

>  <r_epik_Ionization_Penalty>  (71) 
0

>  <r_epik_Ionization_Penalty_Charging>  (71) 
0

>  <r_epik_Ionization_Penalty_Neutral>  (71) 
0

>  <r_epik_State_Penalty>  (71) 
-0

>  <r_epik_Charging_Adjusted_Penalty>  (71) 
0

>  <i_epik_Tot_Q>  (71) 
0

>  <i_epik_Tot_abs_Q>  (71) 
0

>  <s_lp_Force_Field>  (71) 
OPLS3e

>  <r_lp_Energy>  (71) 
126.077

>  <b_lp_Chiralities_Consistent>  (71) 
1

>  <s_lp_Variant>  (71) 
17:0-1

>  <s_i_glide_gridfile>  (71) 
pfpi4k_grid

>  <i_i_glide_lignum>  (71) 
33

>  <i_i_glide_rotatable_bonds>  (71) 
0

>  <r_i_docking_score>  (71) 
-2.8673

>  <r_i_glide_ligand_efficiency>  (71) 
-0.143365

>  <r_i_glide_ligand_efficiency_sa>  (71) 
-0.389152

>  <r_i_glide_ligand_efficiency_ln>  (71) 
-0.71759

>  <r_i_glide_gscore>  (71) 
-2.8673

>  <r_i_glide_lipo>  (71) 
-0.108572

>  <r_i_glide_hbond>  (71) 
0

>  <r_i_glide_metal>  (71) 
-0

>  <r_i_glide_rewards>  (71) 
-1.60692

>  <r_i_glide_evdw>  (71) 
-18.0363

>  <r_i_glide_ecoul>  (71) 
-1.44937

>  <r_i_glide_erotb>  (71) 
0

>  <r_i_glide_esite>  (71) 
-0.0325846

>  <r_i_glide_emodel>  (71) 
-23.0135

>  <r_i_glide_energy>  (71) 
-19.4857

>  <r_i_glide_einternal>  (71) 
0

>  <r_i_glide_intrahb_reward>  (71) 
-0

>  <i_i_glide_confnum>  (71) 
2

>  <i_i_glide_posenum>  (71) 
21

>  <r_i_glide_eff_state_penalty>  (71) 
0

>  <ligand_id>  (71) 
17

>  <original_smiles>  (71) 
CC1(C)C2C=C3c4c5cccc4C(=O)C=CC3(O5)C1C2

>  <smiles>  (71) 
[H]C1=C([H])C23Oc4c([H])c([H])c([H])c(c4C2=C([H])C2([H])C([H])([H])C3([H])C2(C([H])([H])[H])C([H])([H])[H])C1=O

$$$$
17:0:2
     RDKit          3D

 36 40  0  0  1  0  0  0  0  0999 V2000
   -0.2128    4.8605    3.7218 C   0  0  0  0  0  0  0  0  0  0  0  0
    0.4866    3.9098    4.7102 C   0  0  0  0  0  0  0  0  0  0  0  0
   -0.6565    2.9856    5.1928 C   0  0  0  0  0  0  0  0  0  0  0  0
    1.8243    3.2313    4.2630 C   0  0  1  0  0  0  0  0  0  0  0  0
    2.7654    4.2145    3.5388 C   0  0  0  0  0  0  0  0  0  0  0  0
    2.9898    5.3912    4.1583 C   0  0  0  0  0  0  0  0  0  0  0  0
    3.4445    6.6805    3.7202 C   0  0  0  0  0  0  0  0  0  0  0  0
    2.4284    7.5277    4.1648 C   0  0  0  0  0  0  0  0  0  0  0  0
    2.6212    8.9112    3.9722 C   0  0  0  0  0  0  0  0  0  0  0  0
    3.8995    9.3523    3.5668 C   0  0  0  0  0  0  0  0  0  0  0  0
    4.9854    8.4502    3.5801 C   0  0  0  0  0  0  0  0  0  0  0  0
    4.7747    7.0869    3.8897 C   0  0  0  0  0  0  0  0  0  0  0  0
    5.5548    6.5154    5.0230 C   0  0  0  0  0  0  0  0  0  0  0  0
    6.7901    6.4535    4.9771 O   0  0  0  0  0  0  0  0  0  0  0  0
    4.8040    6.1450    6.2797 C   0  0  0  0  0  0  0  0  0  0  0  0
    3.4692    5.9053    6.4655 C   0  0  0  0  0  0  0  0  0  0  0  0
    2.3252    5.7160    5.4431 C   0  0  1  0  0  0  0  0  0  0  0  0
    1.6353    6.9442    5.1306 O   0  0  0  0  0  0  0  0  0  0  0  0
    1.4002    4.5317    5.8160 C   0  0  2  0  0  0  0  0  0  0  0  0
    2.1488    3.1820    5.7671 C   0  0  0  0  0  0  0  0  0  0  0  0
   -0.7289    4.3165    2.9247 H   0  0  0  0  0  0  0  0  0  0  0  0
    0.4748    5.5445    3.2240 H   0  0  0  0  0  0  0  0  0  0  0  0
   -0.9553    5.4736    4.2336 H   0  0  0  0  0  0  0  0  0  0  0  0
   -0.3519    2.2373    5.9189 H   0  0  0  0  0  0  0  0  0  0  0  0
   -1.1071    2.4351    4.3668 H   0  0  0  0  0  0  0  0  0  0  0  0
   -1.4552    3.5524    5.6711 H   0  0  0  0  0  0  0  0  0  0  0  0
    1.7132    2.2620    3.7812 H   0  0  0  0  0  0  0  0  0  0  0  0
    3.0729    4.0062    2.5253 H   0  0  0  0  0  0  0  0  0  0  0  0
    1.8643    9.6200    4.2802 H   0  0  0  0  0  0  0  0  0  0  0  0
    4.0976   10.4126    3.5077 H   0  0  0  0  0  0  0  0  0  0  0  0
    5.9804    8.8615    3.6488 H   0  0  0  0  0  0  0  0  0  0  0  0
    5.4204    6.1183    7.1685 H   0  0  0  0  0  0  0  0  0  0  0  0
    3.1581    5.6969    7.4723 H   0  0  0  0  0  0  0  0  0  0  0  0
    0.8638    4.6693    6.7512 H   0  0  0  0  0  0  0  0  0  0  0  0
    1.6816    2.3708    6.3208 H   0  0  0  0  0  0  0  0  0  0  0  0
    3.2176    3.2233    5.9815 H   0  0  0  0  0  0  0  0  0  0  0  0
  1  2  1  0
  1 21  1  0
  1 22  1  0
  1 23  1  0
  2 19  1  0
  2  3  1  0
  2  4  1  0
  3 24  1  0
  3 25  1  0
  3 26  1  0
  4 20  1  0
  4  5  1  0
  4 27  1  6
  5  6  2  0
  5 28  1  0
  6 17  1  0
  6  7  1  0
  7 12  1  0
  7  8  2  0
  8 18  1  0
  8  9  1  0
  9 10  2  0
  9 29  1  0
 10 11  1  0
 10 30  1  0
 11 12  2  0
 11 31  1  0
 12 13  1  0
 13 14  2  0
 13 15  1  0
 15 16  2  0
 15 32  1  0
 16 17  1  0
 16 33  1  0
 17 18  1  6
 17 19  1  0
 19 20  1  0
 19 34  1  1
 20 35  1  0
 20 36  1  0
M  END
>  <i_m_ct_stereo_status>  (72) 
1

>  <s_m_source_file>  (72) 
/var/tmp/pbs.5076255.sched01/tmpuj7nejrg/06cdl7mjn.sdf

>  <i_m_source_file_index>  (72) 
33

>  <i_lp_mmshare_version>  (72) 
48012

>  <i_f3d_flags>  (72) 
0

>  <s_epik_input>  (72) 
W0NIMl0xW0NAQEhdMkMoW0NIM10pKFtDSDNdKVtDQEhdMVtDSF09QyhbQ0BAXTIzNCljNWMoTzQpW2NIXVtjSF1bY0hdYzVDKD1PKVtDSF09W0NIXTM=

>  <s_epik_cmdline>  (72) 
J2VwaWtfcHl0aG9uJywgJy1waHQnLCAnMi4wJywgJy1waCcsICc3LjAnLCAnLXRuJywgJzgnLCAnLW1hJywgJzIwMCcsICctaW1hZScsICc8aW5maWxlLm1hZT4nLCAnLW9tYWUnLCAnPG91dGZpbGUubWFlPic=

>  <r_lp_tautomer_probability>  (72) 
1

>  <r_epik_Ionization_Penalty>  (72) 
0

>  <r_epik_Ionization_Penalty_Charging>  (72) 
0

>  <r_epik_Ionization_Penalty_Neutral>  (72) 
0

>  <r_epik_State_Penalty>  (72) 
-0

>  <r_epik_Charging_Adjusted_Penalty>  (72) 
0

>  <i_epik_Tot_Q>  (72) 
0

>  <i_epik_Tot_abs_Q>  (72) 
0

>  <s_lp_Force_Field>  (72) 
OPLS3e

>  <r_lp_Energy>  (72) 
126.077

>  <b_lp_Chiralities_Consistent>  (72) 
1

>  <s_lp_Variant>  (72) 
17:0-1

>  <s_i_glide_gridfile>  (72) 
pfpi4k_grid

>  <i_i_glide_lignum>  (72) 
33

>  <i_i_glide_rotatable_bonds>  (72) 
0

>  <r_i_docking_score>  (72) 
-2.82761

>  <r_i_glide_ligand_efficiency>  (72) 
-0.14138

>  <r_i_glide_ligand_efficiency_sa>  (72) 
-0.383765

>  <r_i_glide_ligand_efficiency_ln>  (72) 
-0.707657

>  <r_i_glide_gscore>  (72) 
-2.82761

>  <r_i_glide_lipo>  (72) 
-0.392446

>  <r_i_glide_hbond>  (72) 
0

>  <r_i_glide_metal>  (72) 
-0

>  <r_i_glide_rewards>  (72) 
-1.64762

>  <r_i_glide_evdw>  (72) 
-16.1784

>  <r_i_glide_ecoul>  (72) 
0.142526

>  <r_i_glide_erotb>  (72) 
0

>  <r_i_glide_esite>  (72) 
0

>  <r_i_glide_emodel>  (72) 
-19.3985

>  <r_i_glide_energy>  (72) 
-16.0359

>  <r_i_glide_einternal>  (72) 
0

>  <r_i_glide_intrahb_reward>  (72) 
-0

>  <i_i_glide_confnum>  (72) 
1

>  <i_i_glide_posenum>  (72) 
14

>  <r_i_glide_eff_state_penalty>  (72) 
0

>  <ligand_id>  (72) 
17

>  <original_smiles>  (72) 
CC1(C)C2C=C3c4c5cccc4C(=O)C=CC3(O5)C1C2

>  <smiles>  (72) 
[H]C1=C([H])C23Oc4c([H])c([H])c([H])c(c4C2=C([H])C2([H])C([H])([H])C3([H])C2(C([H])([H])[H])C([H])([H])[H])C1=O

$$$$
19:0:0
     RDKit          3D

 57 60  0  0  1  0  0  0  0  0999 V2000
    1.7110   -0.9904    4.3903 C   0  0  0  0  0  0  0  0  0  0  0  0
    2.2684   -0.8375    2.9658 C   0  0  2  0  0  0  0  0  0  0  0  0
    1.6605   -1.9092    2.0485 C   0  0  0  0  0  0  0  0  0  0  0  0
    2.6393   -2.8760    1.3529 C   0  0  0  0  0  0  0  0  0  0  0  0
    3.8031   -2.0830    0.7366 C   0  0  2  0  0  0  0  0  0  0  0  0
    4.6140   -2.7768   -0.4361 C   0  0  1  0  0  0  0  0  0  0  0  0
    4.0446   -2.4031   -1.8706 C   0  0  0  0  0  0  0  0  0  0  0  0
    4.2523   -0.9276   -2.2308 C   0  0  0  0  0  0  0  0  0  0  0  0
    4.4898   -3.2827   -3.0672 C   0  0  0  0  0  0  0  0  0  0  0  0
    2.6325   -2.6621   -1.8488 O   0  0  0  0  0  0  0  0  0  0  0  0
    6.1468   -2.5880   -0.1592 C   0  0  2  0  0  0  0  0  0  0  0  0
    7.0893   -2.8005   -1.3651 C   0  0  0  0  0  0  0  0  0  0  0  0
    6.6777   -3.5993    0.8805 C   0  0  0  0  0  0  0  0  0  0  0  0
    5.8130   -3.8016    2.1238 C   0  0  0  0  0  0  0  0  0  0  0  0
    5.4223   -2.4733    2.7997 C   0  0  2  0  0  0  0  0  0  0  0  0
    4.8087   -2.6456    4.2264 C   0  0  1  0  0  0  0  0  0  0  0  0
    5.4711   -3.6969    5.1420 C   0  0  0  0  0  0  0  0  0  0  0  0
    4.7860   -1.2934    4.9665 C   0  0  0  0  0  0  0  0  0  0  0  0
    4.5356   -0.0919    4.0348 C   0  0  0  0  0  0  0  0  0  0  0  0
    3.7873   -0.4949    2.7447 C   0  0  1  0  0  0  0  0  0  0  0  0
    4.6299   -1.4873    1.8843 C   0  0  2  0  0  0  0  0  0  0  0  0
    5.5174   -0.5954    1.2104 O   0  0  0  0  0  0  0  0  0  0  0  0
    6.5355   -1.2876    0.2853 O   0  0  0  0  0  0  0  0  0  0  0  0
    2.0031   -1.9317    4.8523 H   0  0  0  0  0  0  0  0  0  0  0  0
    0.6245   -0.9924    4.3445 H   0  0  0  0  0  0  0  0  0  0  0  0
    1.9866   -0.1620    5.0418 H   0  0  0  0  0  0  0  0  0  0  0  0
    1.7864    0.0847    2.6359 H   0  0  0  0  0  0  0  0  0  0  0  0
    0.9494   -2.5167    2.6154 H   0  0  0  0  0  0  0  0  0  0  0  0
    1.0824   -1.3488    1.3071 H   0  0  0  0  0  0  0  0  0  0  0  0
    2.9701   -3.6325    2.0701 H   0  0  0  0  0  0  0  0  0  0  0  0
    2.1321   -3.4327    0.5685 H   0  0  0  0  0  0  0  0  0  0  0  0
    3.3307   -1.2087    0.3026 H   0  0  0  0  0  0  0  0  0  0  0  0
    4.4333   -3.8474   -0.3497 H   0  0  0  0  0  0  0  0  0  0  0  0
    5.2993   -0.6443   -2.3550 H   0  0  0  0  0  0  0  0  0  0  0  0
    3.8681   -0.2924   -1.4505 H   0  0  0  0  0  0  0  0  0  0  0  0
    3.7421   -0.6616   -3.1591 H   0  0  0  0  0  0  0  0  0  0  0  0
    5.5044   -3.0899   -3.4364 H   0  0  0  0  0  0  0  0  0  0  0  0
    3.7870   -3.1328   -3.8954 H   0  0  0  0  0  0  0  0  0  0  0  0
    4.3975   -4.3247   -2.7887 H   0  0  0  0  0  0  0  0  0  0  0  0
    2.1538   -1.9631   -1.4167 H   0  0  0  0  0  0  0  0  0  0  0  0
    6.9155   -3.7636   -1.8292 H   0  0  0  0  0  0  0  0  0  0  0  0
    8.1362   -2.7731   -1.0395 H   0  0  0  0  0  0  0  0  0  0  0  0
    6.9457   -2.0209   -2.1186 H   0  0  0  0  0  0  0  0  0  0  0  0
    6.7990   -4.5742    0.4154 H   0  0  0  0  0  0  0  0  0  0  0  0
    7.6769   -3.2913    1.1834 H   0  0  0  0  0  0  0  0  0  0  0  0
    4.9506   -4.4328    1.9080 H   0  0  0  0  0  0  0  0  0  0  0  0
    6.4248   -4.3971    2.8020 H   0  0  0  0  0  0  0  0  0  0  0  0
    6.3484   -1.9291    2.9247 H   0  0  0  0  0  0  0  0  0  0  0  0
    3.7908   -2.9858    4.1037 H   0  0  0  0  0  0  0  0  0  0  0  0
    6.5285   -3.4830    5.2858 H   0  0  0  0  0  0  0  0  0  0  0  0
    5.3744   -4.7124    4.7490 H   0  0  0  0  0  0  0  0  0  0  0  0
    5.0089   -3.6922    6.1314 H   0  0  0  0  0  0  0  0  0  0  0  0
    4.0141   -1.3353    5.7376 H   0  0  0  0  0  0  0  0  0  0  0  0
    5.7139   -1.1376    5.5104 H   0  0  0  0  0  0  0  0  0  0  0  0
    4.0018    0.6994    4.5630 H   0  0  0  0  0  0  0  0  0  0  0  0
    5.5015    0.3358    3.7442 H   0  0  0  0  0  0  0  0  0  0  0  0
    3.7553    0.4152    2.1442 H   0  0  0  0  0  0  0  0  0  0  0  0
  1  2  1  0
  1 24  1  0
  1 25  1  0
  1 26  1  0
  2 20  1  0
  2  3  1  0
  2 27  1  6
  3  4  1  0
  3 28  1  0
  3 29  1  0
  4  5  1  0
  4 30  1  0
  4 31  1  0
  5 21  1  0
  5  6  1  0
  5 32  1  6
  6  7  1  0
  6 11  1  0
  6 33  1  1
  7  8  1  0
  7  9  1  0
  7 10  1  0
  8 34  1  0
  8 35  1  0
  8 36  1  0
  9 37  1  0
  9 38  1  0
  9 39  1  0
 10 40  1  0
 11 23  1  0
 11 12  1  6
 11 13  1  0
 12 41  1  0
 12 42  1  0
 12 43  1  0
 13 14  1  0
 13 44  1  0
 13 45  1  0
 14 15  1  0
 14 46  1  0
 14 47  1  0
 15 21  1  0
 15 16  1  0
 15 48  1  1
 16 17  1  0
 16 18  1  0
 16 49  1  6
 17 50  1  0
 17 51  1  0
 17 52  1  0
 18 19  1  0
 18 53  1  0
 18 54  1  0
 19 20  1  0
 19 55  1  0
 19 56  1  0
 20 21  1  0
 20 57  1  6
 21 22  1  6
 22 23  1  0
M  END
>  <i_m_ct_stereo_status>  (73) 
1

>  <s_m_source_file>  (73) 
/var/tmp/pbs.5076255.sched01/tmpuj7nejrg/06cdl7mjn.sdf

>  <i_m_source_file_index>  (73) 
35

>  <i_lp_mmshare_version>  (73) 
48012

>  <i_f3d_flags>  (73) 
0

>  <s_epik_input>  (73) 
W0NAQF0xMjNbQ0BASF00W0NIMl1bQ0gyXVtDQEBIXShbQ0gzXSlbQ0BIXTJbQ0gyXVtDSDJdW0NASF0oW0NIM10pW0NASF0xW0NIMl1bQ0gyXVtDQF0oW0NIM10pKE9PMylbQ0BASF00QyhbQ0gzXSkoW0NIM10pW09IXQ==

>  <s_epik_cmdline>  (73) 
J2VwaWtfcHl0aG9uJywgJy1waHQnLCAnMi4wJywgJy1waCcsICc3LjAnLCAnLXRuJywgJzgnLCAnLW1hJywgJzIwMCcsICctaW1hZScsICc8aW5maWxlLm1hZT4nLCAnLW9tYWUnLCAnPG91dGZpbGUubWFlPic=

>  <r_lp_tautomer_probability>  (73) 
1

>  <r_epik_Ionization_Penalty>  (73) 
1.70889e-07

>  <r_epik_Ionization_Penalty_Charging>  (73) 
0

>  <r_epik_Ionization_Penalty_Neutral>  (73) 
1.70889e-07

>  <r_epik_State_Penalty>  (73) 
-0

>  <r_epik_Charging_Adjusted_Penalty>  (73) 
0

>  <i_epik_Tot_Q>  (73) 
0

>  <i_epik_Tot_abs_Q>  (73) 
0

>  <s_lp_Force_Field>  (73) 
OPLS3e

>  <r_lp_Energy>  (73) 
64.9597

>  <b_lp_Chiralities_Consistent>  (73) 
1

>  <s_lp_Variant>  (73) 
19:0-1

>  <s_i_glide_gridfile>  (73) 
pfpi4k_grid

>  <i_i_glide_lignum>  (73) 
35

>  <i_i_glide_rotatable_bonds>  (73) 
2

>  <r_i_docking_score>  (73) 
-3.08539

>  <r_i_glide_ligand_efficiency>  (73) 
-0.134147

>  <r_i_glide_ligand_efficiency_sa>  (73) 
-0.381497

>  <r_i_glide_ligand_efficiency_ln>  (73) 
-0.746075

>  <r_i_glide_gscore>  (73) 
-3.08539

>  <r_i_glide_lipo>  (73) 
-0.463135

>  <r_i_glide_hbond>  (73) 
-0.166207

>  <r_i_glide_metal>  (73) 
-0

>  <r_i_glide_rewards>  (73) 
-1.21035

>  <r_i_glide_evdw>  (73) 
-22.2911

>  <r_i_glide_ecoul>  (73) 
-2.07312

>  <r_i_glide_erotb>  (73) 
0.179826

>  <r_i_glide_esite>  (73) 
0

>  <r_i_glide_emodel>  (73) 
-26.7693

>  <r_i_glide_energy>  (73) 
-24.3643

>  <r_i_glide_einternal>  (73) 
2.74416

>  <r_i_glide_intrahb_reward>  (73) 
-0

>  <i_i_glide_confnum>  (73) 
4

>  <i_i_glide_posenum>  (73) 
22

>  <r_i_glide_eff_state_penalty>  (73) 
0

>  <ligand_id>  (73) 
19

>  <original_smiles>  (73) 
CC1CCC2C(C(C)(C)O)C3(C)CCC4C(C)CCC1C42OO3

>  <smiles>  (73) 
[H]OC(C([H])([H])[H])(C([H])([H])[H])C1([H])C2([H])C([H])([H])C([H])([H])C([H])(C([H])([H])[H])C3([H])C([H])([H])C([H])([H])C([H])(C([H])([H])[H])C4([H])C([H])([H])C([H])([H])C1(C([H])([H])[H])OOC342

$$$$
19:0:1
     RDKit          3D

 57 60  0  0  1  0  0  0  0  0999 V2000
    1.5635   -2.4729    6.5159 C   0  0  0  0  0  0  0  0  0  0  0  0
    2.4713   -2.1557    5.3009 C   0  0  2  0  0  0  0  0  0  0  0  0
    1.6650   -1.5169    4.1444 C   0  0  0  0  0  0  0  0  0  0  0  0
    1.6292   -2.3212    2.8449 C   0  0  0  0  0  0  0  0  0  0  0  0
    3.0471   -2.7592    2.4662 C   0  0  2  0  0  0  0  0  0  0  0  0
    3.3318   -3.0320    0.9457 C   0  0  1  0  0  0  0  0  0  0  0  0
    3.8625   -1.7510    0.1763 C   0  0  0  0  0  0  0  0  0  0  0  0
    5.2701   -1.2750    0.5959 C   0  0  0  0  0  0  0  0  0  0  0  0
    3.7261   -1.7664   -1.3695 C   0  0  0  0  0  0  0  0  0  0  0  0
    3.0147   -0.6798    0.4971 O   0  0  0  0  0  0  0  0  0  0  0  0
    4.1785   -4.3534    0.8230 C   0  0  2  0  0  0  0  0  0  0  0  0
    4.8924   -4.5733   -0.5131 C   0  0  0  0  0  0  0  0  0  0  0  0
    3.3254   -5.6271    0.9803 C   0  0  0  0  0  0  0  0  0  0  0  0
    2.3252   -5.6601    2.1195 C   0  0  0  0  0  0  0  0  0  0  0  0
    2.9321   -5.2651    3.4679 C   0  0  2  0  0  0  0  0  0  0  0  0
    1.9588   -5.4781    4.6698 C   0  0  1  0  0  0  0  0  0  0  0  0
    1.1682   -6.7935    4.6537 C   0  0  0  0  0  0  0  0  0  0  0  0
    2.7327   -5.3625    6.0018 C   0  0  0  0  0  0  0  0  0  0  0  0
    3.8467   -4.2978    5.9597 C   0  0  0  0  0  0  0  0  0  0  0  0
    3.5931   -3.2019    4.9047 C   0  0  1  0  0  0  0  0  0  0  0  0
    3.5672   -3.8243    3.4681 C   0  0  2  0  0  0  0  0  0  0  0  0
    4.9574   -3.8946    3.1475 O   0  0  0  0  0  0  0  0  0  0  0  0
    5.2528   -4.4539    1.7710 O   0  0  0  0  0  0  0  0  0  0  0  0
    0.8334   -3.2500    6.3056 H   0  0  0  0  0  0  0  0  0  0  0  0
    1.0056   -1.5804    6.8097 H   0  0  0  0  0  0  0  0  0  0  0  0
    2.1392   -2.7590    7.3936 H   0  0  0  0  0  0  0  0  0  0  0  0
    3.0459   -1.3184    5.6872 H   0  0  0  0  0  0  0  0  0  0  0  0
    0.6367   -1.3593    4.4556 H   0  0  0  0  0  0  0  0  0  0  0  0
    2.0714   -0.5232    3.9299 H   0  0  0  0  0  0  0  0  0  0  0  0
    0.9696   -3.1744    2.9829 H   0  0  0  0  0  0  0  0  0  0  0  0
    1.1845   -1.7146    2.0499 H   0  0  0  0  0  0  0  0  0  0  0  0
    3.6583   -1.9012    2.7095 H   0  0  0  0  0  0  0  0  0  0  0  0
    2.3664   -3.2560    0.4906 H   0  0  0  0  0  0  0  0  0  0  0  0
    6.0484   -1.9747    0.3115 H   0  0  0  0  0  0  0  0  0  0  0  0
    5.3713   -1.1209    1.6666 H   0  0  0  0  0  0  0  0  0  0  0  0
    5.4980   -0.3214    0.1252 H   0  0  0  0  0  0  0  0  0  0  0  0
    4.4771   -2.3562   -1.9028 H   0  0  0  0  0  0  0  0  0  0  0  0
    3.8399   -0.7690   -1.7884 H   0  0  0  0  0  0  0  0  0  0  0  0
    2.7480   -2.1296   -1.6754 H   0  0  0  0  0  0  0  0  0  0  0  0
    2.1478   -0.7839    0.0549 H   0  0  0  0  0  0  0  0  0  0  0  0
    4.2082   -4.5675   -1.3603 H   0  0  0  0  0  0  0  0  0  0  0  0
    5.3860   -5.5561   -0.5440 H   0  0  0  0  0  0  0  0  0  0  0  0
    5.6873   -3.8613   -0.6939 H   0  0  0  0  0  0  0  0  0  0  0  0
    2.7681   -5.8074    0.0557 H   0  0  0  0  0  0  0  0  0  0  0  0
    4.0054   -6.4802    1.0797 H   0  0  0  0  0  0  0  0  0  0  0  0
    1.4566   -5.0437    1.8920 H   0  0  0  0  0  0  0  0  0  0  0  0
    1.9586   -6.6795    2.1691 H   0  0  0  0  0  0  0  0  0  0  0  0
    3.7567   -5.9623    3.6446 H   0  0  0  0  0  0  0  0  0  0  0  0
    1.2100   -4.6802    4.6399 H   0  0  0  0  0  0  0  0  0  0  0  0
    1.8349   -7.6554    4.5822 H   0  0  0  0  0  0  0  0  0  0  0  0
    0.4568   -6.8396    3.8352 H   0  0  0  0  0  0  0  0  0  0  0  0
    0.5908   -6.9075    5.5742 H   0  0  0  0  0  0  0  0  0  0  0  0
    2.0317   -5.1331    6.7941 H   0  0  0  0  0  0  0  0  0  0  0  0
    3.1627   -6.3394    6.2775 H   0  0  0  0  0  0  0  0  0  0  0  0
    4.0219   -3.8861    6.9600 H   0  0  0  0  0  0  0  0  0  0  0  0
    4.7707   -4.8005    5.6982 H   0  0  0  0  0  0  0  0  0  0  0  0
    4.5002   -2.5897    4.9315 H   0  0  0  0  0  0  0  0  0  0  0  0
  1  2  1  0
  1 24  1  0
  1 25  1  0
  1 26  1  0
  2 20  1  0
  2  3  1  0
  2 27  1  1
  3  4  1  0
  3 28  1  0
  3 29  1  0
  4  5  1  0
  4 30  1  0
  4 31  1  0
  5 21  1  0
  5  6  1  0
  5 32  1  1
  6  7  1  0
  6 11  1  0
  6 33  1  6
  7  8  1  0
  7  9  1  0
  7 10  1  0
  8 34  1  0
  8 35  1  0
  8 36  1  0
  9 37  1  0
  9 38  1  0
  9 39  1  0
 10 40  1  0
 11 23  1  0
 11 12  1  6
 11 13  1  0
 12 41  1  0
 12 42  1  0
 12 43  1  0
 13 14  1  0
 13 44  1  0
 13 45  1  0
 14 15  1  0
 14 46  1  0
 14 47  1  0
 15 21  1  0
 15 16  1  0
 15 48  1  1
 16 17  1  0
 16 18  1  0
 16 49  1  1
 17 50  1  0
 17 51  1  0
 17 52  1  0
 18 19  1  0
 18 53  1  0
 18 54  1  0
 19 20  1  0
 19 55  1  0
 19 56  1  0
 20 21  1  0
 20 57  1  6
 21 22  1  6
 22 23  1  0
M  END
>  <i_m_ct_stereo_status>  (74) 
1

>  <s_m_source_file>  (74) 
/var/tmp/pbs.5076255.sched01/tmpuj7nejrg/06cdl7mjn.sdf

>  <i_m_source_file_index>  (74) 
35

>  <i_lp_mmshare_version>  (74) 
48012

>  <i_f3d_flags>  (74) 
0

>  <s_epik_input>  (74) 
W0NAQF0xMjNbQ0BASF00W0NIMl1bQ0gyXVtDQEBIXShbQ0gzXSlbQ0BIXTJbQ0gyXVtDSDJdW0NASF0oW0NIM10pW0NASF0xW0NIMl1bQ0gyXVtDQF0oW0NIM10pKE9PMylbQ0BASF00QyhbQ0gzXSkoW0NIM10pW09IXQ==

>  <s_epik_cmdline>  (74) 
J2VwaWtfcHl0aG9uJywgJy1waHQnLCAnMi4wJywgJy1waCcsICc3LjAnLCAnLXRuJywgJzgnLCAnLW1hJywgJzIwMCcsICctaW1hZScsICc8aW5maWxlLm1hZT4nLCAnLW9tYWUnLCAnPG91dGZpbGUubWFlPic=

>  <r_lp_tautomer_probability>  (74) 
1

>  <r_epik_Ionization_Penalty>  (74) 
1.70889e-07

>  <r_epik_Ionization_Penalty_Charging>  (74) 
0

>  <r_epik_Ionization_Penalty_Neutral>  (74) 
1.70889e-07

>  <r_epik_State_Penalty>  (74) 
-0

>  <r_epik_Charging_Adjusted_Penalty>  (74) 
0

>  <i_epik_Tot_Q>  (74) 
0

>  <i_epik_Tot_abs_Q>  (74) 
0

>  <s_lp_Force_Field>  (74) 
OPLS3e

>  <r_lp_Energy>  (74) 
64.9597

>  <b_lp_Chiralities_Consistent>  (74) 
1

>  <s_lp_Variant>  (74) 
19:0-1

>  <s_i_glide_gridfile>  (74) 
pfpi4k_grid

>  <i_i_glide_lignum>  (74) 
35

>  <i_i_glide_rotatable_bonds>  (74) 
2

>  <r_i_docking_score>  (74) 
-2.92852

>  <r_i_glide_ligand_efficiency>  (74) 
-0.127327

>  <r_i_glide_ligand_efficiency_sa>  (74) 
-0.362101

>  <r_i_glide_ligand_efficiency_ln>  (74) 
-0.708142

>  <r_i_glide_gscore>  (74) 
-2.92852

>  <r_i_glide_lipo>  (74) 
-0.119244

>  <r_i_glide_hbond>  (74) 
-0.16

>  <r_i_glide_metal>  (74) 
-0

>  <r_i_glide_rewards>  (74) 
-1.21035

>  <r_i_glide_evdw>  (74) 
-17.682

>  <r_i_glide_ecoul>  (74) 
-4.89768

>  <r_i_glide_erotb>  (74) 
0.179826

>  <r_i_glide_esite>  (74) 
0

>  <r_i_glide_emodel>  (74) 
-25.6394

>  <r_i_glide_energy>  (74) 
-22.5797

>  <r_i_glide_einternal>  (74) 
2.20884

>  <r_i_glide_intrahb_reward>  (74) 
-0

>  <i_i_glide_confnum>  (74) 
4

>  <i_i_glide_posenum>  (74) 
6

>  <r_i_glide_eff_state_penalty>  (74) 
0

>  <ligand_id>  (74) 
19

>  <original_smiles>  (74) 
CC1CCC2C(C(C)(C)O)C3(C)CCC4C(C)CCC1C42OO3

>  <smiles>  (74) 
[H]OC(C([H])([H])[H])(C([H])([H])[H])C1([H])C2([H])C([H])([H])C([H])([H])C([H])(C([H])([H])[H])C3([H])C([H])([H])C([H])([H])C([H])(C([H])([H])[H])C4([H])C([H])([H])C([H])([H])C1(C([H])([H])[H])OOC342

$$$$
19:0:2
     RDKit          3D

 57 60  0  0  1  0  0  0  0  0999 V2000
    4.6920   -6.5519    1.0230 C   0  0  0  0  0  0  0  0  0  0  0  0
    4.3961   -5.5515    2.1645 C   0  0  2  0  0  0  0  0  0  0  0  0
    2.8684   -5.3832    2.3755 C   0  0  0  0  0  0  0  0  0  0  0  0
    2.3192   -3.9780    2.1358 C   0  0  0  0  0  0  0  0  0  0  0  0
    3.1842   -2.9440    2.8723 C   0  0  2  0  0  0  0  0  0  0  0  0
    2.4826   -1.5942    3.2443 C   0  0  1  0  0  0  0  0  0  0  0  0
    1.8344   -1.6285    4.6932 C   0  0  0  0  0  0  0  0  0  0  0  0
    2.8545   -1.6115    5.8533 C   0  0  0  0  0  0  0  0  0  0  0  0
    0.7091   -0.5921    4.9294 C   0  0  0  0  0  0  0  0  0  0  0  0
    1.1349   -2.8543    4.8508 O   0  0  0  0  0  0  0  0  0  0  0  0
    3.4490   -0.4025    2.9100 C   0  0  2  0  0  0  0  0  0  0  0  0
    3.1026    0.9504    3.5683 C   0  0  0  0  0  0  0  0  0  0  0  0
    3.4760   -0.0612    1.4061 C   0  0  0  0  0  0  0  0  0  0  0  0
    3.5721   -1.2225    0.4273 C   0  0  0  0  0  0  0  0  0  0  0  0
    4.6972   -2.2057    0.7562 C   0  0  2  0  0  0  0  0  0  0  0  0
    4.9087   -3.2782   -0.3557 C   0  0  1  0  0  0  0  0  0  0  0  0
    4.8723   -2.7665   -1.8086 C   0  0  0  0  0  0  0  0  0  0  0  0
    6.2260   -4.0370   -0.1123 C   0  0  0  0  0  0  0  0  0  0  0  0
    6.5462   -4.2437    1.3764 C   0  0  0  0  0  0  0  0  0  0  0  0
    5.2820   -4.2410    2.2655 C   0  0  1  0  0  0  0  0  0  0  0  0
    4.5716   -2.8408    2.1944 C   0  0  2  0  0  0  0  0  0  0  0  0
    5.3110   -2.0547    3.1283 O   0  0  0  0  0  0  0  0  0  0  0  0
    4.8040   -0.6227    3.3044 O   0  0  0  0  0  0  0  0  0  0  0  0
    4.3641   -6.1989    0.0469 H   0  0  0  0  0  0  0  0  0  0  0  0
    4.1786   -7.4965    1.2029 H   0  0  0  0  0  0  0  0  0  0  0  0
    5.7502   -6.8039    0.9652 H   0  0  0  0  0  0  0  0  0  0  0  0
    4.7065   -6.1277    3.0396 H   0  0  0  0  0  0  0  0  0  0  0  0
    2.3228   -6.0762    1.7369 H   0  0  0  0  0  0  0  0  0  0  0  0
    2.6251   -5.6754    3.3967 H   0  0  0  0  0  0  0  0  0  0  0  0
    2.2714   -3.7807    1.0668 H   0  0  0  0  0  0  0  0  0  0  0  0
    1.2912   -3.9361    2.4883 H   0  0  0  0  0  0  0  0  0  0  0  0
    3.4151   -3.4086    3.8317 H   0  0  0  0  0  0  0  0  0  0  0  0
    1.6388   -1.4878    2.5598 H   0  0  0  0  0  0  0  0  0  0  0  0
    3.3890   -0.6709    5.9444 H   0  0  0  0  0  0  0  0  0  0  0  0
    3.6094   -2.3891    5.7572 H   0  0  0  0  0  0  0  0  0  0  0  0
    2.3549   -1.7746    6.8075 H   0  0  0  0  0  0  0  0  0  0  0  0
    1.0669    0.4255    5.0544 H   0  0  0  0  0  0  0  0  0  0  0  0
    0.1546   -0.8176    5.8409 H   0  0  0  0  0  0  0  0  0  0  0  0
   -0.0129   -0.5924    4.1148 H   0  0  0  0  0  0  0  0  0  0  0  0
    0.5455   -2.9714    4.1212 H   0  0  0  0  0  0  0  0  0  0  0  0
    2.1060    1.2984    3.2881 H   0  0  0  0  0  0  0  0  0  0  0  0
    3.8002    1.7251    3.2425 H   0  0  0  0  0  0  0  0  0  0  0  0
    3.1769    0.9457    4.6524 H   0  0  0  0  0  0  0  0  0  0  0  0
    2.5757    0.4959    1.1400 H   0  0  0  0  0  0  0  0  0  0  0  0
    4.3097    0.6163    1.2142 H   0  0  0  0  0  0  0  0  0  0  0  0
    2.6170   -1.7358    0.3512 H   0  0  0  0  0  0  0  0  0  0  0  0
    3.7410   -0.7734   -0.5531 H   0  0  0  0  0  0  0  0  0  0  0  0
    5.6152   -1.6194    0.7510 H   0  0  0  0  0  0  0  0  0  0  0  0
    4.0921   -3.9901   -0.2789 H   0  0  0  0  0  0  0  0  0  0  0  0
    5.5884   -1.9609   -1.9584 H   0  0  0  0  0  0  0  0  0  0  0  0
    3.8801   -2.4104   -2.0880 H   0  0  0  0  0  0  0  0  0  0  0  0
    5.1227   -3.5708   -2.5020 H   0  0  0  0  0  0  0  0  0  0  0  0
    6.1671   -4.9985   -0.6169 H   0  0  0  0  0  0  0  0  0  0  0  0
    7.0557   -3.5098   -0.5843 H   0  0  0  0  0  0  0  0  0  0  0  0
    7.1453   -5.1416    1.5222 H   0  0  0  0  0  0  0  0  0  0  0  0
    7.1828   -3.4153    1.6896 H   0  0  0  0  0  0  0  0  0  0  0  0
    5.6672   -4.3005    3.2839 H   0  0  0  0  0  0  0  0  0  0  0  0
  1  2  1  0
  1 24  1  0
  1 25  1  0
  1 26  1  0
  2 20  1  0
  2  3  1  0
  2 27  1  1
  3  4  1  0
  3 28  1  0
  3 29  1  0
  4  5  1  0
  4 30  1  0
  4 31  1  0
  5 21  1  0
  5  6  1  0
  5 32  1  1
  6  7  1  0
  6 11  1  0
  6 33  1  6
  7  8  1  0
  7  9  1  0
  7 10  1  0
  8 34  1  0
  8 35  1  0
  8 36  1  0
  9 37  1  0
  9 38  1  0
  9 39  1  0
 10 40  1  0
 11 23  1  0
 11 12  1  1
 11 13  1  0
 12 41  1  0
 12 42  1  0
 12 43  1  0
 13 14  1  0
 13 44  1  0
 13 45  1  0
 14 15  1  0
 14 46  1  0
 14 47  1  0
 15 21  1  0
 15 16  1  0
 15 48  1  1
 16 17  1  0
 16 18  1  0
 16 49  1  6
 17 50  1  0
 17 51  1  0
 17 52  1  0
 18 19  1  0
 18 53  1  0
 18 54  1  0
 19 20  1  0
 19 55  1  0
 19 56  1  0
 20 21  1  0
 20 57  1  1
 21 22  1  1
 22 23  1  0
M  END
>  <i_m_ct_stereo_status>  (75) 
1

>  <s_m_source_file>  (75) 
/var/tmp/pbs.5076255.sched01/tmpuj7nejrg/06cdl7mjn.sdf

>  <i_m_source_file_index>  (75) 
35

>  <i_lp_mmshare_version>  (75) 
48012

>  <i_f3d_flags>  (75) 
0

>  <s_epik_input>  (75) 
W0NAQF0xMjNbQ0BASF00W0NIMl1bQ0gyXVtDQEBIXShbQ0gzXSlbQ0BIXTJbQ0gyXVtDSDJdW0NASF0oW0NIM10pW0NASF0xW0NIMl1bQ0gyXVtDQF0oW0NIM10pKE9PMylbQ0BASF00QyhbQ0gzXSkoW0NIM10pW09IXQ==

>  <s_epik_cmdline>  (75) 
J2VwaWtfcHl0aG9uJywgJy1waHQnLCAnMi4wJywgJy1waCcsICc3LjAnLCAnLXRuJywgJzgnLCAnLW1hJywgJzIwMCcsICctaW1hZScsICc8aW5maWxlLm1hZT4nLCAnLW9tYWUnLCAnPG91dGZpbGUubWFlPic=

>  <r_lp_tautomer_probability>  (75) 
1

>  <r_epik_Ionization_Penalty>  (75) 
1.70889e-07

>  <r_epik_Ionization_Penalty_Charging>  (75) 
0

>  <r_epik_Ionization_Penalty_Neutral>  (75) 
1.70889e-07

>  <r_epik_State_Penalty>  (75) 
-0

>  <r_epik_Charging_Adjusted_Penalty>  (75) 
0

>  <i_epik_Tot_Q>  (75) 
0

>  <i_epik_Tot_abs_Q>  (75) 
0

>  <s_lp_Force_Field>  (75) 
OPLS3e

>  <r_lp_Energy>  (75) 
64.9597

>  <b_lp_Chiralities_Consistent>  (75) 
1

>  <s_lp_Variant>  (75) 
19:0-1

>  <s_i_glide_gridfile>  (75) 
pfpi4k_grid

>  <i_i_glide_lignum>  (75) 
35

>  <i_i_glide_rotatable_bonds>  (75) 
2

>  <r_i_docking_score>  (75) 
-2.80219

>  <r_i_glide_ligand_efficiency>  (75) 
-0.121834

>  <r_i_glide_ligand_efficiency_sa>  (75) 
-0.34648

>  <r_i_glide_ligand_efficiency_ln>  (75) 
-0.677594

>  <r_i_glide_gscore>  (75) 
-2.80219

>  <r_i_glide_lipo>  (75) 
-0.397233

>  <r_i_glide_hbond>  (75) 
0

>  <r_i_glide_metal>  (75) 
-0

>  <r_i_glide_rewards>  (75) 
-1.21035

>  <r_i_glide_evdw>  (75) 
-20.1618

>  <r_i_glide_ecoul>  (75) 
-2.44227

>  <r_i_glide_erotb>  (75) 
0.179826

>  <r_i_glide_esite>  (75) 
0

>  <r_i_glide_emodel>  (75) 
-25.8289

>  <r_i_glide_energy>  (75) 
-22.6041

>  <r_i_glide_einternal>  (75) 
1.67957

>  <r_i_glide_intrahb_reward>  (75) 
-0

>  <i_i_glide_confnum>  (75) 
2

>  <i_i_glide_posenum>  (75) 
30

>  <r_i_glide_eff_state_penalty>  (75) 
0

>  <ligand_id>  (75) 
19

>  <original_smiles>  (75) 
CC1CCC2C(C(C)(C)O)C3(C)CCC4C(C)CCC1C42OO3

>  <smiles>  (75) 
[H]OC(C([H])([H])[H])(C([H])([H])[H])C1([H])C2([H])C([H])([H])C([H])([H])C([H])(C([H])([H])[H])C3([H])C([H])([H])C([H])([H])C([H])(C([H])([H])[H])C4([H])C([H])([H])C([H])([H])C1(C([H])([H])[H])OOC342

$$$$
20:0:0
     RDKit          3D

 36 39  0  0  1  0  0  0  0  0999 V2000
    2.9380   -0.5700    7.0931 C   0  0  0  0  0  0  0  0  0  0  0  0
    2.8556   -0.0483    5.6848 C   0  0  0  0  0  0  0  0  0  0  0  0
    3.8633   -0.3643    4.8392 N   0  0  0  0  0  0  0  0  0  0  0  0
    3.5432    0.2145    3.6302 N   0  0  0  0  0  0  0  0  0  0  0  0
    4.3686    0.1113    2.4525 C   0  0  0  0  0  0  0  0  0  0  0  0
    2.3660    0.8694    3.7219 C   0  0  0  0  0  0  0  0  0  0  0  0
    1.4684    1.6342    3.0401 C   0  0  0  0  0  0  0  0  0  0  0  0
    1.4724    2.1086    1.7645 O   0  0  0  0  0  0  0  0  0  0  0  0
    0.4232    1.9358    3.9537 N   0  0  0  0  0  0  0  0  0  0  0  0
   -0.6805    2.7596    3.6468 C   0  0  0  0  0  0  0  0  0  0  0  0
   -0.9104    4.0854    4.0923 C   0  0  0  0  0  0  0  0  0  0  0  0
   -2.0683    4.5331    3.6288 N   0  0  0  0  0  0  0  0  0  0  0  0
   -2.5838    3.5177    2.8925 N   0  0  0  0  0  0  0  0  0  0  0  0
   -3.8626    3.6994    2.2322 C   0  0  0  0  0  0  0  0  0  0  0  0
   -1.7547    2.4065    2.8853 C   0  0  0  0  0  0  0  0  0  0  0  0
    0.7041    1.3580    5.2237 C   0  0  0  0  0  0  0  0  0  0  0  0
   -0.1390    1.5034    6.4057 C   0  0  0  0  0  0  0  0  0  0  0  0
   -1.5720    1.6104    6.4254 C   0  0  0  0  0  0  0  0  0  0  0  0
   -2.1665    1.7334    7.5904 N   0  0  0  0  0  0  0  0  0  0  0  0
   -0.9948    1.7615    8.7805 S   0  0  0  0  0  0  0  0  0  0  0  0
    0.3318    1.5746    7.6899 C   0  0  0  0  0  0  0  0  0  0  0  0
    1.8930    0.7458    4.9802 C   0  0  0  0  0  0  0  0  0  0  0  0
    2.0448   -1.1278    7.3832 H   0  0  0  0  0  0  0  0  0  0  0  0
    3.1229    0.2275    7.8135 H   0  0  0  0  0  0  0  0  0  0  0  0
    3.7817   -1.2546    7.1850 H   0  0  0  0  0  0  0  0  0  0  0  0
    3.9575    0.6614    1.6006 H   0  0  0  0  0  0  0  0  0  0  0  0
    4.4805   -0.9415    2.1914 H   0  0  0  0  0  0  0  0  0  0  0  0
    5.3618    0.4843    2.7031 H   0  0  0  0  0  0  0  0  0  0  0  0
    0.7952    2.7737    1.6808 H   0  0  0  0  0  0  0  0  0  0  0  0
   -0.3009    4.7256    4.7116 H   0  0  0  0  0  0  0  0  0  0  0  0
   -4.0529    2.8876    1.5282 H   0  0  0  0  0  0  0  0  0  0  0  0
   -3.8773    4.6442    1.6893 H   0  0  0  0  0  0  0  0  0  0  0  0
   -4.6714    3.7202    2.9605 H   0  0  0  0  0  0  0  0  0  0  0  0
   -2.0007    1.4980    2.3492 H   0  0  0  0  0  0  0  0  0  0  0  0
   -2.2110    1.5984    5.5522 H   0  0  0  0  0  0  0  0  0  0  0  0
    1.3451    1.5619    8.0539 H   0  0  0  0  0  0  0  0  0  0  0  0
  1  2  1  0
  1 23  1  0
  1 24  1  0
  1 25  1  0
  2 22  1  0
  2  3  2  0
  3  4  1  0
  4  5  1  0
  4  6  1  0
  5 26  1  0
  5 27  1  0
  5 28  1  0
  6 22  1  0
  6  7  2  0
  7  8  1  0
  7  9  1  0
  8 29  1  0
  9 10  1  0
  9 16  1  0
 10 15  2  0
 10 11  1  0
 11 12  2  0
 11 30  1  0
 12 13  1  0
 13 14  1  0
 13 15  1  0
 14 31  1  0
 14 32  1  0
 14 33  1  0
 15 34  1  0
 16 17  1  0
 16 22  2  0
 17 21  2  0
 17 18  1  0
 18 19  2  0
 18 35  1  0
 19 20  1  0
 20 21  1  0
 21 36  1  0
M  END
>  <i_m_ct_stereo_status>  (76) 
1

>  <s_m_source_file>  (76) 
/var/tmp/pbs.5076255.sched01/tmpuj7nejrg/06cdl7mjn.sdf

>  <i_m_source_file_index>  (76) 
36

>  <i_lp_mmshare_version>  (76) 
48012

>  <i_f3d_flags>  (76) 
0

>  <s_epik_input>  (76) 
W0NIM11uMW5jKFtDSDNdKWMoYzEyKWMoLWMzW2NIXW5zW2NIXTMpbihjMltPSF0pLWM0W2NIXW5uKFtDSDNdKVtjSF00

>  <s_epik_cmdline>  (76) 
J2VwaWtfcHl0aG9uJywgJy1waHQnLCAnMi4wJywgJy1waCcsICc3LjAnLCAnLXRuJywgJzgnLCAnLW1hJywgJzIwMCcsICctaW1hZScsICc8aW5maWxlLm1hZT4nLCAnLW9tYWUnLCAnPG91dGZpbGUubWFlPic=

>  <r_epik_Ionization_Penalty>  (76) 
0.0528533

>  <r_epik_Ionization_Penalty_Charging>  (76) 
0

>  <r_epik_Ionization_Penalty_Neutral>  (76) 
0.0528533

>  <r_epik_State_Penalty>  (76) 
0.03477

>  <r_epik_Charging_Adjusted_Penalty>  (76) 
0.03477

>  <i_epik_Tot_Q>  (76) 
0

>  <i_epik_Tot_abs_Q>  (76) 
0

>  <s_lp_Force_Field>  (76) 
OPLS3e

>  <r_lp_Energy>  (76) 
7.58549

>  <b_lp_Chiralities_Consistent>  (76) 
1

>  <s_lp_Variant>  (76) 
20:0-1

>  <s_i_glide_gridfile>  (76) 
pfpi4k_grid

>  <i_i_glide_lignum>  (76) 
36

>  <i_i_glide_rotatable_bonds>  (76) 
3

>  <r_i_docking_score>  (76) 
-3.80671

>  <r_i_glide_ligand_efficiency>  (76) 
-0.173032

>  <r_i_glide_ligand_efficiency_sa>  (76) 
-0.484843

>  <r_i_glide_ligand_efficiency_ln>  (76) 
-0.930499

>  <r_i_glide_gscore>  (76) 
-3.80671

>  <r_i_glide_lipo>  (76) 
-0.29271

>  <r_i_glide_hbond>  (76) 
-0.332478

>  <r_i_glide_metal>  (76) 
-0

>  <r_i_glide_rewards>  (76) 
-1.26568

>  <r_i_glide_evdw>  (76) 
-20.4793

>  <r_i_glide_ecoul>  (76) 
-7.88144

>  <r_i_glide_erotb>  (76) 
0.376162

>  <r_i_glide_esite>  (76) 
-0.0858211

>  <r_i_glide_emodel>  (76) 
-35.625

>  <r_i_glide_energy>  (76) 
-28.3607

>  <r_i_glide_einternal>  (76) 
1.339

>  <r_i_glide_intrahb_reward>  (76) 
-0

>  <i_i_glide_confnum>  (76) 
6

>  <i_i_glide_posenum>  (76) 
38

>  <r_i_glide_eff_state_penalty>  (76) 
0

>  <ligand_id>  (76) 
20

>  <original_smiles>  (76) 
Cc1nn(C)c2c(O)n(-c3cnn(C)c3)c(-c3cnsc3)c12

>  <smiles>  (76) 
[H]Oc1c2c(c(C([H])([H])[H])nn2C([H])([H])[H])c(-c2c([H])nsc2[H])n1-c1c([H])nn(C([H])([H])[H])c1[H]

$$$$
20:0:1
     RDKit          3D

 36 39  0  0  1  0  0  0  0  0999 V2000
   -2.1284    2.7078    6.5420 C   0  0  0  0  0  0  0  0  0  0  0  0
   -1.1587    3.1235    5.4689 C   0  0  0  0  0  0  0  0  0  0  0  0
   -1.0521    4.4471    5.1909 N   0  0  0  0  0  0  0  0  0  0  0  0
   -0.1070    4.5484    4.1940 N   0  0  0  0  0  0  0  0  0  0  0  0
    0.3209    5.7991    3.6066 C   0  0  0  0  0  0  0  0  0  0  0  0
    0.3602    3.3255    3.8779 C   0  0  0  0  0  0  0  0  0  0  0  0
    1.2499    2.6631    3.0860 C   0  0  0  0  0  0  0  0  0  0  0  0
    2.0860    3.1584    2.1364 O   0  0  0  0  0  0  0  0  0  0  0  0
    1.1049    1.2706    3.3867 N   0  0  0  0  0  0  0  0  0  0  0  0
    1.7875    0.2053    2.7167 C   0  0  0  0  0  0  0  0  0  0  0  0
    1.3722   -1.1406    2.5144 C   0  0  0  0  0  0  0  0  0  0  0  0
    2.3031   -1.8627    1.9213 N   0  0  0  0  0  0  0  0  0  0  0  0
    3.2863   -0.9839    1.6420 N   0  0  0  0  0  0  0  0  0  0  0  0
    4.4397   -1.4546    0.9148 C   0  0  0  0  0  0  0  0  0  0  0  0
    3.0142    0.2875    2.1143 C   0  0  0  0  0  0  0  0  0  0  0  0
    0.1412    1.1108    4.4316 C   0  0  0  0  0  0  0  0  0  0  0  0
   -0.2558   -0.1553    5.0353 C   0  0  0  0  0  0  0  0  0  0  0  0
   -1.6092   -0.5876    5.2202 C   0  0  0  0  0  0  0  0  0  0  0  0
   -1.7974   -1.8051    5.6827 N   0  0  0  0  0  0  0  0  0  0  0  0
   -0.3133   -2.5283    5.9337 S   0  0  0  0  0  0  0  0  0  0  0  0
    0.5965   -1.1501    5.4493 C   0  0  0  0  0  0  0  0  0  0  0  0
   -0.2652    2.4014    4.6263 C   0  0  0  0  0  0  0  0  0  0  0  0
   -1.6587    2.1054    7.3268 H   0  0  0  0  0  0  0  0  0  0  0  0
   -2.9785    2.1675    6.1278 H   0  0  0  0  0  0  0  0  0  0  0  0
   -2.5330    3.5955    7.0229 H   0  0  0  0  0  0  0  0  0  0  0  0
    1.0691    5.6648    2.8207 H   0  0  0  0  0  0  0  0  0  0  0  0
    0.7219    6.4436    4.3897 H   0  0  0  0  0  0  0  0  0  0  0  0
   -0.5483    6.3013    3.1821 H   0  0  0  0  0  0  0  0  0  0  0  0
    1.5430    3.6868    1.5490 H   0  0  0  0  0  0  0  0  0  0  0  0
    0.4593   -1.6533    2.7954 H   0  0  0  0  0  0  0  0  0  0  0  0
    5.0371   -0.6088    0.5793 H   0  0  0  0  0  0  0  0  0  0  0  0
    4.1112   -2.0288    0.0480 H   0  0  0  0  0  0  0  0  0  0  0  0
    5.0374   -2.0949    1.5618 H   0  0  0  0  0  0  0  0  0  0  0  0
    3.6984    1.1082    1.9810 H   0  0  0  0  0  0  0  0  0  0  0  0
   -2.4878   -0.0291    4.9444 H   0  0  0  0  0  0  0  0  0  0  0  0
    1.6734   -1.1965    5.3819 H   0  0  0  0  0  0  0  0  0  0  0  0
  1  2  1  0
  1 23  1  0
  1 24  1  0
  1 25  1  0
  2 22  1  0
  2  3  2  0
  3  4  1  0
  4  5  1  0
  4  6  1  0
  5 26  1  0
  5 27  1  0
  5 28  1  0
  6 22  1  0
  6  7  2  0
  7  8  1  0
  7  9  1  0
  8 29  1  0
  9 10  1  0
  9 16  1  0
 10 15  2  0
 10 11  1  0
 11 12  2  0
 11 30  1  0
 12 13  1  0
 13 14  1  0
 13 15  1  0
 14 31  1  0
 14 32  1  0
 14 33  1  0
 15 34  1  0
 16 17  1  0
 16 22  2  0
 17 21  2  0
 17 18  1  0
 18 19  2  0
 18 35  1  0
 19 20  1  0
 20 21  1  0
 21 36  1  0
M  END
>  <i_m_ct_stereo_status>  (77) 
1

>  <s_m_source_file>  (77) 
/var/tmp/pbs.5076255.sched01/tmpuj7nejrg/06cdl7mjn.sdf

>  <i_m_source_file_index>  (77) 
36

>  <i_lp_mmshare_version>  (77) 
48012

>  <i_f3d_flags>  (77) 
0

>  <s_epik_input>  (77) 
W0NIM11uMW5jKFtDSDNdKWMoYzEyKWMoLWMzW2NIXW5zW2NIXTMpbihjMltPSF0pLWM0W2NIXW5uKFtDSDNdKVtjSF00

>  <s_epik_cmdline>  (77) 
J2VwaWtfcHl0aG9uJywgJy1waHQnLCAnMi4wJywgJy1waCcsICc3LjAnLCAnLXRuJywgJzgnLCAnLW1hJywgJzIwMCcsICctaW1hZScsICc8aW5maWxlLm1hZT4nLCAnLW9tYWUnLCAnPG91dGZpbGUubWFlPic=

>  <r_epik_Ionization_Penalty>  (77) 
0.0528533

>  <r_epik_Ionization_Penalty_Charging>  (77) 
0

>  <r_epik_Ionization_Penalty_Neutral>  (77) 
0.0528533

>  <r_epik_State_Penalty>  (77) 
0.03477

>  <r_epik_Charging_Adjusted_Penalty>  (77) 
0.03477

>  <i_epik_Tot_Q>  (77) 
0

>  <i_epik_Tot_abs_Q>  (77) 
0

>  <s_lp_Force_Field>  (77) 
OPLS3e

>  <r_lp_Energy>  (77) 
7.58549

>  <b_lp_Chiralities_Consistent>  (77) 
1

>  <s_lp_Variant>  (77) 
20:0-1

>  <s_i_glide_gridfile>  (77) 
pfpi4k_grid

>  <i_i_glide_lignum>  (77) 
36

>  <i_i_glide_rotatable_bonds>  (77) 
3

>  <r_i_docking_score>  (77) 
-3.43818

>  <r_i_glide_ligand_efficiency>  (77) 
-0.156281

>  <r_i_glide_ligand_efficiency_sa>  (77) 
-0.437905

>  <r_i_glide_ligand_efficiency_ln>  (77) 
-0.840415

>  <r_i_glide_gscore>  (77) 
-3.43818

>  <r_i_glide_lipo>  (77) 
-0.148035

>  <r_i_glide_hbond>  (77) 
-0.16

>  <r_i_glide_metal>  (77) 
-0

>  <r_i_glide_rewards>  (77) 
-1.26568

>  <r_i_glide_evdw>  (77) 
-22.1622

>  <r_i_glide_ecoul>  (77) 
-6.79475

>  <r_i_glide_erotb>  (77) 
0.376162

>  <r_i_glide_esite>  (77) 
-0.113299

>  <r_i_glide_emodel>  (77) 
-33.5684

>  <r_i_glide_energy>  (77) 
-28.9569

>  <r_i_glide_einternal>  (77) 
2.87613

>  <r_i_glide_intrahb_reward>  (77) 
-0

>  <i_i_glide_confnum>  (77) 
5

>  <i_i_glide_posenum>  (77) 
39

>  <r_i_glide_eff_state_penalty>  (77) 
0

>  <ligand_id>  (77) 
20

>  <original_smiles>  (77) 
Cc1nn(C)c2c(O)n(-c3cnn(C)c3)c(-c3cnsc3)c12

>  <smiles>  (77) 
[H]Oc1c2c(c(C([H])([H])[H])nn2C([H])([H])[H])c(-c2c([H])nsc2[H])n1-c1c([H])nn(C([H])([H])[H])c1[H]

$$$$
20:0:2
     RDKit          3D

 36 39  0  0  1  0  0  0  0  0999 V2000
    2.4170    1.7367    2.1099 C   0  0  0  0  0  0  0  0  0  0  0  0
    1.7027    0.7785    3.0249 C   0  0  0  0  0  0  0  0  0  0  0  0
    1.8886   -0.5475    2.8084 N   0  0  0  0  0  0  0  0  0  0  0  0
    1.1435   -1.1956    3.7683 N   0  0  0  0  0  0  0  0  0  0  0  0
    1.0667   -2.6349    3.8782 C   0  0  0  0  0  0  0  0  0  0  0  0
    0.5252   -0.3001    4.5669 C   0  0  0  0  0  0  0  0  0  0  0  0
   -0.3120   -0.1714    5.6361 C   0  0  0  0  0  0  0  0  0  0  0  0
   -0.9409   -1.0923    6.4162 O   0  0  0  0  0  0  0  0  0  0  0  0
   -0.4933    1.2217    5.8358 N   0  0  0  0  0  0  0  0  0  0  0  0
   -1.3550    1.7662    6.8126 C   0  0  0  0  0  0  0  0  0  0  0  0
   -2.5293    2.5301    6.5905 C   0  0  0  0  0  0  0  0  0  0  0  0
   -3.0467    2.9222    7.7403 N   0  0  0  0  0  0  0  0  0  0  0  0
   -2.2196    2.4378    8.7002 N   0  0  0  0  0  0  0  0  0  0  0  0
   -2.5291    2.7063   10.0951 C   0  0  0  0  0  0  0  0  0  0  0  0
   -1.1626    1.7272    8.1639 C   0  0  0  0  0  0  0  0  0  0  0  0
    0.2641    1.9604    4.8783 C   0  0  0  0  0  0  0  0  0  0  0  0
    0.3122    3.4239    4.7900 C   0  0  0  0  0  0  0  0  0  0  0  0
   -0.0483    4.3831    5.7991 C   0  0  0  0  0  0  0  0  0  0  0  0
    0.0025    5.6615    5.5017 N   0  0  0  0  0  0  0  0  0  0  0  0
    0.6129    5.8168    3.9628 S   0  0  0  0  0  0  0  0  0  0  0  0
    0.7083    4.1222    3.6746 C   0  0  0  0  0  0  0  0  0  0  0  0
    0.8264    0.9516    4.1528 C   0  0  0  0  0  0  0  0  0  0  0  0
    3.0106    2.4677    2.6600 H   0  0  0  0  0  0  0  0  0  0  0  0
    1.7280    2.2395    1.4329 H   0  0  0  0  0  0  0  0  0  0  0  0
    3.1012    1.1843    1.4708 H   0  0  0  0  0  0  0  0  0  0  0  0
    0.4105   -2.9615    4.6859 H   0  0  0  0  0  0  0  0  0  0  0  0
    2.0752   -3.0255    4.0378 H   0  0  0  0  0  0  0  0  0  0  0  0
    0.7133   -3.0365    2.9244 H   0  0  0  0  0  0  0  0  0  0  0  0
   -0.6079   -1.9449    6.1842 H   0  0  0  0  0  0  0  0  0  0  0  0
   -2.9994    2.8313    5.6672 H   0  0  0  0  0  0  0  0  0  0  0  0
   -1.9158    2.0878   10.7528 H   0  0  0  0  0  0  0  0  0  0  0  0
   -3.5782    2.4902   10.2997 H   0  0  0  0  0  0  0  0  0  0  0  0
   -2.3531    3.7566   10.3333 H   0  0  0  0  0  0  0  0  0  0  0  0
   -0.3946    1.2805    8.7759 H   0  0  0  0  0  0  0  0  0  0  0  0
   -0.4018    4.1677    6.8006 H   0  0  0  0  0  0  0  0  0  0  0  0
    1.0071    3.7871    2.7010 H   0  0  0  0  0  0  0  0  0  0  0  0
  1  2  1  0
  1 23  1  0
  1 24  1  0
  1 25  1  0
  2 22  1  0
  2  3  2  0
  3  4  1  0
  4  5  1  0
  4  6  1  0
  5 26  1  0
  5 27  1  0
  5 28  1  0
  6 22  1  0
  6  7  2  0
  7  8  1  0
  7  9  1  0
  8 29  1  0
  9 10  1  0
  9 16  1  0
 10 15  2  0
 10 11  1  0
 11 12  2  0
 11 30  1  0
 12 13  1  0
 13 14  1  0
 13 15  1  0
 14 31  1  0
 14 32  1  0
 14 33  1  0
 15 34  1  0
 16 17  1  0
 16 22  2  0
 17 21  2  0
 17 18  1  0
 18 19  2  0
 18 35  1  0
 19 20  1  0
 20 21  1  0
 21 36  1  0
M  END
>  <i_m_ct_stereo_status>  (78) 
1

>  <s_m_source_file>  (78) 
/var/tmp/pbs.5076255.sched01/tmpuj7nejrg/06cdl7mjn.sdf

>  <i_m_source_file_index>  (78) 
36

>  <i_lp_mmshare_version>  (78) 
48012

>  <i_f3d_flags>  (78) 
0

>  <s_epik_input>  (78) 
W0NIM11uMW5jKFtDSDNdKWMoYzEyKWMoLWMzW2NIXW5zW2NIXTMpbihjMltPSF0pLWM0W2NIXW5uKFtDSDNdKVtjSF00

>  <s_epik_cmdline>  (78) 
J2VwaWtfcHl0aG9uJywgJy1waHQnLCAnMi4wJywgJy1waCcsICc3LjAnLCAnLXRuJywgJzgnLCAnLW1hJywgJzIwMCcsICctaW1hZScsICc8aW5maWxlLm1hZT4nLCAnLW9tYWUnLCAnPG91dGZpbGUubWFlPic=

>  <r_epik_Ionization_Penalty>  (78) 
0.0528533

>  <r_epik_Ionization_Penalty_Charging>  (78) 
0

>  <r_epik_Ionization_Penalty_Neutral>  (78) 
0.0528533

>  <r_epik_State_Penalty>  (78) 
0.03477

>  <r_epik_Charging_Adjusted_Penalty>  (78) 
0.03477

>  <i_epik_Tot_Q>  (78) 
0

>  <i_epik_Tot_abs_Q>  (78) 
0

>  <s_lp_Force_Field>  (78) 
OPLS3e

>  <r_lp_Energy>  (78) 
7.58549

>  <b_lp_Chiralities_Consistent>  (78) 
1

>  <s_lp_Variant>  (78) 
20:0-1

>  <s_i_glide_gridfile>  (78) 
pfpi4k_grid

>  <i_i_glide_lignum>  (78) 
36

>  <i_i_glide_rotatable_bonds>  (78) 
3

>  <r_i_docking_score>  (78) 
-3.01737

>  <r_i_glide_ligand_efficiency>  (78) 
-0.137153

>  <r_i_glide_ligand_efficiency_sa>  (78) 
-0.384308

>  <r_i_glide_ligand_efficiency_ln>  (78) 
-0.737554

>  <r_i_glide_gscore>  (78) 
-3.01737

>  <r_i_glide_lipo>  (78) 
-0.180885

>  <r_i_glide_hbond>  (78) 
-0.0304337

>  <r_i_glide_metal>  (78) 
-0

>  <r_i_glide_rewards>  (78) 
-1.26568

>  <r_i_glide_evdw>  (78) 
-22.6705

>  <r_i_glide_ecoul>  (78) 
-4.95006

>  <r_i_glide_erotb>  (78) 
0.376162

>  <r_i_glide_esite>  (78) 
-0.0404913

>  <r_i_glide_emodel>  (78) 
-32.9405

>  <r_i_glide_energy>  (78) 
-27.6206

>  <r_i_glide_einternal>  (78) 
0.882225

>  <r_i_glide_intrahb_reward>  (78) 
-0

>  <i_i_glide_confnum>  (78) 
2

>  <i_i_glide_posenum>  (78) 
2

>  <r_i_glide_eff_state_penalty>  (78) 
0

>  <ligand_id>  (78) 
20

>  <original_smiles>  (78) 
Cc1nn(C)c2c(O)n(-c3cnn(C)c3)c(-c3cnsc3)c12

>  <smiles>  (78) 
[H]Oc1c2c(c(C([H])([H])[H])nn2C([H])([H])[H])c(-c2c([H])nsc2[H])n1-c1c([H])nn(C([H])([H])[H])c1[H]

$$$$
20:1:0
     RDKit          3D

 35 38  0  0  1  0  0  0  0  0999 V2000
    0.3174    0.4487   11.8989 C   0  0  0  0  0  0  0  0  0  0  0  0
    0.3479   -0.1751   10.5298 C   0  0  0  0  0  0  0  0  0  0  0  0
    0.9043   -1.4105   10.4124 N   0  0  0  0  0  0  0  0  0  0  0  0
    0.8220   -1.7241    9.0780 N   0  0  0  0  0  0  0  0  0  0  0  0
    1.3173   -2.9763    8.5524 C   0  0  0  0  0  0  0  0  0  0  0  0
    0.2337   -0.7190    8.3877 C   0  0  0  0  0  0  0  0  0  0  0  0
   -0.1982   -0.3580    7.1396 C   0  0  0  0  0  0  0  0  0  0  0  0
   -0.1172   -1.0346    5.9800 O   0  0  0  0  0  0  0  0  0  0  0  0
   -0.7906    0.9272    7.2624 N   0  0  0  0  0  0  0  0  0  0  0  0
   -1.3603    1.6747    6.1839 C   0  0  0  0  0  0  0  0  0  0  0  0
   -2.4417    2.5840    6.2487 C   0  0  0  0  0  0  0  0  0  0  0  0
   -2.6255    3.1847    5.0951 N   0  0  0  0  0  0  0  0  0  0  0  0
   -1.7468    2.5958    4.2535 N   0  0  0  0  0  0  0  0  0  0  0  0
   -1.7750    2.9769    2.8608 C   0  0  0  0  0  0  0  0  0  0  0  0
   -0.9564    1.6571    4.8846 C   0  0  0  0  0  0  0  0  0  0  0  0
   -0.6943    1.3545    8.6257 C   0  0  0  0  0  0  0  0  0  0  0  0
   -1.1938    2.6251    9.1640 C   0  0  0  0  0  0  0  0  0  0  0  0
   -1.2700    3.8983    8.4853 C   0  0  0  0  0  0  0  0  0  0  0  0
   -1.8279    4.9082    9.1006 N   0  0  0  0  0  0  0  0  0  0  0  0
   -2.1815    4.4400   10.6618 S   0  0  0  0  0  0  0  0  0  0  0  0
   -1.6603    2.8061   10.4364 C   0  0  0  0  0  0  0  0  0  0  0  0
   -0.0971    0.2782    9.2233 C   0  0  0  0  0  0  0  0  0  0  0  0
   -0.6955    0.6941   12.2085 H   0  0  0  0  0  0  0  0  0  0  0  0
    0.9415    1.3437   11.9439 H   0  0  0  0  0  0  0  0  0  0  0  0
    0.6881   -0.2492   12.6486 H   0  0  0  0  0  0  0  0  0  0  0  0
    1.1687   -3.0504    7.4827 H   0  0  0  0  0  0  0  0  0  0  0  0
    0.8030   -3.8039    9.0522 H   0  0  0  0  0  0  0  0  0  0  0  0
    2.3859   -3.0624    8.7787 H   0  0  0  0  0  0  0  0  0  0  0  0
   -3.0613    2.8694    7.0883 H   0  0  0  0  0  0  0  0  0  0  0  0
   -0.9242    2.5439    2.3302 H   0  0  0  0  0  0  0  0  0  0  0  0
   -1.7387    4.0644    2.7585 H   0  0  0  0  0  0  0  0  0  0  0  0
   -2.7013    2.6096    2.4114 H   0  0  0  0  0  0  0  0  0  0  0  0
   -0.1976    1.1008    4.3587 H   0  0  0  0  0  0  0  0  0  0  0  0
   -0.9567    4.0652    7.4626 H   0  0  0  0  0  0  0  0  0  0  0  0
   -1.7813    2.1102   11.2498 H   0  0  0  0  0  0  0  0  0  0  0  0
  1  2  1  0
  1 23  1  0
  1 24  1  0
  1 25  1  0
  2 22  1  0
  2  3  2  0
  3  4  1  0
  4  5  1  0
  4  6  1  0
  5 26  1  0
  5 27  1  0
  5 28  1  0
  6 22  1  0
  6  7  2  0
  7  8  1  0
  7  9  1  0
  9 10  1  0
  9 16  1  0
 10 15  2  0
 10 11  1  0
 11 12  2  0
 11 29  1  0
 12 13  1  0
 13 14  1  0
 13 15  1  0
 14 30  1  0
 14 31  1  0
 14 32  1  0
 15 33  1  0
 16 17  1  0
 16 22  2  0
 17 21  2  0
 17 18  1  0
 18 19  2  0
 18 34  1  0
 19 20  1  0
 20 21  1  0
 21 35  1  0
M  CHG  1   8  -1
M  END
>  <i_m_ct_stereo_status>  (79) 
1

>  <s_m_source_file>  (79) 
/var/tmp/pbs.5076255.sched01/tmpuj7nejrg/06cdl7mjn.sdf

>  <i_m_source_file_index>  (79) 
37

>  <i_lp_mmshare_version>  (79) 
48012

>  <i_f3d_flags>  (79) 
0

>  <s_epik_input>  (79) 
W0NIM11uMW5jKFtDSDNdKWMoYzEyKWMoLWMzW2NIXW5zW2NIXTMpbihjMltPSF0pLWM0W2NIXW5uKFtDSDNdKVtjSF00

>  <s_epik_cmdline>  (79) 
J2VwaWtfcHl0aG9uJywgJy1waHQnLCAnMi4wJywgJy1waCcsICc3LjAnLCAnLXRuJywgJzgnLCAnLW1hJywgJzIwMCcsICctaW1hZScsICc8aW5maWxlLm1hZT4nLCAnLW9tYWUnLCAnPG91dGZpbGUubWFlPic=

>  <r_epik_Ionization_Penalty>  (79) 
1.65987

>  <r_epik_Ionization_Penalty_Charging>  (79) 
1.5786

>  <r_epik_Ionization_Penalty_Neutral>  (79) 
0.0812692

>  <r_epik_State_Penalty>  (79) 
2.04281

>  <r_epik_Charging_Adjusted_Penalty>  (79) 
3.62141

>  <i_epik_Tot_Q>  (79) 
-1

>  <i_epik_Tot_abs_Q>  (79) 
1

>  <s_lp_Force_Field>  (79) 
OPLS3e

>  <r_lp_Energy>  (79) 
6.60052

>  <b_lp_Chiralities_Consistent>  (79) 
1

>  <s_lp_Variant>  (79) 
20:0-2

>  <s_i_glide_gridfile>  (79) 
pfpi4k_grid

>  <i_i_glide_lignum>  (79) 
37

>  <i_i_glide_rotatable_bonds>  (79) 
2

>  <r_i_docking_score>  (79) 
-2.9405

>  <r_i_glide_ligand_efficiency>  (79) 
-0.133659

>  <r_i_glide_ligand_efficiency_sa>  (79) 
-0.374518

>  <r_i_glide_ligand_efficiency_ln>  (79) 
-0.718766

>  <r_i_glide_gscore>  (79) 
-2.9405

>  <r_i_glide_lipo>  (79) 
-0.12381

>  <r_i_glide_hbond>  (79) 
0

>  <r_i_glide_metal>  (79) 
-0

>  <r_i_glide_rewards>  (79) 
-1.27255

>  <r_i_glide_evdw>  (79) 
-18.9932

>  <r_i_glide_ecoul>  (79) 
-5.78986

>  <r_i_glide_erotb>  (79) 
0.378292

>  <r_i_glide_esite>  (79) 
-0.104289

>  <r_i_glide_emodel>  (79) 
-29.4511

>  <r_i_glide_energy>  (79) 
-24.7831

>  <r_i_glide_einternal>  (79) 
0.551804

>  <r_i_glide_intrahb_reward>  (79) 
-0

>  <i_i_glide_confnum>  (79) 
5

>  <i_i_glide_posenum>  (79) 
7

>  <r_i_glide_eff_state_penalty>  (79) 
0

>  <ligand_id>  (79) 
20

>  <original_smiles>  (79) 
Cc1nn(C)c2c(O)n(-c3cnn(C)c3)c(-c3cnsc3)c12

>  <smiles>  (79) 
[H]c1nsc([H])c1-c1c2c(C([H])([H])[H])nn(C([H])([H])[H])c2c([O-])n1-c1c([H])nn(C([H])([H])[H])c1[H]

$$$$
20:1:1
     RDKit          3D

 35 38  0  0  1  0  0  0  0  0999 V2000
    0.8186    0.0090    2.1005 C   0  0  0  0  0  0  0  0  0  0  0  0
    0.7695   -0.5228    3.5027 C   0  0  0  0  0  0  0  0  0  0  0  0
    1.3775   -1.7108    3.7517 N   0  0  0  0  0  0  0  0  0  0  0  0
    1.2027   -1.9468    5.0982 N   0  0  0  0  0  0  0  0  0  0  0  0
    1.7094   -3.1095    5.7892 C   0  0  0  0  0  0  0  0  0  0  0  0
    0.5007   -0.9436    5.6620 C   0  0  0  0  0  0  0  0  0  0  0  0
   -0.0223   -0.4961    6.8340 C   0  0  0  0  0  0  0  0  0  0  0  0
    0.0169   -1.0600    8.0621 O   0  0  0  0  0  0  0  0  0  0  0  0
   -0.6785    0.7455    6.5434 N   0  0  0  0  0  0  0  0  0  0  0  0
   -1.4166    1.5509    7.4612 C   0  0  0  0  0  0  0  0  0  0  0  0
   -2.5833    2.3151    7.2088 C   0  0  0  0  0  0  0  0  0  0  0  0
   -2.9997    2.9398    8.2980 N   0  0  0  0  0  0  0  0  0  0  0  0
   -2.1153    2.5892    9.2594 N   0  0  0  0  0  0  0  0  0  0  0  0
   -2.2956    3.1085   10.5969 C   0  0  0  0  0  0  0  0  0  0  0  0
   -1.1255    1.7448    8.7824 C   0  0  0  0  0  0  0  0  0  0  0  0
   -0.5068    1.0422    5.1560 C   0  0  0  0  0  0  0  0  0  0  0  0
   -1.0282    2.2261    4.4814 C   0  0  0  0  0  0  0  0  0  0  0  0
   -0.8918    3.5886    4.9237 C   0  0  0  0  0  0  0  0  0  0  0  0
   -1.4774    4.5255    4.2128 N   0  0  0  0  0  0  0  0  0  0  0  0
   -2.2447    3.8027    2.9189 S   0  0  0  0  0  0  0  0  0  0  0  0
   -1.7587    2.1980    3.3260 C   0  0  0  0  0  0  0  0  0  0  0  0
    0.1902   -0.0332    4.7187 C   0  0  0  0  0  0  0  0  0  0  0  0
    1.2374    1.0193    2.0470 H   0  0  0  0  0  0  0  0  0  0  0  0
   -0.1687    0.0083    1.6320 H   0  0  0  0  0  0  0  0  0  0  0  0
    1.4570   -0.6327    1.4908 H   0  0  0  0  0  0  0  0  0  0  0  0
    1.4403   -3.1132    6.8479 H   0  0  0  0  0  0  0  0  0  0  0  0
    2.7931   -3.1313    5.6898 H   0  0  0  0  0  0  0  0  0  0  0  0
    1.3114   -4.0020    5.3096 H   0  0  0  0  0  0  0  0  0  0  0  0
   -3.1438    2.4519    6.2953 H   0  0  0  0  0  0  0  0  0  0  0  0
   -1.6428    2.5833   11.2930 H   0  0  0  0  0  0  0  0  0  0  0  0
   -3.3292    2.9743   10.9164 H   0  0  0  0  0  0  0  0  0  0  0  0
   -2.0562    4.1707   10.6168 H   0  0  0  0  0  0  0  0  0  0  0  0
   -0.3422    1.3569    9.4122 H   0  0  0  0  0  0  0  0  0  0  0  0
   -0.4032    3.8964    5.8390 H   0  0  0  0  0  0  0  0  0  0  0  0
   -2.0763    1.3535    2.7287 H   0  0  0  0  0  0  0  0  0  0  0  0
  1  2  1  0
  1 23  1  0
  1 24  1  0
  1 25  1  0
  2 22  1  0
  2  3  2  0
  3  4  1  0
  4  5  1  0
  4  6  1  0
  5 26  1  0
  5 27  1  0
  5 28  1  0
  6 22  1  0
  6  7  2  0
  7  8  1  0
  7  9  1  0
  9 10  1  0
  9 16  1  0
 10 15  2  0
 10 11  1  0
 11 12  2  0
 11 29  1  0
 12 13  1  0
 13 14  1  0
 13 15  1  0
 14 30  1  0
 14 31  1  0
 14 32  1  0
 15 33  1  0
 16 17  1  0
 16 22  2  0
 17 21  2  0
 17 18  1  0
 18 19  2  0
 18 34  1  0
 19 20  1  0
 20 21  1  0
 21 35  1  0
M  CHG  1   8  -1
M  END
>  <i_m_ct_stereo_status>  (80) 
1

>  <s_m_source_file>  (80) 
/var/tmp/pbs.5076255.sched01/tmpuj7nejrg/06cdl7mjn.sdf

>  <i_m_source_file_index>  (80) 
37

>  <i_lp_mmshare_version>  (80) 
48012

>  <i_f3d_flags>  (80) 
0

>  <s_epik_input>  (80) 
W0NIM11uMW5jKFtDSDNdKWMoYzEyKWMoLWMzW2NIXW5zW2NIXTMpbihjMltPSF0pLWM0W2NIXW5uKFtDSDNdKVtjSF00

>  <s_epik_cmdline>  (80) 
J2VwaWtfcHl0aG9uJywgJy1waHQnLCAnMi4wJywgJy1waCcsICc3LjAnLCAnLXRuJywgJzgnLCAnLW1hJywgJzIwMCcsICctaW1hZScsICc8aW5maWxlLm1hZT4nLCAnLW9tYWUnLCAnPG91dGZpbGUubWFlPic=

>  <r_epik_Ionization_Penalty>  (80) 
1.65987

>  <r_epik_Ionization_Penalty_Charging>  (80) 
1.5786

>  <r_epik_Ionization_Penalty_Neutral>  (80) 
0.0812692

>  <r_epik_State_Penalty>  (80) 
2.04281

>  <r_epik_Charging_Adjusted_Penalty>  (80) 
3.62141

>  <i_epik_Tot_Q>  (80) 
-1

>  <i_epik_Tot_abs_Q>  (80) 
1

>  <s_lp_Force_Field>  (80) 
OPLS3e

>  <r_lp_Energy>  (80) 
6.60052

>  <b_lp_Chiralities_Consistent>  (80) 
1

>  <s_lp_Variant>  (80) 
20:0-2

>  <s_i_glide_gridfile>  (80) 
pfpi4k_grid

>  <i_i_glide_lignum>  (80) 
37

>  <i_i_glide_rotatable_bonds>  (80) 
2

>  <r_i_docking_score>  (80) 
-2.72253

>  <r_i_glide_ligand_efficiency>  (80) 
-0.123751

>  <r_i_glide_ligand_efficiency_sa>  (80) 
-0.346756

>  <r_i_glide_ligand_efficiency_ln>  (80) 
-0.665485

>  <r_i_glide_gscore>  (80) 
-2.72253

>  <r_i_glide_lipo>  (80) 
-0.0566538

>  <r_i_glide_hbond>  (80) 
-0.161775

>  <r_i_glide_metal>  (80) 
-0

>  <r_i_glide_rewards>  (80) 
-1.27255

>  <r_i_glide_evdw>  (80) 
-21.4569

>  <r_i_glide_ecoul>  (80) 
-3.09288

>  <r_i_glide_erotb>  (80) 
0.378292

>  <r_i_glide_esite>  (80) 
-0.0730609

>  <r_i_glide_emodel>  (80) 
-30.2092

>  <r_i_glide_energy>  (80) 
-24.5498

>  <r_i_glide_einternal>  (80) 
0.994435

>  <r_i_glide_intrahb_reward>  (80) 
-0

>  <i_i_glide_confnum>  (80) 
5

>  <i_i_glide_posenum>  (80) 
21

>  <r_i_glide_eff_state_penalty>  (80) 
0

>  <ligand_id>  (80) 
20

>  <original_smiles>  (80) 
Cc1nn(C)c2c(O)n(-c3cnn(C)c3)c(-c3cnsc3)c12

>  <smiles>  (80) 
[H]c1nsc([H])c1-c1c2c(C([H])([H])[H])nn(C([H])([H])[H])c2c([O-])n1-c1c([H])nn(C([H])([H])[H])c1[H]

$$$$
20:1:2
     RDKit          3D

 35 38  0  0  1  0  0  0  0  0999 V2000
    2.2355    1.6395    2.0475 C   0  0  0  0  0  0  0  0  0  0  0  0
    1.5505    0.7066    3.0005 C   0  0  0  0  0  0  0  0  0  0  0  0
    1.7353   -0.6202    2.7968 N   0  0  0  0  0  0  0  0  0  0  0  0
    1.0198   -1.2502    3.7911 N   0  0  0  0  0  0  0  0  0  0  0  0
    0.9539   -2.6876    3.9423 C   0  0  0  0  0  0  0  0  0  0  0  0
    0.4182   -0.3458    4.5900 C   0  0  0  0  0  0  0  0  0  0  0  0
   -0.3873   -0.2185    5.6795 C   0  0  0  0  0  0  0  0  0  0  0  0
   -0.9672   -1.1599    6.4532 O   0  0  0  0  0  0  0  0  0  0  0  0
   -0.5790    1.1788    5.8803 N   0  0  0  0  0  0  0  0  0  0  0  0
   -1.4113    1.7372    6.8811 C   0  0  0  0  0  0  0  0  0  0  0  0
   -2.5772    2.5241    6.6900 C   0  0  0  0  0  0  0  0  0  0  0  0
   -3.0552    2.9453    7.8499 N   0  0  0  0  0  0  0  0  0  0  0  0
   -2.2090    2.4558    8.7882 N   0  0  0  0  0  0  0  0  0  0  0  0
   -2.4691    2.7437   10.1879 C   0  0  0  0  0  0  0  0  0  0  0  0
   -1.1797    1.7199    8.2258 C   0  0  0  0  0  0  0  0  0  0  0  0
    0.1470    1.9104    4.8893 C   0  0  0  0  0  0  0  0  0  0  0  0
    0.1906    3.3826    4.7807 C   0  0  0  0  0  0  0  0  0  0  0  0
   -0.2034    4.3615    5.7657 C   0  0  0  0  0  0  0  0  0  0  0  0
   -0.1398    5.6350    5.4485 N   0  0  0  0  0  0  0  0  0  0  0  0
    0.5120    5.7649    3.9209 S   0  0  0  0  0  0  0  0  0  0  0  0
    0.6291    4.0620    3.6810 C   0  0  0  0  0  0  0  0  0  0  0  0
    0.7005    0.8991    4.1530 C   0  0  0  0  0  0  0  0  0  0  0  0
    2.8588    2.3647    2.5738 H   0  0  0  0  0  0  0  0  0  0  0  0
    1.5106    2.1450    1.4097 H   0  0  0  0  0  0  0  0  0  0  0  0
    2.8866    1.0812    1.3763 H   0  0  0  0  0  0  0  0  0  0  0  0
    0.3195   -2.9920    4.7775 H   0  0  0  0  0  0  0  0  0  0  0  0
    1.9633   -3.0740    4.0889 H   0  0  0  0  0  0  0  0  0  0  0  0
    0.5747   -3.1189    3.0167 H   0  0  0  0  0  0  0  0  0  0  0  0
   -3.0565    2.8328    5.7747 H   0  0  0  0  0  0  0  0  0  0  0  0
   -1.8417    2.1222   10.8288 H   0  0  0  0  0  0  0  0  0  0  0  0
   -3.5140    2.5406   10.4276 H   0  0  0  0  0  0  0  0  0  0  0  0
   -2.2668    3.7935   10.4077 H   0  0  0  0  0  0  0  0  0  0  0  0
   -0.4003    1.2725    8.8226 H   0  0  0  0  0  0  0  0  0  0  0  0
   -0.5757    4.1515    6.7557 H   0  0  0  0  0  0  0  0  0  0  0  0
    0.9828    3.7073    2.7307 H   0  0  0  0  0  0  0  0  0  0  0  0
  1  2  1  0
  1 23  1  0
  1 24  1  0
  1 25  1  0
  2 22  1  0
  2  3  2  0
  3  4  1  0
  4  5  1  0
  4  6  1  0
  5 26  1  0
  5 27  1  0
  5 28  1  0
  6 22  1  0
  6  7  2  0
  7  8  1  0
  7  9  1  0
  9 10  1  0
  9 16  1  0
 10 15  2  0
 10 11  1  0
 11 12  2  0
 11 29  1  0
 12 13  1  0
 13 14  1  0
 13 15  1  0
 14 30  1  0
 14 31  1  0
 14 32  1  0
 15 33  1  0
 16 17  1  0
 16 22  2  0
 17 21  2  0
 17 18  1  0
 18 19  2  0
 18 34  1  0
 19 20  1  0
 20 21  1  0
 21 35  1  0
M  CHG  1   8  -1
M  END
>  <i_m_ct_stereo_status>  (81) 
1

>  <s_m_source_file>  (81) 
/var/tmp/pbs.5076255.sched01/tmpuj7nejrg/06cdl7mjn.sdf

>  <i_m_source_file_index>  (81) 
37

>  <i_lp_mmshare_version>  (81) 
48012

>  <i_f3d_flags>  (81) 
0

>  <s_epik_input>  (81) 
W0NIM11uMW5jKFtDSDNdKWMoYzEyKWMoLWMzW2NIXW5zW2NIXTMpbihjMltPSF0pLWM0W2NIXW5uKFtDSDNdKVtjSF00

>  <s_epik_cmdline>  (81) 
J2VwaWtfcHl0aG9uJywgJy1waHQnLCAnMi4wJywgJy1waCcsICc3LjAnLCAnLXRuJywgJzgnLCAnLW1hJywgJzIwMCcsICctaW1hZScsICc8aW5maWxlLm1hZT4nLCAnLW9tYWUnLCAnPG91dGZpbGUubWFlPic=

>  <r_epik_Ionization_Penalty>  (81) 
1.65987

>  <r_epik_Ionization_Penalty_Charging>  (81) 
1.5786

>  <r_epik_Ionization_Penalty_Neutral>  (81) 
0.0812692

>  <r_epik_State_Penalty>  (81) 
2.04281

>  <r_epik_Charging_Adjusted_Penalty>  (81) 
3.62141

>  <i_epik_Tot_Q>  (81) 
-1

>  <i_epik_Tot_abs_Q>  (81) 
1

>  <s_lp_Force_Field>  (81) 
OPLS3e

>  <r_lp_Energy>  (81) 
6.60052

>  <b_lp_Chiralities_Consistent>  (81) 
1

>  <s_lp_Variant>  (81) 
20:0-2

>  <s_i_glide_gridfile>  (81) 
pfpi4k_grid

>  <i_i_glide_lignum>  (81) 
37

>  <i_i_glide_rotatable_bonds>  (81) 
2

>  <r_i_docking_score>  (81) 
-2.57894

>  <r_i_glide_ligand_efficiency>  (81) 
-0.117224

>  <r_i_glide_ligand_efficiency_sa>  (81) 
-0.328468

>  <r_i_glide_ligand_efficiency_ln>  (81) 
-0.630387

>  <r_i_glide_gscore>  (81) 
-2.57894

>  <r_i_glide_lipo>  (81) 
-0.208559

>  <r_i_glide_hbond>  (81) 
-0.0375432

>  <r_i_glide_metal>  (81) 
-0

>  <r_i_glide_rewards>  (81) 
-1.27255

>  <r_i_glide_evdw>  (81) 
-22.9437

>  <r_i_glide_ecoul>  (81) 
-1.64044

>  <r_i_glide_erotb>  (81) 
0.378292

>  <r_i_glide_esite>  (81) 
-0.0453206

>  <r_i_glide_emodel>  (81) 
-29.6251

>  <r_i_glide_energy>  (81) 
-24.5842

>  <r_i_glide_einternal>  (81) 
0.938677

>  <r_i_glide_intrahb_reward>  (81) 
-0

>  <i_i_glide_confnum>  (81) 
6

>  <i_i_glide_posenum>  (81) 
9

>  <r_i_glide_eff_state_penalty>  (81) 
0

>  <ligand_id>  (81) 
20

>  <original_smiles>  (81) 
Cc1nn(C)c2c(O)n(-c3cnn(C)c3)c(-c3cnsc3)c12

>  <smiles>  (81) 
[H]c1nsc([H])c1-c1c2c(C([H])([H])[H])nn(C([H])([H])[H])c2c([O-])n1-c1c([H])nn(C([H])([H])[H])c1[H]

$$$$
20:2:0
     RDKit          3D

 37 40  0  0  1  0  0  0  0  0999 V2000
    2.2914    0.2709    7.9030 C   0  0  0  0  0  0  0  0  0  0  0  0
    2.3272    0.6808    6.4594 C   0  0  0  0  0  0  0  0  0  0  0  0
    3.4077    0.3236    5.6696 N   0  0  0  0  0  0  0  0  0  0  0  0
    3.2780    0.7592    4.3575 N   0  0  0  0  0  0  0  0  0  0  0  0
    4.2413    0.5172    3.2918 C   0  0  0  0  0  0  0  0  0  0  0  0
    2.0944    1.4012    4.3101 C   0  0  0  0  0  0  0  0  0  0  0  0
    1.2957    2.0737    3.4414 C   0  0  0  0  0  0  0  0  0  0  0  0
    1.4805    2.4030    2.1317 O   0  0  0  0  0  0  0  0  0  0  0  0
    0.1414    2.4528    4.1695 N   0  0  0  0  0  0  0  0  0  0  0  0
   -0.9160    3.2005    3.6029 C   0  0  0  0  0  0  0  0  0  0  0  0
   -0.9772    4.6000    3.3737 C   0  0  0  0  0  0  0  0  0  0  0  0
   -2.1662    4.9325    2.8757 N   0  0  0  0  0  0  0  0  0  0  0  0
   -2.8530    3.7692    2.7655 N   0  0  0  0  0  0  0  0  0  0  0  0
   -4.2147    3.7792    2.2480 C   0  0  0  0  0  0  0  0  0  0  0  0
   -2.1029    2.6915    3.1795 C   0  0  0  0  0  0  0  0  0  0  0  0
    0.2325    2.0150    5.5336 C   0  0  0  0  0  0  0  0  0  0  0  0
   -0.7767    2.2751    6.5873 C   0  0  0  0  0  0  0  0  0  0  0  0
   -2.1975    2.4926    6.4109 C   0  0  0  0  0  0  0  0  0  0  0  0
   -2.9453    2.6961    7.4707 N   0  0  0  0  0  0  0  0  0  0  0  0
   -1.9822    2.6485    8.8328 S   0  0  0  0  0  0  0  0  0  0  0  0
   -0.5091    2.4041    7.9388 C   0  0  0  0  0  0  0  0  0  0  0  0
    1.4676    1.3955    5.5314 C   0  0  0  0  0  0  0  0  0  0  0  0
    1.4391    0.6330    8.4660 H   0  0  0  0  0  0  0  0  0  0  0  0
    3.2078    0.6162    8.3890 H   0  0  0  0  0  0  0  0  0  0  0  0
    2.2752   -0.8182    7.9735 H   0  0  0  0  0  0  0  0  0  0  0  0
    3.9024    0.9406    2.3419 H   0  0  0  0  0  0  0  0  0  0  0  0
    4.3754   -0.5587    3.1892 H   0  0  0  0  0  0  0  0  0  0  0  0
    5.1883    0.9454    3.6196 H   0  0  0  0  0  0  0  0  0  0  0  0
    0.8138    3.0352    1.8628 H   0  0  0  0  0  0  0  0  0  0  0  0
   -0.2493    5.3633    3.5509 H   0  0  0  0  0  0  0  0  0  0  0  0
   -4.6773    2.8083    2.4087 H   0  0  0  0  0  0  0  0  0  0  0  0
   -4.2093    3.9782    1.1803 H   0  0  0  0  0  0  0  0  0  0  0  0
   -4.8360    4.5394    2.7245 H   0  0  0  0  0  0  0  0  0  0  0  0
   -2.4932    1.6910    3.1566 H   0  0  0  0  0  0  0  0  0  0  0  0
   -2.7475    2.5193    5.4826 H   0  0  0  0  0  0  0  0  0  0  0  0
    0.4268    2.4104    8.4830 H   0  0  0  0  0  0  0  0  0  0  0  0
    4.2178   -0.2085    5.9647 H   0  0  0  0  0  0  0  0  0  0  0  0
  1  2  1  0
  1 23  1  0
  1 24  1  0
  1 25  1  0
  2 22  1  0
  2  3  2  0
  3  4  1  0
  3 37  1  0
  4  5  1  0
  4  6  1  0
  5 26  1  0
  5 27  1  0
  5 28  1  0
  6 22  1  0
  6  7  2  0
  7  8  1  0
  7  9  1  0
  8 29  1  0
  9 10  1  0
  9 16  1  0
 10 15  2  0
 10 11  1  0
 11 12  2  0
 11 30  1  0
 12 13  1  0
 13 14  1  0
 13 15  1  0
 14 31  1  0
 14 32  1  0
 14 33  1  0
 15 34  1  0
 16 17  1  0
 16 22  2  0
 17 21  2  0
 17 18  1  0
 18 19  2  0
 18 35  1  0
 19 20  1  0
 20 21  1  0
 21 36  1  0
M  CHG  1   3   1
M  END
>  <i_m_ct_stereo_status>  (82) 
1

>  <s_m_source_file>  (82) 
/var/tmp/pbs.5076255.sched01/tmpuj7nejrg/06cdl7mjn.sdf

>  <i_m_source_file_index>  (82) 
38

>  <i_lp_mmshare_version>  (82) 
48012

>  <i_f3d_flags>  (82) 
0

>  <s_epik_input>  (82) 
W0NIM11uMW5jKFtDSDNdKWMoYzEyKWMoLWMzW2NIXW5zW2NIXTMpbihjMltPSF0pLWM0W2NIXW5uKFtDSDNdKVtjSF00

>  <s_epik_cmdline>  (82) 
J2VwaWtfcHl0aG9uJywgJy1waHQnLCAnMi4wJywgJy1waCcsICc3LjAnLCAnLXRuJywgJzgnLCAnLW1hJywgJzIwMCcsICctaW1hZScsICc8aW5maWxlLm1hZT4nLCAnLW9tYWUnLCAnPG91dGZpbGUubWFlPic=

>  <r_epik_Ionization_Penalty>  (82) 
2.4542

>  <r_epik_Ionization_Penalty_Charging>  (82) 
2.41854

>  <r_epik_Ionization_Penalty_Neutral>  (82) 
0.035657

>  <r_epik_State_Penalty>  (82) 
2.2356

>  <r_epik_Charging_Adjusted_Penalty>  (82) 
4.65414

>  <i_epik_Tot_Q>  (82) 
1

>  <i_epik_Tot_abs_Q>  (82) 
1

>  <s_lp_Force_Field>  (82) 
OPLS3e

>  <r_lp_Energy>  (82) 
15.0386

>  <b_lp_Chiralities_Consistent>  (82) 
1

>  <s_lp_Variant>  (82) 
20:0-3

>  <s_i_glide_gridfile>  (82) 
pfpi4k_grid

>  <i_i_glide_lignum>  (82) 
38

>  <i_i_glide_rotatable_bonds>  (82) 
3

>  <r_i_docking_score>  (82) 
-4.06287

>  <r_i_glide_ligand_efficiency>  (82) 
-0.184676

>  <r_i_glide_ligand_efficiency_sa>  (82) 
-0.517469

>  <r_i_glide_ligand_efficiency_ln>  (82) 
-0.993113

>  <r_i_glide_gscore>  (82) 
-4.06287

>  <r_i_glide_lipo>  (82) 
-0.348655

>  <r_i_glide_hbond>  (82) 
-0.32

>  <r_i_glide_metal>  (82) 
-0

>  <r_i_glide_rewards>  (82) 
-1.25881

>  <r_i_glide_evdw>  (82) 
-18.4057

>  <r_i_glide_ecoul>  (82) 
-10.0018

>  <r_i_glide_erotb>  (82) 
0.37405

>  <r_i_glide_esite>  (82) 
-0.088887

>  <r_i_glide_emodel>  (82) 
-35.8545

>  <r_i_glide_energy>  (82) 
-28.4076

>  <r_i_glide_einternal>  (82) 
1.49328

>  <r_i_glide_intrahb_reward>  (82) 
-0

>  <i_i_glide_confnum>  (82) 
5

>  <i_i_glide_posenum>  (82) 
35

>  <r_i_glide_eff_state_penalty>  (82) 
0

>  <ligand_id>  (82) 
20

>  <original_smiles>  (82) 
Cc1nn(C)c2c(O)n(-c3cnn(C)c3)c(-c3cnsc3)c12

>  <smiles>  (82) 
[H]Oc1c2c(c(-c3c([H])nsc3[H])n1-c1c([H])nn(C([H])([H])[H])c1[H])c(C([H])([H])[H])[n+]([H])n2C([H])([H])[H]

$$$$
20:2:1
     RDKit          3D

 37 40  0  0  1  0  0  0  0  0999 V2000
    3.2515   -0.9636    6.8515 C   0  0  0  0  0  0  0  0  0  0  0  0
    3.0132   -0.4056    5.4873 C   0  0  0  0  0  0  0  0  0  0  0  0
    3.8880   -0.6889    4.4483 N   0  0  0  0  0  0  0  0  0  0  0  0
    3.4907   -0.0938    3.2497 N   0  0  0  0  0  0  0  0  0  0  0  0
    4.1941   -0.2134    1.9753 C   0  0  0  0  0  0  0  0  0  0  0  0
    2.3490    0.5601    3.5339 C   0  0  0  0  0  0  0  0  0  0  0  0
    1.4029    1.3405    2.9451 C   0  0  0  0  0  0  0  0  0  0  0  0
    1.3022    1.8123    1.6871 O   0  0  0  0  0  0  0  0  0  0  0  0
    0.4591    1.6541    3.9556 N   0  0  0  0  0  0  0  0  0  0  0  0
   -0.6732    2.4781    3.7473 C   0  0  0  0  0  0  0  0  0  0  0  0
   -1.0008    3.6908    4.4043 C   0  0  0  0  0  0  0  0  0  0  0  0
   -2.1702    4.1479    3.9786 N   0  0  0  0  0  0  0  0  0  0  0  0
   -2.5874    3.2568    3.0438 N   0  0  0  0  0  0  0  0  0  0  0  0
   -3.8554    3.4878    2.3694 C   0  0  0  0  0  0  0  0  0  0  0  0
   -1.6914    2.2162    2.8782 C   0  0  0  0  0  0  0  0  0  0  0  0
    0.8444    1.0516    5.1953 C   0  0  0  0  0  0  0  0  0  0  0  0
    0.0945    1.1912    6.4378 C   0  0  0  0  0  0  0  0  0  0  0  0
   -1.3304    1.3417    6.5613 C   0  0  0  0  0  0  0  0  0  0  0  0
   -1.8384    1.4531    7.7676 N   0  0  0  0  0  0  0  0  0  0  0  0
   -0.5988    1.3953    8.8823 S   0  0  0  0  0  0  0  0  0  0  0  0
    0.6483    1.2290    7.6925 C   0  0  0  0  0  0  0  0  0  0  0  0
    2.0039    0.4263    4.8594 C   0  0  0  0  0  0  0  0  0  0  0  0
    2.5545   -0.6275    7.6055 H   0  0  0  0  0  0  0  0  0  0  0  0
    4.2613   -0.7030    7.1691 H   0  0  0  0  0  0  0  0  0  0  0  0
    3.1961   -2.0504    6.8209 H   0  0  0  0  0  0  0  0  0  0  0  0
    3.6951    0.3501    1.1864 H   0  0  0  0  0  0  0  0  0  0  0  0
    4.2460   -1.2714    1.7121 H   0  0  0  0  0  0  0  0  0  0  0  0
    5.2095    0.1525    2.1217 H   0  0  0  0  0  0  0  0  0  0  0  0
    0.7322    2.5765    1.6869 H   0  0  0  0  0  0  0  0  0  0  0  0
   -0.4617    4.2327    5.1689 H   0  0  0  0  0  0  0  0  0  0  0  0
   -4.1420    2.6169    1.7794 H   0  0  0  0  0  0  0  0  0  0  0  0
   -3.7937    4.3491    1.7032 H   0  0  0  0  0  0  0  0  0  0  0  0
   -4.6517    3.6940    3.0842 H   0  0  0  0  0  0  0  0  0  0  0  0
   -1.8648    1.4084    2.1843 H   0  0  0  0  0  0  0  0  0  0  0  0
   -2.0347    1.4083    5.7438 H   0  0  0  0  0  0  0  0  0  0  0  0
    1.6803    1.2143    8.0123 H   0  0  0  0  0  0  0  0  0  0  0  0
    4.7234   -1.2655    4.4924 H   0  0  0  0  0  0  0  0  0  0  0  0
  1  2  1  0
  1 23  1  0
  1 24  1  0
  1 25  1  0
  2 22  1  0
  2  3  2  0
  3  4  1  0
  3 37  1  0
  4  5  1  0
  4  6  1  0
  5 26  1  0
  5 27  1  0
  5 28  1  0
  6 22  1  0
  6  7  2  0
  7  8  1  0
  7  9  1  0
  8 29  1  0
  9 10  1  0
  9 16  1  0
 10 15  2  0
 10 11  1  0
 11 12  2  0
 11 30  1  0
 12 13  1  0
 13 14  1  0
 13 15  1  0
 14 31  1  0
 14 32  1  0
 14 33  1  0
 15 34  1  0
 16 17  1  0
 16 22  2  0
 17 21  2  0
 17 18  1  0
 18 19  2  0
 18 35  1  0
 19 20  1  0
 20 21  1  0
 21 36  1  0
M  CHG  1   3   1
M  END
>  <i_m_ct_stereo_status>  (83) 
1

>  <s_m_source_file>  (83) 
/var/tmp/pbs.5076255.sched01/tmpuj7nejrg/06cdl7mjn.sdf

>  <i_m_source_file_index>  (83) 
38

>  <i_lp_mmshare_version>  (83) 
48012

>  <i_f3d_flags>  (83) 
0

>  <s_epik_input>  (83) 
W0NIM11uMW5jKFtDSDNdKWMoYzEyKWMoLWMzW2NIXW5zW2NIXTMpbihjMltPSF0pLWM0W2NIXW5uKFtDSDNdKVtjSF00

>  <s_epik_cmdline>  (83) 
J2VwaWtfcHl0aG9uJywgJy1waHQnLCAnMi4wJywgJy1waCcsICc3LjAnLCAnLXRuJywgJzgnLCAnLW1hJywgJzIwMCcsICctaW1hZScsICc8aW5maWxlLm1hZT4nLCAnLW9tYWUnLCAnPG91dGZpbGUubWFlPic=

>  <r_epik_Ionization_Penalty>  (83) 
2.4542

>  <r_epik_Ionization_Penalty_Charging>  (83) 
2.41854

>  <r_epik_Ionization_Penalty_Neutral>  (83) 
0.035657

>  <r_epik_State_Penalty>  (83) 
2.2356

>  <r_epik_Charging_Adjusted_Penalty>  (83) 
4.65414

>  <i_epik_Tot_Q>  (83) 
1

>  <i_epik_Tot_abs_Q>  (83) 
1

>  <s_lp_Force_Field>  (83) 
OPLS3e

>  <r_lp_Energy>  (83) 
15.0386

>  <b_lp_Chiralities_Consistent>  (83) 
1

>  <s_lp_Variant>  (83) 
20:0-3

>  <s_i_glide_gridfile>  (83) 
pfpi4k_grid

>  <i_i_glide_lignum>  (83) 
38

>  <i_i_glide_rotatable_bonds>  (83) 
3

>  <r_i_docking_score>  (83) 
-3.78525

>  <r_i_glide_ligand_efficiency>  (83) 
-0.172057

>  <r_i_glide_ligand_efficiency_sa>  (83) 
-0.482109

>  <r_i_glide_ligand_efficiency_ln>  (83) 
-0.925252

>  <r_i_glide_gscore>  (83) 
-3.78525

>  <r_i_glide_lipo>  (83) 
-0.317102

>  <r_i_glide_hbond>  (83) 
-0.299081

>  <r_i_glide_metal>  (83) 
-0

>  <r_i_glide_rewards>  (83) 
-1.26536

>  <r_i_glide_evdw>  (83) 
-21.1387

>  <r_i_glide_ecoul>  (83) 
-7.68135

>  <r_i_glide_erotb>  (83) 
0.37405

>  <r_i_glide_esite>  (83) 
-0.068616

>  <r_i_glide_emodel>  (83) 
-36.4067

>  <r_i_glide_energy>  (83) 
-28.82

>  <r_i_glide_einternal>  (83) 
1.12991

>  <r_i_glide_intrahb_reward>  (83) 
-0

>  <i_i_glide_confnum>  (83) 
1

>  <i_i_glide_posenum>  (83) 
9

>  <r_i_glide_eff_state_penalty>  (83) 
0

>  <ligand_id>  (83) 
20

>  <original_smiles>  (83) 
Cc1nn(C)c2c(O)n(-c3cnn(C)c3)c(-c3cnsc3)c12

>  <smiles>  (83) 
[H]Oc1c2c(c(-c3c([H])nsc3[H])n1-c1c([H])nn(C([H])([H])[H])c1[H])c(C([H])([H])[H])[n+]([H])n2C([H])([H])[H]

$$$$
20:2:2
     RDKit          3D

 37 40  0  0  1  0  0  0  0  0999 V2000
    2.2749    0.2477    2.4662 C   0  0  0  0  0  0  0  0  0  0  0  0
    1.9542    1.5997    3.0146 C   0  0  0  0  0  0  0  0  0  0  0  0
    2.5903    2.7354    2.5514 N   0  0  0  0  0  0  0  0  0  0  0  0
    2.1435    3.8947    3.1955 N   0  0  0  0  0  0  0  0  0  0  0  0
    2.6098    5.2460    2.9155 C   0  0  0  0  0  0  0  0  0  0  0  0
    1.2231    3.4821    4.0830 C   0  0  0  0  0  0  0  0  0  0  0  0
    0.3670    3.9423    5.0272 C   0  0  0  0  0  0  0  0  0  0  0  0
    0.0904    5.2058    5.4637 O   0  0  0  0  0  0  0  0  0  0  0  0
   -0.3071    2.8128    5.5465 N   0  0  0  0  0  0  0  0  0  0  0  0
   -1.3061    2.8939    6.5451 C   0  0  0  0  0  0  0  0  0  0  0  0
   -2.7058    2.9403    6.3515 C   0  0  0  0  0  0  0  0  0  0  0  0
   -3.3384    2.9370    7.5110 N   0  0  0  0  0  0  0  0  0  0  0  0
   -2.3711    3.0002    8.4540 N   0  0  0  0  0  0  0  0  0  0  0  0
   -2.7671    3.0828    9.8503 C   0  0  0  0  0  0  0  0  0  0  0  0
   -1.1039    2.9692    7.8942 C   0  0  0  0  0  0  0  0  0  0  0  0
    0.1379    1.6277    4.8896 C   0  0  0  0  0  0  0  0  0  0  0  0
   -0.3659    0.2873    5.1796 C   0  0  0  0  0  0  0  0  0  0  0  0
   -1.7392   -0.0686    5.3721 C   0  0  0  0  0  0  0  0  0  0  0  0
   -2.0223   -1.3144    5.6789 N   0  0  0  0  0  0  0  0  0  0  0  0
   -0.5983   -2.1959    5.6803 S   0  0  0  0  0  0  0  0  0  0  0  0
    0.4087   -0.8328    5.3216 C   0  0  0  0  0  0  0  0  0  0  0  0
    1.0707    2.1201    4.0247 C   0  0  0  0  0  0  0  0  0  0  0  0
    1.7894   -0.5659    2.9970 H   0  0  0  0  0  0  0  0  0  0  0  0
    3.3537    0.1050    2.5017 H   0  0  0  0  0  0  0  0  0  0  0  0
    1.9935    0.2035    1.4157 H   0  0  0  0  0  0  0  0  0  0  0  0
    2.1061    5.9893    3.5370 H   0  0  0  0  0  0  0  0  0  0  0  0
    2.4061    5.4213    1.8615 H   0  0  0  0  0  0  0  0  0  0  0  0
    3.6900    5.2721    3.0720 H   0  0  0  0  0  0  0  0  0  0  0  0
    0.6820    5.8091    5.0411 H   0  0  0  0  0  0  0  0  0  0  0  0
   -3.2868    2.9197    5.4426 H   0  0  0  0  0  0  0  0  0  0  0  0
   -1.9034    3.2948   10.4800 H   0  0  0  0  0  0  0  0  0  0  0  0
   -3.2135    2.1472   10.1841 H   0  0  0  0  0  0  0  0  0  0  0  0
   -3.5067    3.8721    9.9928 H   0  0  0  0  0  0  0  0  0  0  0  0
   -0.2092    3.0027    8.4939 H   0  0  0  0  0  0  0  0  0  0  0  0
   -2.5800    0.6076    5.3392 H   0  0  0  0  0  0  0  0  0  0  0  0
    1.4863   -0.9425    5.2692 H   0  0  0  0  0  0  0  0  0  0  0  0
    3.3213    2.7774    1.8486 H   0  0  0  0  0  0  0  0  0  0  0  0
  1  2  1  0
  1 23  1  0
  1 24  1  0
  1 25  1  0
  2 22  1  0
  2  3  2  0
  3  4  1  0
  3 37  1  0
  4  5  1  0
  4  6  1  0
  5 26  1  0
  5 27  1  0
  5 28  1  0
  6 22  1  0
  6  7  2  0
  7  8  1  0
  7  9  1  0
  8 29  1  0
  9 10  1  0
  9 16  1  0
 10 15  2  0
 10 11  1  0
 11 12  2  0
 11 30  1  0
 12 13  1  0
 13 14  1  0
 13 15  1  0
 14 31  1  0
 14 32  1  0
 14 33  1  0
 15 34  1  0
 16 17  1  0
 16 22  2  0
 17 21  2  0
 17 18  1  0
 18 19  2  0
 18 35  1  0
 19 20  1  0
 20 21  1  0
 21 36  1  0
M  CHG  1   3   1
M  END
>  <i_m_ct_stereo_status>  (84) 
1

>  <s_m_source_file>  (84) 
/var/tmp/pbs.5076255.sched01/tmpuj7nejrg/06cdl7mjn.sdf

>  <i_m_source_file_index>  (84) 
38

>  <i_lp_mmshare_version>  (84) 
48012

>  <i_f3d_flags>  (84) 
0

>  <s_epik_input>  (84) 
W0NIM11uMW5jKFtDSDNdKWMoYzEyKWMoLWMzW2NIXW5zW2NIXTMpbihjMltPSF0pLWM0W2NIXW5uKFtDSDNdKVtjSF00

>  <s_epik_cmdline>  (84) 
J2VwaWtfcHl0aG9uJywgJy1waHQnLCAnMi4wJywgJy1waCcsICc3LjAnLCAnLXRuJywgJzgnLCAnLW1hJywgJzIwMCcsICctaW1hZScsICc8aW5maWxlLm1hZT4nLCAnLW9tYWUnLCAnPG91dGZpbGUubWFlPic=

>  <r_epik_Ionization_Penalty>  (84) 
2.4542

>  <r_epik_Ionization_Penalty_Charging>  (84) 
2.41854

>  <r_epik_Ionization_Penalty_Neutral>  (84) 
0.035657

>  <r_epik_State_Penalty>  (84) 
2.2356

>  <r_epik_Charging_Adjusted_Penalty>  (84) 
4.65414

>  <i_epik_Tot_Q>  (84) 
1

>  <i_epik_Tot_abs_Q>  (84) 
1

>  <s_lp_Force_Field>  (84) 
OPLS3e

>  <r_lp_Energy>  (84) 
15.0386

>  <b_lp_Chiralities_Consistent>  (84) 
1

>  <s_lp_Variant>  (84) 
20:0-3

>  <s_i_glide_gridfile>  (84) 
pfpi4k_grid

>  <i_i_glide_lignum>  (84) 
38

>  <i_i_glide_rotatable_bonds>  (84) 
3

>  <r_i_docking_score>  (84) 
-3.39766

>  <r_i_glide_ligand_efficiency>  (84) 
-0.154439

>  <r_i_glide_ligand_efficiency_sa>  (84) 
-0.432745

>  <r_i_glide_ligand_efficiency_ln>  (84) 
-0.830512

>  <r_i_glide_gscore>  (84) 
-3.39766

>  <r_i_glide_lipo>  (84) 
-0.186141

>  <r_i_glide_hbond>  (84) 
-0.0200389

>  <r_i_glide_metal>  (84) 
-0

>  <r_i_glide_rewards>  (84) 
-1.28878

>  <r_i_glide_evdw>  (84) 
-24.1593

>  <r_i_glide_ecoul>  (84) 
-6.40648

>  <r_i_glide_erotb>  (84) 
0.37405

>  <r_i_glide_esite>  (84) 
-0.107817

>  <r_i_glide_emodel>  (84) 
-37.2889

>  <r_i_glide_energy>  (84) 
-30.5658

>  <r_i_glide_einternal>  (84) 
1.77467

>  <r_i_glide_intrahb_reward>  (84) 
-0

>  <i_i_glide_confnum>  (84) 
4

>  <i_i_glide_posenum>  (84) 
1

>  <r_i_glide_eff_state_penalty>  (84) 
0

>  <ligand_id>  (84) 
20

>  <original_smiles>  (84) 
Cc1nn(C)c2c(O)n(-c3cnn(C)c3)c(-c3cnsc3)c12

>  <smiles>  (84) 
[H]Oc1c2c(c(-c3c([H])nsc3[H])n1-c1c([H])nn(C([H])([H])[H])c1[H])c(C([H])([H])[H])[n+]([H])n2C([H])([H])[H]

$$$$
21:0:0
     RDKit          3D

 67 73  0  0  1  0  0  0  0  0999 V2000
    7.5934    0.9336    6.4188 C   0  0  0  0  0  0  0  0  0  0  0  0
    6.8034    0.1258    7.4724 C   0  0  2  0  0  0  0  0  0  0  0  0
    5.3937    0.6507    7.7844 C   0  0  1  0  0  0  0  0  0  0  0  0
    5.5423    1.4652    9.0706 C   0  0  2  0  0  0  0  0  0  0  0  0
    5.2877    2.7473    8.2694 C   0  0  0  0  0  0  0  0  0  0  0  0
    4.6561    1.8800    7.1671 C   0  0  1  0  0  0  0  0  0  0  0  0
    5.1277    2.1645    5.8626 O   0  0  0  0  0  0  0  0  0  0  0  0
    4.3003    1.5090    4.9026 C   0  0  0  0  0  0  0  0  0  0  0  0
    3.0235    1.0811    5.6404 C   0  0  2  0  0  0  0  0  0  0  0  0
    1.7229    1.2390    4.8076 C   0  0  1  0  0  0  0  0  0  0  0  0
    0.5666    0.3350    5.3123 C   0  0  0  0  0  0  0  0  0  0  0  0
   -0.7172    0.4743    4.4716 C   0  0  0  0  0  0  0  0  0  0  0  0
   -1.1412    1.9473    4.4141 C   0  0  2  0  0  0  0  0  0  0  0  0
   -2.3637    2.1519    3.6458 N   0  0  0  0  0  0  0  0  0  0  0  0
   -2.7531    3.3212    3.1031 C   0  0  0  0  0  0  0  0  0  0  0  0
   -3.8251    3.4222    2.5143 O   0  0  0  0  0  0  0  0  0  0  0  0
   -1.8105    4.4218    3.2611 C   0  0  0  0  0  0  0  0  0  0  0  0
   -0.5287    4.2127    3.6257 C   0  0  0  0  0  0  0  0  0  0  0  0
   -0.0063    2.8165    3.8528 C   0  0  1  0  0  0  0  0  0  0  0  0
    1.2937    2.7208    4.6756 C   0  0  1  0  0  0  0  0  0  0  0  0
    1.2396    3.4156    6.0477 C   0  0  0  0  0  0  0  0  0  0  0  0
    2.6098    3.3371    6.7398 C   0  0  0  0  0  0  0  0  0  0  0  0
    3.1261    1.8815    6.9492 C   0  0  2  0  0  0  0  0  0  0  0  0
    2.3647    1.2251    8.1231 C   0  0  0  0  0  0  0  0  0  0  0  0
    6.8972    1.2933    9.4875 O   0  0  0  0  0  0  0  0  0  0  0  0
    7.4269    0.1066    8.8962 C   0  0  0  0  0  0  0  0  0  0  0  0
    8.9720    0.0894    9.0254 C   0  0  0  0  0  0  0  0  0  0  0  0
    9.3618   -1.2582    9.6464 C   0  0  0  0  0  0  0  0  0  0  0  0
    8.1045   -2.1224    9.6269 C   0  0  0  0  0  0  0  0  0  0  0  0
    6.9598   -1.1183    9.7180 C   0  0  0  0  0  0  0  0  0  0  0  0
    7.6760    1.9767    6.7094 H   0  0  0  0  0  0  0  0  0  0  0  0
    7.1144    0.8737    5.4442 H   0  0  0  0  0  0  0  0  0  0  0  0
    8.5980    0.5595    6.2635 H   0  0  0  0  0  0  0  0  0  0  0  0
    6.7374   -0.9016    7.1050 H   0  0  0  0  0  0  0  0  0  0  0  0
    4.6960   -0.1696    7.9484 H   0  0  0  0  0  0  0  0  0  0  0  0
    4.7876    1.2295    9.8269 H   0  0  0  0  0  0  0  0  0  0  0  0
    4.6053    3.4345    8.7702 H   0  0  0  0  0  0  0  0  0  0  0  0
    6.2070    3.2396    7.9552 H   0  0  0  0  0  0  0  0  0  0  0  0
    4.1042    2.2117    4.0919 H   0  0  0  0  0  0  0  0  0  0  0  0
    4.8171    0.6487    4.4736 H   0  0  0  0  0  0  0  0  0  0  0  0
    3.1524    0.0219    5.8681 H   0  0  0  0  0  0  0  0  0  0  0  0
    1.9489    0.8816    3.8028 H   0  0  0  0  0  0  0  0  0  0  0  0
    0.8852   -0.7062    5.3061 H   0  0  0  0  0  0  0  0  0  0  0  0
    0.3193    0.5708    6.3432 H   0  0  0  0  0  0  0  0  0  0  0  0
   -0.5512    0.0818    3.4670 H   0  0  0  0  0  0  0  0  0  0  0  0
   -1.5183   -0.1174    4.9145 H   0  0  0  0  0  0  0  0  0  0  0  0
   -1.3658    2.2885    5.4259 H   0  0  0  0  0  0  0  0  0  0  0  0
   -2.9848    1.3667    3.4881 H   0  0  0  0  0  0  0  0  0  0  0  0
   -2.1219    5.4002    2.9468 H   0  0  0  0  0  0  0  0  0  0  0  0
    0.1801    5.0255    3.6503 H   0  0  0  0  0  0  0  0  0  0  0  0
    0.2366    2.4547    2.8495 H   0  0  0  0  0  0  0  0  0  0  0  0
    2.0518    3.2422    4.0938 H   0  0  0  0  0  0  0  0  0  0  0  0
    0.9671    4.4638    5.9241 H   0  0  0  0  0  0  0  0  0  0  0  0
    0.4654    2.9781    6.6760 H   0  0  0  0  0  0  0  0  0  0  0  0
    3.3172    3.9033    6.1347 H   0  0  0  0  0  0  0  0  0  0  0  0
    2.5548    3.8598    7.6928 H   0  0  0  0  0  0  0  0  0  0  0  0
    1.2948    1.4082    8.0806 H   0  0  0  0  0  0  0  0  0  0  0  0
    2.6987    1.6305    9.0766 H   0  0  0  0  0  0  0  0  0  0  0  0
    2.5112    0.1460    8.1484 H   0  0  0  0  0  0  0  0  0  0  0  0
    9.5199    0.2303    8.0972 H   0  0  0  0  0  0  0  0  0  0  0  0
    9.2959    0.8941    9.6866 H   0  0  0  0  0  0  0  0  0  0  0  0
   10.1889   -1.7243    9.1098 H   0  0  0  0  0  0  0  0  0  0  0  0
    9.6875   -1.1068   10.6754 H   0  0  0  0  0  0  0  0  0  0  0  0
    8.0428   -2.6627    8.6818 H   0  0  0  0  0  0  0  0  0  0  0  0
    8.0841   -2.8572   10.4322 H   0  0  0  0  0  0  0  0  0  0  0  0
    6.8169   -0.8343   10.7633 H   0  0  0  0  0  0  0  0  0  0  0  0
    6.0158   -1.5530    9.3790 H   0  0  0  0  0  0  0  0  0  0  0  0
  1  2  1  0
  1 31  1  0
  1 32  1  0
  1 33  1  0
  2 26  1  0
  2  3  1  0
  2 34  1  6
  3  6  1  0
  3  4  1  0
  3 35  1  1
  4  5  1  0
  4 25  1  0
  4 36  1  1
  5  6  1  0
  5 37  1  0
  5 38  1  0
  6 23  1  0
  6  7  1  6
  7  8  1  0
  8  9  1  0
  8 39  1  0
  8 40  1  0
  9 23  1  0
  9 10  1  0
  9 41  1  1
 10 20  1  0
 10 11  1  0
 10 42  1  6
 11 12  1  0
 11 43  1  0
 11 44  1  0
 12 13  1  0
 12 45  1  0
 12 46  1  0
 13 19  1  0
 13 14  1  0
 13 47  1  1
 14 15  1  0
 14 48  1  0
 15 16  2  0
 15 17  1  0
 17 18  2  0
 17 49  1  0
 18 19  1  0
 18 50  1  0
 19 20  1  0
 19 51  1  6
 20 21  1  0
 20 52  1  6
 21 22  1  0
 21 53  1  0
 21 54  1  0
 22 23  1  0
 22 55  1  0
 22 56  1  0
 23 24  1  1
 24 57  1  0
 24 58  1  0
 24 59  1  0
 25 26  1  0
 26 30  1  0
 26 27  1  0
 27 28  1  0
 27 60  1  0
 27 61  1  0
 28 29  1  0
 28 62  1  0
 28 63  1  0
 29 30  1  0
 29 64  1  0
 29 65  1  0
 30 66  1  0
 30 67  1  0
M  END
>  <i_m_ct_stereo_status>  (85) 
1

>  <s_m_source_file>  (85) 
/var/tmp/pbs.5076255.sched01/tmpuj7nejrg/06cdl7mjn.sdf

>  <i_m_source_file_index>  (85) 
39

>  <i_lp_mmshare_version>  (85) 
48012

>  <i_f3d_flags>  (85) 
0

>  <s_epik_input>  (85) 
W0NIMl0xW0NIMl1bQ0gyXVtDSDJdQzEoW0NAQEhdMltDSDNdKU9bQ0BASF0oW0NIMl0zKVtDQEhdMltDQEBdMzRbQ0BdNShbQ0gzXSlbQ0BIXShbQ0gyXU80KVtDQEBIXTZbQ0BIXShbQ0gyXVtDSDJdNSlbQ0BIXTdbQ0BIXShbQ0gyXVtDSDJdNilbTkhdQyg9TylbQ0hdPVtDSF03

>  <s_epik_cmdline>  (85) 
J2VwaWtfcHl0aG9uJywgJy1waHQnLCAnMi4wJywgJy1waCcsICc3LjAnLCAnLXRuJywgJzgnLCAnLW1hJywgJzIwMCcsICctaW1hZScsICc8aW5maWxlLm1hZT4nLCAnLW9tYWUnLCAnPG91dGZpbGUubWFlPic=

>  <r_lp_tautomer_probability>  (85) 
1

>  <r_epik_Ionization_Penalty>  (85) 
3.95616e-05

>  <r_epik_Ionization_Penalty_Charging>  (85) 
0

>  <r_epik_Ionization_Penalty_Neutral>  (85) 
3.95616e-05

>  <r_epik_State_Penalty>  (85) 
-0

>  <r_epik_Charging_Adjusted_Penalty>  (85) 
0

>  <i_epik_Tot_Q>  (85) 
0

>  <i_epik_Tot_abs_Q>  (85) 
0

>  <s_lp_Force_Field>  (85) 
OPLS3e

>  <r_lp_Energy>  (85) 
64.8539

>  <b_lp_Chiralities_Consistent>  (85) 
1

>  <s_lp_Variant>  (85) 
21:0-1

>  <s_i_glide_gridfile>  (85) 
pfpi4k_grid

>  <i_i_glide_lignum>  (85) 
39

>  <i_i_glide_rotatable_bonds>  (85) 
0

>  <r_i_docking_score>  (85) 
-2.93463

>  <r_i_glide_ligand_efficiency>  (85) 
-0.0978209

>  <r_i_glide_ligand_efficiency_sa>  (85) 
-0.303952

>  <r_i_glide_ligand_efficiency_ln>  (85) 
-0.666779

>  <r_i_glide_gscore>  (85) 
-2.93463

>  <r_i_glide_lipo>  (85) 
-0.404459

>  <r_i_glide_hbond>  (85) 
-0.32

>  <r_i_glide_metal>  (85) 
-0

>  <r_i_glide_rewards>  (85) 
-0.602885

>  <r_i_glide_evdw>  (85) 
-21.4191

>  <r_i_glide_ecoul>  (85) 
-3.07414

>  <r_i_glide_erotb>  (85) 
0

>  <r_i_glide_esite>  (85) 
-0.0752104

>  <r_i_glide_emodel>  (85) 
-27.7793

>  <r_i_glide_energy>  (85) 
-24.4932

>  <r_i_glide_einternal>  (85) 
0

>  <r_i_glide_intrahb_reward>  (85) 
-0

>  <i_i_glide_confnum>  (85) 
2

>  <i_i_glide_posenum>  (85) 
2

>  <r_i_glide_eff_state_penalty>  (85) 
0

>  <ligand_id>  (85) 
21

>  <original_smiles>  (85) 
CC1C2C(CC23OCC2C4CCC5NC(=O)C=CC5C4CCC23C)OC12CCCC2

>  <smiles>  (85) 
[H]C1=C([H])C2([H])C([H])(N([H])C1=O)C([H])([H])C([H])([H])C1([H])C2([H])C([H])([H])C([H])([H])C2(C([H])([H])[H])C1([H])C([H])([H])OC21C([H])([H])C2([H])OC3(C([H])([H])C([H])([H])C([H])([H])C3([H])[H])C([H])(C([H])([H])[H])C21[H]

$$$$
23:0:0
     RDKit          3D

 59 63  0  0  1  0  0  0  0  0999 V2000
   -0.5610   -0.9117    4.6198 C   0  0  0  0  0  0  0  0  0  0  0  0
    0.5081   -1.2893    3.7786 O   0  0  0  0  0  0  0  0  0  0  0  0
    1.6731   -0.6211    3.8266 C   0  0  0  0  0  0  0  0  0  0  0  0
    1.8732    0.3608    4.5479 O   0  0  0  0  0  0  0  0  0  0  0  0
    2.6927   -1.1731    2.8957 C   0  0  0  0  0  0  0  0  0  0  0  0
    2.9734   -2.5020    2.6680 C   0  0  0  0  0  0  0  0  0  0  0  0
    2.4062   -3.6230    3.4462 C   0  0  0  0  0  0  0  0  0  0  0  0
    1.9401   -3.5160    4.5786 O   0  0  0  0  0  0  0  0  0  0  0  0
    2.4876   -4.8530    2.8491 N   0  0  0  0  0  0  0  0  0  0  0  0
    1.9471   -6.0545    3.5134 C   0  0  0  0  0  0  0  0  0  0  0  0
    0.4887   -6.2941    3.0974 C   0  0  0  0  0  0  0  0  0  0  0  0
   -0.0661   -7.6579    3.5422 C   0  0  0  0  0  0  0  0  0  0  0  0
    0.6758   -8.8339    2.8838 C   0  0  0  0  0  0  0  0  0  0  0  0
   -0.3576   -9.9401    2.7532 C   0  0  0  0  0  0  0  0  0  0  0  0
   -1.6652   -9.2031    2.4787 C   0  0  0  0  0  0  0  0  0  0  0  0
   -1.5480   -7.8383    3.1635 C   0  0  0  0  0  0  0  0  0  0  0  0
    3.0704   -5.0273    1.5475 N   0  0  0  0  0  0  0  0  0  0  0  0
    3.2307   -6.3973    1.0265 C   0  0  0  0  0  0  0  0  0  0  0  0
    4.3216   -4.2840    1.4540 C   0  0  0  0  0  0  0  0  0  0  0  0
    4.0468   -2.8006    1.5900 C   0  0  2  0  0  0  0  0  0  0  0  0
    5.2475   -1.8482    1.7885 C   0  0  0  0  0  0  0  0  0  0  0  0
    4.3766   -0.7839    1.0957 C   0  0  2  0  0  0  0  0  0  0  0  0
    3.4178   -0.1025    2.0768 C   0  0  0  0  0  0  0  0  0  0  0  0
    3.7737   -1.9687    0.3106 C   0  0  1  0  0  0  0  0  0  0  0  0
    4.2856   -2.3924   -1.0436 C   0  0  0  0  0  0  0  0  0  0  0  0
    3.5708   -2.7477   -2.1680 C   0  0  0  0  0  0  0  0  0  0  0  0
    4.3981   -3.1346   -3.2683 C   0  0  0  0  0  0  0  0  0  0  0  0
    5.7321   -3.0697   -2.9700 C   0  0  0  0  0  0  0  0  0  0  0  0
    6.0011   -2.5080   -1.3581 S   0  0  0  0  0  0  0  0  0  0  0  0
   -1.3835   -1.6052    4.4719 H   0  0  0  0  0  0  0  0  0  0  0  0
   -0.9041    0.0921    4.3799 H   0  0  0  0  0  0  0  0  0  0  0  0
   -0.2720   -0.9493    5.6681 H   0  0  0  0  0  0  0  0  0  0  0  0
    2.5741   -6.9240    3.3386 H   0  0  0  0  0  0  0  0  0  0  0  0
    1.9804   -5.9488    4.5959 H   0  0  0  0  0  0  0  0  0  0  0  0
   -0.1173   -5.4903    3.5148 H   0  0  0  0  0  0  0  0  0  0  0  0
    0.4015   -6.2159    2.0136 H   0  0  0  0  0  0  0  0  0  0  0  0
    0.0188   -7.7564    4.6294 H   0  0  0  0  0  0  0  0  0  0  0  0
    1.0067   -8.5577    1.8808 H   0  0  0  0  0  0  0  0  0  0  0  0
    1.5547   -9.1486    3.4528 H   0  0  0  0  0  0  0  0  0  0  0  0
   -0.1010  -10.6524    1.9698 H   0  0  0  0  0  0  0  0  0  0  0  0
   -0.4252  -10.4874    3.6898 H   0  0  0  0  0  0  0  0  0  0  0  0
   -1.7795   -9.0533    1.4053 H   0  0  0  0  0  0  0  0  0  0  0  0
   -2.5302   -9.7570    2.8310 H   0  0  0  0  0  0  0  0  0  0  0  0
   -2.1676   -7.7765    4.0603 H   0  0  0  0  0  0  0  0  0  0  0  0
   -1.8940   -7.0616    2.4805 H   0  0  0  0  0  0  0  0  0  0  0  0
    3.6063   -6.3506    0.0048 H   0  0  0  0  0  0  0  0  0  0  0  0
    2.2805   -6.9230    0.9914 H   0  0  0  0  0  0  0  0  0  0  0  0
    3.9509   -6.9676    1.6176 H   0  0  0  0  0  0  0  0  0  0  0  0
    5.0140   -4.6190    2.2310 H   0  0  0  0  0  0  0  0  0  0  0  0
    4.7893   -4.4948    0.4916 H   0  0  0  0  0  0  0  0  0  0  0  0
    5.4974   -1.6175    2.8276 H   0  0  0  0  0  0  0  0  0  0  0  0
    6.1441   -2.1270    1.2372 H   0  0  0  0  0  0  0  0  0  0  0  0
    4.9259   -0.0948    0.4461 H   0  0  0  0  0  0  0  0  0  0  0  0
    2.6843    0.5163    1.5569 H   0  0  0  0  0  0  0  0  0  0  0  0
    3.9744    0.5540    2.7490 H   0  0  0  0  0  0  0  0  0  0  0  0
    2.6977   -1.8269    0.1915 H   0  0  0  0  0  0  0  0  0  0  0  0
    2.4902   -2.7720   -2.2340 H   0  0  0  0  0  0  0  0  0  0  0  0
    3.9938   -3.4625   -4.2201 H   0  0  0  0  0  0  0  0  0  0  0  0
    6.5936   -3.3185   -3.5658 H   0  0  0  0  0  0  0  0  0  0  0  0
  1  2  1  0
  1 30  1  0
  1 31  1  0
  1 32  1  0
  2  3  1  0
  3  4  2  0
  3  5  1  0
  5 23  1  0
  5  6  2  0
  6 20  1  0
  6  7  1  0
  7  8  2  0
  7  9  1  0
  9 10  1  0
  9 17  1  0
 10 11  1  0
 10 33  1  0
 10 34  1  0
 11 12  1  0
 11 35  1  0
 11 36  1  0
 12 16  1  0
 12 13  1  0
 12 37  1  0
 13 14  1  0
 13 38  1  0
 13 39  1  0
 14 15  1  0
 14 40  1  0
 14 41  1  0
 15 16  1  0
 15 42  1  0
 15 43  1  0
 16 44  1  0
 16 45  1  0
 17 18  1  0
 17 19  1  0
 18 46  1  0
 18 47  1  0
 18 48  1  0
 20 19  1  6
 19 49  1  0
 19 50  1  0
 20 24  1  0
 20 21  1  0
 21 22  1  0
 21 51  1  0
 21 52  1  0
 22 23  1  0
 22 24  1  0
 22 53  1  6
 23 54  1  0
 23 55  1  0
 24 25  1  0
 24 56  1  6
 25 29  1  0
 25 26  2  0
 26 27  1  0
 26 57  1  0
 27 28  2  0
 27 58  1  0
 28 29  1  0
 28 59  1  0
M  END
>  <i_m_ct_stereo_status>  (86) 
1

>  <s_m_source_file>  (86) 
/var/tmp/pbs.5076255.sched01/tmpuj7nejrg/06cdl7mjn.sdf

>  <i_m_source_file_index>  (86) 
41

>  <i_lp_mmshare_version>  (86) 
48012

>  <i_f3d_flags>  (86) 
0

>  <s_epik_input>  (86) 
czFbY0hdW2NIXVtjSF1jMVtDQEBIXTJbQ0BIXShbQ0gyXTMpW0NIMl1DKEMoPU8pT1tDSDNdKT1DKFtDQEBdMjM0KUMoPU8pTihOKFtDSDNdKVtDSDJdNClbQ0gyXVtDSDJdW0NIXTVbQ0gyXVtDSDJdW0NIMl1bQ0gyXTU=

>  <s_epik_cmdline>  (86) 
J2VwaWtfcHl0aG9uJywgJy1waHQnLCAnMi4wJywgJy1waCcsICc3LjAnLCAnLXRuJywgJzgnLCAnLW1hJywgJzIwMCcsICctaW1hZScsICc8aW5maWxlLm1hZT4nLCAnLW9tYWUnLCAnPG91dGZpbGUubWFlPic=

>  <r_lp_tautomer_probability>  (86) 
1

>  <r_epik_Ionization_Penalty>  (86) 
5.1851e-06

>  <r_epik_Ionization_Penalty_Charging>  (86) 
0

>  <r_epik_Ionization_Penalty_Neutral>  (86) 
5.1851e-06

>  <r_epik_State_Penalty>  (86) 
-0

>  <r_epik_Charging_Adjusted_Penalty>  (86) 
0

>  <i_epik_Tot_Q>  (86) 
0

>  <i_epik_Tot_abs_Q>  (86) 
0

>  <s_epik_Chemistry_Notes>  (86) 
This compound has an ester and may undergo hydrolysis at high or low pH.

>  <s_lp_Force_Field>  (86) 
OPLS3e

>  <r_lp_Energy>  (86) 
72.0544

>  <b_lp_Chiralities_Consistent>  (86) 
1

>  <s_lp_Variant>  (86) 
23:0-1

>  <s_i_glide_gridfile>  (86) 
pfpi4k_grid

>  <i_i_glide_lignum>  (86) 
41

>  <i_i_glide_rotatable_bonds>  (86) 
6

>  <r_i_docking_score>  (86) 
-2.41619

>  <r_i_glide_ligand_efficiency>  (86) 
-0.083317

>  <r_i_glide_ligand_efficiency_sa>  (86) 
-0.255976

>  <r_i_glide_ligand_efficiency_ln>  (86) 
-0.553247

>  <r_i_glide_gscore>  (86) 
-2.41619

>  <r_i_glide_lipo>  (86) 
-0.748175

>  <r_i_glide_hbond>  (86) 
0

>  <r_i_glide_metal>  (86) 
-0

>  <r_i_glide_rewards>  (86) 
-0.585302

>  <r_i_glide_evdw>  (86) 
-32.2016

>  <r_i_glide_ecoul>  (86) 
-0.261587

>  <r_i_glide_erotb>  (86) 
0.574261

>  <r_i_glide_esite>  (86) 
-0.0076607

>  <r_i_glide_emodel>  (86) 
-37.2493

>  <r_i_glide_energy>  (86) 
-32.4632

>  <r_i_glide_einternal>  (86) 
0.99545

>  <r_i_glide_intrahb_reward>  (86) 
-0

>  <i_i_glide_confnum>  (86) 
1

>  <i_i_glide_posenum>  (86) 
2

>  <r_i_glide_eff_state_penalty>  (86) 
0

>  <ligand_id>  (86) 
23

>  <original_smiles>  (86) 
COC(=O)C1=C2C(=O)N(CCC3CCCC3)N(C)CC23CC(C1)C3c1cccs1

>  <smiles>  (86) 
[H]c1sc(C2([H])C3([H])C([H])([H])C(C(=O)OC([H])([H])[H])=C4C(=O)N(C([H])([H])C([H])([H])C5([H])C([H])([H])C([H])([H])C([H])([H])C5([H])[H])N(C([H])([H])[H])C([H])([H])C42C3([H])[H])c([H])c1[H]

$$$$
23:0:1
     RDKit          3D

 59 63  0  0  1  0  0  0  0  0999 V2000
    2.3443   -2.7999   -2.9249 C   0  0  0  0  0  0  0  0  0  0  0  0
    3.3883   -1.8274   -2.9464 O   0  0  0  0  0  0  0  0  0  0  0  0
    4.3315   -1.6600   -1.9549 C   0  0  0  0  0  0  0  0  0  0  0  0
    5.1303   -0.7305   -1.9333 O   0  0  0  0  0  0  0  0  0  0  0  0
    4.3673   -2.7489   -0.9738 C   0  0  0  0  0  0  0  0  0  0  0  0
    3.9723   -2.6573    0.3474 C   0  0  0  0  0  0  0  0  0  0  0  0
    3.5363   -1.3972    1.0058 C   0  0  0  0  0  0  0  0  0  0  0  0
    3.8492   -0.2794    0.6257 O   0  0  0  0  0  0  0  0  0  0  0  0
    2.8159   -1.5472    2.1690 N   0  0  0  0  0  0  0  0  0  0  0  0
    2.3600   -0.3652    2.9319 C   0  0  0  0  0  0  0  0  0  0  0  0
    0.9475    0.0594    2.4946 C   0  0  0  0  0  0  0  0  0  0  0  0
    0.4448    1.3269    3.2011 C   0  0  0  0  0  0  0  0  0  0  0  0
    0.3537    1.1673    4.7261 C   0  0  0  0  0  0  0  0  0  0  0  0
   -0.8029    2.0555    5.1615 C   0  0  0  0  0  0  0  0  0  0  0  0
   -1.7880    1.9841    3.9965 C   0  0  0  0  0  0  0  0  0  0  0  0
   -0.9630    1.7212    2.7342 C   0  0  0  0  0  0  0  0  0  0  0  0
    2.4306   -2.8413    2.6597 N   0  0  0  0  0  0  0  0  0  0  0  0
    1.7568   -2.9193    3.9662 C   0  0  0  0  0  0  0  0  0  0  0  0
    3.5735   -3.7486    2.6107 C   0  0  0  0  0  0  0  0  0  0  0  0
    4.0108   -3.9421    1.1678 C   0  0  2  0  0  0  0  0  0  0  0  0
    5.3334   -4.7135    0.9363 C   0  0  0  0  0  0  0  0  0  0  0  0
    4.7305   -5.1390   -0.4025 C   0  0  2  0  0  0  0  0  0  0  0  0
    4.9438   -4.0946   -1.4977 C   0  0  0  0  0  0  0  0  0  0  0  0
    3.3890   -5.1124    0.3623 C   0  0  1  0  0  0  0  0  0  0  0  0
    2.7756   -6.3168    1.0288 C   0  0  0  0  0  0  0  0  0  0  0  0
    3.4557   -7.3188    1.6620 C   0  0  0  0  0  0  0  0  0  0  0  0
    2.6002   -8.3104    2.2495 C   0  0  0  0  0  0  0  0  0  0  0  0
    1.2807   -8.0517    2.0295 C   0  0  0  0  0  0  0  0  0  0  0  0
    1.0452   -6.6024    1.1012 S   0  0  0  0  0  0  0  0  0  0  0  0
    1.6302   -2.6129   -3.7209 H   0  0  0  0  0  0  0  0  0  0  0  0
    1.8358   -2.7769   -1.9724 H   0  0  0  0  0  0  0  0  0  0  0  0
    2.7322   -3.8101   -3.0941 H   0  0  0  0  0  0  0  0  0  0  0  0
    2.4265   -0.5403    4.0057 H   0  0  0  0  0  0  0  0  0  0  0  0
    3.0400    0.4750    2.7762 H   0  0  0  0  0  0  0  0  0  0  0  0
    0.9339    0.1948    1.4104 H   0  0  0  0  0  0  0  0  0  0  0  0
    0.2534   -0.7549    2.6964 H   0  0  0  0  0  0  0  0  0  0  0  0
    1.1125    2.1640    2.9789 H   0  0  0  0  0  0  0  0  0  0  0  0
    0.1007    0.1367    4.9704 H   0  0  0  0  0  0  0  0  0  0  0  0
    1.2892    1.4104    5.2346 H   0  0  0  0  0  0  0  0  0  0  0  0
   -1.2431    1.7357    6.1085 H   0  0  0  0  0  0  0  0  0  0  0  0
   -0.4532    3.0798    5.2755 H   0  0  0  0  0  0  0  0  0  0  0  0
   -2.4575    1.1405    4.1544 H   0  0  0  0  0  0  0  0  0  0  0  0
   -2.4026    2.8781    3.9040 H   0  0  0  0  0  0  0  0  0  0  0  0
   -0.9134    2.5948    2.0839 H   0  0  0  0  0  0  0  0  0  0  0  0
   -1.4358    0.9347    2.1472 H   0  0  0  0  0  0  0  0  0  0  0  0
    1.4666   -3.9534    4.1391 H   0  0  0  0  0  0  0  0  0  0  0  0
    0.8454   -2.3323    3.9865 H   0  0  0  0  0  0  0  0  0  0  0  0
    2.4214   -2.6244    4.7802 H   0  0  0  0  0  0  0  0  0  0  0  0
    4.4086   -3.3489    3.1930 H   0  0  0  0  0  0  0  0  0  0  0  0
    3.2840   -4.7044    3.0479 H   0  0  0  0  0  0  0  0  0  0  0  0
    6.2057   -4.0569    0.8059 H   0  0  0  0  0  0  0  0  0  0  0  0
    5.5170   -5.5331    1.6214 H   0  0  0  0  0  0  0  0  0  0  0  0
    4.9810   -6.1708   -0.7115 H   0  0  0  0  0  0  0  0  0  0  0  0
    4.4987   -4.4496   -2.4366 H   0  0  0  0  0  0  0  0  0  0  0  0
    6.0088   -3.9545   -1.7162 H   0  0  0  0  0  0  0  0  0  0  0  0
    2.6154   -4.7173   -0.2917 H   0  0  0  0  0  0  0  0  0  0  0  0
    4.5195   -7.3848    1.7454 H   0  0  0  0  0  0  0  0  0  0  0  0
    3.0214   -9.1373    2.7714 H   0  0  0  0  0  0  0  0  0  0  0  0
    0.4406   -8.6686    2.3419 H   0  0  0  0  0  0  0  0  0  0  0  0
  1  2  1  0
  1 30  1  0
  1 31  1  0
  1 32  1  0
  2  3  1  0
  3  4  2  0
  3  5  1  0
  5 23  1  0
  5  6  2  0
  6 20  1  0
  6  7  1  0
  7  8  2  0
  7  9  1  0
  9 10  1  0
  9 17  1  0
 10 11  1  0
 10 33  1  0
 10 34  1  0
 11 12  1  0
 11 35  1  0
 11 36  1  0
 12 16  1  0
 12 13  1  0
 12 37  1  0
 13 14  1  0
 13 38  1  0
 13 39  1  0
 14 15  1  0
 14 40  1  0
 14 41  1  0
 15 16  1  0
 15 42  1  0
 15 43  1  0
 16 44  1  0
 16 45  1  0
 17 18  1  0
 17 19  1  0
 18 46  1  0
 18 47  1  0
 18 48  1  0
 20 19  1  1
 19 49  1  0
 19 50  1  0
 20 24  1  0
 20 21  1  0
 21 22  1  0
 21 51  1  0
 21 52  1  0
 22 23  1  0
 22 24  1  0
 22 53  1  6
 23 54  1  0
 23 55  1  0
 24 25  1  0
 24 56  1  6
 25 29  1  0
 25 26  2  0
 26 27  1  0
 26 57  1  0
 27 28  2  0
 27 58  1  0
 28 29  1  0
 28 59  1  0
M  END
>  <i_m_ct_stereo_status>  (87) 
1

>  <s_m_source_file>  (87) 
/var/tmp/pbs.5076255.sched01/tmpuj7nejrg/06cdl7mjn.sdf

>  <i_m_source_file_index>  (87) 
41

>  <i_lp_mmshare_version>  (87) 
48012

>  <i_f3d_flags>  (87) 
0

>  <s_epik_input>  (87) 
czFbY0hdW2NIXVtjSF1jMVtDQEBIXTJbQ0BIXShbQ0gyXTMpW0NIMl1DKEMoPU8pT1tDSDNdKT1DKFtDQEBdMjM0KUMoPU8pTihOKFtDSDNdKVtDSDJdNClbQ0gyXVtDSDJdW0NIXTVbQ0gyXVtDSDJdW0NIMl1bQ0gyXTU=

>  <s_epik_cmdline>  (87) 
J2VwaWtfcHl0aG9uJywgJy1waHQnLCAnMi4wJywgJy1waCcsICc3LjAnLCAnLXRuJywgJzgnLCAnLW1hJywgJzIwMCcsICctaW1hZScsICc8aW5maWxlLm1hZT4nLCAnLW9tYWUnLCAnPG91dGZpbGUubWFlPic=

>  <r_lp_tautomer_probability>  (87) 
1

>  <r_epik_Ionization_Penalty>  (87) 
5.1851e-06

>  <r_epik_Ionization_Penalty_Charging>  (87) 
0

>  <r_epik_Ionization_Penalty_Neutral>  (87) 
5.1851e-06

>  <r_epik_State_Penalty>  (87) 
-0

>  <r_epik_Charging_Adjusted_Penalty>  (87) 
0

>  <i_epik_Tot_Q>  (87) 
0

>  <i_epik_Tot_abs_Q>  (87) 
0

>  <s_epik_Chemistry_Notes>  (87) 
This compound has an ester and may undergo hydrolysis at high or low pH.

>  <s_lp_Force_Field>  (87) 
OPLS3e

>  <r_lp_Energy>  (87) 
72.0544

>  <b_lp_Chiralities_Consistent>  (87) 
1

>  <s_lp_Variant>  (87) 
23:0-1

>  <s_i_glide_gridfile>  (87) 
pfpi4k_grid

>  <i_i_glide_lignum>  (87) 
41

>  <i_i_glide_rotatable_bonds>  (87) 
6

>  <r_i_docking_score>  (87) 
-2.38015

>  <r_i_glide_ligand_efficiency>  (87) 
-0.082074

>  <r_i_glide_ligand_efficiency_sa>  (87) 
-0.252157

>  <r_i_glide_ligand_efficiency_ln>  (87) 
-0.544993

>  <r_i_glide_gscore>  (87) 
-2.38015

>  <r_i_glide_lipo>  (87) 
-0.205495

>  <r_i_glide_hbond>  (87) 
0

>  <r_i_glide_metal>  (87) 
-0

>  <r_i_glide_rewards>  (87) 
-0.582532

>  <r_i_glide_evdw>  (87) 
-33.3051

>  <r_i_glide_ecoul>  (87) 
-2.74611

>  <r_i_glide_erotb>  (87) 
0.574261

>  <r_i_glide_esite>  (87) 
-0.0892097

>  <r_i_glide_emodel>  (87) 
-36.6347

>  <r_i_glide_energy>  (87) 
-36.0512

>  <r_i_glide_einternal>  (87) 
7.77951

>  <r_i_glide_intrahb_reward>  (87) 
-0

>  <i_i_glide_confnum>  (87) 
2

>  <i_i_glide_posenum>  (87) 
14

>  <r_i_glide_eff_state_penalty>  (87) 
0

>  <ligand_id>  (87) 
23

>  <original_smiles>  (87) 
COC(=O)C1=C2C(=O)N(CCC3CCCC3)N(C)CC23CC(C1)C3c1cccs1

>  <smiles>  (87) 
[H]c1sc(C2([H])C3([H])C([H])([H])C(C(=O)OC([H])([H])[H])=C4C(=O)N(C([H])([H])C([H])([H])C5([H])C([H])([H])C([H])([H])C([H])([H])C5([H])[H])N(C([H])([H])[H])C([H])([H])C42C3([H])[H])c([H])c1[H]

$$$$
23:0:2
     RDKit          3D

 59 63  0  0  1  0  0  0  0  0999 V2000
    3.8263   -0.5828   -2.5809 C   0  0  0  0  0  0  0  0  0  0  0  0
    3.8251   -1.4907   -1.4927 O   0  0  0  0  0  0  0  0  0  0  0  0
    4.9627   -2.1011   -1.1201 C   0  0  0  0  0  0  0  0  0  0  0  0
    6.0889   -1.8206   -1.5438 O   0  0  0  0  0  0  0  0  0  0  0  0
    4.7072   -3.2268   -0.1958 C   0  0  0  0  0  0  0  0  0  0  0  0
    4.0894   -3.1653    1.0258 C   0  0  0  0  0  0  0  0  0  0  0  0
    3.6961   -1.9104    1.6946 C   0  0  0  0  0  0  0  0  0  0  0  0
    4.1868   -0.8110    1.4315 O   0  0  0  0  0  0  0  0  0  0  0  0
    2.7846   -2.0426    2.7087 N   0  0  0  0  0  0  0  0  0  0  0  0
    2.3179   -0.8559    3.4554 C   0  0  0  0  0  0  0  0  0  0  0  0
    1.3305   -0.0442    2.6078 C   0  0  0  0  0  0  0  0  0  0  0  0
    0.5868    1.0385    3.4028 C   0  0  0  0  0  0  0  0  0  0  0  0
   -0.5428    0.4563    4.2637 C   0  0  0  0  0  0  0  0  0  0  0  0
   -1.6048    1.5478    4.3175 C   0  0  0  0  0  0  0  0  0  0  0  0
   -1.5266    2.2309    2.9514 C   0  0  0  0  0  0  0  0  0  0  0  0
   -0.0812    2.0699    2.4798 C   0  0  0  0  0  0  0  0  0  0  0  0
    2.2150   -3.3190    3.0522 N   0  0  0  0  0  0  0  0  0  0  0  0
    1.3161   -3.4023    4.2145 C   0  0  0  0  0  0  0  0  0  0  0  0
    3.2607   -4.3330    3.1224 C   0  0  0  0  0  0  0  0  0  0  0  0
    3.8863   -4.5139    1.7577 C   0  0  2  0  0  0  0  0  0  0  0  0
    5.1595   -5.3805    1.6652 C   0  0  0  0  0  0  0  0  0  0  0  0
    4.7266   -5.6816    0.2247 C   0  0  2  0  0  0  0  0  0  0  0  0
    5.1242   -4.5814   -0.7613 C   0  0  0  0  0  0  0  0  0  0  0  0
    3.2971   -5.5627    0.7868 C   0  0  1  0  0  0  0  0  0  0  0  0
    2.5152   -6.7331    1.3047 C   0  0  0  0  0  0  0  0  0  0  0  0
    2.9981   -7.9587    1.6808 C   0  0  0  0  0  0  0  0  0  0  0  0
    1.9908   -8.8371    2.1718 C   0  0  0  0  0  0  0  0  0  0  0  0
    0.7454   -8.2720    2.1617 C   0  0  0  0  0  0  0  0  0  0  0  0
    0.7825   -6.6582    1.5137 S   0  0  0  0  0  0  0  0  0  0  0  0
    2.8240   -0.1836   -2.7227 H   0  0  0  0  0  0  0  0  0  0  0  0
    4.1131   -1.0819   -3.5047 H   0  0  0  0  0  0  0  0  0  0  0  0
    4.5067    0.2499   -2.4093 H   0  0  0  0  0  0  0  0  0  0  0  0
    1.8878   -1.0672    4.4304 H   0  0  0  0  0  0  0  0  0  0  0  0
    3.1765   -0.2310    3.7000 H   0  0  0  0  0  0  0  0  0  0  0  0
    1.8761    0.4190    1.7861 H   0  0  0  0  0  0  0  0  0  0  0  0
    0.6094   -0.7123    2.1349 H   0  0  0  0  0  0  0  0  0  0  0  0
    1.2817    1.5783    4.0529 H   0  0  0  0  0  0  0  0  0  0  0  0
   -0.9800   -0.4114    3.7678 H   0  0  0  0  0  0  0  0  0  0  0  0
   -0.2107    0.1374    5.2543 H   0  0  0  0  0  0  0  0  0  0  0  0
   -2.5852    1.1230    4.5032 H   0  0  0  0  0  0  0  0  0  0  0  0
   -1.3757    2.2627    5.1106 H   0  0  0  0  0  0  0  0  0  0  0  0
   -2.1818    1.7212    2.2449 H   0  0  0  0  0  0  0  0  0  0  0  0
   -1.8361    3.2743    2.9850 H   0  0  0  0  0  0  0  0  0  0  0  0
    0.4687    3.0094    2.5275 H   0  0  0  0  0  0  0  0  0  0  0  0
   -0.0734    1.7527    1.4358 H   0  0  0  0  0  0  0  0  0  0  0  0
    0.9094   -4.4107    4.2894 H   0  0  0  0  0  0  0  0  0  0  0  0
    0.4735   -2.7210    4.1101 H   0  0  0  0  0  0  0  0  0  0  0  0
    1.8580   -3.1977    5.1400 H   0  0  0  0  0  0  0  0  0  0  0  0
    4.0136   -4.0372    3.8567 H   0  0  0  0  0  0  0  0  0  0  0  0
    2.8328   -5.2748    3.4666 H   0  0  0  0  0  0  0  0  0  0  0  0
    6.0998   -4.8326    1.7483 H   0  0  0  0  0  0  0  0  0  0  0  0
    5.1411   -6.2546    2.3180 H   0  0  0  0  0  0  0  0  0  0  0  0
    4.9718   -6.6936   -0.1098 H   0  0  0  0  0  0  0  0  0  0  0  0
    4.6541   -4.7313   -1.7346 H   0  0  0  0  0  0  0  0  0  0  0  0
    6.2026   -4.5768   -0.9079 H   0  0  0  0  0  0  0  0  0  0  0  0
    2.6628   -5.0775    0.0475 H   0  0  0  0  0  0  0  0  0  0  0  0
    4.0382   -8.2489    1.6278 H   0  0  0  0  0  0  0  0  0  0  0  0
    2.2233   -9.8407    2.5043 H   0  0  0  0  0  0  0  0  0  0  0  0
   -0.1876   -8.7306    2.4654 H   0  0  0  0  0  0  0  0  0  0  0  0
  1  2  1  0
  1 30  1  0
  1 31  1  0
  1 32  1  0
  2  3  1  0
  3  4  2  0
  3  5  1  0
  5 23  1  0
  5  6  2  0
  6 20  1  0
  6  7  1  0
  7  8  2  0
  7  9  1  0
  9 10  1  0
  9 17  1  0
 10 11  1  0
 10 33  1  0
 10 34  1  0
 11 12  1  0
 11 35  1  0
 11 36  1  0
 12 16  1  0
 12 13  1  0
 12 37  1  0
 13 14  1  0
 13 38  1  0
 13 39  1  0
 14 15  1  0
 14 40  1  0
 14 41  1  0
 15 16  1  0
 15 42  1  0
 15 43  1  0
 16 44  1  0
 16 45  1  0
 17 18  1  0
 17 19  1  0
 18 46  1  0
 18 47  1  0
 18 48  1  0
 20 19  1  1
 19 49  1  0
 19 50  1  0
 20 24  1  0
 20 21  1  0
 21 22  1  0
 21 51  1  0
 21 52  1  0
 22 23  1  0
 22 24  1  0
 22 53  1  6
 23 54  1  0
 23 55  1  0
 24 25  1  0
 24 56  1  6
 25 29  1  0
 25 26  2  0
 26 27  1  0
 26 57  1  0
 27 28  2  0
 27 58  1  0
 28 29  1  0
 28 59  1  0
M  END
>  <i_m_ct_stereo_status>  (88) 
1

>  <s_m_source_file>  (88) 
/var/tmp/pbs.5076255.sched01/tmpuj7nejrg/06cdl7mjn.sdf

>  <i_m_source_file_index>  (88) 
41

>  <i_lp_mmshare_version>  (88) 
48012

>  <i_f3d_flags>  (88) 
0

>  <s_epik_input>  (88) 
czFbY0hdW2NIXVtjSF1jMVtDQEBIXTJbQ0BIXShbQ0gyXTMpW0NIMl1DKEMoPU8pT1tDSDNdKT1DKFtDQEBdMjM0KUMoPU8pTihOKFtDSDNdKVtDSDJdNClbQ0gyXVtDSDJdW0NIXTVbQ0gyXVtDSDJdW0NIMl1bQ0gyXTU=

>  <s_epik_cmdline>  (88) 
J2VwaWtfcHl0aG9uJywgJy1waHQnLCAnMi4wJywgJy1waCcsICc3LjAnLCAnLXRuJywgJzgnLCAnLW1hJywgJzIwMCcsICctaW1hZScsICc8aW5maWxlLm1hZT4nLCAnLW9tYWUnLCAnPG91dGZpbGUubWFlPic=

>  <r_lp_tautomer_probability>  (88) 
1

>  <r_epik_Ionization_Penalty>  (88) 
5.1851e-06

>  <r_epik_Ionization_Penalty_Charging>  (88) 
0

>  <r_epik_Ionization_Penalty_Neutral>  (88) 
5.1851e-06

>  <r_epik_State_Penalty>  (88) 
-0

>  <r_epik_Charging_Adjusted_Penalty>  (88) 
0

>  <i_epik_Tot_Q>  (88) 
0

>  <i_epik_Tot_abs_Q>  (88) 
0

>  <s_epik_Chemistry_Notes>  (88) 
This compound has an ester and may undergo hydrolysis at high or low pH.

>  <s_lp_Force_Field>  (88) 
OPLS3e

>  <r_lp_Energy>  (88) 
72.0544

>  <b_lp_Chiralities_Consistent>  (88) 
1

>  <s_lp_Variant>  (88) 
23:0-1

>  <s_i_glide_gridfile>  (88) 
pfpi4k_grid

>  <i_i_glide_lignum>  (88) 
41

>  <i_i_glide_rotatable_bonds>  (88) 
6

>  <r_i_docking_score>  (88) 
-2.26826

>  <r_i_glide_ligand_efficiency>  (88) 
-0.0782157

>  <r_i_glide_ligand_efficiency_sa>  (88) 
-0.240303

>  <r_i_glide_ligand_efficiency_ln>  (88) 
-0.519373

>  <r_i_glide_gscore>  (88) 
-2.26826

>  <r_i_glide_lipo>  (88) 
-0.240809

>  <r_i_glide_hbond>  (88) 
-0.124506

>  <r_i_glide_metal>  (88) 
-0

>  <r_i_glide_rewards>  (88) 
-0.582532

>  <r_i_glide_evdw>  (88) 
-31.4521

>  <r_i_glide_ecoul>  (88) 
-1.90695

>  <r_i_glide_erotb>  (88) 
0.574261

>  <r_i_glide_esite>  (88) 
-0.0360199

>  <r_i_glide_emodel>  (88) 
-36.2847

>  <r_i_glide_energy>  (88) 
-33.3591

>  <r_i_glide_einternal>  (88) 
4.07781

>  <r_i_glide_intrahb_reward>  (88) 
-0

>  <i_i_glide_confnum>  (88) 
2

>  <i_i_glide_posenum>  (88) 
32

>  <r_i_glide_eff_state_penalty>  (88) 
0

>  <ligand_id>  (88) 
23

>  <original_smiles>  (88) 
COC(=O)C1=C2C(=O)N(CCC3CCCC3)N(C)CC23CC(C1)C3c1cccs1

>  <smiles>  (88) 
[H]c1sc(C2([H])C3([H])C([H])([H])C(C(=O)OC([H])([H])[H])=C4C(=O)N(C([H])([H])C([H])([H])C5([H])C([H])([H])C([H])([H])C([H])([H])C5([H])[H])N(C([H])([H])[H])C([H])([H])C42C3([H])[H])c([H])c1[H]

$$$$
24:0:0
     RDKit          3D

 27 29  0  0  1  0  0  0  0  0999 V2000
    4.6004   -4.2380   -3.9470 O   0  0  0  0  0  0  0  0  0  0  0  0
    4.7812   -3.0297   -3.2472 C   0  0  2  0  0  0  0  0  0  0  0  0
    5.4783   -3.2668   -1.8875 C   0  0  1  0  0  0  0  0  0  0  0  0
    5.7602   -1.8989   -1.2395 C   0  0  0  0  0  0  0  0  0  0  0  0
    4.4354   -1.1409   -1.0191 C   0  0  2  0  0  0  0  0  0  0  0  0
    3.5400   -1.9699   -0.0779 C   0  0  0  0  0  0  0  0  0  0  0  0
    3.2463   -3.3365   -0.7282 C   0  0  2  0  0  0  0  0  0  0  0  0
    4.5800   -4.0778   -0.9323 C   0  0  0  0  0  0  0  0  0  0  0  0
    2.5317   -3.1213   -2.0842 C   0  0  0  0  0  0  0  0  0  0  0  0
    3.4400   -2.2980   -3.0297 C   0  0  1  0  0  0  0  0  0  0  0  0
    3.7349   -0.9343   -2.3907 C   0  0  0  0  0  0  0  0  0  0  0  0
    4.0396   -4.8142   -3.4336 H   0  0  0  0  0  0  0  0  0  0  0  0
    5.4064   -2.3951   -3.8662 H   0  0  0  0  0  0  0  0  0  0  0  0
    6.4179   -3.7890   -2.0489 H   0  0  0  0  0  0  0  0  0  0  0  0
    6.2983   -2.0238   -0.2948 H   0  0  0  0  0  0  0  0  0  0  0  0
    6.4051   -1.3381   -1.9022 H   0  0  0  0  0  0  0  0  0  0  0  0
    4.6245   -0.1746   -0.5513 H   0  0  0  0  0  0  0  0  0  0  0  0
    4.0291   -2.1061    0.8929 H   0  0  0  0  0  0  0  0  0  0  0  0
    2.6228   -1.4205    0.1338 H   0  0  0  0  0  0  0  0  0  0  0  0
    2.5940   -3.9138   -0.0679 H   0  0  0  0  0  0  0  0  0  0  0  0
    4.4174   -5.0721   -1.3279 H   0  0  0  0  0  0  0  0  0  0  0  0
    5.0820   -4.2197    0.0242 H   0  0  0  0  0  0  0  0  0  0  0  0
    2.2583   -4.0645   -2.5532 H   0  0  0  0  0  0  0  0  0  0  0  0
    1.5650   -2.6580   -1.9247 H   0  0  0  0  0  0  0  0  0  0  0  0
    2.9347   -2.1326   -3.9852 H   0  0  0  0  0  0  0  0  0  0  0  0
    2.7878   -0.4018   -2.3040 H   0  0  0  0  0  0  0  0  0  0  0  0
    4.3680   -0.3216   -3.0385 H   0  0  0  0  0  0  0  0  0  0  0  0
  1  2  1  0
  1 12  1  0
  2 10  1  0
  2  3  1  0
  2 13  1  6
  3  8  1  0
  3  4  1  0
  3 14  1  6
  4  5  1  0
  4 15  1  0
  4 16  1  0
  5 11  1  0
  5  6  1  0
  5 17  1  1
  6  7  1  0
  6 18  1  0
  6 19  1  0
  7  8  1  0
  7  9  1  0
  7 20  1  1
  8 21  1  0
  8 22  1  0
  9 10  1  0
  9 23  1  0
  9 24  1  0
 10 11  1  0
 10 25  1  6
 11 26  1  0
 11 27  1  0
M  END
>  <i_m_ct_stereo_status>  (89) 
1

>  <s_m_source_file>  (89) 
/var/tmp/pbs.5076255.sched01/tmpuj7nejrg/06cdl7mjn.sdf

>  <i_m_source_file_index>  (89) 
42

>  <i_lp_mmshare_version>  (89) 
48012

>  <i_f3d_flags>  (89) 
0

>  <s_epik_input>  (89) 
W09IXVtDQEhdKFtDQEBIXTEyKVtDQEhdM1tDSDJdW0NAQEhdKFtDSDJdMilbQ0gyXVtDQEBIXShbQ0gyXTEpW0NIMl0z

>  <s_epik_cmdline>  (89) 
J2VwaWtfcHl0aG9uJywgJy1waHQnLCAnMi4wJywgJy1waCcsICc3LjAnLCAnLXRuJywgJzgnLCAnLW1hJywgJzIwMCcsICctaW1hZScsICc8aW5maWxlLm1hZT4nLCAnLW9tYWUnLCAnPG91dGZpbGUubWFlPic=

>  <r_lp_tautomer_probability>  (89) 
1

>  <r_epik_Ionization_Penalty>  (89) 
1.90373e-06

>  <r_epik_Ionization_Penalty_Charging>  (89) 
0

>  <r_epik_Ionization_Penalty_Neutral>  (89) 
1.90373e-06

>  <r_epik_State_Penalty>  (89) 
-0

>  <r_epik_Charging_Adjusted_Penalty>  (89) 
0

>  <i_epik_Tot_Q>  (89) 
0

>  <i_epik_Tot_abs_Q>  (89) 
0

>  <s_lp_Force_Field>  (89) 
OPLS3e

>  <r_lp_Energy>  (89) 
2.5605

>  <b_lp_Chiralities_Consistent>  (89) 
1

>  <s_lp_Variant>  (89) 
24:0-1

>  <s_i_glide_gridfile>  (89) 
pfpi4k_grid

>  <i_i_glide_lignum>  (89) 
42

>  <i_i_glide_rotatable_bonds>  (89) 
1

>  <r_i_docking_score>  (89) 
-4.52008

>  <r_i_glide_ligand_efficiency>  (89) 
-0.410917

>  <r_i_glide_ligand_efficiency_sa>  (89) 
-0.91387

>  <r_i_glide_ligand_efficiency_ln>  (89) 
-1.33026

>  <r_i_glide_gscore>  (89) 
-4.52008

>  <r_i_glide_lipo>  (89) 
-0.489618

>  <r_i_glide_hbond>  (89) 
-0.32

>  <r_i_glide_metal>  (89) 
-0

>  <r_i_glide_rewards>  (89) 
-2.25

>  <r_i_glide_evdw>  (89) 
-15.4451

>  <r_i_glide_ecoul>  (89) 
-4.58807

>  <r_i_glide_erotb>  (89) 
0

>  <r_i_glide_esite>  (89) 
0

>  <r_i_glide_emodel>  (89) 
-25.291

>  <r_i_glide_energy>  (89) 
-20.0331

>  <r_i_glide_einternal>  (89) 
0.00374833

>  <r_i_glide_intrahb_reward>  (89) 
-0

>  <i_i_glide_confnum>  (89) 
1

>  <i_i_glide_posenum>  (89) 
34

>  <r_i_glide_eff_state_penalty>  (89) 
0

>  <ligand_id>  (89) 
24

>  <original_smiles>  (89) 
OC1C2CC3CC(C2)CC1C3

>  <smiles>  (89) 
[H]OC1([H])C2([H])C([H])([H])C3([H])C([H])([H])C([H])(C2([H])[H])C([H])([H])C1([H])C3([H])[H]

$$$$
24:0:1
     RDKit          3D

 27 29  0  0  1  0  0  0  0  0999 V2000
    2.7789   -4.2607   -0.7008 O   0  0  0  0  0  0  0  0  0  0  0  0
    4.1460   -4.0423   -0.4163 C   0  0  2  0  0  0  0  0  0  0  0  0
    4.3068   -3.4778    1.0095 C   0  0  1  0  0  0  0  0  0  0  0  0
    5.8134   -3.3204    1.3209 C   0  0  0  0  0  0  0  0  0  0  0  0
    6.4484   -2.3443    0.3037 C   0  0  2  0  0  0  0  0  0  0  0  0
    5.7537   -0.9718    0.4112 C   0  0  0  0  0  0  0  0  0  0  0  0
    4.2538   -1.1291    0.0950 C   0  0  2  0  0  0  0  0  0  0  0  0
    3.6163   -2.0986    1.1120 C   0  0  0  0  0  0  0  0  0  0  0  0
    4.0851   -1.6823   -1.3367 C   0  0  0  0  0  0  0  0  0  0  0  0
    4.7740   -3.0656   -1.4375 C   0  0  1  0  0  0  0  0  0  0  0  0
    6.2778   -2.8977   -1.1271 C   0  0  0  0  0  0  0  0  0  0  0  0
    2.7287   -4.8167   -1.4721 H   0  0  0  0  0  0  0  0  0  0  0  0
    4.6475   -5.0082   -0.4800 H   0  0  0  0  0  0  0  0  0  0  0  0
    3.8623   -4.1637    1.7276 H   0  0  0  0  0  0  0  0  0  0  0  0
    5.9513   -2.9508    2.3391 H   0  0  0  0  0  0  0  0  0  0  0  0
    6.3149   -4.2906    1.2786 H   0  0  0  0  0  0  0  0  0  0  0  0
    7.5113   -2.2239    0.5210 H   0  0  0  0  0  0  0  0  0  0  0  0
    5.8815   -0.5621    1.4142 H   0  0  0  0  0  0  0  0  0  0  0  0
    6.2073   -0.2592   -0.2792 H   0  0  0  0  0  0  0  0  0  0  0  0
    3.7620   -0.1587    0.1659 H   0  0  0  0  0  0  0  0  0  0  0  0
    2.5439   -2.1847    0.9243 H   0  0  0  0  0  0  0  0  0  0  0  0
    3.7147   -1.7009    2.1238 H   0  0  0  0  0  0  0  0  0  0  0  0
    3.0234   -1.7567   -1.5895 H   0  0  0  0  0  0  0  0  0  0  0  0
    4.5200   -0.9885   -2.0574 H   0  0  0  0  0  0  0  0  0  0  0  0
    4.6590   -3.4646   -2.4467 H   0  0  0  0  0  0  0  0  0  0  0  0
    6.7426   -2.2377   -1.8589 H   0  0  0  0  0  0  0  0  0  0  0  0
    6.7948   -3.8559   -1.2164 H   0  0  0  0  0  0  0  0  0  0  0  0
  1  2  1  0
  1 12  1  0
  2 10  1  0
  2  3  1  0
  2 13  1  1
  3  8  1  0
  3  4  1  0
  3 14  1  1
  4  5  1  0
  4 15  1  0
  4 16  1  0
  5 11  1  0
  5  6  1  0
  5 17  1  1
  6  7  1  0
  6 18  1  0
  6 19  1  0
  7  8  1  0
  7  9  1  0
  7 20  1  6
  8 21  1  0
  8 22  1  0
  9 10  1  0
  9 23  1  0
  9 24  1  0
 10 11  1  0
 10 25  1  6
 11 26  1  0
 11 27  1  0
M  END
>  <i_m_ct_stereo_status>  (90) 
1

>  <s_m_source_file>  (90) 
/var/tmp/pbs.5076255.sched01/tmpuj7nejrg/06cdl7mjn.sdf

>  <i_m_source_file_index>  (90) 
42

>  <i_lp_mmshare_version>  (90) 
48012

>  <i_f3d_flags>  (90) 
0

>  <s_epik_input>  (90) 
W09IXVtDQEhdKFtDQEBIXTEyKVtDQEhdM1tDSDJdW0NAQEhdKFtDSDJdMilbQ0gyXVtDQEBIXShbQ0gyXTEpW0NIMl0z

>  <s_epik_cmdline>  (90) 
J2VwaWtfcHl0aG9uJywgJy1waHQnLCAnMi4wJywgJy1waCcsICc3LjAnLCAnLXRuJywgJzgnLCAnLW1hJywgJzIwMCcsICctaW1hZScsICc8aW5maWxlLm1hZT4nLCAnLW9tYWUnLCAnPG91dGZpbGUubWFlPic=

>  <r_lp_tautomer_probability>  (90) 
1

>  <r_epik_Ionization_Penalty>  (90) 
1.90373e-06

>  <r_epik_Ionization_Penalty_Charging>  (90) 
0

>  <r_epik_Ionization_Penalty_Neutral>  (90) 
1.90373e-06

>  <r_epik_State_Penalty>  (90) 
-0

>  <r_epik_Charging_Adjusted_Penalty>  (90) 
0

>  <i_epik_Tot_Q>  (90) 
0

>  <i_epik_Tot_abs_Q>  (90) 
0

>  <s_lp_Force_Field>  (90) 
OPLS3e

>  <r_lp_Energy>  (90) 
2.5605

>  <b_lp_Chiralities_Consistent>  (90) 
1

>  <s_lp_Variant>  (90) 
24:0-1

>  <s_i_glide_gridfile>  (90) 
pfpi4k_grid

>  <i_i_glide_lignum>  (90) 
42

>  <i_i_glide_rotatable_bonds>  (90) 
1

>  <r_i_docking_score>  (90) 
-4.1742

>  <r_i_glide_ligand_efficiency>  (90) 
-0.379473

>  <r_i_glide_ligand_efficiency_sa>  (90) 
-0.843941

>  <r_i_glide_ligand_efficiency_ln>  (90) 
-1.22847

>  <r_i_glide_gscore>  (90) 
-4.1742

>  <r_i_glide_lipo>  (90) 
-0.300068

>  <r_i_glide_hbond>  (90) 
-0.32

>  <r_i_glide_metal>  (90) 
-0

>  <r_i_glide_rewards>  (90) 
-2.25

>  <r_i_glide_evdw>  (90) 
-14.5056

>  <r_i_glide_ecoul>  (90) 
-3.85903

>  <r_i_glide_erotb>  (90) 
0

>  <r_i_glide_esite>  (90) 
0

>  <r_i_glide_emodel>  (90) 
-22.9135

>  <r_i_glide_energy>  (90) 
-18.3646

>  <r_i_glide_einternal>  (90) 
0.495146

>  <r_i_glide_intrahb_reward>  (90) 
-0

>  <i_i_glide_confnum>  (90) 
1

>  <i_i_glide_posenum>  (90) 
37

>  <r_i_glide_eff_state_penalty>  (90) 
0

>  <ligand_id>  (90) 
24

>  <original_smiles>  (90) 
OC1C2CC3CC(C2)CC1C3

>  <smiles>  (90) 
[H]OC1([H])C2([H])C([H])([H])C3([H])C([H])([H])C([H])(C2([H])[H])C([H])([H])C1([H])C3([H])[H]

$$$$
24:0:2
     RDKit          3D

 27 29  0  0  1  0  0  0  0  0999 V2000
    4.4925   -2.3774   -3.0640 O   0  0  0  0  0  0  0  0  0  0  0  0
    5.1960   -1.9511   -1.9159 C   0  0  2  0  0  0  0  0  0  0  0  0
    6.0860   -3.0895   -1.3671 C   0  0  1  0  0  0  0  0  0  0  0  0
    6.9215   -2.5632   -0.1784 C   0  0  0  0  0  0  0  0  0  0  0  0
    5.9695   -2.0620    0.9338 C   0  0  2  0  0  0  0  0  0  0  0  0
    5.0898   -3.2307    1.4201 C   0  0  0  0  0  0  0  0  0  0  0  0
    4.2538   -3.7643    0.2406 C   0  0  2  0  0  0  0  0  0  0  0  0
    5.1997   -4.2590   -0.8713 C   0  0  0  0  0  0  0  0  0  0  0  0
    3.3542   -2.6403   -0.3090 C   0  0  0  0  0  0  0  0  0  0  0  0
    4.2337   -1.4683   -0.8031 C   0  0  1  0  0  0  0  0  0  0  0  0
    5.0685   -0.9362    0.3850 C   0  0  0  0  0  0  0  0  0  0  0  0
    3.8933   -3.0599   -2.7984 H   0  0  0  0  0  0  0  0  0  0  0  0
    5.8146   -1.1105   -2.2277 H   0  0  0  0  0  0  0  0  0  0  0  0
    6.7566   -3.4441   -2.1506 H   0  0  0  0  0  0  0  0  0  0  0  0
    7.5712   -3.3509    0.2030 H   0  0  0  0  0  0  0  0  0  0  0  0
    7.5817   -1.7560   -0.4962 H   0  0  0  0  0  0  0  0  0  0  0  0
    6.5497   -1.6765    1.7721 H   0  0  0  0  0  0  0  0  0  0  0  0
    5.7143   -4.0274    1.8235 H   0  0  0  0  0  0  0  0  0  0  0  0
    4.4409   -2.8973    2.2291 H   0  0  0  0  0  0  0  0  0  0  0  0
    3.6310   -4.5939    0.5823 H   0  0  0  0  0  0  0  0  0  0  0  0
    4.6218   -4.6825   -1.6910 H   0  0  0  0  0  0  0  0  0  0  0  0
    5.8200   -5.0689   -0.4900 H   0  0  0  0  0  0  0  0  0  0  0  0
    2.7208   -3.0166   -1.1134 H   0  0  0  0  0  0  0  0  0  0  0  0
    2.6738   -2.2912    0.4689 H   0  0  0  0  0  0  0  0  0  0  0  0
    3.5991   -0.6670   -1.1856 H   0  0  0  0  0  0  0  0  0  0  0  0
    4.4050   -0.5685    1.1709 H   0  0  0  0  0  0  0  0  0  0  0  0
    5.6793   -0.0850    0.0762 H   0  0  0  0  0  0  0  0  0  0  0  0
  1  2  1  0
  1 12  1  0
  2 10  1  0
  2  3  1  0
  2 13  1  6
  3  8  1  0
  3  4  1  0
  3 14  1  6
  4  5  1  0
  4 15  1  0
  4 16  1  0
  5 11  1  0
  5  6  1  0
  5 17  1  1
  6  7  1  0
  6 18  1  0
  6 19  1  0
  7  8  1  0
  7  9  1  0
  7 20  1  1
  8 21  1  0
  8 22  1  0
  9 10  1  0
  9 23  1  0
  9 24  1  0
 10 11  1  0
 10 25  1  6
 11 26  1  0
 11 27  1  0
M  END
>  <i_m_ct_stereo_status>  (91) 
1

>  <s_m_source_file>  (91) 
/var/tmp/pbs.5076255.sched01/tmpuj7nejrg/06cdl7mjn.sdf

>  <i_m_source_file_index>  (91) 
42

>  <i_lp_mmshare_version>  (91) 
48012

>  <i_f3d_flags>  (91) 
0

>  <s_epik_input>  (91) 
W09IXVtDQEhdKFtDQEBIXTEyKVtDQEhdM1tDSDJdW0NAQEhdKFtDSDJdMilbQ0gyXVtDQEBIXShbQ0gyXTEpW0NIMl0z

>  <s_epik_cmdline>  (91) 
J2VwaWtfcHl0aG9uJywgJy1waHQnLCAnMi4wJywgJy1waCcsICc3LjAnLCAnLXRuJywgJzgnLCAnLW1hJywgJzIwMCcsICctaW1hZScsICc8aW5maWxlLm1hZT4nLCAnLW9tYWUnLCAnPG91dGZpbGUubWFlPic=

>  <r_lp_tautomer_probability>  (91) 
1

>  <r_epik_Ionization_Penalty>  (91) 
1.90373e-06

>  <r_epik_Ionization_Penalty_Charging>  (91) 
0

>  <r_epik_Ionization_Penalty_Neutral>  (91) 
1.90373e-06

>  <r_epik_State_Penalty>  (91) 
-0

>  <r_epik_Charging_Adjusted_Penalty>  (91) 
0

>  <i_epik_Tot_Q>  (91) 
0

>  <i_epik_Tot_abs_Q>  (91) 
0

>  <s_lp_Force_Field>  (91) 
OPLS3e

>  <r_lp_Energy>  (91) 
2.5605

>  <b_lp_Chiralities_Consistent>  (91) 
1

>  <s_lp_Variant>  (91) 
24:0-1

>  <s_i_glide_gridfile>  (91) 
pfpi4k_grid

>  <i_i_glide_lignum>  (91) 
42

>  <i_i_glide_rotatable_bonds>  (91) 
1

>  <r_i_docking_score>  (91) 
-3.69105

>  <r_i_glide_ligand_efficiency>  (91) 
-0.33555

>  <r_i_glide_ligand_efficiency_sa>  (91) 
-0.746257

>  <r_i_glide_ligand_efficiency_ln>  (91) 
-1.08628

>  <r_i_glide_gscore>  (91) 
-3.69105

>  <r_i_glide_lipo>  (91) 
-0.383713

>  <r_i_glide_hbond>  (91) 
0

>  <r_i_glide_metal>  (91) 
-0

>  <r_i_glide_rewards>  (91) 
-2.25

>  <r_i_glide_evdw>  (91) 
-16.53

>  <r_i_glide_ecoul>  (91) 
-1.53893

>  <r_i_glide_erotb>  (91) 
0

>  <r_i_glide_esite>  (91) 
0

>  <r_i_glide_emodel>  (91) 
-22.3647

>  <r_i_glide_energy>  (91) 
-18.0689

>  <r_i_glide_einternal>  (91) 
0.00574596

>  <r_i_glide_intrahb_reward>  (91) 
-0

>  <i_i_glide_confnum>  (91) 
2

>  <i_i_glide_posenum>  (91) 
3

>  <r_i_glide_eff_state_penalty>  (91) 
0

>  <ligand_id>  (91) 
24

>  <original_smiles>  (91) 
OC1C2CC3CC(C2)CC1C3

>  <smiles>  (91) 
[H]OC1([H])C2([H])C([H])([H])C3([H])C([H])([H])C([H])(C2([H])[H])C([H])([H])C1([H])C3([H])[H]

$$$$
25:0:0
     RDKit          3D

 86 91  0  0  1  0  0  0  0  0999 V2000
    2.3761   -3.0213   -2.4610 C   0  0  0  0  0  0  0  0  0  0  0  0
    3.5689   -2.6837   -3.3913 C   0  0  0  0  0  0  0  0  0  0  0  0
    3.8237   -3.3530   -4.4170 O   0  0  0  0  0  0  0  0  0  0  0  0
    4.3287   -1.6394   -2.9962 O   0  0  0  0  0  0  0  0  0  0  0  0
    4.2405   -1.0942   -1.6729 C   0  0  0  0  0  0  0  0  0  0  0  0
    5.0609   -1.9388   -0.6613 C   0  0  2  0  0  0  0  0  0  0  0  0
    4.6560   -3.4350   -0.4631 C   0  0  0  0  0  0  0  0  0  0  0  0
    3.5599   -3.5970    0.6424 C   0  0  1  0  0  0  0  0  0  0  0  0
    3.1521   -5.0814    0.7102 C   0  0  0  0  0  0  0  0  0  0  0  0
    4.0746   -2.9755    1.9659 C   0  0  1  0  0  0  0  0  0  0  0  0
    5.2320   -1.9818    1.7449 C   0  0  2  0  0  0  0  0  0  0  0  0
    5.2027   -1.0328    2.9476 C   0  0  0  0  0  0  0  0  0  0  0  0
    4.0482   -1.4785    3.8914 C   0  0  1  0  0  0  0  0  0  0  0  0
    4.6824   -2.4471    4.9329 C   0  0  0  0  0  0  0  0  0  0  0  0
    3.4356   -0.2335    4.6462 C   0  0  2  0  0  0  0  0  0  0  0  0
    2.6143   -0.5679    5.9165 C   0  0  0  0  0  0  0  0  0  0  0  0
    1.8260    0.6012    6.4820 C   0  0  0  0  0  0  0  0  0  0  0  0
    1.6250    1.7934    5.8797 C   0  0  0  0  0  0  0  0  0  0  0  0
    0.9081    2.9858    6.5823 C   0  0  2  0  0  0  0  0  0  0  0  0
    0.2199    2.6311    7.9268 C   0  0  0  0  0  0  0  0  0  0  0  0
   -1.0265    1.7480    7.7419 C   0  0  0  0  0  0  0  0  0  0  0  0
   -1.8157    2.1146    6.4984 C   0  0  0  0  0  0  0  0  0  0  0  0
   -1.4303    3.0092    5.5642 C   0  0  0  0  0  0  0  0  0  0  0  0
   -2.3477    3.3218    4.3900 C   0  0  0  0  0  0  0  0  0  0  0  0
   -0.0965    3.7758    5.6692 C   0  0  1  0  0  0  0  0  0  0  0  0
   -0.4192    5.1610    6.2847 C   0  0  0  0  0  0  0  0  0  0  0  0
    0.5712    4.0690    4.3021 C   0  0  0  0  0  0  0  0  0  0  0  0
    1.1368    2.8173    3.6292 C   0  0  0  0  0  0  0  0  0  0  0  0
    2.1904    2.0616    4.4784 C   0  0  1  0  0  0  0  0  0  0  0  0
    3.4431    2.9632    4.6423 C   0  0  0  0  0  0  0  0  0  0  0  0
    2.6385    0.7375    3.7342 C   0  0  2  0  0  0  0  0  0  0  0  0
    1.5503   -0.0841    3.0050 C   0  0  0  0  0  0  0  0  0  0  0  0
    2.1911   -1.1823    2.1354 C   0  0  0  0  0  0  0  0  0  0  0  0
    3.0645   -2.2226    2.9086 C   0  0  1  0  0  0  0  0  0  0  0  0
    2.1163   -3.2541    3.5663 C   0  0  0  0  0  0  0  0  0  0  0  0
    5.0450   -1.2111    0.5611 O   0  0  0  0  0  0  0  0  0  0  0  0
    2.7149   -2.9754   -1.4495 H   0  0  0  0  0  0  0  0  0  0  0  0
    2.0156   -4.0325   -2.6009 H   0  0  0  0  0  0  0  0  0  0  0  0
    1.5795   -2.2868   -2.5346 H   0  0  0  0  0  0  0  0  0  0  0  0
    4.6239   -0.0749   -1.7088 H   0  0  0  0  0  0  0  0  0  0  0  0
    3.1934   -0.9629   -1.3616 H   0  0  0  0  0  0  0  0  0  0  0  0
    6.0949   -1.9356   -1.0241 H   0  0  0  0  0  0  0  0  0  0  0  0
    4.3068   -3.8939   -1.3987 H   0  0  0  0  0  0  0  0  0  0  0  0
    5.5302   -3.9945   -0.1745 H   0  0  0  0  0  0  0  0  0  0  0  0
    2.6571   -3.0597    0.3882 H   0  0  0  0  0  0  0  0  0  0  0  0
    4.0061   -5.7167    0.9335 H   0  0  0  0  0  0  0  0  0  0  0  0
    2.7514   -5.4118   -0.2501 H   0  0  0  0  0  0  0  0  0  0  0  0
    2.3768   -5.2735    1.4546 H   0  0  0  0  0  0  0  0  0  0  0  0
    4.4942   -3.8140    2.5241 H   0  0  0  0  0  0  0  0  0  0  0  0
    6.1885   -2.5042    1.6701 H   0  0  0  0  0  0  0  0  0  0  0  0
    6.1700   -1.0090    3.4471 H   0  0  0  0  0  0  0  0  0  0  0  0
    5.0596   -0.0210    2.5795 H   0  0  0  0  0  0  0  0  0  0  0  0
    3.9392   -2.9140    5.5784 H   0  0  0  0  0  0  0  0  0  0  0  0
    5.3765   -1.9168    5.5852 H   0  0  0  0  0  0  0  0  0  0  0  0
    5.2543   -3.2554    4.4756 H   0  0  0  0  0  0  0  0  0  0  0  0
    4.3001    0.3158    5.0139 H   0  0  0  0  0  0  0  0  0  0  0  0
    1.9158   -1.3834    5.7585 H   0  0  0  0  0  0  0  0  0  0  0  0
    3.2882   -0.9011    6.7052 H   0  0  0  0  0  0  0  0  0  0  0  0
    1.4462    0.4158    7.4712 H   0  0  0  0  0  0  0  0  0  0  0  0
    1.7183    3.6720    6.8341 H   0  0  0  0  0  0  0  0  0  0  0  0
    0.9160    2.1846    8.6368 H   0  0  0  0  0  0  0  0  0  0  0  0
   -0.0934    3.5498    8.4231 H   0  0  0  0  0  0  0  0  0  0  0  0
   -0.7522    0.6969    7.6707 H   0  0  0  0  0  0  0  0  0  0  0  0
   -1.6710    1.8358    8.6165 H   0  0  0  0  0  0  0  0  0  0  0  0
   -2.7629    1.6094    6.3915 H   0  0  0  0  0  0  0  0  0  0  0  0
   -2.5347    4.3919    4.3209 H   0  0  0  0  0  0  0  0  0  0  0  0
   -3.3164    2.8324    4.5004 H   0  0  0  0  0  0  0  0  0  0  0  0
   -1.9198    2.9817    3.4469 H   0  0  0  0  0  0  0  0  0  0  0  0
    0.4819    5.7142    6.5529 H   0  0  0  0  0  0  0  0  0  0  0  0
   -1.0395    5.0871    7.1777 H   0  0  0  0  0  0  0  0  0  0  0  0
   -0.9742    5.7803    5.5802 H   0  0  0  0  0  0  0  0  0  0  0  0
   -0.1239    4.5573    3.6176 H   0  0  0  0  0  0  0  0  0  0  0  0
    1.3674    4.8038    4.4252 H   0  0  0  0  0  0  0  0  0  0  0  0
    0.2807    2.1790    3.4336 H   0  0  0  0  0  0  0  0  0  0  0  0
    1.5507    3.0834    2.6545 H   0  0  0  0  0  0  0  0  0  0  0  0
    3.8779    3.2084    3.6777 H   0  0  0  0  0  0  0  0  0  0  0  0
    4.2221    2.4885    5.2396 H   0  0  0  0  0  0  0  0  0  0  0  0
    3.2368    3.9129    5.1321 H   0  0  0  0  0  0  0  0  0  0  0  0
    3.2939    1.0779    2.9341 H   0  0  0  0  0  0  0  0  0  0  0  0
    0.8260   -0.4970    3.7080 H   0  0  0  0  0  0  0  0  0  0  0  0
    0.9853    0.5393    2.3135 H   0  0  0  0  0  0  0  0  0  0  0  0
    1.3975   -1.6797    1.5777 H   0  0  0  0  0  0  0  0  0  0  0  0
    2.7831   -0.6740    1.3761 H   0  0  0  0  0  0  0  0  0  0  0  0
    1.4382   -2.8024    4.2842 H   0  0  0  0  0  0  0  0  0  0  0  0
    2.6580   -4.0560    4.0702 H   0  0  0  0  0  0  0  0  0  0  0  0
    1.4777   -3.7310    2.8217 H   0  0  0  0  0  0  0  0  0  0  0  0
  1  2  1  0
  1 37  1  0
  1 38  1  0
  1 39  1  0
  2  3  2  0
  2  4  1  0
  4  5  1  0
  5  6  1  0
  5 40  1  0
  5 41  1  0
  6 36  1  0
  6  7  1  0
  6 42  1  6
  7  8  1  0
  7 43  1  0
  7 44  1  0
  8  9  1  0
  8 10  1  0
  8 45  1  6
  9 46  1  0
  9 47  1  0
  9 48  1  0
 10 34  1  0
 10 11  1  0
 10 49  1  1
 11 12  1  0
 11 36  1  0
 11 50  1  6
 12 13  1  0
 12 51  1  0
 12 52  1  0
 13 34  1  0
 13 14  1  1
 13 15  1  0
 14 53  1  0
 14 54  1  0
 14 55  1  0
 15 31  1  0
 15 16  1  0
 15 56  1  1
 16 17  1  0
 16 57  1  0
 16 58  1  0
 17 18  2  0
 17 59  1  0
 18 29  1  0
 18 19  1  0
 19 25  1  0
 19 20  1  0
 19 60  1  1
 20 21  1  0
 20 61  1  0
 20 62  1  0
 21 22  1  0
 21 63  1  0
 21 64  1  0
 22 23  2  0
 22 65  1  0
 23 24  1  0
 23 25  1  0
 24 66  1  0
 24 67  1  0
 24 68  1  0
 25 26  1  1
 25 27  1  0
 26 69  1  0
 26 70  1  0
 26 71  1  0
 27 28  1  0
 27 72  1  0
 27 73  1  0
 28 29  1  0
 28 74  1  0
 28 75  1  0
 29 30  1  1
 29 31  1  0
 30 76  1  0
 30 77  1  0
 30 78  1  0
 31 32  1  0
 31 79  1  6
 32 33  1  0
 32 80  1  0
 32 81  1  0
 33 34  1  0
 33 82  1  0
 33 83  1  0
 34 35  1  1
 35 84  1  0
 35 85  1  0
 35 86  1  0
M  END
>  <i_m_ct_stereo_status>  (92) 
1

>  <s_m_source_file>  (92) 
/var/tmp/pbs.5076255.sched01/tmpuj7nejrg/06cdl7mjn.sdf

>  <i_m_source_file_index>  (92) 
43

>  <i_lp_mmshare_version>  (92) 
48012

>  <i_f3d_flags>  (92) 
0

>  <s_epik_input>  (92) 
W0NIM11DKD1PKU9bQ0gyXVtDQEhdKFtDSDJdW0NASF0xW0NIM10pT1tDQEBIXShbQ0gyXTIpW0NASF0xW0NAXTMoW0NIM10pW0NIMl1bQ0gyXVtDQEhdKFtDQEBIXTRbQ0BdMjNbQ0gzXSlbQ0BdNShbQ0gzXSlDKD1bQ0hdW0NIMl00KVtDQEhdNltDQEBdKFtDSDNdKShbQ0gyXVtDSDJdNSlDKFtDSDNdKT1bQ0hdW0NIMl1bQ0gyXTY=

>  <s_epik_cmdline>  (92) 
J2VwaWtfcHl0aG9uJywgJy1waHQnLCAnMi4wJywgJy1waCcsICc3LjAnLCAnLXRuJywgJzgnLCAnLW1hJywgJzIwMCcsICctaW1hZScsICc8aW5maWxlLm1hZT4nLCAnLW9tYWUnLCAnPG91dGZpbGUubWFlPic=

>  <r_lp_tautomer_probability>  (92) 
1

>  <r_epik_Ionization_Penalty>  (92) 
8.74441e-12

>  <r_epik_Ionization_Penalty_Charging>  (92) 
0

>  <r_epik_Ionization_Penalty_Neutral>  (92) 
8.74441e-12

>  <r_epik_State_Penalty>  (92) 
-0

>  <r_epik_Charging_Adjusted_Penalty>  (92) 
0

>  <i_epik_Tot_Q>  (92) 
0

>  <i_epik_Tot_abs_Q>  (92) 
0

>  <s_epik_Chemistry_Notes>  (92) 
This compound has an ester and may undergo hydrolysis at high or low pH.

>  <s_lp_Force_Field>  (92) 
OPLS3e

>  <r_lp_Energy>  (92) 
67.0577

>  <b_lp_Chiralities_Consistent>  (92) 
1

>  <s_lp_Variant>  (92) 
25:0-1

>  <s_i_glide_gridfile>  (92) 
pfpi4k_grid

>  <i_i_glide_lignum>  (92) 
43

>  <i_i_glide_rotatable_bonds>  (92) 
3

>  <r_i_docking_score>  (92) 
-2.84289

>  <r_i_glide_ligand_efficiency>  (92) 
-0.078969

>  <r_i_glide_ligand_efficiency_sa>  (92) 
-0.26075

>  <r_i_glide_ligand_efficiency_ln>  (92) 
-0.620241

>  <r_i_glide_gscore>  (92) 
-2.84289

>  <r_i_glide_lipo>  (92) 
-0.302381

>  <r_i_glide_hbond>  (92) 
-0.187699

>  <r_i_glide_metal>  (92) 
-0

>  <r_i_glide_rewards>  (92) 
-0.261894

>  <r_i_glide_evdw>  (92) 
-35.5899

>  <r_i_glide_ecoul>  (92) 
-3.18628

>  <r_i_glide_erotb>  (92) 
0.166525

>  <r_i_glide_esite>  (92) 
0

>  <r_i_glide_emodel>  (92) 
-38.9898

>  <r_i_glide_energy>  (92) 
-38.7762

>  <r_i_glide_einternal>  (92) 
6.68082

>  <r_i_glide_intrahb_reward>  (92) 
-0

>  <i_i_glide_confnum>  (92) 
6

>  <i_i_glide_posenum>  (92) 
1

>  <r_i_glide_eff_state_penalty>  (92) 
0

>  <ligand_id>  (92) 
25

>  <original_smiles>  (92) 
CC(=O)OCC1CC(C)C2C(CC3(C)C4CC=C5C6CCC=C(C)C6(C)CCC5(C)C4CCC23C)O1

>  <smiles>  (92) 
[H]C1=C(C([H])([H])[H])C2(C([H])([H])[H])C([H])([H])C([H])([H])C3(C([H])([H])[H])C(=C([H])C([H])([H])C4([H])C3([H])C([H])([H])C([H])([H])C3(C([H])([H])[H])C5([H])C([H])(OC([H])(C([H])([H])OC(=O)C([H])([H])[H])C([H])([H])C5([H])C([H])([H])[H])C([H])([H])C43C([H])([H])[H])C2([H])C([H])([H])C1([H])[H]

$$$$
25:0:1
     RDKit          3D

 86 91  0  0  1  0  0  0  0  0999 V2000
    3.1015   -2.8102   -2.3423 C   0  0  0  0  0  0  0  0  0  0  0  0
    4.2131   -1.8788   -2.8129 C   0  0  0  0  0  0  0  0  0  0  0  0
    4.2151   -1.4619   -3.9646 O   0  0  0  0  0  0  0  0  0  0  0  0
    5.1662   -1.5631   -1.8891 O   0  0  0  0  0  0  0  0  0  0  0  0
    5.1277   -2.0134   -0.5392 C   0  0  0  0  0  0  0  0  0  0  0  0
    4.2194   -1.1250    0.3327 C   0  0  2  0  0  0  0  0  0  0  0  0
    4.9903   -0.3273    1.3895 C   0  0  0  0  0  0  0  0  0  0  0  0
    5.0850   -1.0465    2.7484 C   0  0  1  0  0  0  0  0  0  0  0  0
    5.8025   -0.1287    3.7548 C   0  0  0  0  0  0  0  0  0  0  0  0
    3.6708   -1.4822    3.2359 C   0  0  1  0  0  0  0  0  0  0  0  0
    2.6297   -1.4920    2.1105 C   0  0  2  0  0  0  0  0  0  0  0  0
    1.5742   -2.5008    2.5559 C   0  0  0  0  0  0  0  0  0  0  0  0
    1.9406   -3.0724    3.9445 C   0  0  1  0  0  0  0  0  0  0  0  0
    1.1875   -2.1901    4.9790 C   0  0  0  0  0  0  0  0  0  0  0  0
    1.4420   -4.5693    4.0871 C   0  0  2  0  0  0  0  0  0  0  0  0
    1.3508   -5.0902    5.5445 C   0  0  0  0  0  0  0  0  0  0  0  0
    1.1329   -6.5862    5.6720 C   0  0  0  0  0  0  0  0  0  0  0  0
    1.2117   -7.4942    4.6763 C   0  0  0  0  0  0  0  0  0  0  0  0
    0.8614   -9.0014    4.8641 C   0  0  2  0  0  0  0  0  0  0  0  0
    0.6471   -9.4280    6.3340 C   0  0  0  0  0  0  0  0  0  0  0  0
    1.9603   -9.4360    7.1441 C   0  0  0  0  0  0  0  0  0  0  0  0
    3.1505   -9.9009    6.3303 C   0  0  0  0  0  0  0  0  0  0  0  0
    3.1311  -10.1722    5.0101 C   0  0  0  0  0  0  0  0  0  0  0  0
    4.3785  -10.7002    4.3199 C   0  0  0  0  0  0  0  0  0  0  0  0
    1.8523  -10.0007    4.1605 C   0  0  1  0  0  0  0  0  0  0  0  0
    1.2109  -11.4032    4.0296 C   0  0  0  0  0  0  0  0  0  0  0  0
    2.1193   -9.5212    2.7144 C   0  0  0  0  0  0  0  0  0  0  0  0
    2.5857   -8.0656    2.6400 C   0  0  0  0  0  0  0  0  0  0  0  0
    1.5905   -7.0452    3.2508 C   0  0  1  0  0  0  0  0  0  0  0  0
    0.2941   -7.0373    2.4012 C   0  0  0  0  0  0  0  0  0  0  0  0
    2.2096   -5.5901    3.2071 C   0  0  2  0  0  0  0  0  0  0  0  0
    3.7154   -5.4313    3.5157 C   0  0  0  0  0  0  0  0  0  0  0  0
    4.2031   -4.0127    3.1838 C   0  0  0  0  0  0  0  0  0  0  0  0
    3.5028   -2.8594    3.9668 C   0  0  1  0  0  0  0  0  0  0  0  0
    4.1211   -2.7772    5.3784 C   0  0  0  0  0  0  0  0  0  0  0  0
    3.2251   -1.9647    0.9052 O   0  0  0  0  0  0  0  0  0  0  0  0
    3.5139   -3.7205   -1.9086 H   0  0  0  0  0  0  0  0  0  0  0  0
    2.4416   -3.0904   -3.1747 H   0  0  0  0  0  0  0  0  0  0  0  0
    2.4855   -2.3131   -1.5966 H   0  0  0  0  0  0  0  0  0  0  0  0
    4.7965   -3.0530   -0.4885 H   0  0  0  0  0  0  0  0  0  0  0  0
    6.1489   -2.0068   -0.1416 H   0  0  0  0  0  0  0  0  0  0  0  0
    3.6963   -0.4040   -0.2962 H   0  0  0  0  0  0  0  0  0  0  0  0
    5.9802   -0.0739    1.0140 H   0  0  0  0  0  0  0  0  0  0  0  0
    4.4613    0.6107    1.5327 H   0  0  0  0  0  0  0  0  0  0  0  0
    5.7110   -1.9260    2.5928 H   0  0  0  0  0  0  0  0  0  0  0  0
    5.2563    0.8059    3.9075 H   0  0  0  0  0  0  0  0  0  0  0  0
    6.7934    0.1356    3.3923 H   0  0  0  0  0  0  0  0  0  0  0  0
    5.9240   -0.5942    4.7328 H   0  0  0  0  0  0  0  0  0  0  0  0
    3.3297   -0.7013    3.9195 H   0  0  0  0  0  0  0  0  0  0  0  0
    2.1843   -0.5090    1.9468 H   0  0  0  0  0  0  0  0  0  0  0  0
    0.5880   -2.0440    2.5494 H   0  0  0  0  0  0  0  0  0  0  0  0
    1.5490   -3.2889    1.8131 H   0  0  0  0  0  0  0  0  0  0  0  0
    1.4709   -2.4149    6.0045 H   0  0  0  0  0  0  0  0  0  0  0  0
    0.1101   -2.3424    4.9053 H   0  0  0  0  0  0  0  0  0  0  0  0
    1.3572   -1.1263    4.8233 H   0  0  0  0  0  0  0  0  0  0  0  0
    0.4115   -4.5606    3.7335 H   0  0  0  0  0  0  0  0  0  0  0  0
    2.2400   -4.8555    6.1197 H   0  0  0  0  0  0  0  0  0  0  0  0
    0.5151   -4.6076    6.0512 H   0  0  0  0  0  0  0  0  0  0  0  0
    0.8603   -6.8863    6.6710 H   0  0  0  0  0  0  0  0  0  0  0  0
   -0.1054   -9.1172    4.3747 H   0  0  0  0  0  0  0  0  0  0  0  0
   -0.1122   -8.8245    6.8313 H   0  0  0  0  0  0  0  0  0  0  0  0
    0.2294  -10.4335    6.3552 H   0  0  0  0  0  0  0  0  0  0  0  0
    2.1948   -8.4479    7.5360 H   0  0  0  0  0  0  0  0  0  0  0  0
    1.8511  -10.0933    8.0065 H   0  0  0  0  0  0  0  0  0  0  0  0
    4.0584  -10.0542    6.8951 H   0  0  0  0  0  0  0  0  0  0  0  0
    4.1667  -11.6251    3.7847 H   0  0  0  0  0  0  0  0  0  0  0  0
    5.1624  -10.9118    5.0460 H   0  0  0  0  0  0  0  0  0  0  0  0
    4.7750   -9.9725    3.6133 H   0  0  0  0  0  0  0  0  0  0  0  0
    0.2152  -11.3519    3.5878 H   0  0  0  0  0  0  0  0  0  0  0  0
    1.1194  -11.9125    4.9868 H   0  0  0  0  0  0  0  0  0  0  0  0
    1.8091  -12.0550    3.3924 H   0  0  0  0  0  0  0  0  0  0  0  0
    2.8536  -10.1614    2.2231 H   0  0  0  0  0  0  0  0  0  0  0  0
    1.2187   -9.6476    2.1142 H   0  0  0  0  0  0  0  0  0  0  0  0
    3.5359   -8.0324    3.1676 H   0  0  0  0  0  0  0  0  0  0  0  0
    2.7954   -7.8041    1.6011 H   0  0  0  0  0  0  0  0  0  0  0  0
    0.4883   -6.7390    1.3695 H   0  0  0  0  0  0  0  0  0  0  0  0
   -0.4459   -6.3563    2.8133 H   0  0  0  0  0  0  0  0  0  0  0  0
   -0.1958   -8.0081    2.3600 H   0  0  0  0  0  0  0  0  0  0  0  0
    2.1208   -5.2907    2.1638 H   0  0  0  0  0  0  0  0  0  0  0  0
    3.9383   -5.6903    4.5520 H   0  0  0  0  0  0  0  0  0  0  0  0
    4.3161   -6.0969    2.8971 H   0  0  0  0  0  0  0  0  0  0  0  0
    5.2760   -3.9741    3.3510 H   0  0  0  0  0  0  0  0  0  0  0  0
    4.0752   -3.8769    2.1106 H   0  0  0  0  0  0  0  0  0  0  0  0
    3.9864   -3.6899    5.9479 H   0  0  0  0  0  0  0  0  0  0  0  0
    3.7149   -1.9503    5.9595 H   0  0  0  0  0  0  0  0  0  0  0  0
    5.1950   -2.6199    5.3150 H   0  0  0  0  0  0  0  0  0  0  0  0
  1  2  1  0
  1 37  1  0
  1 38  1  0
  1 39  1  0
  2  3  2  0
  2  4  1  0
  4  5  1  0
  5  6  1  0
  5 40  1  0
  5 41  1  0
  6 36  1  0
  6  7  1  0
  6 42  1  6
  7  8  1  0
  7 43  1  0
  7 44  1  0
  8  9  1  0
  8 10  1  0
  8 45  1  6
  9 46  1  0
  9 47  1  0
  9 48  1  0
 10 34  1  0
 10 11  1  0
 10 49  1  1
 11 12  1  0
 11 36  1  0
 11 50  1  6
 12 13  1  0
 12 51  1  0
 12 52  1  0
 13 34  1  0
 13 14  1  1
 13 15  1  0
 14 53  1  0
 14 54  1  0
 14 55  1  0
 15 31  1  0
 15 16  1  0
 15 56  1  6
 16 17  1  0
 16 57  1  0
 16 58  1  0
 17 18  2  0
 17 59  1  0
 18 29  1  0
 18 19  1  0
 19 25  1  0
 19 20  1  0
 19 60  1  6
 20 21  1  0
 20 61  1  0
 20 62  1  0
 21 22  1  0
 21 63  1  0
 21 64  1  0
 22 23  2  0
 22 65  1  0
 23 24  1  0
 23 25  1  0
 24 66  1  0
 24 67  1  0
 24 68  1  0
 25 26  1  6
 25 27  1  0
 26 69  1  0
 26 70  1  0
 26 71  1  0
 27 28  1  0
 27 72  1  0
 27 73  1  0
 28 29  1  0
 28 74  1  0
 28 75  1  0
 29 30  1  6
 29 31  1  0
 30 76  1  0
 30 77  1  0
 30 78  1  0
 31 32  1  0
 31 79  1  6
 32 33  1  0
 32 80  1  0
 32 81  1  0
 33 34  1  0
 33 82  1  0
 33 83  1  0
 34 35  1  1
 35 84  1  0
 35 85  1  0
 35 86  1  0
M  END
>  <i_m_ct_stereo_status>  (93) 
1

>  <s_m_source_file>  (93) 
/var/tmp/pbs.5076255.sched01/tmpuj7nejrg/06cdl7mjn.sdf

>  <i_m_source_file_index>  (93) 
43

>  <i_lp_mmshare_version>  (93) 
48012

>  <i_f3d_flags>  (93) 
0

>  <s_epik_input>  (93) 
W0NIM11DKD1PKU9bQ0gyXVtDQEhdKFtDSDJdW0NASF0xW0NIM10pT1tDQEBIXShbQ0gyXTIpW0NASF0xW0NAXTMoW0NIM10pW0NIMl1bQ0gyXVtDQEhdKFtDQEBIXTRbQ0BdMjNbQ0gzXSlbQ0BdNShbQ0gzXSlDKD1bQ0hdW0NIMl00KVtDQEhdNltDQEBdKFtDSDNdKShbQ0gyXVtDSDJdNSlDKFtDSDNdKT1bQ0hdW0NIMl1bQ0gyXTY=

>  <s_epik_cmdline>  (93) 
J2VwaWtfcHl0aG9uJywgJy1waHQnLCAnMi4wJywgJy1waCcsICc3LjAnLCAnLXRuJywgJzgnLCAnLW1hJywgJzIwMCcsICctaW1hZScsICc8aW5maWxlLm1hZT4nLCAnLW9tYWUnLCAnPG91dGZpbGUubWFlPic=

>  <r_lp_tautomer_probability>  (93) 
1

>  <r_epik_Ionization_Penalty>  (93) 
8.74441e-12

>  <r_epik_Ionization_Penalty_Charging>  (93) 
0

>  <r_epik_Ionization_Penalty_Neutral>  (93) 
8.74441e-12

>  <r_epik_State_Penalty>  (93) 
-0

>  <r_epik_Charging_Adjusted_Penalty>  (93) 
0

>  <i_epik_Tot_Q>  (93) 
0

>  <i_epik_Tot_abs_Q>  (93) 
0

>  <s_epik_Chemistry_Notes>  (93) 
This compound has an ester and may undergo hydrolysis at high or low pH.

>  <s_lp_Force_Field>  (93) 
OPLS3e

>  <r_lp_Energy>  (93) 
67.0577

>  <b_lp_Chiralities_Consistent>  (93) 
1

>  <s_lp_Variant>  (93) 
25:0-1

>  <s_i_glide_gridfile>  (93) 
pfpi4k_grid

>  <i_i_glide_lignum>  (93) 
43

>  <i_i_glide_rotatable_bonds>  (93) 
3

>  <r_i_docking_score>  (93) 
-2.8076

>  <r_i_glide_ligand_efficiency>  (93) 
-0.0779889

>  <r_i_glide_ligand_efficiency_sa>  (93) 
-0.257514

>  <r_i_glide_ligand_efficiency_ln>  (93) 
-0.612543

>  <r_i_glide_gscore>  (93) 
-2.8076

>  <r_i_glide_lipo>  (93) 
-0.601537

>  <r_i_glide_hbond>  (93) 
-0.0459314

>  <r_i_glide_metal>  (93) 
-0

>  <r_i_glide_rewards>  (93) 
-0.0851046

>  <r_i_glide_evdw>  (93) 
-36.8847

>  <r_i_glide_ecoul>  (93) 
-2.64878

>  <r_i_glide_erotb>  (93) 
0.166525

>  <r_i_glide_esite>  (93) 
0

>  <r_i_glide_emodel>  (93) 
-42.7202

>  <r_i_glide_energy>  (93) 
-39.5335

>  <r_i_glide_einternal>  (93) 
7.18712

>  <r_i_glide_intrahb_reward>  (93) 
-0

>  <i_i_glide_confnum>  (93) 
4

>  <i_i_glide_posenum>  (93) 
7

>  <r_i_glide_eff_state_penalty>  (93) 
0

>  <ligand_id>  (93) 
25

>  <original_smiles>  (93) 
CC(=O)OCC1CC(C)C2C(CC3(C)C4CC=C5C6CCC=C(C)C6(C)CCC5(C)C4CCC23C)O1

>  <smiles>  (93) 
[H]C1=C(C([H])([H])[H])C2(C([H])([H])[H])C([H])([H])C([H])([H])C3(C([H])([H])[H])C(=C([H])C([H])([H])C4([H])C3([H])C([H])([H])C([H])([H])C3(C([H])([H])[H])C5([H])C([H])(OC([H])(C([H])([H])OC(=O)C([H])([H])[H])C([H])([H])C5([H])C([H])([H])[H])C([H])([H])C43C([H])([H])[H])C2([H])C([H])([H])C1([H])[H]

$$$$
25:0:2
     RDKit          3D

 86 91  0  0  1  0  0  0  0  0999 V2000
    3.3635   -1.0565   -3.1059 C   0  0  0  0  0  0  0  0  0  0  0  0
    4.1530   -2.3589   -3.2204 C   0  0  0  0  0  0  0  0  0  0  0  0
    4.1640   -2.9827   -4.2717 O   0  0  0  0  0  0  0  0  0  0  0  0
    4.8503   -2.7302   -2.1279 O   0  0  0  0  0  0  0  0  0  0  0  0
    4.7384   -2.0585   -0.8868 C   0  0  0  0  0  0  0  0  0  0  0  0
    5.1580   -2.9678    0.2765 C   0  0  2  0  0  0  0  0  0  0  0  0
    4.3210   -4.2638    0.3629 C   0  0  0  0  0  0  0  0  0  0  0  0
    3.0574   -4.1388    1.2410 C   0  0  1  0  0  0  0  0  0  0  0  0
    2.3742   -5.5207    1.3241 C   0  0  0  0  0  0  0  0  0  0  0  0
    3.4234   -3.5454    2.6381 C   0  0  1  0  0  0  0  0  0  0  0  0
    4.7903   -2.8374    2.6628 C   0  0  2  0  0  0  0  0  0  0  0  0
    4.7105   -1.8017    3.7939 C   0  0  0  0  0  0  0  0  0  0  0  0
    3.3230   -1.9276    4.4803 C   0  0  1  0  0  0  0  0  0  0  0  0
    3.5197   -2.9020    5.6782 C   0  0  0  0  0  0  0  0  0  0  0  0
    2.8463   -0.5250    5.0322 C   0  0  2  0  0  0  0  0  0  0  0  0
    1.7308   -0.5844    6.1068 C   0  0  0  0  0  0  0  0  0  0  0  0
    1.1004    0.7538    6.4398 C   0  0  0  0  0  0  0  0  0  0  0  0
    1.2735    1.9078    5.7623 C   0  0  0  0  0  0  0  0  0  0  0  0
    0.6895    3.2729    6.2350 C   0  0  2  0  0  0  0  0  0  0  0  0
   -0.3119    3.1700    7.4084 C   0  0  0  0  0  0  0  0  0  0  0  0
   -1.6515    2.5337    6.9886 C   0  0  0  0  0  0  0  0  0  0  0  0
   -2.0759    2.9321    5.5901 C   0  0  0  0  0  0  0  0  0  0  0  0
   -1.3381    3.6578    4.7265 C   0  0  0  0  0  0  0  0  0  0  0  0
   -1.9045    4.0316    3.3658 C   0  0  0  0  0  0  0  0  0  0  0  0
    0.0777    4.1586    5.0887 C   0  0  1  0  0  0  0  0  0  0  0  0
   -0.0651    5.6260    5.5572 C   0  0  0  0  0  0  0  0  0  0  0  0
    1.0562    4.1948    3.8930 C   0  0  0  0  0  0  0  0  0  0  0  0
    1.4753    2.8049    3.4135 C   0  0  0  0  0  0  0  0  0  0  0  0
    2.1606    1.9382    4.5019 C   0  0  1  0  0  0  0  0  0  0  0  0
    3.5102    2.5893    4.9011 C   0  0  0  0  0  0  0  0  0  0  0  0
    2.4684    0.4980    3.9300 C   0  0  2  0  0  0  0  0  0  0  0  0
    1.4121   -0.1634    3.0165 C   0  0  0  0  0  0  0  0  0  0  0  0
    1.9723   -1.4299    2.3555 C   0  0  0  0  0  0  0  0  0  0  0  0
    2.4327   -2.5514    3.3343 C   0  0  1  0  0  0  0  0  0  0  0  0
    1.1843   -3.3176    3.8275 C   0  0  0  0  0  0  0  0  0  0  0  0
    5.0229   -2.1537    1.4367 O   0  0  0  0  0  0  0  0  0  0  0  0
    2.6892   -1.0739   -2.2490 H   0  0  0  0  0  0  0  0  0  0  0  0
    2.7643   -0.8837   -4.0054 H   0  0  0  0  0  0  0  0  0  0  0  0
    4.0377   -0.2103   -2.9975 H   0  0  0  0  0  0  0  0  0  0  0  0
    5.3701   -1.1691   -0.9105 H   0  0  0  0  0  0  0  0  0  0  0  0
    3.7073   -1.7446   -0.7088 H   0  0  0  0  0  0  0  0  0  0  0  0
    6.2149   -3.2345    0.1681 H   0  0  0  0  0  0  0  0  0  0  0  0
    4.0383   -4.6076   -0.6315 H   0  0  0  0  0  0  0  0  0  0  0  0
    4.9512   -5.0508    0.7731 H   0  0  0  0  0  0  0  0  0  0  0  0
    2.3748   -3.4654    0.7199 H   0  0  0  0  0  0  0  0  0  0  0  0
    3.0322   -6.2676    1.7736 H   0  0  0  0  0  0  0  0  0  0  0  0
    2.1181   -5.8861    0.3293 H   0  0  0  0  0  0  0  0  0  0  0  0
    1.4566   -5.5083    1.9126 H   0  0  0  0  0  0  0  0  0  0  0  0
    3.5450   -4.4056    3.3005 H   0  0  0  0  0  0  0  0  0  0  0  0
    5.6043   -3.5423    2.8306 H   0  0  0  0  0  0  0  0  0  0  0  0
    5.5241   -1.9433    4.5053 H   0  0  0  0  0  0  0  0  0  0  0  0
    4.8705   -0.8112    3.3711 H   0  0  0  0  0  0  0  0  0  0  0  0
    2.5841   -3.1590    6.1687 H   0  0  0  0  0  0  0  0  0  0  0  0
    4.1616   -2.4562    6.4385 H   0  0  0  0  0  0  0  0  0  0  0  0
    3.9940   -3.8377    5.3874 H   0  0  0  0  0  0  0  0  0  0  0  0
    3.7142   -0.1219    5.5543 H   0  0  0  0  0  0  0  0  0  0  0  0
    0.9213   -1.2478    5.8236 H   0  0  0  0  0  0  0  0  0  0  0  0
    2.1461   -0.9747    7.0356 H   0  0  0  0  0  0  0  0  0  0  0  0
    0.5021    0.7254    7.3354 H   0  0  0  0  0  0  0  0  0  0  0  0
    1.5550    3.8117    6.6211 H   0  0  0  0  0  0  0  0  0  0  0  0
    0.1155    2.6476    8.2643 H   0  0  0  0  0  0  0  0  0  0  0  0
   -0.5173    4.1676    7.7907 H   0  0  0  0  0  0  0  0  0  0  0  0
   -1.5935    1.4468    7.0150 H   0  0  0  0  0  0  0  0  0  0  0  0
   -2.4311    2.8233    7.6924 H   0  0  0  0  0  0  0  0  0  0  0  0
   -3.0606    2.6034    5.2995 H   0  0  0  0  0  0  0  0  0  0  0  0
   -1.8343    5.1025    3.1917 H   0  0  0  0  0  0  0  0  0  0  0  0
   -2.9523    3.7440    3.2871 H   0  0  0  0  0  0  0  0  0  0  0  0
   -1.3705    3.5291    2.5613 H   0  0  0  0  0  0  0  0  0  0  0  0
    0.8586    6.0083    5.9912 H   0  0  0  0  0  0  0  0  0  0  0  0
   -0.8511    5.7514    6.2979 H   0  0  0  0  0  0  0  0  0  0  0  0
   -0.3114    6.2783    4.7195 H   0  0  0  0  0  0  0  0  0  0  0  0
    0.6272    4.7464    3.0556 H   0  0  0  0  0  0  0  0  0  0  0  0
    1.9420    4.7690    4.1602 H   0  0  0  0  0  0  0  0  0  0  0  0
    0.5653    2.3266    3.0586 H   0  0  0  0  0  0  0  0  0  0  0  0
    2.1305    2.9026    2.5461 H   0  0  0  0  0  0  0  0  0  0  0  0
    4.1938    2.6497    4.0568 H   0  0  0  0  0  0  0  0  0  0  0  0
    4.0223    2.0289    5.6802 H   0  0  0  0  0  0  0  0  0  0  0  0
    3.4013    3.6002    5.2858 H   0  0  0  0  0  0  0  0  0  0  0  0
    3.3287    0.6453    3.2778 H   0  0  0  0  0  0  0  0  0  0  0  0
    0.4922   -0.3785    3.5628 H   0  0  0  0  0  0  0  0  0  0  0  0
    1.1342    0.4938    2.1932 H   0  0  0  0  0  0  0  0  0  0  0  0
    1.2164   -1.8165    1.6790 H   0  0  0  0  0  0  0  0  0  0  0  0
    2.7992   -1.1209    1.7172 H   0  0  0  0  0  0  0  0  0  0  0  0
    0.4822   -2.6842    4.3571 H   0  0  0  0  0  0  0  0  0  0  0  0
    1.4354   -4.1608    4.4701 H   0  0  0  0  0  0  0  0  0  0  0  0
    0.6328   -3.7248    2.9857 H   0  0  0  0  0  0  0  0  0  0  0  0
  1  2  1  0
  1 37  1  0
  1 38  1  0
  1 39  1  0
  2  3  2  0
  2  4  1  0
  4  5  1  0
  5  6  1  0
  5 40  1  0
  5 41  1  0
  6 36  1  0
  6  7  1  0
  6 42  1  6
  7  8  1  0
  7 43  1  0
  7 44  1  0
  8  9  1  0
  8 10  1  0
  8 45  1  6
  9 46  1  0
  9 47  1  0
  9 48  1  0
 10 34  1  0
 10 11  1  0
 10 49  1  1
 11 12  1  0
 11 36  1  0
 11 50  1  1
 12 13  1  0
 12 51  1  0
 12 52  1  0
 13 34  1  0
 13 14  1  1
 13 15  1  0
 14 53  1  0
 14 54  1  0
 14 55  1  0
 15 31  1  0
 15 16  1  0
 15 56  1  1
 16 17  1  0
 16 57  1  0
 16 58  1  0
 17 18  2  0
 17 59  1  0
 18 29  1  0
 18 19  1  0
 19 25  1  0
 19 20  1  0
 19 60  1  1
 20 21  1  0
 20 61  1  0
 20 62  1  0
 21 22  1  0
 21 63  1  0
 21 64  1  0
 22 23  2  0
 22 65  1  0
 23 24  1  0
 23 25  1  0
 24 66  1  0
 24 67  1  0
 24 68  1  0
 25 26  1  1
 25 27  1  0
 26 69  1  0
 26 70  1  0
 26 71  1  0
 27 28  1  0
 27 72  1  0
 27 73  1  0
 28 29  1  0
 28 74  1  0
 28 75  1  0
 29 30  1  1
 29 31  1  0
 30 76  1  0
 30 77  1  0
 30 78  1  0
 31 32  1  0
 31 79  1  6
 32 33  1  0
 32 80  1  0
 32 81  1  0
 33 34  1  0
 33 82  1  0
 33 83  1  0
 34 35  1  1
 35 84  1  0
 35 85  1  0
 35 86  1  0
M  END
>  <i_m_ct_stereo_status>  (94) 
1

>  <s_m_source_file>  (94) 
/var/tmp/pbs.5076255.sched01/tmpuj7nejrg/06cdl7mjn.sdf

>  <i_m_source_file_index>  (94) 
43

>  <i_lp_mmshare_version>  (94) 
48012

>  <i_f3d_flags>  (94) 
0

>  <s_epik_input>  (94) 
W0NIM11DKD1PKU9bQ0gyXVtDQEhdKFtDSDJdW0NASF0xW0NIM10pT1tDQEBIXShbQ0gyXTIpW0NASF0xW0NAXTMoW0NIM10pW0NIMl1bQ0gyXVtDQEhdKFtDQEBIXTRbQ0BdMjNbQ0gzXSlbQ0BdNShbQ0gzXSlDKD1bQ0hdW0NIMl00KVtDQEhdNltDQEBdKFtDSDNdKShbQ0gyXVtDSDJdNSlDKFtDSDNdKT1bQ0hdW0NIMl1bQ0gyXTY=

>  <s_epik_cmdline>  (94) 
J2VwaWtfcHl0aG9uJywgJy1waHQnLCAnMi4wJywgJy1waCcsICc3LjAnLCAnLXRuJywgJzgnLCAnLW1hJywgJzIwMCcsICctaW1hZScsICc8aW5maWxlLm1hZT4nLCAnLW9tYWUnLCAnPG91dGZpbGUubWFlPic=

>  <r_lp_tautomer_probability>  (94) 
1

>  <r_epik_Ionization_Penalty>  (94) 
8.74441e-12

>  <r_epik_Ionization_Penalty_Charging>  (94) 
0

>  <r_epik_Ionization_Penalty_Neutral>  (94) 
8.74441e-12

>  <r_epik_State_Penalty>  (94) 
-0

>  <r_epik_Charging_Adjusted_Penalty>  (94) 
0

>  <i_epik_Tot_Q>  (94) 
0

>  <i_epik_Tot_abs_Q>  (94) 
0

>  <s_epik_Chemistry_Notes>  (94) 
This compound has an ester and may undergo hydrolysis at high or low pH.

>  <s_lp_Force_Field>  (94) 
OPLS3e

>  <r_lp_Energy>  (94) 
67.0577

>  <b_lp_Chiralities_Consistent>  (94) 
1

>  <s_lp_Variant>  (94) 
25:0-1

>  <s_i_glide_gridfile>  (94) 
pfpi4k_grid

>  <i_i_glide_lignum>  (94) 
43

>  <i_i_glide_rotatable_bonds>  (94) 
3

>  <r_i_docking_score>  (94) 
-2.76945

>  <r_i_glide_ligand_efficiency>  (94) 
-0.0769293

>  <r_i_glide_ligand_efficiency_sa>  (94) 
-0.254015

>  <r_i_glide_ligand_efficiency_ln>  (94) 
-0.60422

>  <r_i_glide_gscore>  (94) 
-2.76945

>  <r_i_glide_lipo>  (94) 
-0.257792

>  <r_i_glide_hbond>  (94) 
-0.241309

>  <r_i_glide_metal>  (94) 
-0

>  <r_i_glide_rewards>  (94) 
-0.264638

>  <r_i_glide_evdw>  (94) 
-36.2659

>  <r_i_glide_ecoul>  (94) 
-2.39298

>  <r_i_glide_erotb>  (94) 
0.166525

>  <r_i_glide_esite>  (94) 
0

>  <r_i_glide_emodel>  (94) 
-41.6678

>  <r_i_glide_energy>  (94) 
-38.6588

>  <r_i_glide_einternal>  (94) 
7.1413

>  <r_i_glide_intrahb_reward>  (94) 
-0

>  <i_i_glide_confnum>  (94) 
6

>  <i_i_glide_posenum>  (94) 
25

>  <r_i_glide_eff_state_penalty>  (94) 
0

>  <ligand_id>  (94) 
25

>  <original_smiles>  (94) 
CC(=O)OCC1CC(C)C2C(CC3(C)C4CC=C5C6CCC=C(C)C6(C)CCC5(C)C4CCC23C)O1

>  <smiles>  (94) 
[H]C1=C(C([H])([H])[H])C2(C([H])([H])[H])C([H])([H])C([H])([H])C3(C([H])([H])[H])C(=C([H])C([H])([H])C4([H])C3([H])C([H])([H])C([H])([H])C3(C([H])([H])[H])C5([H])C([H])(OC([H])(C([H])([H])OC(=O)C([H])([H])[H])C([H])([H])C5([H])C([H])([H])[H])C([H])([H])C43C([H])([H])[H])C2([H])C([H])([H])C1([H])[H]

$$$$
26:0:0
     RDKit          3D

 35 39  0  0  1  0  0  0  0  0999 V2000
    1.1929   -5.8446    0.1723 O   0  0  0  0  0  0  0  0  0  0  0  0
    2.2740   -5.8414    0.7687 C   0  0  0  0  0  0  0  0  0  0  0  0
    2.7607   -7.0331    1.5638 C   0  0  0  0  0  0  0  0  0  0  0  0
    4.1686   -7.2143    1.6729 C   0  0  0  0  0  0  0  0  0  0  0  0
    4.6912   -8.3597    2.3267 C   0  0  0  0  0  0  0  0  0  0  0  0
    3.8180   -9.3132    2.8635 C   0  0  0  0  0  0  0  0  0  0  0  0
    2.4241   -9.1430    2.7705 C   0  0  0  0  0  0  0  0  0  0  0  0
    1.5824  -10.1148    3.3516 C   0  0  0  0  0  0  0  0  0  0  0  0
    0.1902   -9.9365    3.2704 C   0  0  0  0  0  0  0  0  0  0  0  0
   -0.2966   -8.7909    2.6214 C   0  0  0  0  0  0  0  0  0  0  0  0
    0.5089   -7.8482    2.0838 N   0  0  0  0  0  0  0  0  0  0  0  0
    1.8623   -8.0001    2.1193 C   0  0  0  0  0  0  0  0  0  0  0  0
    5.0192   -6.1961    1.1703 N   0  0  0  0  0  0  0  0  0  0  0  0
    6.3801   -6.2757    1.0848 C   0  0  0  0  0  0  0  0  0  0  0  0
    7.0174   -5.1630    0.6419 N   0  0  0  0  0  0  0  0  0  0  0  0
    5.8924   -4.3703    0.4447 C   0  0  0  0  0  0  0  0  0  0  0  0
    4.6665   -4.9928    0.7312 C   0  0  0  0  0  0  0  0  0  0  0  0
    3.1934   -4.5857    0.6959 C   0  0  1  0  0  0  0  0  0  0  0  0
    2.8477   -3.8442   -0.4678 O   0  0  0  0  0  0  0  0  0  0  0  0
    3.3772   -2.5307   -0.5185 C   0  0  0  0  0  0  0  0  0  0  0  0
    4.8301   -2.4888   -0.9944 C   0  0  0  0  0  0  0  0  0  0  0  0
    5.8420   -2.9123    0.0747 C   0  0  0  0  0  0  0  0  0  0  0  0
    5.7527   -8.5111    2.4479 H   0  0  0  0  0  0  0  0  0  0  0  0
    4.2142  -10.1777    3.3828 H   0  0  0  0  0  0  0  0  0  0  0  0
    1.9781  -10.9835    3.8692 H   0  0  0  0  0  0  0  0  0  0  0  0
   -0.4978  -10.6556    3.6963 H   0  0  0  0  0  0  0  0  0  0  0  0
   -1.3649   -8.6266    2.5332 H   0  0  0  0  0  0  0  0  0  0  0  0
    6.9271   -7.1732    1.3392 H   0  0  0  0  0  0  0  0  0  0  0  0
    2.9663   -3.9849    1.5771 H   0  0  0  0  0  0  0  0  0  0  0  0
    2.7794   -1.9713   -1.2357 H   0  0  0  0  0  0  0  0  0  0  0  0
    3.2653   -2.0291    0.4437 H   0  0  0  0  0  0  0  0  0  0  0  0
    4.9703   -3.0370   -1.9248 H   0  0  0  0  0  0  0  0  0  0  0  0
    5.0491   -1.4497   -1.2377 H   0  0  0  0  0  0  0  0  0  0  0  0
    5.7644   -2.2797    0.9632 H   0  0  0  0  0  0  0  0  0  0  0  0
    6.8112   -2.6674   -0.3453 H   0  0  0  0  0  0  0  0  0  0  0  0
  1  2  2  0
  2 18  1  0
  2  3  1  0
  3 12  2  0
  3  4  1  0
  4  5  2  0
  4 13  1  0
  5  6  1  0
  5 23  1  0
  6  7  2  0
  6 24  1  0
  7 12  1  0
  7  8  1  0
  8  9  2  0
  8 25  1  0
  9 10  1  0
  9 26  1  0
 10 11  2  0
 10 27  1  0
 11 12  1  0
 13 17  1  0
 13 14  1  0
 14 15  2  0
 14 28  1  0
 15 16  1  0
 16 22  1  0
 16 17  2  0
 17 18  1  0
 18 19  1  0
 18 29  1  1
 19 20  1  0
 20 21  1  0
 20 30  1  0
 20 31  1  0
 21 22  1  0
 21 32  1  0
 21 33  1  0
 22 34  1  0
 22 35  1  0
M  END
>  <i_m_ct_stereo_status>  (95) 
1

>  <s_m_source_file>  (95) 
/var/tmp/pbs.5076255.sched01/tmpuj7nejrg/06cdl7mjn.sdf

>  <i_m_source_file_index>  (95) 
44

>  <i_lp_mmshare_version>  (95) 
48012

>  <i_f3d_flags>  (95) 
0

>  <s_epik_input>  (95) 
Tz1DMVtDQEBIXTJPW0NIMl1bQ0gyXVtDSDJdYyhuW2NIXTMpYzJuM2MoYzE0KVtjSF1bY0hdYzVjNG5bY0hdW2NIXVtjSF01

>  <s_epik_cmdline>  (95) 
J2VwaWtfcHl0aG9uJywgJy1waHQnLCAnMi4wJywgJy1waCcsICc3LjAnLCAnLXRuJywgJzgnLCAnLW1hJywgJzIwMCcsICctaW1hZScsICc8aW5maWxlLm1hZT4nLCAnLW9tYWUnLCAnPG91dGZpbGUubWFlPic=

>  <r_lp_tautomer_probability>  (95) 
1

>  <r_epik_Ionization_Penalty>  (95) 
0.0189474

>  <r_epik_Ionization_Penalty_Charging>  (95) 
0.0189467

>  <r_epik_Ionization_Penalty_Neutral>  (95) 
6.72984e-07

>  <r_epik_State_Penalty>  (95) 
0.015105

>  <r_epik_Charging_Adjusted_Penalty>  (95) 
0.0340517

>  <i_epik_Tot_Q>  (95) 
0

>  <i_epik_Tot_abs_Q>  (95) 
0

>  <s_lp_Force_Field>  (95) 
OPLS3e

>  <r_lp_Energy>  (95) 
45.6381

>  <b_lp_Chiralities_Consistent>  (95) 
1

>  <s_lp_Variant>  (95) 
26:0-1

>  <s_i_glide_gridfile>  (95) 
pfpi4k_grid

>  <i_i_glide_lignum>  (95) 
44

>  <i_i_glide_rotatable_bonds>  (95) 
0

>  <r_i_docking_score>  (95) 
-4.16092

>  <r_i_glide_ligand_efficiency>  (95) 
-0.189133

>  <r_i_glide_ligand_efficiency_sa>  (95) 
-0.529958

>  <r_i_glide_ligand_efficiency_ln>  (95) 
-1.01708

>  <r_i_glide_gscore>  (95) 
-4.16092

>  <r_i_glide_lipo>  (95) 
-0.322036

>  <r_i_glide_hbond>  (95) 
-0.264978

>  <r_i_glide_metal>  (95) 
-0

>  <r_i_glide_rewards>  (95) 
-1.64519

>  <r_i_glide_evdw>  (95) 
-25.2547

>  <r_i_glide_ecoul>  (95) 
-4.18492

>  <r_i_glide_erotb>  (95) 
0

>  <r_i_glide_esite>  (95) 
-0.0382478

>  <r_i_glide_emodel>  (95) 
-37.6785

>  <r_i_glide_energy>  (95) 
-29.4396

>  <r_i_glide_einternal>  (95) 
0

>  <r_i_glide_intrahb_reward>  (95) 
-0

>  <i_i_glide_confnum>  (95) 
1

>  <i_i_glide_posenum>  (95) 
1

>  <r_i_glide_eff_state_penalty>  (95) 
0

>  <ligand_id>  (95) 
26

>  <original_smiles>  (95) 
O=C1c2c(ccc3cccnc23)-n2cnc3c2C1OCCC3

>  <smiles>  (95) 
[H]c1nc2c3c(c([H])c([H])c2c([H])c1[H])-n1c([H])nc2c1C([H])(OC([H])([H])C([H])([H])C2([H])[H])C3=O

$$$$
26:0:1
     RDKit          3D

 35 39  0  0  1  0  0  0  0  0999 V2000
    1.5098   -5.5216    0.1767 O   0  0  0  0  0  0  0  0  0  0  0  0
    2.4613   -5.8602    0.8820 C   0  0  0  0  0  0  0  0  0  0  0  0
    2.4970   -7.1550    1.6698 C   0  0  0  0  0  0  0  0  0  0  0  0
    3.7767   -7.7205    1.9326 C   0  0  0  0  0  0  0  0  0  0  0  0
    3.8816   -8.9758    2.5909 C   0  0  0  0  0  0  0  0  0  0  0  0
    2.7225   -9.6555    2.9830 C   0  0  0  0  0  0  0  0  0  0  0  0
    1.4528   -9.1020    2.7295 C   0  0  0  0  0  0  0  0  0  0  0  0
    0.3117   -9.8174    3.1656 C   0  0  0  0  0  0  0  0  0  0  0  0
   -0.9575   -9.2650    2.9239 C   0  0  0  0  0  0  0  0  0  0  0  0
   -1.0282   -8.0272    2.2759 C   0  0  0  0  0  0  0  0  0  0  0  0
    0.0597   -7.3294    1.8755 N   0  0  0  0  0  0  0  0  0  0  0  0
    1.3062   -7.8478    2.0686 C   0  0  0  0  0  0  0  0  0  0  0  0
    4.9243   -6.9764    1.5805 N   0  0  0  0  0  0  0  0  0  0  0  0
    6.2145   -7.4295    1.6446 C   0  0  0  0  0  0  0  0  0  0  0  0
    7.1804   -6.5365    1.3185 N   0  0  0  0  0  0  0  0  0  0  0  0
    6.3509   -5.4543    1.0366 C   0  0  0  0  0  0  0  0  0  0  0  0
    4.9767   -5.7097    1.1600 C   0  0  0  0  0  0  0  0  0  0  0  0
    3.6900   -4.9111    0.9729 C   0  0  1  0  0  0  0  0  0  0  0  0
    3.7126   -4.0932   -0.1922 O   0  0  0  0  0  0  0  0  0  0  0  0
    4.5652   -2.9660   -0.1169 C   0  0  0  0  0  0  0  0  0  0  0  0
    6.0226   -3.3210   -0.4191 C   0  0  0  0  0  0  0  0  0  0  0  0
    6.7440   -4.0288    0.7350 C   0  0  0  0  0  0  0  0  0  0  0  0
    4.8381   -9.4174    2.8243 H   0  0  0  0  0  0  0  0  0  0  0  0
    2.8084  -10.6021    3.5011 H   0  0  0  0  0  0  0  0  0  0  0  0
    0.3870  -10.7614    3.6935 H   0  0  0  0  0  0  0  0  0  0  0  0
   -1.8510   -9.7775    3.2645 H   0  0  0  0  0  0  0  0  0  0  0  0
   -1.9900   -7.5683    2.0845 H   0  0  0  0  0  0  0  0  0  0  0  0
    6.4713   -8.4444    1.9201 H   0  0  0  0  0  0  0  0  0  0  0  0
    3.5243   -4.2847    1.8484 H   0  0  0  0  0  0  0  0  0  0  0  0
    4.2243   -2.2520   -0.8655 H   0  0  0  0  0  0  0  0  0  0  0  0
    4.4766   -2.4764    0.8517 H   0  0  0  0  0  0  0  0  0  0  0  0
    6.1230   -3.8768   -1.3497 H   0  0  0  0  0  0  0  0  0  0  0  0
    6.5529   -2.3842   -0.5865 H   0  0  0  0  0  0  0  0  0  0  0  0
    6.7383   -3.4109    1.6371 H   0  0  0  0  0  0  0  0  0  0  0  0
    7.7879   -4.0548    0.4446 H   0  0  0  0  0  0  0  0  0  0  0  0
  1  2  2  0
  2 18  1  0
  2  3  1  0
  3 12  2  0
  3  4  1  0
  4  5  2  0
  4 13  1  0
  5  6  1  0
  5 23  1  0
  6  7  2  0
  6 24  1  0
  7 12  1  0
  7  8  1  0
  8  9  2  0
  8 25  1  0
  9 10  1  0
  9 26  1  0
 10 11  2  0
 10 27  1  0
 11 12  1  0
 13 17  1  0
 13 14  1  0
 14 15  2  0
 14 28  1  0
 15 16  1  0
 16 22  1  0
 16 17  2  0
 17 18  1  0
 18 19  1  0
 18 29  1  1
 19 20  1  0
 20 21  1  0
 20 30  1  0
 20 31  1  0
 21 22  1  0
 21 32  1  0
 21 33  1  0
 22 34  1  0
 22 35  1  0
M  END
>  <i_m_ct_stereo_status>  (96) 
1

>  <s_m_source_file>  (96) 
/var/tmp/pbs.5076255.sched01/tmpuj7nejrg/06cdl7mjn.sdf

>  <i_m_source_file_index>  (96) 
44

>  <i_lp_mmshare_version>  (96) 
48012

>  <i_f3d_flags>  (96) 
0

>  <s_epik_input>  (96) 
Tz1DMVtDQEBIXTJPW0NIMl1bQ0gyXVtDSDJdYyhuW2NIXTMpYzJuM2MoYzE0KVtjSF1bY0hdYzVjNG5bY0hdW2NIXVtjSF01

>  <s_epik_cmdline>  (96) 
J2VwaWtfcHl0aG9uJywgJy1waHQnLCAnMi4wJywgJy1waCcsICc3LjAnLCAnLXRuJywgJzgnLCAnLW1hJywgJzIwMCcsICctaW1hZScsICc8aW5maWxlLm1hZT4nLCAnLW9tYWUnLCAnPG91dGZpbGUubWFlPic=

>  <r_lp_tautomer_probability>  (96) 
1

>  <r_epik_Ionization_Penalty>  (96) 
0.0189474

>  <r_epik_Ionization_Penalty_Charging>  (96) 
0.0189467

>  <r_epik_Ionization_Penalty_Neutral>  (96) 
6.72984e-07

>  <r_epik_State_Penalty>  (96) 
0.015105

>  <r_epik_Charging_Adjusted_Penalty>  (96) 
0.0340517

>  <i_epik_Tot_Q>  (96) 
0

>  <i_epik_Tot_abs_Q>  (96) 
0

>  <s_lp_Force_Field>  (96) 
OPLS3e

>  <r_lp_Energy>  (96) 
45.6381

>  <b_lp_Chiralities_Consistent>  (96) 
1

>  <s_lp_Variant>  (96) 
26:0-1

>  <s_i_glide_gridfile>  (96) 
pfpi4k_grid

>  <i_i_glide_lignum>  (96) 
44

>  <i_i_glide_rotatable_bonds>  (96) 
0

>  <r_i_docking_score>  (96) 
-3.92652

>  <r_i_glide_ligand_efficiency>  (96) 
-0.178478

>  <r_i_glide_ligand_efficiency_sa>  (96) 
-0.500103

>  <r_i_glide_ligand_efficiency_ln>  (96) 
-0.959785

>  <r_i_glide_gscore>  (96) 
-3.92652

>  <r_i_glide_lipo>  (96) 
-0.395308

>  <r_i_glide_hbond>  (96) 
-0.119578

>  <r_i_glide_metal>  (96) 
-0

>  <r_i_glide_rewards>  (96) 
-1.63825

>  <r_i_glide_evdw>  (96) 
-26.8208

>  <r_i_glide_ecoul>  (96) 
-2.68732

>  <r_i_glide_erotb>  (96) 
0

>  <r_i_glide_esite>  (96) 
-0.0292453

>  <r_i_glide_emodel>  (96) 
-37.2653

>  <r_i_glide_energy>  (96) 
-29.5081

>  <r_i_glide_einternal>  (96) 
0

>  <r_i_glide_intrahb_reward>  (96) 
-0

>  <i_i_glide_confnum>  (96) 
2

>  <i_i_glide_posenum>  (96) 
40

>  <r_i_glide_eff_state_penalty>  (96) 
0

>  <ligand_id>  (96) 
26

>  <original_smiles>  (96) 
O=C1c2c(ccc3cccnc23)-n2cnc3c2C1OCCC3

>  <smiles>  (96) 
[H]c1nc2c3c(c([H])c([H])c2c([H])c1[H])-n1c([H])nc2c1C([H])(OC([H])([H])C([H])([H])C2([H])[H])C3=O

$$$$
26:0:2
     RDKit          3D

 35 39  0  0  1  0  0  0  0  0999 V2000
    1.8956   -5.4390    0.7139 O   0  0  0  0  0  0  0  0  0  0  0  0
    2.7835   -6.0747    1.2821 C   0  0  0  0  0  0  0  0  0  0  0  0
    2.5811   -7.4795    1.8073 C   0  0  0  0  0  0  0  0  0  0  0  0
    3.7318   -8.3160    1.9018 C   0  0  0  0  0  0  0  0  0  0  0  0
    3.6003   -9.6632    2.3213 C   0  0  0  0  0  0  0  0  0  0  0  0
    2.3396  -10.1713    2.6516 C   0  0  0  0  0  0  0  0  0  0  0  0
    1.1983   -9.3513    2.5696 C   0  0  0  0  0  0  0  0  0  0  0  0
   -0.0507   -9.8992    2.9324 C   0  0  0  0  0  0  0  0  0  0  0  0
   -1.1969   -9.0884    2.8773 C   0  0  0  0  0  0  0  0  0  0  0  0
   -1.0363   -7.7607    2.4647 C   0  0  0  0  0  0  0  0  0  0  0  0
    0.1539   -7.2299    2.1058 N   0  0  0  0  0  0  0  0  0  0  0  0
    1.2864   -7.9932    2.1405 C   0  0  0  0  0  0  0  0  0  0  0  0
    4.9966   -7.7492    1.6283 N   0  0  0  0  0  0  0  0  0  0  0  0
    6.1722   -8.4440    1.5344 C   0  0  0  0  0  0  0  0  0  0  0  0
    7.2871   -7.6978    1.3359 N   0  0  0  0  0  0  0  0  0  0  0  0
    6.6816   -6.4467    1.3009 C   0  0  0  0  0  0  0  0  0  0  0  0
    5.2863   -6.4604    1.4477 C   0  0  0  0  0  0  0  0  0  0  0  0
    4.1785   -5.4108    1.4830 C   0  0  1  0  0  0  0  0  0  0  0  0
    4.3435   -4.4005    0.4945 O   0  0  0  0  0  0  0  0  0  0  0  0
    5.3962   -3.4856    0.7409 C   0  0  0  0  0  0  0  0  0  0  0  0
    6.7516   -4.0381    0.3026 C   0  0  0  0  0  0  0  0  0  0  0  0
    7.3484   -5.0964    1.2428 C   0  0  0  0  0  0  0  0  0  0  0  0
    4.4510  -10.3239    2.3986 H   0  0  0  0  0  0  0  0  0  0  0  0
    2.2494  -11.2019    2.9729 H   0  0  0  0  0  0  0  0  0  0  0  0
   -0.1451  -10.9242    3.2703 H   0  0  0  0  0  0  0  0  0  0  0  0
   -2.1652   -9.4773    3.1678 H   0  0  0  0  0  0  0  0  0  0  0  0
   -1.8926   -7.0996    2.4282 H   0  0  0  0  0  0  0  0  0  0  0  0
    6.2240   -9.5232    1.6042 H   0  0  0  0  0  0  0  0  0  0  0  0
    4.1554   -4.9445    2.4677 H   0  0  0  0  0  0  0  0  0  0  0  0
    5.1936   -2.5926    0.1500 H   0  0  0  0  0  0  0  0  0  0  0  0
    5.4252   -3.1830    1.7858 H   0  0  0  0  0  0  0  0  0  0  0  0
    6.6984   -4.3923   -0.7212 H   0  0  0  0  0  0  0  0  0  0  0  0
    7.4575   -3.2066    0.2738 H   0  0  0  0  0  0  0  0  0  0  0  0
    7.4792   -4.6810    2.2418 H   0  0  0  0  0  0  0  0  0  0  0  0
    8.3613   -5.2618    0.8883 H   0  0  0  0  0  0  0  0  0  0  0  0
  1  2  2  0
  2 18  1  0
  2  3  1  0
  3 12  2  0
  3  4  1  0
  4  5  2  0
  4 13  1  0
  5  6  1  0
  5 23  1  0
  6  7  2  0
  6 24  1  0
  7 12  1  0
  7  8  1  0
  8  9  2  0
  8 25  1  0
  9 10  1  0
  9 26  1  0
 10 11  2  0
 10 27  1  0
 11 12  1  0
 13 17  1  0
 13 14  1  0
 14 15  2  0
 14 28  1  0
 15 16  1  0
 16 22  1  0
 16 17  2  0
 17 18  1  0
 18 19  1  0
 18 29  1  1
 19 20  1  0
 20 21  1  0
 20 30  1  0
 20 31  1  0
 21 22  1  0
 21 32  1  0
 21 33  1  0
 22 34  1  0
 22 35  1  0
M  END
>  <i_m_ct_stereo_status>  (97) 
1

>  <s_m_source_file>  (97) 
/var/tmp/pbs.5076255.sched01/tmpuj7nejrg/06cdl7mjn.sdf

>  <i_m_source_file_index>  (97) 
44

>  <i_lp_mmshare_version>  (97) 
48012

>  <i_f3d_flags>  (97) 
0

>  <s_epik_input>  (97) 
Tz1DMVtDQEBIXTJPW0NIMl1bQ0gyXVtDSDJdYyhuW2NIXTMpYzJuM2MoYzE0KVtjSF1bY0hdYzVjNG5bY0hdW2NIXVtjSF01

>  <s_epik_cmdline>  (97) 
J2VwaWtfcHl0aG9uJywgJy1waHQnLCAnMi4wJywgJy1waCcsICc3LjAnLCAnLXRuJywgJzgnLCAnLW1hJywgJzIwMCcsICctaW1hZScsICc8aW5maWxlLm1hZT4nLCAnLW9tYWUnLCAnPG91dGZpbGUubWFlPic=

>  <r_lp_tautomer_probability>  (97) 
1

>  <r_epik_Ionization_Penalty>  (97) 
0.0189474

>  <r_epik_Ionization_Penalty_Charging>  (97) 
0.0189467

>  <r_epik_Ionization_Penalty_Neutral>  (97) 
6.72984e-07

>  <r_epik_State_Penalty>  (97) 
0.015105

>  <r_epik_Charging_Adjusted_Penalty>  (97) 
0.0340517

>  <i_epik_Tot_Q>  (97) 
0

>  <i_epik_Tot_abs_Q>  (97) 
0

>  <s_lp_Force_Field>  (97) 
OPLS3e

>  <r_lp_Energy>  (97) 
45.6381

>  <b_lp_Chiralities_Consistent>  (97) 
1

>  <s_lp_Variant>  (97) 
26:0-1

>  <s_i_glide_gridfile>  (97) 
pfpi4k_grid

>  <i_i_glide_lignum>  (97) 
44

>  <i_i_glide_rotatable_bonds>  (97) 
0

>  <r_i_docking_score>  (97) 
-3.87673

>  <r_i_glide_ligand_efficiency>  (97) 
-0.176215

>  <r_i_glide_ligand_efficiency_sa>  (97) 
-0.493762

>  <r_i_glide_ligand_efficiency_ln>  (97) 
-0.947615

>  <r_i_glide_gscore>  (97) 
-3.87673

>  <r_i_glide_lipo>  (97) 
-0.554287

>  <r_i_glide_hbond>  (97) 
-0.0825618

>  <r_i_glide_metal>  (97) 
-0

>  <r_i_glide_rewards>  (97) 
-1.66311

>  <r_i_glide_evdw>  (97) 
-26.9024

>  <r_i_glide_ecoul>  (97) 
-1.51613

>  <r_i_glide_erotb>  (97) 
0

>  <r_i_glide_esite>  (97) 
-0.00423044

>  <r_i_glide_emodel>  (97) 
-36.0866

>  <r_i_glide_energy>  (97) 
-28.4185

>  <r_i_glide_einternal>  (97) 
0

>  <r_i_glide_intrahb_reward>  (97) 
-0

>  <i_i_glide_confnum>  (97) 
1

>  <i_i_glide_posenum>  (97) 
28

>  <r_i_glide_eff_state_penalty>  (97) 
0

>  <ligand_id>  (97) 
26

>  <original_smiles>  (97) 
O=C1c2c(ccc3cccnc23)-n2cnc3c2C1OCCC3

>  <smiles>  (97) 
[H]c1nc2c3c(c([H])c([H])c2c([H])c1[H])-n1c([H])nc2c1C([H])(OC([H])([H])C([H])([H])C2([H])[H])C3=O

$$$$
26:1:0
     RDKit          3D

 36 40  0  0  1  0  0  0  0  0999 V2000
    2.5451   -5.5849    0.6290 O   0  0  0  0  0  0  0  0  0  0  0  0
    3.3929   -6.2102    1.2700 C   0  0  0  0  0  0  0  0  0  0  0  0
    3.1984   -7.5847    1.8342 C   0  0  0  0  0  0  0  0  0  0  0  0
    4.3680   -8.3887    2.0021 C   0  0  0  0  0  0  0  0  0  0  0  0
    4.2193   -9.7126    2.4813 C   0  0  0  0  0  0  0  0  0  0  0  0
    2.9550  -10.2320    2.7972 C   0  0  0  0  0  0  0  0  0  0  0  0
    1.8084   -9.4435    2.6467 C   0  0  0  0  0  0  0  0  0  0  0  0
    0.5562   -9.9981    3.0018 C   0  0  0  0  0  0  0  0  0  0  0  0
   -0.5937   -9.2044    2.8774 C   0  0  0  0  0  0  0  0  0  0  0  0
   -0.4347   -7.8960    2.3904 C   0  0  0  0  0  0  0  0  0  0  0  0
    0.7626   -7.3698    2.0448 N   0  0  0  0  0  0  0  0  0  0  0  0
    1.8981   -8.1080    2.1574 C   0  0  0  0  0  0  0  0  0  0  0  0
    5.6887   -7.9099    1.7038 N   0  0  0  0  0  0  0  0  0  0  0  0
    6.8447   -8.6137    1.6148 C   0  0  0  0  0  0  0  0  0  0  0  0
    7.8482   -7.7326    1.3751 N   0  0  0  0  0  0  0  0  0  0  0  0
    7.2704   -6.4988    1.3019 C   0  0  0  0  0  0  0  0  0  0  0  0
    5.8888   -6.5985    1.4977 C   0  0  0  0  0  0  0  0  0  0  0  0
    4.7628   -5.5614    1.5652 C   0  0  1  0  0  0  0  0  0  0  0  0
    4.9384   -4.4610    0.6822 O   0  0  0  0  0  0  0  0  0  0  0  0
    5.9663   -3.5580    1.0365 C   0  0  0  0  0  0  0  0  0  0  0  0
    7.2806   -4.0184    0.4332 C   0  0  0  0  0  0  0  0  0  0  0  0
    7.9579   -5.1614    1.1862 C   0  0  0  0  0  0  0  0  0  0  0  0
    5.0670  -10.3670    2.6073 H   0  0  0  0  0  0  0  0  0  0  0  0
    2.8823  -11.2460    3.1564 H   0  0  0  0  0  0  0  0  0  0  0  0
    0.4595  -11.0083    3.3828 H   0  0  0  0  0  0  0  0  0  0  0  0
   -1.5681   -9.5902    3.1551 H   0  0  0  0  0  0  0  0  0  0  0  0
   -1.2969   -7.2514    2.2817 H   0  0  0  0  0  0  0  0  0  0  0  0
    6.9425   -9.6843    1.7289 H   0  0  0  0  0  0  0  0  0  0  0  0
    4.6919   -5.1812    2.5826 H   0  0  0  0  0  0  0  0  0  0  0  0
    5.7197   -2.5826    0.6204 H   0  0  0  0  0  0  0  0  0  0  0  0
    6.0488   -3.4326    2.1133 H   0  0  0  0  0  0  0  0  0  0  0  0
    7.1711   -4.2462   -0.6242 H   0  0  0  0  0  0  0  0  0  0  0  0
    7.9745   -3.1814    0.4709 H   0  0  0  0  0  0  0  0  0  0  0  0
    8.3014   -4.8443    2.1742 H   0  0  0  0  0  0  0  0  0  0  0  0
    8.8738   -5.3735    0.6315 H   0  0  0  0  0  0  0  0  0  0  0  0
    8.8474   -7.9376    1.3001 H   0  0  0  0  0  0  0  0  0  0  0  0
  1  2  2  0
  2 18  1  0
  2  3  1  0
  3 12  2  0
  3  4  1  0
  4  5  2  0
  4 13  1  0
  5  6  1  0
  5 23  1  0
  6  7  2  0
  6 24  1  0
  7 12  1  0
  7  8  1  0
  8  9  2  0
  8 25  1  0
  9 10  1  0
  9 26  1  0
 10 11  2  0
 10 27  1  0
 11 12  1  0
 13 17  1  0
 13 14  1  0
 14 15  2  0
 14 28  1  0
 15 16  1  0
 15 36  1  0
 16 22  1  0
 16 17  2  0
 17 18  1  0
 18 19  1  0
 18 29  1  1
 19 20  1  0
 20 21  1  0
 20 30  1  0
 20 31  1  0
 21 22  1  0
 21 32  1  0
 21 33  1  0
 22 34  1  0
 22 35  1  0
M  CHG  1  15   1
M  END
>  <i_m_ct_stereo_status>  (98) 
1

>  <s_m_source_file>  (98) 
/var/tmp/pbs.5076255.sched01/tmpuj7nejrg/06cdl7mjn.sdf

>  <i_m_source_file_index>  (98) 
45

>  <i_lp_mmshare_version>  (98) 
48012

>  <i_f3d_flags>  (98) 
0

>  <s_epik_input>  (98) 
Tz1DMVtDQEBIXTJPW0NIMl1bQ0gyXVtDSDJdYyhuW2NIXTMpYzJuM2MoYzE0KVtjSF1bY0hdYzVjNG5bY0hdW2NIXVtjSF01

>  <s_epik_cmdline>  (98) 
J2VwaWtfcHl0aG9uJywgJy1waHQnLCAnMi4wJywgJy1waCcsICc3LjAnLCAnLXRuJywgJzgnLCAnLW1hJywgJzIwMCcsICctaW1hZScsICc8aW5maWxlLm1hZT4nLCAnLW9tYWUnLCAnPG91dGZpbGUubWFlPic=

>  <r_lp_tautomer_probability>  (98) 
1

>  <r_epik_Ionization_Penalty>  (98) 
2.0492

>  <r_epik_Ionization_Penalty_Charging>  (98) 
0

>  <r_epik_Ionization_Penalty_Neutral>  (98) 
2.0492

>  <r_epik_State_Penalty>  (98) 
2.18155

>  <r_epik_Charging_Adjusted_Penalty>  (98) 
2.18155

>  <i_epik_Tot_Q>  (98) 
1

>  <i_epik_Tot_abs_Q>  (98) 
1

>  <s_lp_Force_Field>  (98) 
OPLS3e

>  <r_lp_Energy>  (98) 
49.443

>  <b_lp_Chiralities_Consistent>  (98) 
1

>  <s_lp_Variant>  (98) 
26:0-2

>  <s_i_glide_gridfile>  (98) 
pfpi4k_grid

>  <i_i_glide_lignum>  (98) 
45

>  <i_i_glide_rotatable_bonds>  (98) 
0

>  <r_i_docking_score>  (98) 
-4.36692

>  <r_i_glide_ligand_efficiency>  (98) 
-0.198496

>  <r_i_glide_ligand_efficiency_sa>  (98) 
-0.556194

>  <r_i_glide_ligand_efficiency_ln>  (98) 
-1.06743

>  <r_i_glide_gscore>  (98) 
-4.36692

>  <r_i_glide_lipo>  (98) 
-0.632607

>  <r_i_glide_hbond>  (98) 
-0.2

>  <r_i_glide_metal>  (98) 
-0

>  <r_i_glide_rewards>  (98) 
-1.74614

>  <r_i_glide_evdw>  (98) 
-26.885

>  <r_i_glide_ecoul>  (98) 
-2.64962

>  <r_i_glide_erotb>  (98) 
0

>  <r_i_glide_esite>  (98) 
-0.0464745

>  <r_i_glide_emodel>  (98) 
-40.4703

>  <r_i_glide_energy>  (98) 
-29.5346

>  <r_i_glide_einternal>  (98) 
0

>  <r_i_glide_intrahb_reward>  (98) 
-0

>  <i_i_glide_confnum>  (98) 
2

>  <i_i_glide_posenum>  (98) 
40

>  <r_i_glide_eff_state_penalty>  (98) 
0

>  <ligand_id>  (98) 
26

>  <original_smiles>  (98) 
O=C1c2c(ccc3cccnc23)-n2cnc3c2C1OCCC3

>  <smiles>  (98) 
[H]c1nc2c3c(c([H])c([H])c2c([H])c1[H])-n1c2c([n+]([H])c1[H])C([H])([H])C([H])([H])C([H])([H])OC2([H])C3=O

$$$$
26:1:1
     RDKit          3D

 36 40  0  0  1  0  0  0  0  0999 V2000
   -1.5282   -1.8321    5.7433 O   0  0  0  0  0  0  0  0  0  0  0  0
   -0.6263   -1.2455    5.1443 C   0  0  0  0  0  0  0  0  0  0  0  0
    0.4430   -1.9098    4.3242 C   0  0  0  0  0  0  0  0  0  0  0  0
    0.9762   -1.1686    3.2274 C   0  0  0  0  0  0  0  0  0  0  0  0
    1.9296   -1.7783    2.3806 C   0  0  0  0  0  0  0  0  0  0  0  0
    2.3691   -3.0882    2.6125 C   0  0  0  0  0  0  0  0  0  0  0  0
    1.8662   -3.8219    3.6974 C   0  0  0  0  0  0  0  0  0  0  0  0
    2.3576   -5.1334    3.9215 C   0  0  0  0  0  0  0  0  0  0  0  0
    1.8720   -5.8585    5.0246 C   0  0  0  0  0  0  0  0  0  0  0  0
    0.9084   -5.2436    5.8421 C   0  0  0  0  0  0  0  0  0  0  0  0
    0.4317   -3.9978    5.6137 N   0  0  0  0  0  0  0  0  0  0  0  0
    0.8892   -3.2562    4.5713 C   0  0  0  0  0  0  0  0  0  0  0  0
    0.5597    0.1706    2.9382 N   0  0  0  0  0  0  0  0  0  0  0  0
    0.7952    0.9085    1.8147 C   0  0  0  0  0  0  0  0  0  0  0  0
    0.2623    2.1441    2.0312 N   0  0  0  0  0  0  0  0  0  0  0  0
   -0.3197    2.1151    3.2597 C   0  0  0  0  0  0  0  0  0  0  0  0
   -0.1590    0.8545    3.8390 C   0  0  0  0  0  0  0  0  0  0  0  0
   -0.5591    0.2886    5.2017 C   0  0  1  0  0  0  0  0  0  0  0  0
   -1.7994    0.7520    5.7105 O   0  0  0  0  0  0  0  0  0  0  0  0
   -1.8077    2.1078    6.1099 C   0  0  0  0  0  0  0  0  0  0  0  0
   -2.1256    3.0131    4.9315 C   0  0  0  0  0  0  0  0  0  0  0  0
   -0.9450    3.2578    3.9992 C   0  0  0  0  0  0  0  0  0  0  0  0
    2.3284   -1.2625    1.5219 H   0  0  0  0  0  0  0  0  0  0  0  0
    3.1051   -3.5244    1.9599 H   0  0  0  0  0  0  0  0  0  0  0  0
    3.1105   -5.5836    3.2838 H   0  0  0  0  0  0  0  0  0  0  0  0
    2.2245   -6.8595    5.2425 H   0  0  0  0  0  0  0  0  0  0  0  0
    0.5136   -5.7609    6.7049 H   0  0  0  0  0  0  0  0  0  0  0  0
    1.2994    0.5644    0.9180 H   0  0  0  0  0  0  0  0  0  0  0  0
    0.2206    0.5135    5.9228 H   0  0  0  0  0  0  0  0  0  0  0  0
   -2.5937    2.2351    6.8540 H   0  0  0  0  0  0  0  0  0  0  0  0
   -0.8714    2.3974    6.5863 H   0  0  0  0  0  0  0  0  0  0  0  0
   -3.0033    2.6797    4.3828 H   0  0  0  0  0  0  0  0  0  0  0  0
   -2.4005    3.9860    5.3294 H   0  0  0  0  0  0  0  0  0  0  0  0
   -0.1630    3.8431    4.4789 H   0  0  0  0  0  0  0  0  0  0  0  0
   -1.3208    3.9143    3.2191 H   0  0  0  0  0  0  0  0  0  0  0  0
    0.2820    2.9827    1.4234 H   0  0  0  0  0  0  0  0  0  0  0  0
  1  2  2  0
  2 18  1  0
  2  3  1  0
  3 12  2  0
  3  4  1  0
  4  5  2  0
  4 13  1  0
  5  6  1  0
  5 23  1  0
  6  7  2  0
  6 24  1  0
  7 12  1  0
  7  8  1  0
  8  9  2  0
  8 25  1  0
  9 10  1  0
  9 26  1  0
 10 11  2  0
 10 27  1  0
 11 12  1  0
 13 17  1  0
 13 14  1  0
 14 15  2  0
 14 28  1  0
 15 16  1  0
 15 36  1  0
 16 22  1  0
 16 17  2  0
 17 18  1  0
 18 19  1  0
 18 29  1  1
 19 20  1  0
 20 21  1  0
 20 30  1  0
 20 31  1  0
 21 22  1  0
 21 32  1  0
 21 33  1  0
 22 34  1  0
 22 35  1  0
M  CHG  1  15   1
M  END
>  <i_m_ct_stereo_status>  (99) 
1

>  <s_m_source_file>  (99) 
/var/tmp/pbs.5076255.sched01/tmpuj7nejrg/06cdl7mjn.sdf

>  <i_m_source_file_index>  (99) 
45

>  <i_lp_mmshare_version>  (99) 
48012

>  <i_f3d_flags>  (99) 
0

>  <s_epik_input>  (99) 
Tz1DMVtDQEBIXTJPW0NIMl1bQ0gyXVtDSDJdYyhuW2NIXTMpYzJuM2MoYzE0KVtjSF1bY0hdYzVjNG5bY0hdW2NIXVtjSF01

>  <s_epik_cmdline>  (99) 
J2VwaWtfcHl0aG9uJywgJy1waHQnLCAnMi4wJywgJy1waCcsICc3LjAnLCAnLXRuJywgJzgnLCAnLW1hJywgJzIwMCcsICctaW1hZScsICc8aW5maWxlLm1hZT4nLCAnLW9tYWUnLCAnPG91dGZpbGUubWFlPic=

>  <r_lp_tautomer_probability>  (99) 
1

>  <r_epik_Ionization_Penalty>  (99) 
2.0492

>  <r_epik_Ionization_Penalty_Charging>  (99) 
0

>  <r_epik_Ionization_Penalty_Neutral>  (99) 
2.0492

>  <r_epik_State_Penalty>  (99) 
2.18155

>  <r_epik_Charging_Adjusted_Penalty>  (99) 
2.18155

>  <i_epik_Tot_Q>  (99) 
1

>  <i_epik_Tot_abs_Q>  (99) 
1

>  <s_lp_Force_Field>  (99) 
OPLS3e

>  <r_lp_Energy>  (99) 
49.443

>  <b_lp_Chiralities_Consistent>  (99) 
1

>  <s_lp_Variant>  (99) 
26:0-2

>  <s_i_glide_gridfile>  (99) 
pfpi4k_grid

>  <i_i_glide_lignum>  (99) 
45

>  <i_i_glide_rotatable_bonds>  (99) 
0

>  <r_i_docking_score>  (99) 
-4.36404

>  <r_i_glide_ligand_efficiency>  (99) 
-0.198365

>  <r_i_glide_ligand_efficiency_sa>  (99) 
-0.555828

>  <r_i_glide_ligand_efficiency_ln>  (99) 
-1.06673

>  <r_i_glide_gscore>  (99) 
-4.36404

>  <r_i_glide_lipo>  (99) 
-0.0431144

>  <r_i_glide_hbond>  (99) 
-0.1874

>  <r_i_glide_metal>  (99) 
-0

>  <r_i_glide_rewards>  (99) 
-1.41605

>  <r_i_glide_evdw>  (99) 
-20.765

>  <r_i_glide_ecoul>  (99) 
-9.71832

>  <r_i_glide_erotb>  (99) 
0

>  <r_i_glide_esite>  (99) 
-0.221472

>  <r_i_glide_emodel>  (99) 
-41.332

>  <r_i_glide_energy>  (99) 
-30.4833

>  <r_i_glide_einternal>  (99) 
0

>  <r_i_glide_intrahb_reward>  (99) 
-0

>  <i_i_glide_confnum>  (99) 
2

>  <i_i_glide_posenum>  (99) 
9

>  <r_i_glide_eff_state_penalty>  (99) 
0

>  <ligand_id>  (99) 
26

>  <original_smiles>  (99) 
O=C1c2c(ccc3cccnc23)-n2cnc3c2C1OCCC3

>  <smiles>  (99) 
[H]c1nc2c3c(c([H])c([H])c2c([H])c1[H])-n1c2c([n+]([H])c1[H])C([H])([H])C([H])([H])C([H])([H])OC2([H])C3=O

$$$$
26:1:2
     RDKit          3D

 36 40  0  0  1  0  0  0  0  0999 V2000
    0.8728   -6.3735    1.9503 O   0  0  0  0  0  0  0  0  0  0  0  0
    1.8596   -7.1053    1.7924 C   0  0  0  0  0  0  0  0  0  0  0  0
    3.2091   -6.6569    1.3218 C   0  0  0  0  0  0  0  0  0  0  0  0
    4.3263   -7.4554    1.7490 C   0  0  0  0  0  0  0  0  0  0  0  0
    5.6272   -7.0200    1.3876 C   0  0  0  0  0  0  0  0  0  0  0  0
    5.8265   -5.8557    0.6278 C   0  0  0  0  0  0  0  0  0  0  0  0
    4.7319   -5.0983    0.1924 C   0  0  0  0  0  0  0  0  0  0  0  0
    4.9918   -3.9651   -0.6082 C   0  0  0  0  0  0  0  0  0  0  0  0
    3.9024   -3.2025   -1.0584 C   0  0  0  0  0  0  0  0  0  0  0  0
    2.6142   -3.6212   -0.6805 C   0  0  0  0  0  0  0  0  0  0  0  0
    2.3766   -4.7152    0.0841 N   0  0  0  0  0  0  0  0  0  0  0  0
    3.4071   -5.4737    0.5385 C   0  0  0  0  0  0  0  0  0  0  0  0
    4.1968   -8.6413    2.5360 N   0  0  0  0  0  0  0  0  0  0  0  0
    5.1724   -9.3466    3.1690 C   0  0  0  0  0  0  0  0  0  0  0  0
    4.6040  -10.4316    3.7379 N   0  0  0  0  0  0  0  0  0  0  0  0
    3.2657  -10.3337    3.4455 C   0  0  0  0  0  0  0  0  0  0  0  0
    2.9974   -9.2011    2.6959 C   0  0  0  0  0  0  0  0  0  0  0  0
    1.7175   -8.6150    2.0675 C   0  0  1  0  0  0  0  0  0  0  0  0
    0.5404   -8.8076    2.8426 O   0  0  0  0  0  0  0  0  0  0  0  0
    0.0713  -10.1357    2.8778 C   0  0  0  0  0  0  0  0  0  0  0  0
    0.7489  -10.8681    4.0105 C   0  0  0  0  0  0  0  0  0  0  0  0
    2.1739  -11.3384    3.6967 C   0  0  0  0  0  0  0  0  0  0  0  0
    6.5100   -7.5795    1.6871 H   0  0  0  0  0  0  0  0  0  0  0  0
    6.8356   -5.5792    0.3563 H   0  0  0  0  0  0  0  0  0  0  0  0
    5.9892   -3.6742   -0.8988 H   0  0  0  0  0  0  0  0  0  0  0  0
    4.0214   -2.3221   -1.6794 H   0  0  0  0  0  0  0  0  0  0  0  0
    1.7463   -3.0665   -1.0175 H   0  0  0  0  0  0  0  0  0  0  0  0
    6.2122   -9.0866    3.2039 H   0  0  0  0  0  0  0  0  0  0  0  0
    1.5906   -9.0752    1.0880 H   0  0  0  0  0  0  0  0  0  0  0  0
   -0.9977  -10.1233    3.0571 H   0  0  0  0  0  0  0  0  0  0  0  0
    0.2247  -10.6534    1.9365 H   0  0  0  0  0  0  0  0  0  0  0  0
    0.6940  -10.3230    4.9496 H   0  0  0  0  0  0  0  0  0  0  0  0
    0.1988  -11.7878    4.1883 H   0  0  0  0  0  0  0  0  0  0  0  0
    2.1870  -12.1066    2.9078 H   0  0  0  0  0  0  0  0  0  0  0  0
    2.4839  -11.8585    4.6004 H   0  0  0  0  0  0  0  0  0  0  0  0
    5.0658  -11.1742    4.2395 H   0  0  0  0  0  0  0  0  0  0  0  0
  1  2  2  0
  2 18  1  0
  2  3  1  0
  3 12  2  0
  3  4  1  0
  4  5  2  0
  4 13  1  0
  5  6  1  0
  5 23  1  0
  6  7  2  0
  6 24  1  0
  7 12  1  0
  7  8  1  0
  8  9  2  0
  8 25  1  0
  9 10  1  0
  9 26  1  0
 10 11  2  0
 10 27  1  0
 11 12  1  0
 13 17  1  0
 13 14  1  0
 14 15  2  0
 14 28  1  0
 15 16  1  0
 15 36  1  0
 16 22  1  0
 16 17  2  0
 17 18  1  0
 18 19  1  0
 18 29  1  6
 19 20  1  0
 20 21  1  0
 20 30  1  0
 20 31  1  0
 21 22  1  0
 21 32  1  0
 21 33  1  0
 22 34  1  0
 22 35  1  0
M  CHG  1  15   1
M  END
>  <i_m_ct_stereo_status>  (100) 
1

>  <s_m_source_file>  (100) 
/var/tmp/pbs.5076255.sched01/tmpuj7nejrg/06cdl7mjn.sdf

>  <i_m_source_file_index>  (100) 
45

>  <i_lp_mmshare_version>  (100) 
48012

>  <i_f3d_flags>  (100) 
0

>  <s_epik_input>  (100) 
Tz1DMVtDQEBIXTJPW0NIMl1bQ0gyXVtDSDJdYyhuW2NIXTMpYzJuM2MoYzE0KVtjSF1bY0hdYzVjNG5bY0hdW2NIXVtjSF01

>  <s_epik_cmdline>  (100) 
J2VwaWtfcHl0aG9uJywgJy1waHQnLCAnMi4wJywgJy1waCcsICc3LjAnLCAnLXRuJywgJzgnLCAnLW1hJywgJzIwMCcsICctaW1hZScsICc8aW5maWxlLm1hZT4nLCAnLW9tYWUnLCAnPG91dGZpbGUubWFlPic=

>  <r_lp_tautomer_probability>  (100) 
1

>  <r_epik_Ionization_Penalty>  (100) 
2.0492

>  <r_epik_Ionization_Penalty_Charging>  (100) 
0

>  <r_epik_Ionization_Penalty_Neutral>  (100) 
2.0492

>  <r_epik_State_Penalty>  (100) 
2.18155

>  <r_epik_Charging_Adjusted_Penalty>  (100) 
2.18155

>  <i_epik_Tot_Q>  (100) 
1

>  <i_epik_Tot_abs_Q>  (100) 
1

>  <s_lp_Force_Field>  (100) 
OPLS3e

>  <r_lp_Energy>  (100) 
49.443

>  <b_lp_Chiralities_Consistent>  (100) 
1

>  <s_lp_Variant>  (100) 
26:0-2

>  <s_i_glide_gridfile>  (100) 
pfpi4k_grid

>  <i_i_glide_lignum>  (100) 
45

>  <i_i_glide_rotatable_bonds>  (100) 
0

>  <r_i_docking_score>  (100) 
-3.91103

>  <r_i_glide_ligand_efficiency>  (100) 
-0.177774

>  <r_i_glide_ligand_efficiency_sa>  (100) 
-0.498131

>  <r_i_glide_ligand_efficiency_ln>  (100) 
-0.956

>  <r_i_glide_gscore>  (100) 
-3.91103

>  <r_i_glide_lipo>  (100) 
-0.441949

>  <r_i_glide_hbond>  (100) 
-0.0435638

>  <r_i_glide_metal>  (100) 
-0

>  <r_i_glide_rewards>  (100) 
-1.41605

>  <r_i_glide_evdw>  (100) 
-24.9667

>  <r_i_glide_ecoul>  (100) 
-4.69701

>  <r_i_glide_erotb>  (100) 
0

>  <r_i_glide_esite>  (100) 
-0.056583

>  <r_i_glide_emodel>  (100) 
-39.2462

>  <r_i_glide_energy>  (100) 
-29.6637

>  <r_i_glide_einternal>  (100) 
0

>  <r_i_glide_intrahb_reward>  (100) 
-0

>  <i_i_glide_confnum>  (100) 
2

>  <i_i_glide_posenum>  (100) 
31

>  <r_i_glide_eff_state_penalty>  (100) 
0

>  <ligand_id>  (100) 
26

>  <original_smiles>  (100) 
O=C1c2c(ccc3cccnc23)-n2cnc3c2C1OCCC3

>  <smiles>  (100) 
[H]c1nc2c3c(c([H])c([H])c2c([H])c1[H])-n1c2c([n+]([H])c1[H])C([H])([H])C([H])([H])C([H])([H])OC2([H])C3=O

$$$$
27:0:0
     RDKit          3D

 58 62  0  0  1  0  0  0  0  0999 V2000
    8.5972   -3.8164   -1.6539 C   0  0  0  0  0  0  0  0  0  0  0  0
    7.8402   -3.5252   -0.6021 C   0  0  0  0  0  0  0  0  0  0  0  0
    7.8742   -4.4351    0.5949 C   0  0  1  0  0  0  0  0  0  0  0  0
    9.1174   -4.3019    1.2421 O   0  0  0  0  0  0  0  0  0  0  0  0
    6.7309   -4.0867    1.5463 C   0  0  0  0  0  0  0  0  0  0  0  0
    6.3220   -2.7949    1.6732 C   0  0  0  0  0  0  0  0  0  0  0  0
    7.0306   -1.7076    0.8963 C   0  0  0  0  0  0  0  0  0  0  0  0
    7.1154   -2.1961   -0.5484 C   0  0  2  0  0  0  0  0  0  0  0  0
    5.8075   -1.9197   -1.3925 C   0  0  2  0  0  0  0  0  0  0  0  0
    4.4612   -1.9310   -0.6590 C   0  0  0  0  0  0  0  0  0  0  0  0
    3.7366   -0.8681   -0.9363 C   0  0  0  0  0  0  0  0  0  0  0  0
    3.6202   -0.4736   -2.4379 C   0  0  0  0  0  0  0  0  0  0  0  0
    4.2333   -1.5671   -3.3805 C   0  0  0  0  0  0  0  0  0  0  0  0
    4.0887   -1.4823   -4.5940 O   0  0  0  0  0  0  0  0  0  0  0  0
    4.9880   -2.6344   -2.5127 C   0  0  1  0  0  0  0  0  0  0  0  0
    5.6579   -3.6235   -3.4012 C   0  0  0  0  0  0  0  0  0  0  0  0
    4.0488   -3.2319   -1.3937 C   0  0  2  0  0  0  0  0  0  0  0  0
    2.5183   -3.3545   -1.7667 C   0  0  0  0  0  0  0  0  0  0  0  0
    4.4584   -4.5052   -0.6174 C   0  0  0  0  0  0  0  0  0  0  0  0
    3.6913   -4.8513    0.6802 C   0  0  0  0  0  0  0  0  0  0  0  0
    2.5271   -5.2492    0.6336 O   0  0  0  0  0  0  0  0  0  0  0  0
    4.3706   -4.7842    2.0699 C   0  0  2  0  0  0  0  0  0  0  0  0
    4.2014   -3.3844    2.6269 C   0  0  0  0  0  0  0  0  0  0  0  0
    5.1573   -2.4568    2.4909 C   0  0  0  0  0  0  0  0  0  0  0  0
    5.0389   -1.0921    3.1374 C   0  0  0  0  0  0  0  0  0  0  0  0
    5.8781   -5.2308    2.1252 C   0  0  0  0  0  0  0  0  0  0  0  0
    6.0633   -6.6087    1.4358 C   0  0  0  0  0  0  0  0  0  0  0  0
    6.2972   -5.4173    3.5844 C   0  0  0  0  0  0  0  0  0  0  0  0
    8.6066   -3.0464   -2.3980 H   0  0  0  0  0  0  0  0  0  0  0  0
    9.1715   -4.7053   -1.7248 H   0  0  0  0  0  0  0  0  0  0  0  0
    7.7989   -5.4316    0.1567 H   0  0  0  0  0  0  0  0  0  0  0  0
    8.9895   -4.4257    2.1658 H   0  0  0  0  0  0  0  0  0  0  0  0
    6.5526   -0.7279    0.9521 H   0  0  0  0  0  0  0  0  0  0  0  0
    8.0115   -1.5906    1.2544 H   0  0  0  0  0  0  0  0  0  0  0  0
    7.9043   -1.5655   -0.9228 H   0  0  0  0  0  0  0  0  0  0  0  0
    6.0223   -0.9194   -1.7331 H   0  0  0  0  0  0  0  0  0  0  0  0
    2.8145   -0.8014   -0.3757 H   0  0  0  0  0  0  0  0  0  0  0  0
    2.5793   -0.3818   -2.7275 H   0  0  0  0  0  0  0  0  0  0  0  0
    4.1337    0.4651   -2.6380 H   0  0  0  0  0  0  0  0  0  0  0  0
    5.9828   -4.3333   -2.6786 H   0  0  0  0  0  0  0  0  0  0  0  0
    6.5307   -3.2041   -3.8761 H   0  0  0  0  0  0  0  0  0  0  0  0
    4.9264   -4.0503   -4.0934 H   0  0  0  0  0  0  0  0  0  0  0  0
    2.3185   -4.2025   -2.4224 H   0  0  0  0  0  0  0  0  0  0  0  0
    2.1053   -2.5154   -2.3190 H   0  0  0  0  0  0  0  0  0  0  0  0
    1.8833   -3.4342   -0.8854 H   0  0  0  0  0  0  0  0  0  0  0  0
    4.2924   -5.3732   -1.2384 H   0  0  0  0  0  0  0  0  0  0  0  0
    5.5236   -4.4922   -0.4515 H   0  0  0  0  0  0  0  0  0  0  0  0
    3.8255   -5.4645    2.7243 H   0  0  0  0  0  0  0  0  0  0  0  0
    3.3070   -3.2097    3.1967 H   0  0  0  0  0  0  0  0  0  0  0  0
    5.9668   -0.8405    3.6610 H   0  0  0  0  0  0  0  0  0  0  0  0
    4.2214   -1.0972    3.8562 H   0  0  0  0  0  0  0  0  0  0  0  0
    4.8366   -0.3180    2.3911 H   0  0  0  0  0  0  0  0  0  0  0  0
    5.3734   -7.3334    1.8638 H   0  0  0  0  0  0  0  0  0  0  0  0
    7.0711   -6.9925    1.5938 H   0  0  0  0  0  0  0  0  0  0  0  0
    5.8769   -6.5765    0.3632 H   0  0  0  0  0  0  0  0  0  0  0  0
    5.7224   -6.2107    4.0589 H   0  0  0  0  0  0  0  0  0  0  0  0
    6.1420   -4.5042    4.1510 H   0  0  0  0  0  0  0  0  0  0  0  0
    7.3529   -5.6690    3.6484 H   0  0  0  0  0  0  0  0  0  0  0  0
  1  2  2  0
  1 29  1  0
  1 30  1  0
  2  8  1  0
  2  3  1  0
  3  4  1  0
  3  5  1  0
  3 31  1  6
  4 32  1  0
  5 26  1  0
  5  6  2  0
  6 24  1  0
  6  7  1  0
  7  8  1  0
  7 33  1  0
  7 34  1  0
  8  9  1  0
  8 35  1  6
  9 15  1  0
  9 10  1  0
  9 36  1  6
 10 17  1  0
 10 11  2  0
 11 12  1  0
 11 37  1  0
 12 13  1  0
 12 38  1  0
 12 39  1  0
 13 14  2  0
 13 15  1  0
 15 16  1  6
 15 17  1  0
 16 40  1  0
 16 41  1  0
 16 42  1  0
 17 18  1  6
 17 19  1  0
 18 43  1  0
 18 44  1  0
 18 45  1  0
 19 20  1  0
 19 46  1  0
 19 47  1  0
 20 21  2  0
 20 22  1  0
 22 23  1  0
 22 26  1  0
 22 48  1  1
 23 24  2  0
 23 49  1  0
 24 25  1  0
 25 50  1  0
 25 51  1  0
 25 52  1  0
 26 27  1  0
 26 28  1  0
 27 53  1  0
 27 54  1  0
 27 55  1  0
 28 56  1  0
 28 57  1  0
 28 58  1  0
M  END
>  <i_m_ct_stereo_status>  (101) 
1

>  <s_m_source_file>  (101) 
/var/tmp/pbs.5076255.sched01/tmpuj7nejrg/06cdl7mjn.sdf

>  <i_m_source_file_index>  (101) 
46

>  <i_lp_mmshare_version>  (101) 
48012

>  <i_f3d_flags>  (101) 
0

>  <s_epik_input>  (101) 
W0NIM11bQ0BAXTEyW0NAQEhdM1tDQEBIXTRDKD1bQ0gyXSlbQ0BASF0oW09IXSlDNT1DKFtDSDJdNClDKFtDSDNdKT1bQ0hdW0NASF0oQzUoW0NIM10pW0NIM10pQyg9TylbQ0gyXVtDQEBdMihbQ0gzXSlDMz1bQ0hdW0NIMl1DMT1P

>  <s_epik_cmdline>  (101) 
J2VwaWtfcHl0aG9uJywgJy1waHQnLCAnMi4wJywgJy1waCcsICc3LjAnLCAnLXRuJywgJzgnLCAnLW1hJywgJzIwMCcsICctaW1hZScsICc8aW5maWxlLm1hZT4nLCAnLW9tYWUnLCAnPG91dGZpbGUubWFlPic=

>  <r_lp_tautomer_probability>  (101) 
1

>  <r_epik_Ionization_Penalty>  (101) 
2.0678e-07

>  <r_epik_Ionization_Penalty_Charging>  (101) 
0

>  <r_epik_Ionization_Penalty_Neutral>  (101) 
2.0678e-07

>  <r_epik_State_Penalty>  (101) 
-0

>  <r_epik_Charging_Adjusted_Penalty>  (101) 
0

>  <i_epik_Tot_Q>  (101) 
0

>  <i_epik_Tot_abs_Q>  (101) 
0

>  <s_lp_Force_Field>  (101) 
OPLS3e

>  <r_lp_Energy>  (101) 
123.408

>  <b_lp_Chiralities_Consistent>  (101) 
1

>  <s_lp_Variant>  (101) 
27:0-1

>  <s_i_glide_gridfile>  (101) 
pfpi4k_grid

>  <i_i_glide_lignum>  (101) 
46

>  <i_i_glide_rotatable_bonds>  (101) 
1

>  <r_i_docking_score>  (101) 
-3.77292

>  <r_i_glide_ligand_efficiency>  (101) 
-0.134747

>  <r_i_glide_ligand_efficiency_sa>  (101) 
-0.409171

>  <r_i_glide_ligand_efficiency_ln>  (101) 
-0.8709

>  <r_i_glide_gscore>  (101) 
-3.77292

>  <r_i_glide_lipo>  (101) 
-1.18459

>  <r_i_glide_hbond>  (101) 
-0.32

>  <r_i_glide_metal>  (101) 
-0

>  <r_i_glide_rewards>  (101) 
-1.00936

>  <r_i_glide_evdw>  (101) 
-5.12012

>  <r_i_glide_ecoul>  (101) 
-6.68426

>  <r_i_glide_erotb>  (101) 
0

>  <r_i_glide_esite>  (101) 
-0.000319993

>  <r_i_glide_emodel>  (101) 
-13.3069

>  <r_i_glide_energy>  (101) 
-11.8044

>  <r_i_glide_einternal>  (101) 
0.707475

>  <r_i_glide_intrahb_reward>  (101) 
-0

>  <i_i_glide_confnum>  (101) 
1

>  <i_i_glide_posenum>  (101) 
33

>  <r_i_glide_eff_state_penalty>  (101) 
0

>  <ligand_id>  (101) 
27

>  <original_smiles>  (101) 
C=C1C(O)C2=C3CC1C1C4=CCC(=O)C1(C)C4(C)CC(=O)C(C=C3C)C2(C)C

>  <smiles>  (101) 
[H]OC1([H])C(=C([H])[H])C2([H])C([H])([H])C3=C1C(C([H])([H])[H])(C([H])([H])[H])C([H])(C(=O)C([H])([H])C1(C([H])([H])[H])C4=C([H])C([H])([H])C(=O)C1(C([H])([H])[H])C42[H])C([H])=C3C([H])([H])[H]

$$$$
27:0:1
     RDKit          3D

 58 62  0  0  1  0  0  0  0  0999 V2000
    8.6248   -3.8108   -1.6116 C   0  0  0  0  0  0  0  0  0  0  0  0
    7.8259   -3.5063   -0.5936 C   0  0  0  0  0  0  0  0  0  0  0  0
    7.8061   -4.4178    0.6068 C   0  0  1  0  0  0  0  0  0  0  0  0
    9.0346   -4.3432    1.3020 O   0  0  0  0  0  0  0  0  0  0  0  0
    6.6515   -4.0508    1.5412 C   0  0  0  0  0  0  0  0  0  0  0  0
    6.2485   -2.7595    1.6685 C   0  0  0  0  0  0  0  0  0  0  0  0
    6.9903   -1.6790    0.8901 C   0  0  0  0  0  0  0  0  0  0  0  0
    7.1028   -2.1802   -0.5577 C   0  0  2  0  0  0  0  0  0  0  0  0
    5.8127   -1.8927   -1.4359 C   0  0  2  0  0  0  0  0  0  0  0  0
    4.4656   -1.9292   -0.7262 C   0  0  0  0  0  0  0  0  0  0  0  0
    3.7174   -0.8406   -1.0299 C   0  0  0  0  0  0  0  0  0  0  0  0
    3.6500   -0.4529   -2.5302 C   0  0  0  0  0  0  0  0  0  0  0  0
    4.2728   -1.5532   -3.4568 C   0  0  0  0  0  0  0  0  0  0  0  0
    4.1085   -1.4811   -4.6662 O   0  0  0  0  0  0  0  0  0  0  0  0
    5.0222   -2.6052   -2.5710 C   0  0  1  0  0  0  0  0  0  0  0  0
    5.7022   -3.6016   -3.4300 C   0  0  0  0  0  0  0  0  0  0  0  0
    4.0520   -3.2068   -1.4883 C   0  0  2  0  0  0  0  0  0  0  0  0
    2.5327   -3.3331   -1.8871 C   0  0  0  0  0  0  0  0  0  0  0  0
    4.4394   -4.4775   -0.6864 C   0  0  0  0  0  0  0  0  0  0  0  0
    3.6404   -4.8236    0.5952 C   0  0  0  0  0  0  0  0  0  0  0  0
    2.4779   -5.2199    0.5174 O   0  0  0  0  0  0  0  0  0  0  0  0
    4.2872   -4.7484    2.0029 C   0  0  2  0  0  0  0  0  0  0  0  0
    4.0934   -3.3476    2.5498 C   0  0  0  0  0  0  0  0  0  0  0  0
    5.0603   -2.4140    2.4438 C   0  0  0  0  0  0  0  0  0  0  0  0
    4.9253   -1.0489    3.0737 C   0  0  0  0  0  0  0  0  0  0  0  0
    5.7872   -5.1884    2.0975 C   0  0  0  0  0  0  0  0  0  0  0  0
    5.9856   -6.5732    1.4214 C   0  0  0  0  0  0  0  0  0  0  0  0
    6.1981   -5.3673    3.5655 C   0  0  0  0  0  0  0  0  0  0  0  0
    8.6321   -3.0608   -2.3646 H   0  0  0  0  0  0  0  0  0  0  0  0
    9.1838   -4.7315   -1.6896 H   0  0  0  0  0  0  0  0  0  0  0  0
    7.7374   -5.4116    0.1615 H   0  0  0  0  0  0  0  0  0  0  0  0
    8.9174   -3.7676    2.0363 H   0  0  0  0  0  0  0  0  0  0  0  0
    6.5000   -0.6933    0.9339 H   0  0  0  0  0  0  0  0  0  0  0  0
    7.9459   -1.5590    1.2825 H   0  0  0  0  0  0  0  0  0  0  0  0
    7.8989   -1.5403   -0.9097 H   0  0  0  0  0  0  0  0  0  0  0  0
    6.0366   -0.9009   -1.7793 H   0  0  0  0  0  0  0  0  0  0  0  0
    2.7828   -0.8354   -0.5017 H   0  0  0  0  0  0  0  0  0  0  0  0
    2.6083   -0.3574   -2.8500 H   0  0  0  0  0  0  0  0  0  0  0  0
    4.1624    0.5020   -2.6929 H   0  0  0  0  0  0  0  0  0  0  0  0
    6.0273   -4.3058   -2.6942 H   0  0  0  0  0  0  0  0  0  0  0  0
    6.5919   -3.2140   -3.8895 H   0  0  0  0  0  0  0  0  0  0  0  0
    5.0022   -4.0631   -4.1315 H   0  0  0  0  0  0  0  0  0  0  0  0
    2.3456   -4.1814   -2.5486 H   0  0  0  0  0  0  0  0  0  0  0  0
    2.1296   -2.4982   -2.4576 H   0  0  0  0  0  0  0  0  0  0  0  0
    1.8676   -3.4115   -1.0292 H   0  0  0  0  0  0  0  0  0  0  0  0
    4.3044   -5.3445   -1.3210 H   0  0  0  0  0  0  0  0  0  0  0  0
    5.4948   -4.4681   -0.4874 H   0  0  0  0  0  0  0  0  0  0  0  0
    3.7158   -5.4230    2.6457 H   0  0  0  0  0  0  0  0  0  0  0  0
    3.1865   -3.1587    3.0812 H   0  0  0  0  0  0  0  0  0  0  0  0
    5.8360   -0.7998    3.6233 H   0  0  0  0  0  0  0  0  0  0  0  0
    4.0882   -1.0427    3.7636 H   0  0  0  0  0  0  0  0  0  0  0  0
    4.7505   -0.2853    2.3132 H   0  0  0  0  0  0  0  0  0  0  0  0
    5.2842   -7.2974    1.8311 H   0  0  0  0  0  0  0  0  0  0  0  0
    6.9881   -6.9611    1.6021 H   0  0  0  0  0  0  0  0  0  0  0  0
    5.8274   -6.5486    0.3420 H   0  0  0  0  0  0  0  0  0  0  0  0
    5.5879   -6.1243    4.0514 H   0  0  0  0  0  0  0  0  0  0  0  0
    6.0832   -4.4369    4.1228 H   0  0  0  0  0  0  0  0  0  0  0  0
    7.2438   -5.6652    3.6371 H   0  0  0  0  0  0  0  0  0  0  0  0
  1  2  2  0
  1 29  1  0
  1 30  1  0
  2  8  1  0
  2  3  1  0
  3  4  1  0
  3  5  1  0
  3 31  1  6
  4 32  1  0
  5 26  1  0
  5  6  2  0
  6 24  1  0
  6  7  1  0
  7  8  1  0
  7 33  1  0
  7 34  1  0
  8  9  1  0
  8 35  1  6
  9 15  1  0
  9 10  1  0
  9 36  1  6
 10 17  1  0
 10 11  2  0
 11 12  1  0
 11 37  1  0
 12 13  1  0
 12 38  1  0
 12 39  1  0
 13 14  2  0
 13 15  1  0
 15 16  1  6
 15 17  1  0
 16 40  1  0
 16 41  1  0
 16 42  1  0
 17 18  1  6
 17 19  1  0
 18 43  1  0
 18 44  1  0
 18 45  1  0
 19 20  1  0
 19 46  1  0
 19 47  1  0
 20 21  2  0
 20 22  1  0
 22 23  1  0
 22 26  1  0
 22 48  1  1
 23 24  2  0
 23 49  1  0
 24 25  1  0
 25 50  1  0
 25 51  1  0
 25 52  1  0
 26 27  1  0
 26 28  1  0
 27 53  1  0
 27 54  1  0
 27 55  1  0
 28 56  1  0
 28 57  1  0
 28 58  1  0
M  END
>  <i_m_ct_stereo_status>  (102) 
1

>  <s_m_source_file>  (102) 
/var/tmp/pbs.5076255.sched01/tmpuj7nejrg/06cdl7mjn.sdf

>  <i_m_source_file_index>  (102) 
46

>  <i_lp_mmshare_version>  (102) 
48012

>  <i_f3d_flags>  (102) 
0

>  <s_epik_input>  (102) 
W0NIM11bQ0BAXTEyW0NAQEhdM1tDQEBIXTRDKD1bQ0gyXSlbQ0BASF0oW09IXSlDNT1DKFtDSDJdNClDKFtDSDNdKT1bQ0hdW0NASF0oQzUoW0NIM10pW0NIM10pQyg9TylbQ0gyXVtDQEBdMihbQ0gzXSlDMz1bQ0hdW0NIMl1DMT1P

>  <s_epik_cmdline>  (102) 
J2VwaWtfcHl0aG9uJywgJy1waHQnLCAnMi4wJywgJy1waCcsICc3LjAnLCAnLXRuJywgJzgnLCAnLW1hJywgJzIwMCcsICctaW1hZScsICc8aW5maWxlLm1hZT4nLCAnLW9tYWUnLCAnPG91dGZpbGUubWFlPic=

>  <r_lp_tautomer_probability>  (102) 
1

>  <r_epik_Ionization_Penalty>  (102) 
2.0678e-07

>  <r_epik_Ionization_Penalty_Charging>  (102) 
0

>  <r_epik_Ionization_Penalty_Neutral>  (102) 
2.0678e-07

>  <r_epik_State_Penalty>  (102) 
-0

>  <r_epik_Charging_Adjusted_Penalty>  (102) 
0

>  <i_epik_Tot_Q>  (102) 
0

>  <i_epik_Tot_abs_Q>  (102) 
0

>  <s_lp_Force_Field>  (102) 
OPLS3e

>  <r_lp_Energy>  (102) 
123.408

>  <b_lp_Chiralities_Consistent>  (102) 
1

>  <s_lp_Variant>  (102) 
27:0-1

>  <s_i_glide_gridfile>  (102) 
pfpi4k_grid

>  <i_i_glide_lignum>  (102) 
46

>  <i_i_glide_rotatable_bonds>  (102) 
1

>  <r_i_docking_score>  (102) 
-3.74671

>  <r_i_glide_ligand_efficiency>  (102) 
-0.133811

>  <r_i_glide_ligand_efficiency_sa>  (102) 
-0.40633

>  <r_i_glide_ligand_efficiency_ln>  (102) 
-0.864852

>  <r_i_glide_gscore>  (102) 
-3.74671

>  <r_i_glide_lipo>  (102) 
-1.17781

>  <r_i_glide_hbond>  (102) 
-0.32

>  <r_i_glide_metal>  (102) 
-0

>  <r_i_glide_rewards>  (102) 
-1.02743

>  <r_i_glide_evdw>  (102) 
-5.55885

>  <r_i_glide_ecoul>  (102) 
-6.27639

>  <r_i_glide_erotb>  (102) 
0

>  <r_i_glide_esite>  (102) 
-0.002073

>  <r_i_glide_emodel>  (102) 
-12.8612

>  <r_i_glide_energy>  (102) 
-11.8352

>  <r_i_glide_einternal>  (102) 
0.475886

>  <r_i_glide_intrahb_reward>  (102) 
-0

>  <i_i_glide_confnum>  (102) 
1

>  <i_i_glide_posenum>  (102) 
20

>  <r_i_glide_eff_state_penalty>  (102) 
0

>  <ligand_id>  (102) 
27

>  <original_smiles>  (102) 
C=C1C(O)C2=C3CC1C1C4=CCC(=O)C1(C)C4(C)CC(=O)C(C=C3C)C2(C)C

>  <smiles>  (102) 
[H]OC1([H])C(=C([H])[H])C2([H])C([H])([H])C3=C1C(C([H])([H])[H])(C([H])([H])[H])C([H])(C(=O)C([H])([H])C1(C([H])([H])[H])C4=C([H])C([H])([H])C(=O)C1(C([H])([H])[H])C42[H])C([H])=C3C([H])([H])[H]

$$$$
28:0:0
     RDKit          3D

 48 52  0  0  1  0  0  0  0  0999 V2000
    3.1567   -6.4438    5.0085 C   0  0  0  0  0  0  0  0  0  0  0  0
    2.2341   -5.8394    3.9314 C   0  0  1  0  0  0  0  0  0  0  0  0
    1.0054   -6.7253    3.6414 C   0  0  0  0  0  0  0  0  0  0  0  0
    0.3423   -7.4042    4.6930 C   0  0  0  0  0  0  0  0  0  0  0  0
   -0.7595   -8.2466    4.4343 C   0  0  0  0  0  0  0  0  0  0  0  0
   -1.2350   -8.4110    3.1191 C   0  0  0  0  0  0  0  0  0  0  0  0
   -0.5940   -7.7344    2.0636 C   0  0  0  0  0  0  0  0  0  0  0  0
    0.5097   -6.8978    2.3212 C   0  0  0  0  0  0  0  0  0  0  0  0
    1.7845   -4.3991    4.3315 C   0  0  0  0  0  0  0  0  0  0  0  0
    2.9067   -3.2273    3.5391 S   0  0  0  0  0  0  0  0  0  0  0  0
    3.4434   -4.5601    2.4810 C   0  0  0  0  0  0  0  0  0  0  0  0
    4.2035   -4.2102    1.3747 N   0  0  0  0  0  0  0  0  0  0  0  0
    3.9459   -3.1368    0.6082 N   0  0  0  0  0  0  0  0  0  0  0  0
    4.3455   -3.3703   -0.5833 C   0  0  0  0  0  0  0  0  0  0  0  0
    4.1327   -2.5036   -1.7505 C   0  0  0  0  0  0  0  0  0  0  0  0
    4.4430   -1.1320   -1.6294 C   0  0  0  0  0  0  0  0  0  0  0  0
    4.2157   -0.3126   -2.7505 C   0  0  0  0  0  0  0  0  0  0  0  0
    3.6947   -0.8827   -3.9272 C   0  0  0  0  0  0  0  0  0  0  0  0
    3.4091   -2.2597   -3.9193 C   0  0  0  0  0  0  0  0  0  0  0  0
    3.6529   -3.0659   -2.8727 N   0  0  0  0  0  0  0  0  0  0  0  0
    5.0820   -4.6483   -0.7531 C   0  0  0  0  0  0  0  0  0  0  0  0
    4.9597   -5.2277    0.6390 C   0  0  1  0  0  0  0  0  0  0  0  0
    6.2638   -5.6146    1.2714 C   0  0  0  0  0  0  0  0  0  0  0  0
    7.3164   -4.8025    1.5740 C   0  0  0  0  0  0  0  0  0  0  0  0
    8.4227   -5.5109    2.1393 C   0  0  0  0  0  0  0  0  0  0  0  0
    8.1940   -6.8501    2.2638 C   0  0  0  0  0  0  0  0  0  0  0  0
    6.6052   -7.2735    1.6821 S   0  0  0  0  0  0  0  0  0  0  0  0
    3.0574   -5.7635    2.7373 N   0  0  0  0  0  0  0  0  0  0  0  0
    2.6746   -6.5357    5.9772 H   0  0  0  0  0  0  0  0  0  0  0  0
    4.0422   -5.8246    5.1545 H   0  0  0  0  0  0  0  0  0  0  0  0
    3.4949   -7.4297    4.6921 H   0  0  0  0  0  0  0  0  0  0  0  0
    0.6804   -7.3132    5.7149 H   0  0  0  0  0  0  0  0  0  0  0  0
   -1.2323   -8.7872    5.2488 H   0  0  0  0  0  0  0  0  0  0  0  0
   -2.0703   -9.0734    2.9285 H   0  0  0  0  0  0  0  0  0  0  0  0
   -0.9349   -7.8759    1.0468 H   0  0  0  0  0  0  0  0  0  0  0  0
    0.9837   -6.4215    1.4750 H   0  0  0  0  0  0  0  0  0  0  0  0
    0.8005   -4.1848    3.9122 H   0  0  0  0  0  0  0  0  0  0  0  0
    1.7111   -4.2553    5.4112 H   0  0  0  0  0  0  0  0  0  0  0  0
    4.8222   -0.7321   -0.7019 H   0  0  0  0  0  0  0  0  0  0  0  0
    4.4296    0.7433   -2.7256 H   0  0  0  0  0  0  0  0  0  0  0  0
    3.5070   -0.2732   -4.8020 H   0  0  0  0  0  0  0  0  0  0  0  0
    3.0154   -2.7416   -4.7946 H   0  0  0  0  0  0  0  0  0  0  0  0
    4.6264   -5.3094   -1.4857 H   0  0  0  0  0  0  0  0  0  0  0  0
    6.1015   -4.4443   -1.0576 H   0  0  0  0  0  0  0  0  0  0  0  0
    4.3488   -6.1243    0.5393 H   0  0  0  0  0  0  0  0  0  0  0  0
    7.3464   -3.7350    1.4089 H   0  0  0  0  0  0  0  0  0  0  0  0
    9.3371   -5.0170    2.4443 H   0  0  0  0  0  0  0  0  0  0  0  0
    8.8723   -7.6109    2.6462 H   0  0  0  0  0  0  0  0  0  0  0  0
  2  1  1  1
  1 29  1  0
  1 30  1  0
  1 31  1  0
  2 28  1  0
  2  3  1  0
  2  9  1  0
  3  8  1  0
  3  4  2  0
  4  5  1  0
  4 32  1  0
  5  6  2  0
  5 33  1  0
  6  7  1  0
  6 34  1  0
  7  8  2  0
  7 35  1  0
  8 36  1  0
  9 10  1  0
  9 37  1  0
  9 38  1  0
 10 11  1  0
 11 12  1  0
 11 28  2  0
 12 22  1  0
 12 13  1  0
 13 14  2  0
 14 15  1  0
 14 21  1  0
 15 20  1  0
 15 16  2  0
 16 17  1  0
 16 39  1  0
 17 18  2  0
 17 40  1  0
 18 19  1  0
 18 41  1  0
 19 20  2  0
 19 42  1  0
 21 22  1  0
 21 43  1  0
 21 44  1  0
 22 23  1  0
 22 45  1  6
 23 27  1  0
 23 24  2  0
 24 25  1  0
 24 46  1  0
 25 26  2  0
 25 47  1  0
 26 27  1  0
 26 48  1  0
M  END
>  <i_m_ct_stereo_status>  (103) 
1

>  <s_m_source_file>  (103) 
/var/tmp/pbs.5076255.sched01/tmpuj7nejrg/06cdl7mjn.sdf

>  <i_m_source_file_index>  (103) 
47

>  <i_lp_mmshare_version>  (103) 
48012

>  <i_f3d_flags>  (103) 
0

>  <s_epik_input>  (103) 
W2NIXTFbY0hdW2NIXVtjSF1bY0hdYzFbQ0BdMihbQ0gzXSlbQ0gyXVNDKD1OMilOM049QyhjNFtjSF1bY0hdW2NIXVtjSF1uNClbQ0gyXVtDQEhdM2M1W2NIXVtjSF1bY0hdczU=

>  <s_epik_cmdline>  (103) 
J2VwaWtfcHl0aG9uJywgJy1waHQnLCAnMi4wJywgJy1waCcsICc3LjAnLCAnLXRuJywgJzgnLCAnLW1hJywgJzIwMCcsICctaW1hZScsICc8aW5maWxlLm1hZT4nLCAnLW9tYWUnLCAnPG91dGZpbGUubWFlPic=

>  <r_epik_Ionization_Penalty>  (103) 
0.00805569

>  <r_epik_Ionization_Penalty_Charging>  (103) 
0

>  <r_epik_Ionization_Penalty_Neutral>  (103) 
0.00805569

>  <r_epik_State_Penalty>  (103) 
0.00603121

>  <r_epik_Charging_Adjusted_Penalty>  (103) 
0.00603121

>  <i_epik_Tot_Q>  (103) 
0

>  <i_epik_Tot_abs_Q>  (103) 
0

>  <s_epik_Chemistry_Notes>  (103) 
This compound has an imine and may undergo hydrolysis.

>  <s_lp_Force_Field>  (103) 
OPLS3e

>  <r_lp_Energy>  (103) 
18.5288

>  <b_lp_Chiralities_Consistent>  (103) 
1

>  <s_lp_Variant>  (103) 
28:0-1

>  <s_i_glide_gridfile>  (103) 
pfpi4k_grid

>  <i_i_glide_lignum>  (103) 
47

>  <i_i_glide_rotatable_bonds>  (103) 
4

>  <r_i_docking_score>  (103) 
-2.92729

>  <r_i_glide_ligand_efficiency>  (103) 
-0.104546

>  <r_i_glide_ligand_efficiency_sa>  (103) 
-0.317464

>  <r_i_glide_ligand_efficiency_ln>  (103) 
-0.675705

>  <r_i_glide_gscore>  (103) 
-2.92729

>  <r_i_glide_lipo>  (103) 
-0.788493

>  <r_i_glide_hbond>  (103) 
0

>  <r_i_glide_metal>  (103) 
-0

>  <r_i_glide_rewards>  (103) 
-0.739585

>  <r_i_glide_evdw>  (103) 
-35.2523

>  <r_i_glide_ecoul>  (103) 
-0.778071

>  <r_i_glide_erotb>  (103) 
0.480113

>  <r_i_glide_esite>  (103) 
0

>  <r_i_glide_emodel>  (103) 
-39.9139

>  <r_i_glide_energy>  (103) 
-36.0304

>  <r_i_glide_einternal>  (103) 
4.2409

>  <r_i_glide_intrahb_reward>  (103) 
-0

>  <i_i_glide_confnum>  (103) 
2

>  <i_i_glide_posenum>  (103) 
21

>  <r_i_glide_eff_state_penalty>  (103) 
0

>  <ligand_id>  (103) 
28

>  <original_smiles>  (103) 
CC1(c2ccccc2)CSC(N2N=C(c3ccccn3)CC2c2cccs2)=N1

>  <smiles>  (103) 
[H]c1nc(C2=NN(C3=NC(c4c([H])c([H])c([H])c([H])c4[H])(C([H])([H])[H])C([H])([H])S3)C([H])(c3sc([H])c([H])c3[H])C2([H])[H])c([H])c([H])c1[H]

$$$$
28:0:1
     RDKit          3D

 48 52  0  0  1  0  0  0  0  0999 V2000
    1.4603    3.6112    3.9791 C   0  0  0  0  0  0  0  0  0  0  0  0
    1.0577    2.1323    4.1287 C   0  0  1  0  0  0  0  0  0  0  0  0
    0.3306    1.9332    5.4684 C   0  0  0  0  0  0  0  0  0  0  0  0
    0.9720    1.3383    6.5868 C   0  0  0  0  0  0  0  0  0  0  0  0
    0.2849    1.1713    7.8070 C   0  0  0  0  0  0  0  0  0  0  0  0
   -1.0530    1.5988    7.9285 C   0  0  0  0  0  0  0  0  0  0  0  0
   -1.7046    2.1867    6.8247 C   0  0  0  0  0  0  0  0  0  0  0  0
   -1.0142    2.3536    5.6070 C   0  0  0  0  0  0  0  0  0  0  0  0
    0.1328    1.7244    2.9370 C   0  0  0  0  0  0  0  0  0  0  0  0
    1.1648    1.0220    1.6828 S   0  0  0  0  0  0  0  0  0  0  0  0
    2.4418    0.8059    2.9065 C   0  0  0  0  0  0  0  0  0  0  0  0
    3.4757   -0.0467    2.5222 N   0  0  0  0  0  0  0  0  0  0  0  0
    3.8106   -0.2456    1.2454 N   0  0  0  0  0  0  0  0  0  0  0  0
    4.4289   -1.3555    1.1281 C   0  0  0  0  0  0  0  0  0  0  0  0
    4.8619   -1.9312   -0.1503 C   0  0  0  0  0  0  0  0  0  0  0  0
    4.0022   -1.8003   -1.2695 C   0  0  0  0  0  0  0  0  0  0  0  0
    4.4253   -2.3559   -2.4910 C   0  0  0  0  0  0  0  0  0  0  0  0
    5.6789   -2.9941   -2.5405 C   0  0  0  0  0  0  0  0  0  0  0  0
    6.4582   -3.0550   -1.3658 C   0  0  0  0  0  0  0  0  0  0  0  0
    6.0589   -2.5431   -0.1847 N   0  0  0  0  0  0  0  0  0  0  0  0
    4.6318   -2.0888    2.4148 C   0  0  0  0  0  0  0  0  0  0  0  0
    3.9616   -1.1249    3.3900 C   0  0  1  0  0  0  0  0  0  0  0  0
    4.8465   -0.7185    4.5339 C   0  0  0  0  0  0  0  0  0  0  0  0
    5.7792    0.2790    4.5843 C   0  0  0  0  0  0  0  0  0  0  0  0
    6.4557    0.3552    5.8399 C   0  0  0  0  0  0  0  0  0  0  0  0
    6.0323   -0.5916    6.7329 C   0  0  0  0  0  0  0  0  0  0  0  0
    4.7937   -1.6023    6.0329 S   0  0  0  0  0  0  0  0  0  0  0  0
    2.2829    1.3260    4.0698 N   0  0  0  0  0  0  0  0  0  0  0  0
    0.5832    4.2583    3.9958 H   0  0  0  0  0  0  0  0  0  0  0  0
    1.9733    3.7844    3.0336 H   0  0  0  0  0  0  0  0  0  0  0  0
    2.1250    3.9175    4.7858 H   0  0  0  0  0  0  0  0  0  0  0  0
    2.0017    1.0103    6.5250 H   0  0  0  0  0  0  0  0  0  0  0  0
    0.7970    0.7265    8.6513 H   0  0  0  0  0  0  0  0  0  0  0  0
   -1.5686    1.4894    8.8716 H   0  0  0  0  0  0  0  0  0  0  0  0
   -2.7267    2.5241    6.9111 H   0  0  0  0  0  0  0  0  0  0  0  0
   -1.5197    2.8132    4.7719 H   0  0  0  0  0  0  0  0  0  0  0  0
   -0.5510    0.9292    3.2343 H   0  0  0  0  0  0  0  0  0  0  0  0
   -0.4590    2.5427    2.5273 H   0  0  0  0  0  0  0  0  0  0  0  0
    3.0403   -1.3046   -1.1875 H   0  0  0  0  0  0  0  0  0  0  0  0
    3.8061   -2.2832   -3.3804 H   0  0  0  0  0  0  0  0  0  0  0  0
    6.0598   -3.4262   -3.4560 H   0  0  0  0  0  0  0  0  0  0  0  0
    7.4241   -3.5264   -1.3599 H   0  0  0  0  0  0  0  0  0  0  0  0
    4.1170   -3.0500    2.4106 H   0  0  0  0  0  0  0  0  0  0  0  0
    5.6936   -2.2448    2.6131 H   0  0  0  0  0  0  0  0  0  0  0  0
    3.0755   -1.6039    3.7991 H   0  0  0  0  0  0  0  0  0  0  0  0
    6.0135    0.9444    3.7678 H   0  0  0  0  0  0  0  0  0  0  0  0
    7.2282    1.0877    6.0376 H   0  0  0  0  0  0  0  0  0  0  0  0
    6.3698   -0.7626    7.7539 H   0  0  0  0  0  0  0  0  0  0  0  0
  2  1  1  6
  1 29  1  0
  1 30  1  0
  1 31  1  0
  2 28  1  0
  2  3  1  0
  2  9  1  0
  3  8  1  0
  3  4  2  0
  4  5  1  0
  4 32  1  0
  5  6  2  0
  5 33  1  0
  6  7  1  0
  6 34  1  0
  7  8  2  0
  7 35  1  0
  8 36  1  0
  9 10  1  0
  9 37  1  0
  9 38  1  0
 10 11  1  0
 11 12  1  0
 11 28  2  0
 12 22  1  0
 12 13  1  0
 13 14  2  0
 14 15  1  0
 14 21  1  0
 15 20  1  0
 15 16  2  0
 16 17  1  0
 16 39  1  0
 17 18  2  0
 17 40  1  0
 18 19  1  0
 18 41  1  0
 19 20  2  0
 19 42  1  0
 21 22  1  0
 21 43  1  0
 21 44  1  0
 22 23  1  0
 22 45  1  1
 23 27  1  0
 23 24  2  0
 24 25  1  0
 24 46  1  0
 25 26  2  0
 25 47  1  0
 26 27  1  0
 26 48  1  0
M  END
>  <i_m_ct_stereo_status>  (104) 
1

>  <s_m_source_file>  (104) 
/var/tmp/pbs.5076255.sched01/tmpuj7nejrg/06cdl7mjn.sdf

>  <i_m_source_file_index>  (104) 
47

>  <i_lp_mmshare_version>  (104) 
48012

>  <i_f3d_flags>  (104) 
0

>  <s_epik_input>  (104) 
W2NIXTFbY0hdW2NIXVtjSF1bY0hdYzFbQ0BdMihbQ0gzXSlbQ0gyXVNDKD1OMilOM049QyhjNFtjSF1bY0hdW2NIXVtjSF1uNClbQ0gyXVtDQEhdM2M1W2NIXVtjSF1bY0hdczU=

>  <s_epik_cmdline>  (104) 
J2VwaWtfcHl0aG9uJywgJy1waHQnLCAnMi4wJywgJy1waCcsICc3LjAnLCAnLXRuJywgJzgnLCAnLW1hJywgJzIwMCcsICctaW1hZScsICc8aW5maWxlLm1hZT4nLCAnLW9tYWUnLCAnPG91dGZpbGUubWFlPic=

>  <r_epik_Ionization_Penalty>  (104) 
0.00805569

>  <r_epik_Ionization_Penalty_Charging>  (104) 
0

>  <r_epik_Ionization_Penalty_Neutral>  (104) 
0.00805569

>  <r_epik_State_Penalty>  (104) 
0.00603121

>  <r_epik_Charging_Adjusted_Penalty>  (104) 
0.00603121

>  <i_epik_Tot_Q>  (104) 
0

>  <i_epik_Tot_abs_Q>  (104) 
0

>  <s_epik_Chemistry_Notes>  (104) 
This compound has an imine and may undergo hydrolysis.

>  <s_lp_Force_Field>  (104) 
OPLS3e

>  <r_lp_Energy>  (104) 
18.5288

>  <b_lp_Chiralities_Consistent>  (104) 
1

>  <s_lp_Variant>  (104) 
28:0-1

>  <s_i_glide_gridfile>  (104) 
pfpi4k_grid

>  <i_i_glide_lignum>  (104) 
47

>  <i_i_glide_rotatable_bonds>  (104) 
4

>  <r_i_docking_score>  (104) 
-2.70069

>  <r_i_glide_ligand_efficiency>  (104) 
-0.0964531

>  <r_i_glide_ligand_efficiency_sa>  (104) 
-0.292889

>  <r_i_glide_ligand_efficiency_ln>  (104) 
-0.623398

>  <r_i_glide_gscore>  (104) 
-2.70069

>  <r_i_glide_lipo>  (104) 
-0.722323

>  <r_i_glide_hbond>  (104) 
0

>  <r_i_glide_metal>  (104) 
-0

>  <r_i_glide_rewards>  (104) 
-0.673666

>  <r_i_glide_evdw>  (104) 
-33.0706

>  <r_i_glide_ecoul>  (104) 
-0.86011

>  <r_i_glide_erotb>  (104) 
0.480113

>  <r_i_glide_esite>  (104) 
-0.00226522

>  <r_i_glide_emodel>  (104) 
-37.8546

>  <r_i_glide_energy>  (104) 
-33.9307

>  <r_i_glide_einternal>  (104) 
3.33814

>  <r_i_glide_intrahb_reward>  (104) 
-0

>  <i_i_glide_confnum>  (104) 
1

>  <i_i_glide_posenum>  (104) 
2

>  <r_i_glide_eff_state_penalty>  (104) 
0

>  <ligand_id>  (104) 
28

>  <original_smiles>  (104) 
CC1(c2ccccc2)CSC(N2N=C(c3ccccn3)CC2c2cccs2)=N1

>  <smiles>  (104) 
[H]c1nc(C2=NN(C3=NC(c4c([H])c([H])c([H])c([H])c4[H])(C([H])([H])[H])C([H])([H])S3)C([H])(c3sc([H])c([H])c3[H])C2([H])[H])c([H])c([H])c1[H]

$$$$
28:0:2
     RDKit          3D

 48 52  0  0  1  0  0  0  0  0999 V2000
    2.2931   -7.3166    5.2630 C   0  0  0  0  0  0  0  0  0  0  0  0
    1.5530   -6.5953    4.1190 C   0  0  1  0  0  0  0  0  0  0  0  0
    0.3677   -7.4534    3.6574 C   0  0  0  0  0  0  0  0  0  0  0  0
   -0.9715   -7.0862    3.9288 C   0  0  0  0  0  0  0  0  0  0  0  0
   -2.0368   -7.8651    3.4560 C   0  0  0  0  0  0  0  0  0  0  0  0
   -1.7853   -9.0527    2.7487 C   0  0  0  0  0  0  0  0  0  0  0  0
   -0.4631   -9.4600    2.5069 C   0  0  0  0  0  0  0  0  0  0  0  0
    0.6080   -8.6547    2.9443 C   0  0  0  0  0  0  0  0  0  0  0  0
    1.1698   -5.1390    4.5551 C   0  0  0  0  0  0  0  0  0  0  0  0
    2.4670   -4.0319    3.9875 S   0  0  0  0  0  0  0  0  0  0  0  0
    2.9906   -5.3369    2.8929 C   0  0  0  0  0  0  0  0  0  0  0  0
    3.9224   -4.9948    1.9330 N   0  0  0  0  0  0  0  0  0  0  0  0
    3.7295   -3.9806    1.0784 N   0  0  0  0  0  0  0  0  0  0  0  0
    4.3673   -4.2115   -0.0048 C   0  0  0  0  0  0  0  0  0  0  0  0
    4.3343   -3.3822   -1.2275 C   0  0  0  0  0  0  0  0  0  0  0  0
    3.6235   -2.1593   -1.1934 C   0  0  0  0  0  0  0  0  0  0  0  0
    3.5805   -1.3852   -2.3657 C   0  0  0  0  0  0  0  0  0  0  0  0
    4.2260   -1.8595   -3.5185 C   0  0  0  0  0  0  0  0  0  0  0  0
    4.8867   -3.1035   -3.4511 C   0  0  0  0  0  0  0  0  0  0  0  0
    4.9694   -3.8376   -2.3251 N   0  0  0  0  0  0  0  0  0  0  0  0
    5.1746   -5.4631    0.0167 C   0  0  0  0  0  0  0  0  0  0  0  0
    4.8461   -5.9985    1.3916 C   0  0  1  0  0  0  0  0  0  0  0  0
    6.0590   -6.2804    2.2358 C   0  0  0  0  0  0  0  0  0  0  0  0
    6.3924   -5.7789    3.4643 C   0  0  0  0  0  0  0  0  0  0  0  0
    7.6343   -6.2841    3.9607 C   0  0  0  0  0  0  0  0  0  0  0  0
    8.2225   -7.1762    3.1090 C   0  0  0  0  0  0  0  0  0  0  0  0
    7.2500   -7.4321    1.6905 S   0  0  0  0  0  0  0  0  0  0  0  0
    2.4707   -6.5068    3.0017 N   0  0  0  0  0  0  0  0  0  0  0  0
    1.6432   -7.4581    6.1262 H   0  0  0  0  0  0  0  0  0  0  0  0
    3.1707   -6.7555    5.5830 H   0  0  0  0  0  0  0  0  0  0  0  0
    2.6432   -8.3003    4.9493 H   0  0  0  0  0  0  0  0  0  0  0  0
   -1.2247   -6.2158    4.5081 H   0  0  0  0  0  0  0  0  0  0  0  0
   -3.0438   -7.5660    3.6831 H   0  0  0  0  0  0  0  0  0  0  0  0
   -2.6023   -9.6834    2.4322 H   0  0  0  0  0  0  0  0  0  0  0  0
   -0.2705  -10.3938    1.9907 H   0  0  0  0  0  0  0  0  0  0  0  0
    1.6170   -8.9816    2.7296 H   0  0  0  0  0  0  0  0  0  0  0  0
    0.3117   -4.7614    4.0048 H   0  0  0  0  0  0  0  0  0  0  0  0
    0.9472   -5.0578    5.6216 H   0  0  0  0  0  0  0  0  0  0  0  0
    3.1104   -1.8237   -0.3035 H   0  0  0  0  0  0  0  0  0  0  0  0
    3.0617   -0.4338   -2.3732 H   0  0  0  0  0  0  0  0  0  0  0  0
    4.2219   -1.2722   -4.4253 H   0  0  0  0  0  0  0  0  0  0  0  0
    5.3885   -3.5138   -4.3095 H   0  0  0  0  0  0  0  0  0  0  0  0
    4.8479   -6.1690   -0.7486 H   0  0  0  0  0  0  0  0  0  0  0  0
    6.2289   -5.2318   -0.1281 H   0  0  0  0  0  0  0  0  0  0  0  0
    4.3080   -6.9340    1.2508 H   0  0  0  0  0  0  0  0  0  0  0  0
    5.8105   -5.0618    4.0267 H   0  0  0  0  0  0  0  0  0  0  0  0
    8.0470   -5.9652    4.9109 H   0  0  0  0  0  0  0  0  0  0  0  0
    9.1715   -7.6971    3.2086 H   0  0  0  0  0  0  0  0  0  0  0  0
  2  1  1  1
  1 29  1  0
  1 30  1  0
  1 31  1  0
  2 28  1  0
  2  3  1  0
  2  9  1  0
  3  8  1  0
  3  4  2  0
  4  5  1  0
  4 32  1  0
  5  6  2  0
  5 33  1  0
  6  7  1  0
  6 34  1  0
  7  8  2  0
  7 35  1  0
  8 36  1  0
  9 10  1  0
  9 37  1  0
  9 38  1  0
 10 11  1  0
 11 12  1  0
 11 28  2  0
 12 22  1  0
 12 13  1  0
 13 14  2  0
 14 15  1  0
 14 21  1  0
 15 20  1  0
 15 16  2  0
 16 17  1  0
 16 39  1  0
 17 18  2  0
 17 40  1  0
 18 19  1  0
 18 41  1  0
 19 20  2  0
 19 42  1  0
 21 22  1  0
 21 43  1  0
 21 44  1  0
 22 23  1  0
 22 45  1  6
 23 27  1  0
 23 24  2  0
 24 25  1  0
 24 46  1  0
 25 26  2  0
 25 47  1  0
 26 27  1  0
 26 48  1  0
M  END
>  <i_m_ct_stereo_status>  (105) 
1

>  <s_m_source_file>  (105) 
/var/tmp/pbs.5076255.sched01/tmpuj7nejrg/06cdl7mjn.sdf

>  <i_m_source_file_index>  (105) 
47

>  <i_lp_mmshare_version>  (105) 
48012

>  <i_f3d_flags>  (105) 
0

>  <s_epik_input>  (105) 
W2NIXTFbY0hdW2NIXVtjSF1bY0hdYzFbQ0BdMihbQ0gzXSlbQ0gyXVNDKD1OMilOM049QyhjNFtjSF1bY0hdW2NIXVtjSF1uNClbQ0gyXVtDQEhdM2M1W2NIXVtjSF1bY0hdczU=

>  <s_epik_cmdline>  (105) 
J2VwaWtfcHl0aG9uJywgJy1waHQnLCAnMi4wJywgJy1waCcsICc3LjAnLCAnLXRuJywgJzgnLCAnLW1hJywgJzIwMCcsICctaW1hZScsICc8aW5maWxlLm1hZT4nLCAnLW9tYWUnLCAnPG91dGZpbGUubWFlPic=

>  <r_epik_Ionization_Penalty>  (105) 
0.00805569

>  <r_epik_Ionization_Penalty_Charging>  (105) 
0

>  <r_epik_Ionization_Penalty_Neutral>  (105) 
0.00805569

>  <r_epik_State_Penalty>  (105) 
0.00603121

>  <r_epik_Charging_Adjusted_Penalty>  (105) 
0.00603121

>  <i_epik_Tot_Q>  (105) 
0

>  <i_epik_Tot_abs_Q>  (105) 
0

>  <s_epik_Chemistry_Notes>  (105) 
This compound has an imine and may undergo hydrolysis.

>  <s_lp_Force_Field>  (105) 
OPLS3e

>  <r_lp_Energy>  (105) 
18.5288

>  <b_lp_Chiralities_Consistent>  (105) 
1

>  <s_lp_Variant>  (105) 
28:0-1

>  <s_i_glide_gridfile>  (105) 
pfpi4k_grid

>  <i_i_glide_lignum>  (105) 
47

>  <i_i_glide_rotatable_bonds>  (105) 
4

>  <r_i_docking_score>  (105) 
-2.44306

>  <r_i_glide_ligand_efficiency>  (105) 
-0.087252

>  <r_i_glide_ligand_efficiency_sa>  (105) 
-0.264948

>  <r_i_glide_ligand_efficiency_ln>  (105) 
-0.563929

>  <r_i_glide_gscore>  (105) 
-2.44306

>  <r_i_glide_lipo>  (105) 
-0.666521

>  <r_i_glide_hbond>  (105) 
0

>  <r_i_glide_metal>  (105) 
-0

>  <r_i_glide_rewards>  (105) 
-0.666576

>  <r_i_glide_evdw>  (105) 
-34.7451

>  <r_i_glide_ecoul>  (105) 
0.987668

>  <r_i_glide_erotb>  (105) 
0.480113

>  <r_i_glide_esite>  (105) 
-0.000966703

>  <r_i_glide_emodel>  (105) 
-37.2337

>  <r_i_glide_energy>  (105) 
-33.7575

>  <r_i_glide_einternal>  (105) 
2.89407

>  <r_i_glide_intrahb_reward>  (105) 
-0

>  <i_i_glide_confnum>  (105) 
3

>  <i_i_glide_posenum>  (105) 
23

>  <r_i_glide_eff_state_penalty>  (105) 
0

>  <ligand_id>  (105) 
28

>  <original_smiles>  (105) 
CC1(c2ccccc2)CSC(N2N=C(c3ccccn3)CC2c2cccs2)=N1

>  <smiles>  (105) 
[H]c1nc(C2=NN(C3=NC(c4c([H])c([H])c([H])c([H])c4[H])(C([H])([H])[H])C([H])([H])S3)C([H])(c3sc([H])c([H])c3[H])C2([H])[H])c([H])c([H])c1[H]

$$$$
28:1:0
     RDKit          3D

 49 53  0  0  1  0  0  0  0  0999 V2000
    4.5065   -9.0431    0.8816 C   0  0  0  0  0  0  0  0  0  0  0  0
    3.8653   -8.0022    1.8090 C   0  0  1  0  0  0  0  0  0  0  0  0
    2.4773   -8.4181    2.3300 C   0  0  0  0  0  0  0  0  0  0  0  0
    2.1623   -9.7818    2.5364 C   0  0  0  0  0  0  0  0  0  0  0  0
    0.8818  -10.1614    2.9748 C   0  0  0  0  0  0  0  0  0  0  0  0
   -0.1006   -9.1865    3.2323 C   0  0  0  0  0  0  0  0  0  0  0  0
    0.1981   -7.8259    3.0505 C   0  0  0  0  0  0  0  0  0  0  0  0
    1.4769   -7.4416    2.6075 C   0  0  0  0  0  0  0  0  0  0  0  0
    4.8041   -7.6842    2.9969 C   0  0  0  0  0  0  0  0  0  0  0  0
    4.5083   -5.9629    3.4189 S   0  0  0  0  0  0  0  0  0  0  0  0
    3.8959   -5.6010    1.7746 C   0  0  0  0  0  0  0  0  0  0  0  0
    3.6971   -4.3341    1.3662 N   0  0  0  0  0  0  0  0  0  0  0  0
    3.2427   -4.1422    0.0661 N   0  0  0  0  0  0  0  0  0  0  0  0
    3.5992   -2.9242   -0.1734 C   0  0  0  0  0  0  0  0  0  0  0  0
    3.5250   -2.3396   -1.5282 C   0  0  0  0  0  0  0  0  0  0  0  0
    2.8181   -3.0372   -2.5324 C   0  0  0  0  0  0  0  0  0  0  0  0
    2.7691   -2.4868   -3.8187 C   0  0  0  0  0  0  0  0  0  0  0  0
    3.4250   -1.2603   -4.0479 C   0  0  0  0  0  0  0  0  0  0  0  0
    4.1122   -0.6543   -2.9853 C   0  0  0  0  0  0  0  0  0  0  0  0
    4.1981   -1.1892   -1.7582 N   0  0  0  0  0  0  0  0  0  0  0  0
    4.1501   -2.1048    0.9517 C   0  0  0  0  0  0  0  0  0  0  0  0
    4.1423   -3.1154    2.0686 C   0  0  1  0  0  0  0  0  0  0  0  0
    3.3669   -2.7076    3.2827 C   0  0  0  0  0  0  0  0  0  0  0  0
    3.8908   -2.4530    4.5211 C   0  0  0  0  0  0  0  0  0  0  0  0
    2.9243   -2.0058    5.4781 C   0  0  0  0  0  0  0  0  0  0  0  0
    1.6638   -1.9224    4.9534 C   0  0  0  0  0  0  0  0  0  0  0  0
    1.6431   -2.4137    3.2720 S   0  0  0  0  0  0  0  0  0  0  0  0
    3.7349   -6.7305    1.0655 N   0  0  0  0  0  0  0  0  0  0  0  0
    4.7247   -9.9813    1.3863 H   0  0  0  0  0  0  0  0  0  0  0  0
    5.4576   -8.7068    0.4721 H   0  0  0  0  0  0  0  0  0  0  0  0
    3.8362   -9.2654    0.0572 H   0  0  0  0  0  0  0  0  0  0  0  0
    2.8767  -10.5688    2.3389 H   0  0  0  0  0  0  0  0  0  0  0  0
    0.6635  -11.2067    3.1094 H   0  0  0  0  0  0  0  0  0  0  0  0
   -1.0689   -9.4885    3.5869 H   0  0  0  0  0  0  0  0  0  0  0  0
   -0.5439   -7.0731    3.2528 H   0  0  0  0  0  0  0  0  0  0  0  0
    1.6637   -6.3892    2.4740 H   0  0  0  0  0  0  0  0  0  0  0  0
    4.7105   -8.3547    3.8465 H   0  0  0  0  0  0  0  0  0  0  0  0
    5.8461   -7.7216    2.6779 H   0  0  0  0  0  0  0  0  0  0  0  0
    2.2916   -3.9616   -2.3272 H   0  0  0  0  0  0  0  0  0  0  0  0
    2.2199   -2.9947   -4.5923 H   0  0  0  0  0  0  0  0  0  0  0  0
    3.3715   -0.7854   -5.0141 H   0  0  0  0  0  0  0  0  0  0  0  0
    4.6140    0.2938   -3.1182 H   0  0  0  0  0  0  0  0  0  0  0  0
    5.1718   -1.7834    0.7568 H   0  0  0  0  0  0  0  0  0  0  0  0
    3.5095   -1.2383    1.1288 H   0  0  0  0  0  0  0  0  0  0  0  0
    5.1769   -3.3125    2.3694 H   0  0  0  0  0  0  0  0  0  0  0  0
    4.9268   -2.5519    4.7972 H   0  0  0  0  0  0  0  0  0  0  0  0
    3.1817   -1.7560    6.5010 H   0  0  0  0  0  0  0  0  0  0  0  0
    0.7460   -1.6028    5.4340 H   0  0  0  0  0  0  0  0  0  0  0  0
    3.4693   -6.7039    0.0848 H   0  0  0  0  0  0  0  0  0  0  0  0
  2  1  1  6
  1 29  1  0
  1 30  1  0
  1 31  1  0
  2 28  1  0
  2  3  1  0
  2  9  1  0
  3  8  1  0
  3  4  2  0
  4  5  1  0
  4 32  1  0
  5  6  2  0
  5 33  1  0
  6  7  1  0
  6 34  1  0
  7  8  2  0
  7 35  1  0
  8 36  1  0
  9 10  1  0
  9 37  1  0
  9 38  1  0
 10 11  1  0
 11 12  1  0
 11 28  2  0
 12 22  1  0
 12 13  1  0
 13 14  2  0
 14 15  1  0
 14 21  1  0
 15 20  1  0
 15 16  2  0
 16 17  1  0
 16 39  1  0
 17 18  2  0
 17 40  1  0
 18 19  1  0
 18 41  1  0
 19 20  2  0
 19 42  1  0
 21 22  1  0
 21 43  1  0
 21 44  1  0
 22 23  1  0
 22 45  1  1
 23 27  1  0
 23 24  2  0
 24 25  1  0
 24 46  1  0
 25 26  2  0
 25 47  1  0
 26 27  1  0
 26 48  1  0
 28 49  1  0
M  CHG  1  28   1
M  END
>  <i_m_ct_stereo_status>  (106) 
1

>  <s_m_source_file>  (106) 
/var/tmp/pbs.5076255.sched01/tmpuj7nejrg/06cdl7mjn.sdf

>  <i_m_source_file_index>  (106) 
48

>  <i_lp_mmshare_version>  (106) 
48012

>  <i_f3d_flags>  (106) 
0

>  <s_epik_input>  (106) 
W2NIXTFbY0hdW2NIXVtjSF1bY0hdYzFbQ0BdMihbQ0gzXSlbQ0gyXVNDKD1OMilOM049QyhjNFtjSF1bY0hdW2NIXVtjSF1uNClbQ0gyXVtDQEhdM2M1W2NIXVtjSF1bY0hdczU=

>  <s_epik_cmdline>  (106) 
J2VwaWtfcHl0aG9uJywgJy1waHQnLCAnMi4wJywgJy1waCcsICc3LjAnLCAnLXRuJywgJzgnLCAnLW1hJywgJzIwMCcsICctaW1hZScsICc8aW5maWxlLm1hZT4nLCAnLW9tYWUnLCAnPG91dGZpbGUubWFlPic=

>  <r_epik_Ionization_Penalty>  (106) 
2.5523

>  <r_epik_Ionization_Penalty_Charging>  (106) 
2.5523

>  <r_epik_Ionization_Penalty_Neutral>  (106) 
1.39979e-06

>  <r_epik_State_Penalty>  (106) 
2.72097

>  <r_epik_Charging_Adjusted_Penalty>  (106) 
5.27327

>  <i_epik_Tot_Q>  (106) 
1

>  <i_epik_Tot_abs_Q>  (106) 
1

>  <s_epik_Chemistry_Notes>  (106) 
This compound has an imine and may undergo hydrolysis.

>  <s_lp_Force_Field>  (106) 
OPLS3e

>  <r_lp_Energy>  (106) 
26.4266

>  <b_lp_Chiralities_Consistent>  (106) 
1

>  <s_lp_Variant>  (106) 
28:0-2

>  <s_i_glide_gridfile>  (106) 
pfpi4k_grid

>  <i_i_glide_lignum>  (106) 
48

>  <i_i_glide_rotatable_bonds>  (106) 
4

>  <r_i_docking_score>  (106) 
-2.9267

>  <r_i_glide_ligand_efficiency>  (106) 
-0.104525

>  <r_i_glide_ligand_efficiency_sa>  (106) 
-0.3174

>  <r_i_glide_ligand_efficiency_ln>  (106) 
-0.675568

>  <r_i_glide_gscore>  (106) 
-2.9267

>  <r_i_glide_lipo>  (106) 
-0.613872

>  <r_i_glide_hbond>  (106) 
0

>  <r_i_glide_metal>  (106) 
-0

>  <r_i_glide_rewards>  (106) 
-0.682935

>  <r_i_glide_evdw>  (106) 
-34.6316

>  <r_i_glide_ecoul>  (106) 
-2.42314

>  <r_i_glide_erotb>  (106) 
0.477965

>  <r_i_glide_esite>  (106) 
-0.0128089

>  <r_i_glide_emodel>  (106) 
-42.2784

>  <r_i_glide_energy>  (106) 
-37.0547

>  <r_i_glide_einternal>  (106) 
1.57757

>  <r_i_glide_intrahb_reward>  (106) 
-0

>  <i_i_glide_confnum>  (106) 
5

>  <i_i_glide_posenum>  (106) 
37

>  <r_i_glide_eff_state_penalty>  (106) 
0

>  <ligand_id>  (106) 
28

>  <original_smiles>  (106) 
CC1(c2ccccc2)CSC(N2N=C(c3ccccn3)CC2c2cccs2)=N1

>  <smiles>  (106) 
[H]c1nc(C2=NN(C3=[N+]([H])C(c4c([H])c([H])c([H])c([H])c4[H])(C([H])([H])[H])C([H])([H])S3)C([H])(c3sc([H])c([H])c3[H])C2([H])[H])c([H])c([H])c1[H]

$$$$
28:1:1
     RDKit          3D

 49 53  0  0  1  0  0  0  0  0999 V2000
    6.2519   -2.3521   -0.9288 C   0  0  0  0  0  0  0  0  0  0  0  0
    4.9110   -2.6544   -0.2608 C   0  0  1  0  0  0  0  0  0  0  0  0
    4.6291   -1.6686    0.8988 C   0  0  0  0  0  0  0  0  0  0  0  0
    5.6101   -1.4162    1.8892 C   0  0  0  0  0  0  0  0  0  0  0  0
    5.3574   -0.5099    2.9432 C   0  0  0  0  0  0  0  0  0  0  0  0
    4.1145    0.1425    3.0405 C   0  0  0  0  0  0  0  0  0  0  0  0
    3.1264   -0.1071    2.0781 C   0  0  0  0  0  0  0  0  0  0  0  0
    3.3900   -1.0009    1.0261 C   0  0  0  0  0  0  0  0  0  0  0  0
    3.7848   -2.6870   -1.3404 C   0  0  0  0  0  0  0  0  0  0  0  0
    2.5542   -3.8485   -0.7226 S   0  0  0  0  0  0  0  0  0  0  0  0
    3.7297   -4.6325    0.3682 C   0  0  0  0  0  0  0  0  0  0  0  0
    3.3751   -5.6713    1.1522 N   0  0  0  0  0  0  0  0  0  0  0  0
    2.0690   -6.1539    1.1686 N   0  0  0  0  0  0  0  0  0  0  0  0
    1.9888   -6.7199    2.3263 C   0  0  0  0  0  0  0  0  0  0  0  0
    0.7225   -7.2678    2.8603 C   0  0  0  0  0  0  0  0  0  0  0  0
   -0.3420   -7.5112    1.9615 C   0  0  0  0  0  0  0  0  0  0  0  0
   -1.5375   -8.0359    2.4819 C   0  0  0  0  0  0  0  0  0  0  0  0
   -1.6382   -8.2563    3.8593 C   0  0  0  0  0  0  0  0  0  0  0  0
   -0.5315   -7.9653    4.6735 C   0  0  0  0  0  0  0  0  0  0  0  0
    0.6236   -7.4658    4.1905 N   0  0  0  0  0  0  0  0  0  0  0  0
    3.2173   -6.7974    3.1771 C   0  0  0  0  0  0  0  0  0  0  0  0
    4.1978   -6.0748    2.2933 C   0  0  1  0  0  0  0  0  0  0  0  0
    5.4164   -6.8513    1.9366 C   0  0  0  0  0  0  0  0  0  0  0  0
    5.4888   -8.1198    1.4317 C   0  0  0  0  0  0  0  0  0  0  0  0
    6.8268   -8.5885    1.2818 C   0  0  0  0  0  0  0  0  0  0  0  0
    7.7602   -7.6633    1.6652 C   0  0  0  0  0  0  0  0  0  0  0  0
    7.0047   -6.2029    2.2443 S   0  0  0  0  0  0  0  0  0  0  0  0
    4.9149   -4.0087    0.3238 N   0  0  0  0  0  0  0  0  0  0  0  0
    6.2088   -1.3474   -1.3392 H   0  0  0  0  0  0  0  0  0  0  0  0
    6.4854   -3.0495   -1.7340 H   0  0  0  0  0  0  0  0  0  0  0  0
    7.0780   -2.3932   -0.2268 H   0  0  0  0  0  0  0  0  0  0  0  0
    6.5754   -1.9057    1.8518 H   0  0  0  0  0  0  0  0  0  0  0  0
    6.1312   -0.2930    3.6605 H   0  0  0  0  0  0  0  0  0  0  0  0
    3.9244    0.8559    3.8338 H   0  0  0  0  0  0  0  0  0  0  0  0
    2.1712    0.3942    2.1189 H   0  0  0  0  0  0  0  0  0  0  0  0
    2.5983   -1.1543    0.3234 H   0  0  0  0  0  0  0  0  0  0  0  0
    3.3481   -1.7146   -1.6024 H   0  0  0  0  0  0  0  0  0  0  0  0
    4.1455   -3.1055   -2.2858 H   0  0  0  0  0  0  0  0  0  0  0  0
   -0.2330   -7.3601    0.8970 H   0  0  0  0  0  0  0  0  0  0  0  0
   -2.3576   -8.2755    1.8240 H   0  0  0  0  0  0  0  0  0  0  0  0
   -2.5382   -8.6861    4.2683 H   0  0  0  0  0  0  0  0  0  0  0  0
   -0.5726   -8.1340    5.7376 H   0  0  0  0  0  0  0  0  0  0  0  0
    3.1006   -6.2751    4.1254 H   0  0  0  0  0  0  0  0  0  0  0  0
    3.4865   -7.8357    3.3752 H   0  0  0  0  0  0  0  0  0  0  0  0
    4.4968   -5.1529    2.7894 H   0  0  0  0  0  0  0  0  0  0  0  0
    4.6426   -8.7455    1.1979 H   0  0  0  0  0  0  0  0  0  0  0  0
    7.0445   -9.5789    0.9096 H   0  0  0  0  0  0  0  0  0  0  0  0
    8.8407   -7.7498    1.6653 H   0  0  0  0  0  0  0  0  0  0  0  0
    5.7512   -4.4082    0.7381 H   0  0  0  0  0  0  0  0  0  0  0  0
  2  1  1  6
  1 29  1  0
  1 30  1  0
  1 31  1  0
  2 28  1  0
  2  3  1  0
  2  9  1  0
  3  8  1  0
  3  4  2  0
  4  5  1  0
  4 32  1  0
  5  6  2  0
  5 33  1  0
  6  7  1  0
  6 34  1  0
  7  8  2  0
  7 35  1  0
  8 36  1  0
  9 10  1  0
  9 37  1  0
  9 38  1  0
 10 11  1  0
 11 12  1  0
 11 28  2  0
 12 22  1  0
 12 13  1  0
 13 14  2  0
 14 15  1  0
 14 21  1  0
 15 20  1  0
 15 16  2  0
 16 17  1  0
 16 39  1  0
 17 18  2  0
 17 40  1  0
 18 19  1  0
 18 41  1  0
 19 20  2  0
 19 42  1  0
 21 22  1  0
 21 43  1  0
 21 44  1  0
 22 23  1  0
 22 45  1  1
 23 27  1  0
 23 24  2  0
 24 25  1  0
 24 46  1  0
 25 26  2  0
 25 47  1  0
 26 27  1  0
 26 48  1  0
 28 49  1  0
M  CHG  1  28   1
M  END
>  <i_m_ct_stereo_status>  (107) 
1

>  <s_m_source_file>  (107) 
/var/tmp/pbs.5076255.sched01/tmpuj7nejrg/06cdl7mjn.sdf

>  <i_m_source_file_index>  (107) 
48

>  <i_lp_mmshare_version>  (107) 
48012

>  <i_f3d_flags>  (107) 
0

>  <s_epik_input>  (107) 
W2NIXTFbY0hdW2NIXVtjSF1bY0hdYzFbQ0BdMihbQ0gzXSlbQ0gyXVNDKD1OMilOM049QyhjNFtjSF1bY0hdW2NIXVtjSF1uNClbQ0gyXVtDQEhdM2M1W2NIXVtjSF1bY0hdczU=

>  <s_epik_cmdline>  (107) 
J2VwaWtfcHl0aG9uJywgJy1waHQnLCAnMi4wJywgJy1waCcsICc3LjAnLCAnLXRuJywgJzgnLCAnLW1hJywgJzIwMCcsICctaW1hZScsICc8aW5maWxlLm1hZT4nLCAnLW9tYWUnLCAnPG91dGZpbGUubWFlPic=

>  <r_epik_Ionization_Penalty>  (107) 
2.5523

>  <r_epik_Ionization_Penalty_Charging>  (107) 
2.5523

>  <r_epik_Ionization_Penalty_Neutral>  (107) 
1.39979e-06

>  <r_epik_State_Penalty>  (107) 
2.72097

>  <r_epik_Charging_Adjusted_Penalty>  (107) 
5.27327

>  <i_epik_Tot_Q>  (107) 
1

>  <i_epik_Tot_abs_Q>  (107) 
1

>  <s_epik_Chemistry_Notes>  (107) 
This compound has an imine and may undergo hydrolysis.

>  <s_lp_Force_Field>  (107) 
OPLS3e

>  <r_lp_Energy>  (107) 
26.4266

>  <b_lp_Chiralities_Consistent>  (107) 
1

>  <s_lp_Variant>  (107) 
28:0-2

>  <s_i_glide_gridfile>  (107) 
pfpi4k_grid

>  <i_i_glide_lignum>  (107) 
48

>  <i_i_glide_rotatable_bonds>  (107) 
4

>  <r_i_docking_score>  (107) 
-2.85188

>  <r_i_glide_ligand_efficiency>  (107) 
-0.101853

>  <r_i_glide_ligand_efficiency_sa>  (107) 
-0.309285

>  <r_i_glide_ligand_efficiency_ln>  (107) 
-0.658298

>  <r_i_glide_gscore>  (107) 
-2.85188

>  <r_i_glide_lipo>  (107) 
-0.573596

>  <r_i_glide_hbond>  (107) 
0

>  <r_i_glide_metal>  (107) 
-0

>  <r_i_glide_rewards>  (107) 
-0.656696

>  <r_i_glide_evdw>  (107) 
-32.1416

>  <r_i_glide_ecoul>  (107) 
-3.17127

>  <r_i_glide_erotb>  (107) 
0.477965

>  <r_i_glide_esite>  (107) 
-0.0167846

>  <r_i_glide_emodel>  (107) 
-39.1097

>  <r_i_glide_energy>  (107) 
-35.3129

>  <r_i_glide_einternal>  (107) 
4.76549

>  <r_i_glide_intrahb_reward>  (107) 
-0

>  <i_i_glide_confnum>  (107) 
6

>  <i_i_glide_posenum>  (107) 
2

>  <r_i_glide_eff_state_penalty>  (107) 
0

>  <ligand_id>  (107) 
28

>  <original_smiles>  (107) 
CC1(c2ccccc2)CSC(N2N=C(c3ccccn3)CC2c2cccs2)=N1

>  <smiles>  (107) 
[H]c1nc(C2=NN(C3=[N+]([H])C(c4c([H])c([H])c([H])c([H])c4[H])(C([H])([H])[H])C([H])([H])S3)C([H])(c3sc([H])c([H])c3[H])C2([H])[H])c([H])c([H])c1[H]

$$$$
28:1:2
     RDKit          3D

 49 53  0  0  1  0  0  0  0  0999 V2000
    6.1433   -1.9351    0.0430 C   0  0  0  0  0  0  0  0  0  0  0  0
    4.7509   -2.4523    0.4162 C   0  0  1  0  0  0  0  0  0  0  0  0
    4.1607   -1.5825    1.5478 C   0  0  0  0  0  0  0  0  0  0  0  0
    4.0976   -2.0317    2.8947 C   0  0  0  0  0  0  0  0  0  0  0  0
    3.5736   -1.2114    3.9142 C   0  0  0  0  0  0  0  0  0  0  0  0
    3.1044    0.0784    3.6112 C   0  0  0  0  0  0  0  0  0  0  0  0
    3.1707    0.5430    2.2864 C   0  0  0  0  0  0  0  0  0  0  0  0
    3.7060   -0.2719    1.2690 C   0  0  0  0  0  0  0  0  0  0  0  0
    3.8002   -2.5107   -0.8105 C   0  0  0  0  0  0  0  0  0  0  0  0
    2.6256   -3.8338   -0.4675 S   0  0  0  0  0  0  0  0  0  0  0  0
    3.7301   -4.5794    0.7240 C   0  0  0  0  0  0  0  0  0  0  0  0
    3.3884   -5.6805    1.4187 N   0  0  0  0  0  0  0  0  0  0  0  0
    2.1060   -6.2108    1.3377 N   0  0  0  0  0  0  0  0  0  0  0  0
    1.9897   -6.8536    2.4522 C   0  0  0  0  0  0  0  0  0  0  0  0
    0.7193   -7.4671    2.8949 C   0  0  0  0  0  0  0  0  0  0  0  0
   -0.3076   -7.6554    1.9416 C   0  0  0  0  0  0  0  0  0  0  0  0
   -1.5030   -8.2527    2.3748 C   0  0  0  0  0  0  0  0  0  0  0  0
   -1.6482   -8.5812    3.7220 C   0  0  0  0  0  0  0  0  0  0  0  0
   -0.5768   -8.3420    4.5982 C   0  0  0  0  0  0  0  0  0  0  0  0
    0.5850   -7.7839    4.2002 N   0  0  0  0  0  0  0  0  0  0  0  0
    3.1876   -6.9610    3.3408 C   0  0  0  0  0  0  0  0  0  0  0  0
    4.1742   -6.1400    2.5653 C   0  0  1  0  0  0  0  0  0  0  0  0
    5.4328   -6.8476    2.1933 C   0  0  0  0  0  0  0  0  0  0  0  0
    5.5754   -7.9752    1.4322 C   0  0  0  0  0  0  0  0  0  0  0  0
    6.9251   -8.4230    1.3320 C   0  0  0  0  0  0  0  0  0  0  0  0
    7.8067   -7.6167    2.0077 C   0  0  0  0  0  0  0  0  0  0  0  0
    6.9770   -6.3078    2.8046 S   0  0  0  0  0  0  0  0  0  0  0  0
    4.8504   -3.8519    0.8640 N   0  0  0  0  0  0  0  0  0  0  0  0
    6.0872   -0.9138   -0.3318 H   0  0  0  0  0  0  0  0  0  0  0  0
    6.6159   -2.5570   -0.7185 H   0  0  0  0  0  0  0  0  0  0  0  0
    6.7959   -1.9228    0.9162 H   0  0  0  0  0  0  0  0  0  0  0  0
    4.4613   -3.0034    3.1840 H   0  0  0  0  0  0  0  0  0  0  0  0
    3.5406   -1.5693    4.9315 H   0  0  0  0  0  0  0  0  0  0  0  0
    2.7114    0.7130    4.3922 H   0  0  0  0  0  0  0  0  0  0  0  0
    2.8304    1.5424    2.0555 H   0  0  0  0  0  0  0  0  0  0  0  0
    3.7726    0.1292    0.2698 H   0  0  0  0  0  0  0  0  0  0  0  0
    3.2889   -1.5824   -1.0639 H   0  0  0  0  0  0  0  0  0  0  0  0
    4.3607   -2.8167   -1.6935 H   0  0  0  0  0  0  0  0  0  0  0  0
   -0.1719   -7.4099    0.8998 H   0  0  0  0  0  0  0  0  0  0  0  0
   -2.3068   -8.4563    1.6884 H   0  0  0  0  0  0  0  0  0  0  0  0
   -2.5491   -9.0564    4.0799 H   0  0  0  0  0  0  0  0  0  0  0  0
   -0.6592   -8.6091    5.6410 H   0  0  0  0  0  0  0  0  0  0  0  0
    3.0201   -6.5271    4.3254 H   0  0  0  0  0  0  0  0  0  0  0  0
    3.4910   -8.0015    3.4546 H   0  0  0  0  0  0  0  0  0  0  0  0
    4.4220   -5.2531    3.1441 H   0  0  0  0  0  0  0  0  0  0  0  0
    4.7615   -8.5118    0.9632 H   0  0  0  0  0  0  0  0  0  0  0  0
    7.1994   -9.3034    0.7742 H   0  0  0  0  0  0  0  0  0  0  0  0
    8.8839   -7.7240    2.0865 H   0  0  0  0  0  0  0  0  0  0  0  0
    5.6194   -4.1557    1.4470 H   0  0  0  0  0  0  0  0  0  0  0  0
  2  1  1  6
  1 29  1  0
  1 30  1  0
  1 31  1  0
  2 28  1  0
  2  3  1  0
  2  9  1  0
  3  8  1  0
  3  4  2  0
  4  5  1  0
  4 32  1  0
  5  6  2  0
  5 33  1  0
  6  7  1  0
  6 34  1  0
  7  8  2  0
  7 35  1  0
  8 36  1  0
  9 10  1  0
  9 37  1  0
  9 38  1  0
 10 11  1  0
 11 12  1  0
 11 28  2  0
 12 22  1  0
 12 13  1  0
 13 14  2  0
 14 15  1  0
 14 21  1  0
 15 20  1  0
 15 16  2  0
 16 17  1  0
 16 39  1  0
 17 18  2  0
 17 40  1  0
 18 19  1  0
 18 41  1  0
 19 20  2  0
 19 42  1  0
 21 22  1  0
 21 43  1  0
 21 44  1  0
 22 23  1  0
 22 45  1  1
 23 27  1  0
 23 24  2  0
 24 25  1  0
 24 46  1  0
 25 26  2  0
 25 47  1  0
 26 27  1  0
 26 48  1  0
 28 49  1  0
M  CHG  1  28   1
M  END
>  <i_m_ct_stereo_status>  (108) 
1

>  <s_m_source_file>  (108) 
/var/tmp/pbs.5076255.sched01/tmpuj7nejrg/06cdl7mjn.sdf

>  <i_m_source_file_index>  (108) 
48

>  <i_lp_mmshare_version>  (108) 
48012

>  <i_f3d_flags>  (108) 
0

>  <s_epik_input>  (108) 
W2NIXTFbY0hdW2NIXVtjSF1bY0hdYzFbQ0BdMihbQ0gzXSlbQ0gyXVNDKD1OMilOM049QyhjNFtjSF1bY0hdW2NIXVtjSF1uNClbQ0gyXVtDQEhdM2M1W2NIXVtjSF1bY0hdczU=

>  <s_epik_cmdline>  (108) 
J2VwaWtfcHl0aG9uJywgJy1waHQnLCAnMi4wJywgJy1waCcsICc3LjAnLCAnLXRuJywgJzgnLCAnLW1hJywgJzIwMCcsICctaW1hZScsICc8aW5maWxlLm1hZT4nLCAnLW9tYWUnLCAnPG91dGZpbGUubWFlPic=

>  <r_epik_Ionization_Penalty>  (108) 
2.5523

>  <r_epik_Ionization_Penalty_Charging>  (108) 
2.5523

>  <r_epik_Ionization_Penalty_Neutral>  (108) 
1.39979e-06

>  <r_epik_State_Penalty>  (108) 
2.72097

>  <r_epik_Charging_Adjusted_Penalty>  (108) 
5.27327

>  <i_epik_Tot_Q>  (108) 
1

>  <i_epik_Tot_abs_Q>  (108) 
1

>  <s_epik_Chemistry_Notes>  (108) 
This compound has an imine and may undergo hydrolysis.

>  <s_lp_Force_Field>  (108) 
OPLS3e

>  <r_lp_Energy>  (108) 
26.4266

>  <b_lp_Chiralities_Consistent>  (108) 
1

>  <s_lp_Variant>  (108) 
28:0-2

>  <s_i_glide_gridfile>  (108) 
pfpi4k_grid

>  <i_i_glide_lignum>  (108) 
48

>  <i_i_glide_rotatable_bonds>  (108) 
4

>  <r_i_docking_score>  (108) 
-2.58211

>  <r_i_glide_ligand_efficiency>  (108) 
-0.092218

>  <r_i_glide_ligand_efficiency_sa>  (108) 
-0.280028

>  <r_i_glide_ligand_efficiency_ln>  (108) 
-0.596026

>  <r_i_glide_gscore>  (108) 
-2.58211

>  <r_i_glide_lipo>  (108) 
-0.439169

>  <r_i_glide_hbond>  (108) 
0

>  <r_i_glide_metal>  (108) 
-0

>  <r_i_glide_rewards>  (108) 
-0.681351

>  <r_i_glide_evdw>  (108) 
-30.9334

>  <r_i_glide_ecoul>  (108) 
-2.52527

>  <r_i_glide_erotb>  (108) 
0.477965

>  <r_i_glide_esite>  (108) 
-0.0140901

>  <r_i_glide_emodel>  (108) 
-38.608

>  <r_i_glide_energy>  (108) 
-33.4587

>  <r_i_glide_einternal>  (108) 
1.34497

>  <r_i_glide_intrahb_reward>  (108) 
-0

>  <i_i_glide_confnum>  (108) 
6

>  <i_i_glide_posenum>  (108) 
17

>  <r_i_glide_eff_state_penalty>  (108) 
0

>  <ligand_id>  (108) 
28

>  <original_smiles>  (108) 
CC1(c2ccccc2)CSC(N2N=C(c3ccccn3)CC2c2cccs2)=N1

>  <smiles>  (108) 
[H]c1nc(C2=NN(C3=[N+]([H])C(c4c([H])c([H])c([H])c([H])c4[H])(C([H])([H])[H])C([H])([H])S3)C([H])(c3sc([H])c([H])c3[H])C2([H])[H])c([H])c([H])c1[H]

$$$$
29:0:0
     RDKit          3D

 27 29  0  0  1  0  0  0  0  0999 V2000
    3.0060    2.1621    2.5079 C   0  0  0  0  0  0  0  0  0  0  0  0
    1.5994    1.8430    2.6358 N   0  0  0  0  0  0  0  0  0  0  0  0
    1.2472    0.5496    3.0262 C   0  0  0  0  0  0  0  0  0  0  0  0
    1.8886   -0.5486    2.4063 C   0  0  0  0  0  0  0  0  0  0  0  0
    1.5568   -1.8607    2.7657 C   0  0  0  0  0  0  0  0  0  0  0  0
    0.6603   -2.1531    3.7263 N   0  0  0  0  0  0  0  0  0  0  0  0
    0.0571   -1.0832    4.3271 C   0  0  0  0  0  0  0  0  0  0  0  0
   -1.0749   -1.3586    5.6498 S   0  0  0  0  0  0  0  0  0  0  0  0
   -1.3438    0.3654    5.8279 C   0  0  0  0  0  0  0  0  0  0  0  0
   -2.1783    0.8425    6.8054 N   0  0  0  0  0  0  0  0  0  0  0  0
   -2.3217    2.1613    6.7569 C   0  0  0  0  0  0  0  0  0  0  0  0
   -1.8307    2.9826    5.8438 N   0  0  0  0  0  0  0  0  0  0  0  0
   -1.0186    2.5198    4.8569 C   0  0  0  0  0  0  0  0  0  0  0  0
   -0.5603    3.3530    3.8118 N   0  0  0  0  0  0  0  0  0  0  0  0
   -0.3298    4.6700    3.8574 C   0  0  0  0  0  0  0  0  0  0  0  0
   -0.5578    5.4027    4.8266 O   0  0  0  0  0  0  0  0  0  0  0  0
   -0.6684    1.1435    4.8317 C   0  0  0  0  0  0  0  0  0  0  0  0
    0.2492    0.3023    4.0227 C   0  0  0  0  0  0  0  0  0  0  0  0
    3.0463    3.2376    2.3123 H   0  0  0  0  0  0  0  0  0  0  0  0
    3.4388    1.6281    1.6717 H   0  0  0  0  0  0  0  0  0  0  0  0
    3.5753    1.9695    3.4229 H   0  0  0  0  0  0  0  0  0  0  0  0
    2.5943   -0.3876    1.6034 H   0  0  0  0  0  0  0  0  0  0  0  0
    1.9788   -2.7087    2.2382 H   0  0  0  0  0  0  0  0  0  0  0  0
   -3.0022    2.5807    7.4894 H   0  0  0  0  0  0  0  0  0  0  0  0
    0.0765    5.0275    2.9027 H   0  0  0  0  0  0  0  0  0  0  0  0
    1.1164    2.6076    3.0719 H   0  0  0  0  0  0  0  0  0  0  0  0
   -0.3949    2.8892    2.9295 H   0  0  0  0  0  0  0  0  0  0  0  0
  1  2  1  0
  1 19  1  0
  1 20  1  0
  1 21  1  0
  2  3  1  0
  2 26  1  0
  3 18  2  0
  3  4  1  0
  4  5  2  0
  4 22  1  0
  5  6  1  0
  5 23  1  0
  6  7  2  0
  7 18  1  0
  7  8  1  0
  8  9  1  0
  9 17  2  0
  9 10  1  0
 10 11  2  0
 11 12  1  0
 11 24  1  0
 12 13  2  0
 13 14  1  0
 13 17  1  0
 14 15  1  0
 14 27  1  0
 15 16  2  0
 15 25  1  0
 17 18  1  0
M  END
>  <i_m_ct_stereo_status>  (109) 
1

>  <s_m_source_file>  (109) 
/var/tmp/pbs.5076255.sched01/tmpuj7nejrg/06cdl7mjn.sdf

>  <i_m_source_file_index>  (109) 
49

>  <i_lp_mmshare_version>  (109) 
48012

>  <i_f3d_flags>  (109) 
0

>  <s_epik_input>  (109) 
W25IXTFbY0hdW2NIXS9jKD1OXFtDSDNdKWMoYzEyKWMzYyhzMilbbkhdW2NIXW4vYzM9TlxbQ0hdPU8=

>  <s_epik_cmdline>  (109) 
J2VwaWtfcHl0aG9uJywgJy1waHQnLCAnMi4wJywgJy1waCcsICc3LjAnLCAnLXRuJywgJzgnLCAnLW1hJywgJzIwMCcsICctaW1hZScsICc8aW5maWxlLm1hZT4nLCAnLW9tYWUnLCAnPG91dGZpbGUubWFlPic=

>  <r_epik_Ionization_Penalty>  (109) 
8.05693e-05

>  <r_epik_Ionization_Penalty_Charging>  (109) 
0

>  <r_epik_Ionization_Penalty_Neutral>  (109) 
8.05693e-05

>  <r_epik_State_Penalty>  (109) 
0.000282219

>  <r_epik_Charging_Adjusted_Penalty>  (109) 
0.000282219

>  <i_epik_Tot_Q>  (109) 
0

>  <i_epik_Tot_abs_Q>  (109) 
0

>  <s_lp_Force_Field>  (109) 
OPLS3e

>  <r_lp_Energy>  (109) 
42.7663

>  <b_lp_Chiralities_Consistent>  (109) 
1

>  <s_lp_Variant>  (109) 
29:0-1

>  <s_i_glide_gridfile>  (109) 
pfpi4k_grid

>  <i_i_glide_lignum>  (109) 
49

>  <i_i_glide_rotatable_bonds>  (109) 
3

>  <r_i_docking_score>  (109) 
-3.79801

>  <r_i_glide_ligand_efficiency>  (109) 
-0.211001

>  <r_i_glide_ligand_efficiency_sa>  (109) 
-0.552978

>  <r_i_glide_ligand_efficiency_ln>  (109) 
-0.976259

>  <r_i_glide_gscore>  (109) 
-3.79801

>  <r_i_glide_lipo>  (109) 
0

>  <r_i_glide_hbond>  (109) 
-0.173702

>  <r_i_glide_metal>  (109) 
-0

>  <r_i_glide_rewards>  (109) 
-1.66657

>  <r_i_glide_evdw>  (109) 
-17.2489

>  <r_i_glide_ecoul>  (109) 
-7.76363

>  <r_i_glide_erotb>  (109) 
0.262991

>  <r_i_glide_esite>  (109) 
-0.193737

>  <r_i_glide_emodel>  (109) 
-30.7447

>  <r_i_glide_energy>  (109) 
-25.0126

>  <r_i_glide_einternal>  (109) 
2.96564

>  <r_i_glide_intrahb_reward>  (109) 
-0

>  <i_i_glide_confnum>  (109) 
4

>  <i_i_glide_posenum>  (109) 
33

>  <r_i_glide_eff_state_penalty>  (109) 
0

>  <ligand_id>  (109) 
29

>  <original_smiles>  (109) 
CN=c1cc[nH]c2sc3[nH]cnc(=NC=O)c3c12

>  <smiles>  (109) 
[H]C(=O)N([H])c1nc([H])nc2sc3nc([H])c([H])c(N([H])C([H])([H])[H])c3c12

$$$$
29:0:1
     RDKit          3D

 27 29  0  0  1  0  0  0  0  0999 V2000
    3.2952    3.9466    3.6306 C   0  0  0  0  0  0  0  0  0  0  0  0
    1.9866    3.4848    4.0398 N   0  0  0  0  0  0  0  0  0  0  0  0
    1.5132    2.2244    3.6400 C   0  0  0  0  0  0  0  0  0  0  0  0
    2.1196    1.5294    2.5590 C   0  0  0  0  0  0  0  0  0  0  0  0
    1.6585    0.2521    2.1953 C   0  0  0  0  0  0  0  0  0  0  0  0
    0.6876   -0.3894    2.8739 N   0  0  0  0  0  0  0  0  0  0  0  0
    0.1166    0.2927    3.9053 C   0  0  0  0  0  0  0  0  0  0  0  0
   -1.1325   -0.4732    4.8622 S   0  0  0  0  0  0  0  0  0  0  0  0
   -1.3090    0.9460    5.8625 C   0  0  0  0  0  0  0  0  0  0  0  0
   -2.1865    0.9603    6.8943 N   0  0  0  0  0  0  0  0  0  0  0  0
   -2.2665    2.1380    7.5116 C   0  0  0  0  0  0  0  0  0  0  0  0
   -1.6351    3.2578    7.1720 N   0  0  0  0  0  0  0  0  0  0  0  0
   -0.7517    3.2537    6.1360 C   0  0  0  0  0  0  0  0  0  0  0  0
   -0.1469    4.4332    5.6754 N   0  0  0  0  0  0  0  0  0  0  0  0
   -0.0349    5.6385    6.2617 C   0  0  0  0  0  0  0  0  0  0  0  0
   -0.5599    5.9633    7.3222 O   0  0  0  0  0  0  0  0  0  0  0  0
   -0.4945    2.0400    5.4310 C   0  0  0  0  0  0  0  0  0  0  0  0
    0.4276    1.6217    4.3377 C   0  0  0  0  0  0  0  0  0  0  0  0
    3.4628    4.9164    4.0938 H   0  0  0  0  0  0  0  0  0  0  0  0
    3.3567    4.0685    2.5463 H   0  0  0  0  0  0  0  0  0  0  0  0
    4.0671    3.2669    4.0005 H   0  0  0  0  0  0  0  0  0  0  0  0
    2.9293    1.9617    1.9936 H   0  0  0  0  0  0  0  0  0  0  0  0
    2.0806   -0.2840    1.3446 H   0  0  0  0  0  0  0  0  0  0  0  0
   -2.9495    2.1877    8.3534 H   0  0  0  0  0  0  0  0  0  0  0  0
    0.5816    6.3142    5.6396 H   0  0  0  0  0  0  0  0  0  0  0  0
    1.8053    3.7153    5.0078 H   0  0  0  0  0  0  0  0  0  0  0  0
    0.2415    4.3631    4.7383 H   0  0  0  0  0  0  0  0  0  0  0  0
  1  2  1  0
  1 19  1  0
  1 20  1  0
  1 21  1  0
  2  3  1  0
  2 26  1  0
  3 18  2  0
  3  4  1  0
  4  5  2  0
  4 22  1  0
  5  6  1  0
  5 23  1  0
  6  7  2  0
  7 18  1  0
  7  8  1  0
  8  9  1  0
  9 17  2  0
  9 10  1  0
 10 11  2  0
 11 12  1  0
 11 24  1  0
 12 13  2  0
 13 14  1  0
 13 17  1  0
 14 15  1  0
 14 27  1  0
 15 16  2  0
 15 25  1  0
 17 18  1  0
M  END
>  <i_m_ct_stereo_status>  (110) 
1

>  <s_m_source_file>  (110) 
/var/tmp/pbs.5076255.sched01/tmpuj7nejrg/06cdl7mjn.sdf

>  <i_m_source_file_index>  (110) 
49

>  <i_lp_mmshare_version>  (110) 
48012

>  <i_f3d_flags>  (110) 
0

>  <s_epik_input>  (110) 
W25IXTFbY0hdW2NIXS9jKD1OXFtDSDNdKWMoYzEyKWMzYyhzMilbbkhdW2NIXW4vYzM9TlxbQ0hdPU8=

>  <s_epik_cmdline>  (110) 
J2VwaWtfcHl0aG9uJywgJy1waHQnLCAnMi4wJywgJy1waCcsICc3LjAnLCAnLXRuJywgJzgnLCAnLW1hJywgJzIwMCcsICctaW1hZScsICc8aW5maWxlLm1hZT4nLCAnLW9tYWUnLCAnPG91dGZpbGUubWFlPic=

>  <r_epik_Ionization_Penalty>  (110) 
8.05693e-05

>  <r_epik_Ionization_Penalty_Charging>  (110) 
0

>  <r_epik_Ionization_Penalty_Neutral>  (110) 
8.05693e-05

>  <r_epik_State_Penalty>  (110) 
0.000282219

>  <r_epik_Charging_Adjusted_Penalty>  (110) 
0.000282219

>  <i_epik_Tot_Q>  (110) 
0

>  <i_epik_Tot_abs_Q>  (110) 
0

>  <s_lp_Force_Field>  (110) 
OPLS3e

>  <r_lp_Energy>  (110) 
42.7663

>  <b_lp_Chiralities_Consistent>  (110) 
1

>  <s_lp_Variant>  (110) 
29:0-1

>  <s_i_glide_gridfile>  (110) 
pfpi4k_grid

>  <i_i_glide_lignum>  (110) 
49

>  <i_i_glide_rotatable_bonds>  (110) 
3

>  <r_i_docking_score>  (110) 
-3.20867

>  <r_i_glide_ligand_efficiency>  (110) 
-0.17826

>  <r_i_glide_ligand_efficiency_sa>  (110) 
-0.467172

>  <r_i_glide_ligand_efficiency_ln>  (110) 
-0.824773

>  <r_i_glide_gscore>  (110) 
-3.20867

>  <r_i_glide_lipo>  (110) 
-0.0641193

>  <r_i_glide_hbond>  (110) 
-0.16

>  <r_i_glide_metal>  (110) 
-0

>  <r_i_glide_rewards>  (110) 
-1.64122

>  <r_i_glide_evdw>  (110) 
-19.1433

>  <r_i_glide_ecoul>  (110) 
-3.88734

>  <r_i_glide_erotb>  (110) 
0.262991

>  <r_i_glide_esite>  (110) 
-0.0660578

>  <r_i_glide_emodel>  (110) 
-28.8037

>  <r_i_glide_energy>  (110) 
-23.0307

>  <r_i_glide_einternal>  (110) 
0.449171

>  <r_i_glide_intrahb_reward>  (110) 
-0

>  <i_i_glide_confnum>  (110) 
4

>  <i_i_glide_posenum>  (110) 
9

>  <r_i_glide_eff_state_penalty>  (110) 
0

>  <ligand_id>  (110) 
29

>  <original_smiles>  (110) 
CN=c1cc[nH]c2sc3[nH]cnc(=NC=O)c3c12

>  <smiles>  (110) 
[H]C(=O)N([H])c1nc([H])nc2sc3nc([H])c([H])c(N([H])C([H])([H])[H])c3c12

$$$$
29:0:2
     RDKit          3D

 27 29  0  0  1  0  0  0  0  0999 V2000
    1.0157    3.1375    3.0143 C   0  0  0  0  0  0  0  0  0  0  0  0
    0.9234    1.7067    3.2290 N   0  0  0  0  0  0  0  0  0  0  0  0
    0.2274    1.1766    4.3237 C   0  0  0  0  0  0  0  0  0  0  0  0
   -0.5464    2.0054    5.1704 C   0  0  0  0  0  0  0  0  0  0  0  0
   -1.2928    1.4345    6.2149 C   0  0  0  0  0  0  0  0  0  0  0  0
   -1.3427    0.1116    6.4553 N   0  0  0  0  0  0  0  0  0  0  0  0
   -0.5698   -0.6684    5.6352 C   0  0  0  0  0  0  0  0  0  0  0  0
   -0.5628   -2.4103    5.8389 S   0  0  0  0  0  0  0  0  0  0  0  0
    0.6008   -2.6056    4.5377 C   0  0  0  0  0  0  0  0  0  0  0  0
    1.0250   -3.8493    4.1699 N   0  0  0  0  0  0  0  0  0  0  0  0
    1.9516   -3.8127    3.2192 C   0  0  0  0  0  0  0  0  0  0  0  0
    2.4982   -2.7395    2.6635 N   0  0  0  0  0  0  0  0  0  0  0  0
    2.0979   -1.4950    3.0296 C   0  0  0  0  0  0  0  0  0  0  0  0
    2.7296   -0.3210    2.5552 N   0  0  0  0  0  0  0  0  0  0  0  0
    3.7302   -0.1821    1.6764 C   0  0  0  0  0  0  0  0  0  0  0  0
    4.3666   -1.0972    1.1470 O   0  0  0  0  0  0  0  0  0  0  0  0
    1.0412   -1.3594    3.9826 C   0  0  0  0  0  0  0  0  0  0  0  0
    0.2817   -0.2256    4.5687 C   0  0  0  0  0  0  0  0  0  0  0  0
    1.5815    3.3195    2.0956 H   0  0  0  0  0  0  0  0  0  0  0  0
    1.5389    3.6183    3.8413 H   0  0  0  0  0  0  0  0  0  0  0  0
    0.0309    3.5884    2.8967 H   0  0  0  0  0  0  0  0  0  0  0  0
   -0.5910    3.0752    5.0332 H   0  0  0  0  0  0  0  0  0  0  0  0
   -1.8814    2.0514    6.8774 H   0  0  0  0  0  0  0  0  0  0  0  0
    2.3118   -4.7674    2.8602 H   0  0  0  0  0  0  0  0  0  0  0  0
    3.9303    0.8868    1.4960 H   0  0  0  0  0  0  0  0  0  0  0  0
    0.9239    1.1483    2.3875 H   0  0  0  0  0  0  0  0  0  0  0  0
    2.3861    0.5371    2.9630 H   0  0  0  0  0  0  0  0  0  0  0  0
  1  2  1  0
  1 19  1  0
  1 20  1  0
  1 21  1  0
  2  3  1  0
  2 26  1  0
  3 18  2  0
  3  4  1  0
  4  5  2  0
  4 22  1  0
  5  6  1  0
  5 23  1  0
  6  7  2  0
  7 18  1  0
  7  8  1  0
  8  9  1  0
  9 17  2  0
  9 10  1  0
 10 11  2  0
 11 12  1  0
 11 24  1  0
 12 13  2  0
 13 14  1  0
 13 17  1  0
 14 15  1  0
 14 27  1  0
 15 16  2  0
 15 25  1  0
 17 18  1  0
M  END
>  <i_m_ct_stereo_status>  (111) 
1

>  <s_m_source_file>  (111) 
/var/tmp/pbs.5076255.sched01/tmpuj7nejrg/06cdl7mjn.sdf

>  <i_m_source_file_index>  (111) 
49

>  <i_lp_mmshare_version>  (111) 
48012

>  <i_f3d_flags>  (111) 
0

>  <s_epik_input>  (111) 
W25IXTFbY0hdW2NIXS9jKD1OXFtDSDNdKWMoYzEyKWMzYyhzMilbbkhdW2NIXW4vYzM9TlxbQ0hdPU8=

>  <s_epik_cmdline>  (111) 
J2VwaWtfcHl0aG9uJywgJy1waHQnLCAnMi4wJywgJy1waCcsICc3LjAnLCAnLXRuJywgJzgnLCAnLW1hJywgJzIwMCcsICctaW1hZScsICc8aW5maWxlLm1hZT4nLCAnLW9tYWUnLCAnPG91dGZpbGUubWFlPic=

>  <r_epik_Ionization_Penalty>  (111) 
8.05693e-05

>  <r_epik_Ionization_Penalty_Charging>  (111) 
0

>  <r_epik_Ionization_Penalty_Neutral>  (111) 
8.05693e-05

>  <r_epik_State_Penalty>  (111) 
0.000282219

>  <r_epik_Charging_Adjusted_Penalty>  (111) 
0.000282219

>  <i_epik_Tot_Q>  (111) 
0

>  <i_epik_Tot_abs_Q>  (111) 
0

>  <s_lp_Force_Field>  (111) 
OPLS3e

>  <r_lp_Energy>  (111) 
42.7663

>  <b_lp_Chiralities_Consistent>  (111) 
1

>  <s_lp_Variant>  (111) 
29:0-1

>  <s_i_glide_gridfile>  (111) 
pfpi4k_grid

>  <i_i_glide_lignum>  (111) 
49

>  <i_i_glide_rotatable_bonds>  (111) 
3

>  <r_i_docking_score>  (111) 
-3.08565

>  <r_i_glide_ligand_efficiency>  (111) 
-0.171425

>  <r_i_glide_ligand_efficiency_sa>  (111) 
-0.449261

>  <r_i_glide_ligand_efficiency_ln>  (111) 
-0.793152

>  <r_i_glide_gscore>  (111) 
-3.08565

>  <r_i_glide_lipo>  (111) 
-0.0315455

>  <r_i_glide_hbond>  (111) 
-0.154355

>  <r_i_glide_metal>  (111) 
-0

>  <r_i_glide_rewards>  (111) 
-1.67464

>  <r_i_glide_evdw>  (111) 
-17.3404

>  <r_i_glide_ecoul>  (111) 
-3.85655

>  <r_i_glide_erotb>  (111) 
0.262991

>  <r_i_glide_esite>  (111) 
-0.0426086

>  <r_i_glide_emodel>  (111) 
-26.265

>  <r_i_glide_energy>  (111) 
-21.1969

>  <r_i_glide_einternal>  (111) 
0.843506

>  <r_i_glide_intrahb_reward>  (111) 
-0

>  <i_i_glide_confnum>  (111) 
6

>  <i_i_glide_posenum>  (111) 
32

>  <r_i_glide_eff_state_penalty>  (111) 
0

>  <ligand_id>  (111) 
29

>  <original_smiles>  (111) 
CN=c1cc[nH]c2sc3[nH]cnc(=NC=O)c3c12

>  <smiles>  (111) 
[H]C(=O)N([H])c1nc([H])nc2sc3nc([H])c([H])c(N([H])C([H])([H])[H])c3c12

$$$$
30:0:0
     RDKit          3D

 73 79  0  0  1  0  0  0  0  0999 V2000
   -0.8092    2.2271   10.4303 C   0  0  0  0  0  0  0  0  0  0  0  0
   -1.2341    2.6640    9.0123 C   0  0  2  0  0  0  0  0  0  0  0  0
   -1.5372    1.4020    8.1701 C   0  0  0  0  0  0  0  0  0  0  0  0
   -1.3925    1.5694    6.6515 C   0  0  0  0  0  0  0  0  0  0  0  0
    0.0659    1.8878    6.2672 C   0  0  2  0  0  0  0  0  0  0  0  0
    0.7666    2.7622    7.3545 C   0  0  1  0  0  0  0  0  0  0  0  0
    1.9601    3.5536    6.8584 C   0  0  0  0  0  0  0  0  0  0  0  0
    2.4598    3.4509    5.6053 C   0  0  0  0  0  0  0  0  0  0  0  0
    1.7955    2.6384    4.6067 C   0  0  0  0  0  0  0  0  0  0  0  0
    2.5119    2.2286    3.5317 C   0  0  0  0  0  0  0  0  0  0  0  0
    1.9814    1.3797    2.3970 C   0  0  1  0  0  0  0  0  0  0  0  0
    2.5759    0.0314    2.5352 N   0  0  0  0  0  0  0  0  0  0  0  0
    3.0061   -0.6513    1.2976 C   0  0  2  0  0  0  0  0  0  0  0  0
    2.8283   -2.1843    1.4312 C   0  0  1  0  0  0  0  0  0  0  0  0
    3.2298   -2.8824    0.1049 C   0  0  0  0  0  0  0  0  0  0  0  0
    4.7085   -2.5788   -0.2102 C   0  0  2  0  0  0  0  0  0  0  0  0
    5.5952   -3.1102    0.9350 C   0  0  0  0  0  0  0  0  0  0  0  0
    5.1958   -2.4157    2.2559 C   0  0  2  0  0  0  0  0  0  0  0  0
    3.7211   -2.7316    2.5702 C   0  0  0  0  0  0  0  0  0  0  0  0
    5.3911   -0.8931    2.1214 C   0  0  0  0  0  0  0  0  0  0  0  0
    4.4920   -0.3571    0.9792 C   0  0  1  0  0  0  0  0  0  0  0  0
    4.8935   -1.0556   -0.3446 C   0  0  0  0  0  0  0  0  0  0  0  0
    0.4553    1.2857    2.3945 C   0  0  0  0  0  0  0  0  0  0  0  0
   -0.1081    1.1534    3.8264 C   0  0  0  0  0  0  0  0  0  0  0  0
    0.3133    2.3150    4.7772 C   0  0  1  0  0  0  0  0  0  0  0  0
   -0.4735    3.5845    4.3743 C   0  0  0  0  0  0  0  0  0  0  0  0
   -0.1710    3.5525    8.3192 C   0  0  1  0  0  0  0  0  0  0  0  0
   -0.9343    4.7439    7.7008 C   0  0  0  0  0  0  0  0  0  0  0  0
   -2.1281    4.9983    8.6180 C   0  0  0  0  0  0  0  0  0  0  0  0
   -2.4292    3.6129    9.1356 C   0  0  0  0  0  0  0  0  0  0  0  0
   -3.5154    3.2945    9.6223 O   0  0  0  0  0  0  0  0  0  0  0  0
    0.1257    1.6635   10.4139 H   0  0  0  0  0  0  0  0  0  0  0  0
   -1.5664    1.5940   10.8979 H   0  0  0  0  0  0  0  0  0  0  0  0
   -0.6715    3.0792   11.0981 H   0  0  0  0  0  0  0  0  0  0  0  0
   -0.9013    0.5679    8.5068 H   0  0  0  0  0  0  0  0  0  0  0  0
   -2.5621    1.1174    8.3522 H   0  0  0  0  0  0  0  0  0  0  0  0
   -1.6805    0.6369    6.1798 H   0  0  0  0  0  0  0  0  0  0  0  0
   -2.1069    2.3103    6.2829 H   0  0  0  0  0  0  0  0  0  0  0  0
    0.5817    0.9295    6.3567 H   0  0  0  0  0  0  0  0  0  0  0  0
    1.2340    2.0472    8.0281 H   0  0  0  0  0  0  0  0  0  0  0  0
    2.4708    4.1532    7.5971 H   0  0  0  0  0  0  0  0  0  0  0  0
    3.3425    4.0041    5.3554 H   0  0  0  0  0  0  0  0  0  0  0  0
    3.5407    2.5153    3.4487 H   0  0  0  0  0  0  0  0  0  0  0  0
    2.3134    1.8264    1.4703 H   0  0  0  0  0  0  0  0  0  0  0  0
    3.3892    0.1153    3.1224 H   0  0  0  0  0  0  0  0  0  0  0  0
    2.3736   -0.2996    0.4860 H   0  0  0  0  0  0  0  0  0  0  0  0
    1.7845   -2.4170    1.6421 H   0  0  0  0  0  0  0  0  0  0  0  0
    3.0707   -3.9587    0.1752 H   0  0  0  0  0  0  0  0  0  0  0  0
    2.6082   -2.5328   -0.7186 H   0  0  0  0  0  0  0  0  0  0  0  0
    4.9931   -3.0668   -1.1436 H   0  0  0  0  0  0  0  0  0  0  0  0
    5.4707   -4.1884    1.0298 H   0  0  0  0  0  0  0  0  0  0  0  0
    6.6491   -2.9344    0.7104 H   0  0  0  0  0  0  0  0  0  0  0  0
    5.8148   -2.7943    3.0653 H   0  0  0  0  0  0  0  0  0  0  0  0
    3.4437   -2.3022    3.5328 H   0  0  0  0  0  0  0  0  0  0  0  0
    3.5814   -3.8110    2.6757 H   0  0  0  0  0  0  0  0  0  0  0  0
    5.1544   -0.4063    3.0642 H   0  0  0  0  0  0  0  0  0  0  0  0
    6.4401   -0.6704    1.9244 H   0  0  0  0  0  0  0  0  0  0  0  0
    4.6297    0.7165    0.8604 H   0  0  0  0  0  0  0  0  0  0  0  0
    5.9342   -0.8267   -0.5852 H   0  0  0  0  0  0  0  0  0  0  0  0
    4.2954   -0.6728   -1.1764 H   0  0  0  0  0  0  0  0  0  0  0  0
    0.0426    2.1726    1.9103 H   0  0  0  0  0  0  0  0  0  0  0  0
    0.1259    0.4519    1.7700 H   0  0  0  0  0  0  0  0  0  0  0  0
   -1.1964    1.0724    3.7803 H   0  0  0  0  0  0  0  0  0  0  0  0
    0.2517    0.2049    4.2309 H   0  0  0  0  0  0  0  0  0  0  0  0
   -1.5496    3.4750    4.4973 H   0  0  0  0  0  0  0  0  0  0  0  0
   -0.3086    3.8412    3.3266 H   0  0  0  0  0  0  0  0  0  0  0  0
   -0.1432    4.4556    4.9372 H   0  0  0  0  0  0  0  0  0  0  0  0
    0.4519    3.9754    9.1109 H   0  0  0  0  0  0  0  0  0  0  0  0
   -0.2931    5.6238    7.5715 H   0  0  0  0  0  0  0  0  0  0  0  0
   -1.3335    4.4772    6.7242 H   0  0  0  0  0  0  0  0  0  0  0  0
   -1.8555    5.6540    9.4416 H   0  0  0  0  0  0  0  0  0  0  0  0
   -2.9830    5.4309    8.0983 H   0  0  0  0  0  0  0  0  0  0  0  0
    1.8811   -0.5353    2.9967 H   0  0  0  0  0  0  0  0  0  0  0  0
  2  1  1  1
  1 32  1  0
  1 33  1  0
  1 34  1  0
  2 27  1  0
  2 30  1  0
  2  3  1  0
  3  4  1  0
  3 35  1  0
  3 36  1  0
  4  5  1  0
  4 37  1  0
  4 38  1  0
  5 25  1  0
  5  6  1  0
  5 39  1  6
  6  7  1  0
  6 27  1  0
  6 40  1  1
  7  8  2  0
  7 41  1  0
  8  9  1  0
  8 42  1  0
  9 25  1  0
  9 10  2  0
 10 11  1  0
 10 43  1  0
 11 12  1  0
 11 23  1  0
 11 44  1  6
 12 13  1  0
 12 45  1  0
 12 73  1  0
 13 21  1  0
 13 14  1  0
 13 46  1  6
 14 19  1  0
 14 15  1  0
 14 47  1  1
 15 16  1  0
 15 48  1  0
 15 49  1  0
 16 22  1  0
 16 17  1  0
 16 50  1  6
 17 18  1  0
 17 51  1  0
 17 52  1  0
 18 19  1  0
 18 20  1  0
 18 53  1  1
 19 54  1  0
 19 55  1  0
 20 21  1  0
 20 56  1  0
 20 57  1  0
 21 22  1  0
 21 58  1  6
 22 59  1  0
 22 60  1  0
 23 24  1  0
 23 61  1  0
 23 62  1  0
 24 25  1  0
 24 63  1  0
 24 64  1  0
 25 26  1  6
 26 65  1  0
 26 66  1  0
 26 67  1  0
 27 28  1  0
 27 68  1  1
 28 29  1  0
 28 69  1  0
 28 70  1  0
 29 30  1  0
 29 71  1  0
 29 72  1  0
 30 31  2  0
M  CHG  1  12   1
M  END
>  <i_m_ct_stereo_status>  (112) 
1

>  <s_m_source_file>  (112) 
/var/tmp/pbs.5076255.sched01/tmpuj7nejrg/06cdl7mjn.sdf

>  <i_m_source_file_index>  (112) 
50

>  <i_lp_mmshare_version>  (112) 
48012

>  <i_f3d_flags>  (112) 
0

>  <s_epik_input>  (112) 
Tz1DMVtDSDJdW0NIMl1bQ0BASF0oW0NAQF0xMltDSDNdKVtDQEhdM1tDQEBIXShbQ0gyXVtDSDJdMilbQ0BAXTQoW0NIM10pQyhbQ0hdPVtDSF0zKT1bQ0hdW0NASF0oW0NIMl1bQ0gyXTQpW05IXVtDQEhdKFtDQEBIXTU2KVtDQEhdN1tDSDJdW0NAQEhdKFtDSDJdNilbQ0gyXVtDQEBIXShbQ0gyXTUpW0NIMl03

>  <s_epik_cmdline>  (112) 
J2VwaWtfcHl0aG9uJywgJy1waHQnLCAnMi4wJywgJy1waCcsICc3LjAnLCAnLXRuJywgJzgnLCAnLW1hJywgJzIwMCcsICctaW1hZScsICc8aW5maWxlLm1hZT4nLCAnLW9tYWUnLCAnPG91dGZpbGUubWFlPic=

>  <r_lp_tautomer_probability>  (112) 
1

>  <r_epik_Ionization_Penalty>  (112) 
0.000215414

>  <r_epik_Ionization_Penalty_Charging>  (112) 
0.000215414

>  <r_epik_Ionization_Penalty_Neutral>  (112) 
6.02537e-14

>  <r_epik_State_Penalty>  (112) 
-0

>  <r_epik_Charging_Adjusted_Penalty>  (112) 
0.000215414

>  <i_epik_Tot_Q>  (112) 
1

>  <i_epik_Tot_abs_Q>  (112) 
1

>  <s_lp_Force_Field>  (112) 
OPLS3e

>  <r_lp_Energy>  (112) 
31.4307

>  <b_lp_Chiralities_Consistent>  (112) 
1

>  <s_lp_Variant>  (112) 
30:0-1

>  <s_i_glide_gridfile>  (112) 
pfpi4k_grid

>  <i_i_glide_lignum>  (112) 
50

>  <i_i_glide_rotatable_bonds>  (112) 
2

>  <r_i_docking_score>  (112) 
-2.75664

>  <r_i_glide_ligand_efficiency>  (112) 
-0.088924

>  <r_i_glide_ligand_efficiency_sa>  (112) 
-0.279344

>  <r_i_glide_ligand_efficiency_ln>  (112) 
-0.621708

>  <r_i_glide_gscore>  (112) 
-2.75664

>  <r_i_glide_lipo>  (112) 
-0.408612

>  <r_i_glide_hbond>  (112) 
0

>  <r_i_glide_metal>  (112) 
-0

>  <r_i_glide_rewards>  (112) 
-0.541024

>  <r_i_glide_evdw>  (112) 
-30.9099

>  <r_i_glide_ecoul>  (112) 
-3.09662

>  <r_i_glide_erotb>  (112) 
0.223733

>  <r_i_glide_esite>  (112) 
-0.0207541

>  <r_i_glide_emodel>  (112) 
-40.0971

>  <r_i_glide_energy>  (112) 
-34.0065

>  <r_i_glide_einternal>  (112) 
1.08311

>  <r_i_glide_intrahb_reward>  (112) 
-0

>  <i_i_glide_confnum>  (112) 
4

>  <i_i_glide_posenum>  (112) 
3

>  <r_i_glide_eff_state_penalty>  (112) 
0

>  <ligand_id>  (112) 
30

>  <original_smiles>  (112) 
CC12CCC3C(C=CC4=CC(NC5C6CC7CC(C6)CC5C7)CCC43C)C1CCC2=O

>  <smiles>  (112) 
[H]C1=C([H])C2([H])C3([H])C([H])([H])C([H])([H])C(=O)C3(C([H])([H])[H])C([H])([H])C([H])([H])C2([H])C2(C([H])([H])[H])C1=C([H])C([H])([N+]([H])([H])C1([H])C3([H])C([H])([H])C4([H])C([H])([H])C([H])(C3([H])[H])C([H])([H])C1([H])C4([H])[H])C([H])([H])C2([H])[H]

$$$$
30:0:1
     RDKit          3D

 73 79  0  0  1  0  0  0  0  0999 V2000
   -2.2656    2.8742    4.0355 C   0  0  0  0  0  0  0  0  0  0  0  0
   -1.0678    2.4886    4.9290 C   0  0  2  0  0  0  0  0  0  0  0  0
    0.2165    3.1248    4.3209 C   0  0  0  0  0  0  0  0  0  0  0  0
    1.5225    2.3867    4.6793 C   0  0  0  0  0  0  0  0  0  0  0  0
    1.5285    0.9469    4.1147 C   0  0  2  0  0  0  0  0  0  0  0  0
    0.0966    0.3158    4.1293 C   0  0  1  0  0  0  0  0  0  0  0  0
    0.0821   -1.2003    4.1231 C   0  0  0  0  0  0  0  0  0  0  0  0
    1.1869   -1.9522    4.0313 C   0  0  0  0  0  0  0  0  0  0  0  0
    2.5024   -1.3552    4.0272 C   0  0  0  0  0  0  0  0  0  0  0  0
    3.5260   -2.0892    3.5627 C   0  0  0  0  0  0  0  0  0  0  0  0
    4.9723   -1.6226    3.3880 C   0  0  1  0  0  0  0  0  0  0  0  0
    5.2827   -1.3317    1.9641 N   0  0  0  0  0  0  0  0  0  0  0  0
    5.5553   -2.4740    1.0507 C   0  0  2  0  0  0  0  0  0  0  0  0
    6.1296   -1.9614   -0.3010 C   0  0  1  0  0  0  0  0  0  0  0  0
    6.4413   -3.1664   -1.2230 C   0  0  0  0  0  0  0  0  0  0  0  0
    5.1433   -3.9553   -1.5066 C   0  0  2  0  0  0  0  0  0  0  0  0
    4.1069   -3.0435   -2.1920 C   0  0  0  0  0  0  0  0  0  0  0  0
    3.7910   -1.8459   -1.2755 C   0  0  2  0  0  0  0  0  0  0  0  0
    5.0898   -1.0550   -1.0156 C   0  0  0  0  0  0  0  0  0  0  0  0
    3.2289   -2.3546    0.0652 C   0  0  0  0  0  0  0  0  0  0  0  0
    4.2684   -3.2929    0.7356 C   0  0  1  0  0  0  0  0  0  0  0  0
    4.5777   -4.4742   -0.1859 C   0  0  0  0  0  0  0  0  0  0  0  0
    5.2486   -0.3793    4.2409 C   0  0  0  0  0  0  0  0  0  0  0  0
    4.0732    0.6203    4.1764 C   0  0  0  0  0  0  0  0  0  0  0  0
    2.6995    0.0320    4.6152 C   0  0  1  0  0  0  0  0  0  0  0  0
    2.7176   -0.1770    6.1480 C   0  0  0  0  0  0  0  0  0  0  0  0
   -0.9286    0.9510    5.1038 C   0  0  1  0  0  0  0  0  0  0  0  0
   -0.6824    0.6923    6.6040 C   0  0  0  0  0  0  0  0  0  0  0  0
   -1.4341    1.7911    7.3462 C   0  0  0  0  0  0  0  0  0  0  0  0
   -1.3633    2.9413    6.3633 C   0  0  0  0  0  0  0  0  0  0  0  0
   -1.5772    4.1096    6.6892 O   0  0  0  0  0  0  0  0  0  0  0  0
   -2.1763    2.4297    3.0433 H   0  0  0  0  0  0  0  0  0  0  0  0
   -2.3291    3.9561    3.9065 H   0  0  0  0  0  0  0  0  0  0  0  0
   -3.2156    2.5472    4.4566 H   0  0  0  0  0  0  0  0  0  0  0  0
    0.1267    3.1570    3.2269 H   0  0  0  0  0  0  0  0  0  0  0  0
    0.3046    4.1618    4.6409 H   0  0  0  0  0  0  0  0  0  0  0  0
    2.3491    2.9296    4.2268 H   0  0  0  0  0  0  0  0  0  0  0  0
    1.7081    2.4201    5.7550 H   0  0  0  0  0  0  0  0  0  0  0  0
    1.7259    1.0662    3.0459 H   0  0  0  0  0  0  0  0  0  0  0  0
   -0.3224    0.5524    3.1499 H   0  0  0  0  0  0  0  0  0  0  0  0
   -0.8829   -1.6806    4.0925 H   0  0  0  0  0  0  0  0  0  0  0  0
    1.0870   -3.0220    3.9346 H   0  0  0  0  0  0  0  0  0  0  0  0
    3.2924   -3.1161    3.3274 H   0  0  0  0  0  0  0  0  0  0  0  0
    5.6350   -2.4169    3.7167 H   0  0  0  0  0  0  0  0  0  0  0  0
    4.5072   -0.8092    1.5861 H   0  0  0  0  0  0  0  0  0  0  0  0
    6.3006   -3.1234    1.5129 H   0  0  0  0  0  0  0  0  0  0  0  0
    7.0520   -1.4037   -0.1258 H   0  0  0  0  0  0  0  0  0  0  0  0
    6.8815   -2.8360   -2.1691 H   0  0  0  0  0  0  0  0  0  0  0  0
    7.1777   -3.8185   -0.7491 H   0  0  0  0  0  0  0  0  0  0  0  0
    5.3448   -4.8081   -2.1487 H   0  0  0  0  0  0  0  0  0  0  0  0
    4.5025   -2.6974   -3.1502 H   0  0  0  0  0  0  0  0  0  0  0  0
    3.1953   -3.6045   -2.4090 H   0  0  0  0  0  0  0  0  0  0  0  0
    3.0551   -1.1984   -1.7575 H   0  0  0  0  0  0  0  0  0  0  0  0
    4.8662   -0.1790   -0.4132 H   0  0  0  0  0  0  0  0  0  0  0  0
    5.4856   -0.6770   -1.9616 H   0  0  0  0  0  0  0  0  0  0  0  0
    2.9887   -1.5016    0.6992 H   0  0  0  0  0  0  0  0  0  0  0  0
    2.2829   -2.8711   -0.0816 H   0  0  0  0  0  0  0  0  0  0  0  0
    3.8681   -3.8053    1.6025 H   0  0  0  0  0  0  0  0  0  0  0  0
    3.6657   -5.0476   -0.3474 H   0  0  0  0  0  0  0  0  0  0  0  0
    5.2781   -5.1422    0.3116 H   0  0  0  0  0  0  0  0  0  0  0  0
    5.4232   -0.6924    5.2715 H   0  0  0  0  0  0  0  0  0  0  0  0
    6.1770    0.1008    3.9290 H   0  0  0  0  0  0  0  0  0  0  0  0
    4.3186    1.5006    4.7784 H   0  0  0  0  0  0  0  0  0  0  0  0
    3.9989    0.9656    3.1438 H   0  0  0  0  0  0  0  0  0  0  0  0
    2.8061    0.7545    6.7068 H   0  0  0  0  0  0  0  0  0  0  0  0
    3.5549   -0.8044    6.4571 H   0  0  0  0  0  0  0  0  0  0  0  0
    1.8339   -0.7125    6.4948 H   0  0  0  0  0  0  0  0  0  0  0  0
   -1.9045    0.5148    4.8792 H   0  0  0  0  0  0  0  0  0  0  0  0
   -0.9784   -0.3132    6.9033 H   0  0  0  0  0  0  0  0  0  0  0  0
    0.3674    0.8164    6.8489 H   0  0  0  0  0  0  0  0  0  0  0  0
   -2.4775    1.5208    7.5087 H   0  0  0  0  0  0  0  0  0  0  0  0
   -0.9841    2.0443    8.3073 H   0  0  0  0  0  0  0  0  0  0  0  0
    6.0993   -0.7426    1.9495 H   0  0  0  0  0  0  0  0  0  0  0  0
  2  1  1  6
  1 32  1  0
  1 33  1  0
  1 34  1  0
  2 27  1  0
  2 30  1  0
  2  3  1  0
  3  4  1  0
  3 35  1  0
  3 36  1  0
  4  5  1  0
  4 37  1  0
  4 38  1  0
  5 25  1  0
  5  6  1  0
  5 39  1  6
  6  7  1  0
  6 27  1  0
  6 40  1  6
  7  8  2  0
  7 41  1  0
  8  9  1  0
  8 42  1  0
  9 25  1  0
  9 10  2  0
 10 11  1  0
 10 43  1  0
 11 12  1  0
 11 23  1  0
 11 44  1  1
 12 13  1  0
 12 45  1  0
 12 73  1  0
 13 21  1  0
 13 14  1  0
 13 46  1  1
 14 19  1  0
 14 15  1  0
 14 47  1  1
 15 16  1  0
 15 48  1  0
 15 49  1  0
 16 22  1  0
 16 17  1  0
 16 50  1  6
 17 18  1  0
 17 51  1  0
 17 52  1  0
 18 19  1  0
 18 20  1  0
 18 53  1  6
 19 54  1  0
 19 55  1  0
 20 21  1  0
 20 56  1  0
 20 57  1  0
 21 22  1  0
 21 58  1  1
 22 59  1  0
 22 60  1  0
 23 24  1  0
 23 61  1  0
 23 62  1  0
 24 25  1  0
 24 63  1  0
 24 64  1  0
 25 26  1  1
 26 65  1  0
 26 66  1  0
 26 67  1  0
 27 28  1  0
 27 68  1  6
 28 29  1  0
 28 69  1  0
 28 70  1  0
 29 30  1  0
 29 71  1  0
 29 72  1  0
 30 31  2  0
M  CHG  1  12   1
M  END
>  <i_m_ct_stereo_status>  (113) 
1

>  <s_m_source_file>  (113) 
/var/tmp/pbs.5076255.sched01/tmpuj7nejrg/06cdl7mjn.sdf

>  <i_m_source_file_index>  (113) 
50

>  <i_lp_mmshare_version>  (113) 
48012

>  <i_f3d_flags>  (113) 
0

>  <s_epik_input>  (113) 
Tz1DMVtDSDJdW0NIMl1bQ0BASF0oW0NAQF0xMltDSDNdKVtDQEhdM1tDQEBIXShbQ0gyXVtDSDJdMilbQ0BAXTQoW0NIM10pQyhbQ0hdPVtDSF0zKT1bQ0hdW0NASF0oW0NIMl1bQ0gyXTQpW05IXVtDQEhdKFtDQEBIXTU2KVtDQEhdN1tDSDJdW0NAQEhdKFtDSDJdNilbQ0gyXVtDQEBIXShbQ0gyXTUpW0NIMl03

>  <s_epik_cmdline>  (113) 
J2VwaWtfcHl0aG9uJywgJy1waHQnLCAnMi4wJywgJy1waCcsICc3LjAnLCAnLXRuJywgJzgnLCAnLW1hJywgJzIwMCcsICctaW1hZScsICc8aW5maWxlLm1hZT4nLCAnLW9tYWUnLCAnPG91dGZpbGUubWFlPic=

>  <r_lp_tautomer_probability>  (113) 
1

>  <r_epik_Ionization_Penalty>  (113) 
0.000215414

>  <r_epik_Ionization_Penalty_Charging>  (113) 
0.000215414

>  <r_epik_Ionization_Penalty_Neutral>  (113) 
6.02537e-14

>  <r_epik_State_Penalty>  (113) 
-0

>  <r_epik_Charging_Adjusted_Penalty>  (113) 
0.000215414

>  <i_epik_Tot_Q>  (113) 
1

>  <i_epik_Tot_abs_Q>  (113) 
1

>  <s_lp_Force_Field>  (113) 
OPLS3e

>  <r_lp_Energy>  (113) 
31.4307

>  <b_lp_Chiralities_Consistent>  (113) 
1

>  <s_lp_Variant>  (113) 
30:0-1

>  <s_i_glide_gridfile>  (113) 
pfpi4k_grid

>  <i_i_glide_lignum>  (113) 
50

>  <i_i_glide_rotatable_bonds>  (113) 
2

>  <r_i_docking_score>  (113) 
-2.69918

>  <r_i_glide_ligand_efficiency>  (113) 
-0.0870704

>  <r_i_glide_ligand_efficiency_sa>  (113) 
-0.273521

>  <r_i_glide_ligand_efficiency_ln>  (113) 
-0.608748

>  <r_i_glide_gscore>  (113) 
-2.69918

>  <r_i_glide_lipo>  (113) 
-0.337593

>  <r_i_glide_hbond>  (113) 
0

>  <r_i_glide_metal>  (113) 
-0

>  <r_i_glide_rewards>  (113) 
-0.586315

>  <r_i_glide_evdw>  (113) 
-31.477

>  <r_i_glide_ecoul>  (113) 
-2.83438

>  <r_i_glide_erotb>  (113) 
0.223733

>  <r_i_glide_esite>  (113) 
0

>  <r_i_glide_emodel>  (113) 
-40.2152

>  <r_i_glide_energy>  (113) 
-34.3114

>  <r_i_glide_einternal>  (113) 
0.436893

>  <r_i_glide_intrahb_reward>  (113) 
-0

>  <i_i_glide_confnum>  (113) 
3

>  <i_i_glide_posenum>  (113) 
25

>  <r_i_glide_eff_state_penalty>  (113) 
0

>  <ligand_id>  (113) 
30

>  <original_smiles>  (113) 
CC12CCC3C(C=CC4=CC(NC5C6CC7CC(C6)CC5C7)CCC43C)C1CCC2=O

>  <smiles>  (113) 
[H]C1=C([H])C2([H])C3([H])C([H])([H])C([H])([H])C(=O)C3(C([H])([H])[H])C([H])([H])C([H])([H])C2([H])C2(C([H])([H])[H])C1=C([H])C([H])([N+]([H])([H])C1([H])C3([H])C([H])([H])C4([H])C([H])([H])C([H])(C3([H])[H])C([H])([H])C1([H])C4([H])[H])C([H])([H])C2([H])[H]

$$$$
30:0:2
     RDKit          3D

 73 79  0  0  1  0  0  0  0  0999 V2000
   -2.3235    3.2875    5.1515 C   0  0  0  0  0  0  0  0  0  0  0  0
   -0.9238    3.0191    5.7313 C   0  0  2  0  0  0  0  0  0  0  0  0
    0.1333    3.5187    4.7062 C   0  0  0  0  0  0  0  0  0  0  0  0
    1.4994    2.8128    4.8041 C   0  0  0  0  0  0  0  0  0  0  0  0
    1.3735    1.3100    4.4596 C   0  0  2  0  0  0  0  0  0  0  0  0
    0.0154    0.7154    4.9500 C   0  0  1  0  0  0  0  0  0  0  0  0
    0.0147   -0.7875    5.1478 C   0  0  0  0  0  0  0  0  0  0  0  0
    1.0555   -1.5877    4.8444 C   0  0  0  0  0  0  0  0  0  0  0  0
    2.3184   -1.0239    4.4008 C   0  0  0  0  0  0  0  0  0  0  0  0
    3.1667   -1.8324    3.7365 C   0  0  0  0  0  0  0  0  0  0  0  0
    4.5101   -1.4068    3.1584 C   0  0  1  0  0  0  0  0  0  0  0  0
    4.4042   -1.3079    1.7260 N   0  0  0  0  0  0  0  0  0  0  0  0
    4.3306   -2.5709    0.9486 C   0  0  2  0  0  0  0  0  0  0  0  0
    5.7371   -3.1652    0.6788 C   0  0  1  0  0  0  0  0  0  0  0  0
    5.5740   -4.5028   -0.0735 C   0  0  0  0  0  0  0  0  0  0  0  0
    4.8684   -4.2451   -1.4144 C   0  0  2  0  0  0  0  0  0  0  0  0
    5.6814   -3.2844   -2.2880 C   0  0  0  0  0  0  0  0  0  0  0  0
    5.8216   -1.9573   -1.5354 C   0  0  2  0  0  0  0  0  0  0  0  0
    6.5660   -2.1985   -0.2058 C   0  0  0  0  0  0  0  0  0  0  0  0
    4.4397   -1.3416   -1.2763 C   0  0  0  0  0  0  0  0  0  0  0  0
    3.6248   -2.3148   -0.3977 C   0  0  1  0  0  0  0  0  0  0  0  0
    3.4678   -3.6464   -1.1546 C   0  0  0  0  0  0  0  0  0  0  0  0
    4.9890   -0.0788    3.7601 C   0  0  0  0  0  0  0  0  0  0  0  0
    3.8270    0.9337    3.8775 C   0  0  0  0  0  0  0  0  0  0  0  0
    2.6427    0.4220    4.7435 C   0  0  1  0  0  0  0  0  0  0  0  0
    3.0874    0.4478    6.2263 C   0  0  0  0  0  0  0  0  0  0  0  0
   -0.7166    1.5117    6.0661 C   0  0  1  0  0  0  0  0  0  0  0  0
   -0.0694    1.4603    7.4726 C   0  0  0  0  0  0  0  0  0  0  0  0
   -0.6030    2.6810    8.2251 C   0  0  0  0  0  0  0  0  0  0  0  0
   -0.8095    3.6670    7.1041 C   0  0  0  0  0  0  0  0  0  0  0  0
   -0.9310    4.8885    7.2956 O   0  0  0  0  0  0  0  0  0  0  0  0
   -2.5086    2.7099    4.2476 H   0  0  0  0  0  0  0  0  0  0  0  0
   -2.4307    4.3388    4.8838 H   0  0  0  0  0  0  0  0  0  0  0  0
   -3.1171    3.0552    5.8641 H   0  0  0  0  0  0  0  0  0  0  0  0
   -0.2461    3.4285    3.6936 H   0  0  0  0  0  0  0  0  0  0  0  0
    0.2994    4.5885    4.8503 H   0  0  0  0  0  0  0  0  0  0  0  0
    2.1648    3.2805    4.0731 H   0  0  0  0  0  0  0  0  0  0  0  0
    1.9561    2.9968    5.7665 H   0  0  0  0  0  0  0  0  0  0  0  0
    1.2758    1.2882    3.3769 H   0  0  0  0  0  0  0  0  0  0  0  0
   -0.6559    0.8364    4.0965 H   0  0  0  0  0  0  0  0  0  0  0  0
   -0.9202   -1.2244    5.4651 H   0  0  0  0  0  0  0  0  0  0  0  0
    0.9541   -2.6478    4.9602 H   0  0  0  0  0  0  0  0  0  0  0  0
    2.8947   -2.8565    3.5526 H   0  0  0  0  0  0  0  0  0  0  0  0
    5.2585   -2.1637    3.4194 H   0  0  0  0  0  0  0  0  0  0  0  0
    3.5782   -0.7543    1.5111 H   0  0  0  0  0  0  0  0  0  0  0  0
    3.7319   -3.3058    1.4876 H   0  0  0  0  0  0  0  0  0  0  0  0
    6.2645   -3.3639    1.6140 H   0  0  0  0  0  0  0  0  0  0  0  0
    6.5462   -4.9647   -0.2510 H   0  0  0  0  0  0  0  0  0  0  0  0
    4.9969   -5.2206    0.5155 H   0  0  0  0  0  0  0  0  0  0  0  0
    4.7851   -5.1892   -1.9427 H   0  0  0  0  0  0  0  0  0  0  0  0
    6.6656   -3.7067   -2.4956 H   0  0  0  0  0  0  0  0  0  0  0  0
    5.2001   -3.1438   -3.2560 H   0  0  0  0  0  0  0  0  0  0  0  0
    6.3700   -1.2814   -2.1718 H   0  0  0  0  0  0  0  0  0  0  0  0
    6.7360   -1.2524    0.3073 H   0  0  0  0  0  0  0  0  0  0  0  0
    7.5545   -2.6208   -0.3963 H   0  0  0  0  0  0  0  0  0  0  0  0
    4.5479   -0.3720   -0.7888 H   0  0  0  0  0  0  0  0  0  0  0  0
    3.9191   -1.1480   -2.2158 H   0  0  0  0  0  0  0  0  0  0  0  0
    2.6420   -1.8910   -0.2180 H   0  0  0  0  0  0  0  0  0  0  0  0
    2.9434   -3.4906   -2.1035 H   0  0  0  0  0  0  0  0  0  0  0  0
    2.8554   -4.3534   -0.5872 H   0  0  0  0  0  0  0  0  0  0  0  0
    5.4440   -0.2489    4.7340 H   0  0  0  0  0  0  0  0  0  0  0  0
    5.7939    0.3383    3.1470 H   0  0  0  0  0  0  0  0  0  0  0  0
    4.2075    1.8802    4.2688 H   0  0  0  0  0  0  0  0  0  0  0  0
    3.4737    1.1522    2.8662 H   0  0  0  0  0  0  0  0  0  0  0  0
    3.3068    1.4493    6.5891 H   0  0  0  0  0  0  0  0  0  0  0  0
    3.9901   -0.1416    6.3828 H   0  0  0  0  0  0  0  0  0  0  0  0
    2.3383   -0.0031    6.8755 H   0  0  0  0  0  0  0  0  0  0  0  0
   -1.7110    1.0760    6.1790 H   0  0  0  0  0  0  0  0  0  0  0  0
   -0.2618    0.5200    7.9901 H   0  0  0  0  0  0  0  0  0  0  0  0
    1.0080    1.5926    7.4043 H   0  0  0  0  0  0  0  0  0  0  0  0
   -1.5567    2.4576    8.7026 H   0  0  0  0  0  0  0  0  0  0  0  0
    0.0854    3.0441    8.9834 H   0  0  0  0  0  0  0  0  0  0  0  0
    5.2133   -0.8146    1.3625 H   0  0  0  0  0  0  0  0  0  0  0  0
  2  1  1  6
  1 32  1  0
  1 33  1  0
  1 34  1  0
  2 27  1  0
  2 30  1  0
  2  3  1  0
  3  4  1  0
  3 35  1  0
  3 36  1  0
  4  5  1  0
  4 37  1  0
  4 38  1  0
  5 25  1  0
  5  6  1  0
  5 39  1  6
  6  7  1  0
  6 27  1  0
  6 40  1  6
  7  8  2  0
  7 41  1  0
  8  9  1  0
  8 42  1  0
  9 25  1  0
  9 10  2  0
 10 11  1  0
 10 43  1  0
 11 12  1  0
 11 23  1  0
 11 44  1  6
 12 13  1  0
 12 45  1  0
 12 73  1  0
 13 21  1  0
 13 14  1  0
 13 46  1  1
 14 19  1  0
 14 15  1  0
 14 47  1  1
 15 16  1  0
 15 48  1  0
 15 49  1  0
 16 22  1  0
 16 17  1  0
 16 50  1  6
 17 18  1  0
 17 51  1  0
 17 52  1  0
 18 19  1  0
 18 20  1  0
 18 53  1  6
 19 54  1  0
 19 55  1  0
 20 21  1  0
 20 56  1  0
 20 57  1  0
 21 22  1  0
 21 58  1  1
 22 59  1  0
 22 60  1  0
 23 24  1  0
 23 61  1  0
 23 62  1  0
 24 25  1  0
 24 63  1  0
 24 64  1  0
 25 26  1  1
 26 65  1  0
 26 66  1  0
 26 67  1  0
 27 28  1  0
 27 68  1  1
 28 29  1  0
 28 69  1  0
 28 70  1  0
 29 30  1  0
 29 71  1  0
 29 72  1  0
 30 31  2  0
M  CHG  1  12   1
M  END
>  <i_m_ct_stereo_status>  (114) 
1

>  <s_m_source_file>  (114) 
/var/tmp/pbs.5076255.sched01/tmpuj7nejrg/06cdl7mjn.sdf

>  <i_m_source_file_index>  (114) 
50

>  <i_lp_mmshare_version>  (114) 
48012

>  <i_f3d_flags>  (114) 
0

>  <s_epik_input>  (114) 
Tz1DMVtDSDJdW0NIMl1bQ0BASF0oW0NAQF0xMltDSDNdKVtDQEhdM1tDQEBIXShbQ0gyXVtDSDJdMilbQ0BAXTQoW0NIM10pQyhbQ0hdPVtDSF0zKT1bQ0hdW0NASF0oW0NIMl1bQ0gyXTQpW05IXVtDQEhdKFtDQEBIXTU2KVtDQEhdN1tDSDJdW0NAQEhdKFtDSDJdNilbQ0gyXVtDQEBIXShbQ0gyXTUpW0NIMl03

>  <s_epik_cmdline>  (114) 
J2VwaWtfcHl0aG9uJywgJy1waHQnLCAnMi4wJywgJy1waCcsICc3LjAnLCAnLXRuJywgJzgnLCAnLW1hJywgJzIwMCcsICctaW1hZScsICc8aW5maWxlLm1hZT4nLCAnLW9tYWUnLCAnPG91dGZpbGUubWFlPic=

>  <r_lp_tautomer_probability>  (114) 
1

>  <r_epik_Ionization_Penalty>  (114) 
0.000215414

>  <r_epik_Ionization_Penalty_Charging>  (114) 
0.000215414

>  <r_epik_Ionization_Penalty_Neutral>  (114) 
6.02537e-14

>  <r_epik_State_Penalty>  (114) 
-0

>  <r_epik_Charging_Adjusted_Penalty>  (114) 
0.000215414

>  <i_epik_Tot_Q>  (114) 
1

>  <i_epik_Tot_abs_Q>  (114) 
1

>  <s_lp_Force_Field>  (114) 
OPLS3e

>  <r_lp_Energy>  (114) 
31.4307

>  <b_lp_Chiralities_Consistent>  (114) 
1

>  <s_lp_Variant>  (114) 
30:0-1

>  <s_i_glide_gridfile>  (114) 
pfpi4k_grid

>  <i_i_glide_lignum>  (114) 
50

>  <i_i_glide_rotatable_bonds>  (114) 
2

>  <r_i_docking_score>  (114) 
-2.45439

>  <r_i_glide_ligand_efficiency>  (114) 
-0.079174

>  <r_i_glide_ligand_efficiency_sa>  (114) 
-0.248716

>  <r_i_glide_ligand_efficiency_ln>  (114) 
-0.553541

>  <r_i_glide_gscore>  (114) 
-2.45439

>  <r_i_glide_lipo>  (114) 
-0.477337

>  <r_i_glide_hbond>  (114) 
0

>  <r_i_glide_metal>  (114) 
-0

>  <r_i_glide_rewards>  (114) 
-0.541024

>  <r_i_glide_evdw>  (114) 
-25.9563

>  <r_i_glide_ecoul>  (114) 
-2.41223

>  <r_i_glide_erotb>  (114) 
0.223733

>  <r_i_glide_esite>  (114) 
-0.000117276

>  <r_i_glide_emodel>  (114) 
-33.7623

>  <r_i_glide_energy>  (114) 
-28.3685

>  <r_i_glide_einternal>  (114) 
0.941927

>  <r_i_glide_intrahb_reward>  (114) 
-0

>  <i_i_glide_confnum>  (114) 
3

>  <i_i_glide_posenum>  (114) 
16

>  <r_i_glide_eff_state_penalty>  (114) 
0

>  <ligand_id>  (114) 
30

>  <original_smiles>  (114) 
CC12CCC3C(C=CC4=CC(NC5C6CC7CC(C6)CC5C7)CCC43C)C1CCC2=O

>  <smiles>  (114) 
[H]C1=C([H])C2([H])C3([H])C([H])([H])C([H])([H])C(=O)C3(C([H])([H])[H])C([H])([H])C([H])([H])C2([H])C2(C([H])([H])[H])C1=C([H])C([H])([N+]([H])([H])C1([H])C3([H])C([H])([H])C4([H])C([H])([H])C([H])(C3([H])[H])C([H])([H])C1([H])C4([H])[H])C([H])([H])C2([H])[H]

$$$$
31:0:0
     RDKit          3D

 58 62  0  0  1  0  0  0  0  0999 V2000
    0.6585   -8.3998    8.1480 C   0  0  0  0  0  0  0  0  0  0  0  0
    0.9009   -7.5775    7.0150 O   0  0  0  0  0  0  0  0  0  0  0  0
    1.1902   -8.2314    5.7761 C   0  0  2  0  0  0  0  0  0  0  0  0
    0.2466   -9.4131    5.4461 C   0  0  0  0  0  0  0  0  0  0  0  0
    0.7510   -9.7149    4.0254 C   0  0  2  0  0  0  0  0  0  0  0  0
    2.0117  -10.5208    4.1730 N   0  0  2  0  0  0  0  0  0  0  0  0
    1.7927  -11.9724    4.0527 C   0  0  0  0  0  0  0  0  0  0  0  0
    2.8234  -10.1922    5.3668 C   0  0  0  0  0  0  0  0  0  0  0  0
    2.7077   -8.7080    5.7089 C   0  0  1  0  0  0  0  0  0  0  0  0
    3.8218   -7.8118    5.0923 C   0  0  0  0  0  0  0  0  0  0  0  0
    4.1360   -6.5564    5.8655 C   0  0  0  0  0  0  0  0  0  0  0  0
    5.0892   -7.7235    5.9198 C   0  0  0  0  0  0  0  0  0  0  0  0
    4.0622   -7.7239    3.5211 C   0  0  2  0  0  0  0  0  0  0  0  0
    3.0577   -6.8985    2.7424 C   0  0  0  0  0  0  0  0  0  0  0  0
    1.9675   -7.9133    2.3291 C   0  0  1  0  0  0  0  0  0  0  0  0
    2.8834   -9.0565    1.8136 C   0  0  0  0  0  0  0  0  0  0  0  0
    4.1906   -9.0174    2.6699 C   0  0  1  0  0  0  0  0  0  0  0  0
    5.4631   -9.0278    1.7762 C   0  0  0  0  0  0  0  0  0  0  0  0
    5.8121  -10.3459    1.4058 O   0  0  0  0  0  0  0  0  0  0  0  0
    0.8143   -8.2474    3.3901 C   0  0  1  0  0  0  0  0  0  0  0  0
   -0.3926   -8.0462    2.5997 O   0  0  0  0  0  0  0  0  0  0  0  0
   -1.7188   -8.4842    2.9883 C   0  0  0  0  0  0  0  0  0  0  0  0
    0.8369   -7.2826    4.6393 C   0  0  1  0  0  0  0  0  0  0  0  0
   -0.4261   -6.4173    4.9113 C   0  0  0  0  0  0  0  0  0  0  0  0
    0.5902   -7.7614    9.0284 H   0  0  0  0  0  0  0  0  0  0  0  0
    1.4585   -9.1189    8.3207 H   0  0  0  0  0  0  0  0  0  0  0  0
   -0.2860   -8.9381    8.0606 H   0  0  0  0  0  0  0  0  0  0  0  0
    0.3068  -10.2749    6.1243 H   0  0  0  0  0  0  0  0  0  0  0  0
   -0.7915   -9.0977    5.4624 H   0  0  0  0  0  0  0  0  0  0  0  0
    0.0960  -10.3615    3.4416 H   0  0  0  0  0  0  0  0  0  0  0  0
    1.1383  -12.3488    4.8530 H   0  0  0  0  0  0  0  0  0  0  0  0
    2.7441  -12.5142    4.1256 H   0  0  0  0  0  0  0  0  0  0  0  0
    1.3402  -12.2131    3.0900 H   0  0  0  0  0  0  0  0  0  0  0  0
    2.4516  -10.7806    6.2116 H   0  0  0  0  0  0  0  0  0  0  0  0
    3.8622  -10.5182    5.2622 H   0  0  0  0  0  0  0  0  0  0  0  0
    2.9772   -8.7347    6.7656 H   0  0  0  0  0  0  0  0  0  0  0  0
    4.4445   -5.6783    5.3116 H   0  0  0  0  0  0  0  0  0  0  0  0
    3.4980   -6.3514    6.7340 H   0  0  0  0  0  0  0  0  0  0  0  0
    5.1398   -8.3100    6.8458 H   0  0  0  0  0  0  0  0  0  0  0  0
    6.0444   -7.6030    5.4186 H   0  0  0  0  0  0  0  0  0  0  0  0
    5.0003   -7.1854    3.4339 H   0  0  0  0  0  0  0  0  0  0  0  0
    2.7652   -5.9520    3.1870 H   0  0  0  0  0  0  0  0  0  0  0  0
    3.5647   -6.5534    1.8338 H   0  0  0  0  0  0  0  0  0  0  0  0
    1.4887   -7.4705    1.4527 H   0  0  0  0  0  0  0  0  0  0  0  0
    2.3947  -10.0272    1.7520 H   0  0  0  0  0  0  0  0  0  0  0  0
    3.1435   -8.8444    0.7770 H   0  0  0  0  0  0  0  0  0  0  0  0
    4.2953   -9.8868    3.3007 H   0  0  0  0  0  0  0  0  0  0  0  0
    5.3535   -8.4112    0.8836 H   0  0  0  0  0  0  0  0  0  0  0  0
    6.3203   -8.6306    2.3192 H   0  0  0  0  0  0  0  0  0  0  0  0
    5.0843  -10.8228    1.0246 H   0  0  0  0  0  0  0  0  0  0  0  0
   -2.3337   -8.5319    2.0796 H   0  0  0  0  0  0  0  0  0  0  0  0
   -2.2166   -7.8389    3.6733 H   0  0  0  0  0  0  0  0  0  0  0  0
   -1.7453   -9.4951    3.3965 H   0  0  0  0  0  0  0  0  0  0  0  0
    1.6104   -6.5289    4.6580 H   0  0  0  0  0  0  0  0  0  0  0  0
   -1.2926   -6.9818    5.1627 H   0  0  0  0  0  0  0  0  0  0  0  0
   -0.6242   -5.7940    4.0359 H   0  0  0  0  0  0  0  0  0  0  0  0
   -0.2518   -5.7154    5.7364 H   0  0  0  0  0  0  0  0  0  0  0  0
    2.5942  -10.2676    3.3553 H   0  0  0  0  0  0  0  0  0  0  0  0
  1  2  1  0
  1 25  1  0
  1 26  1  0
  1 27  1  0
  3  2  1  1
  3  9  1  0
  3 23  1  0
  3  4  1  0
  4  5  1  0
  4 28  1  0
  4 29  1  0
  5 20  1  0
  5  6  1  0
  5 30  1  6
  6  7  1  0
  6  8  1  0
  6 58  1  6
  7 31  1  0
  7 32  1  0
  7 33  1  0
  8  9  1  0
  8 34  1  0
  8 35  1  0
  9 10  1  0
  9 36  1  1
 10 12  1  0
 10 11  1  0
 10 13  1  0
 11 12  1  0
 11 37  1  0
 11 38  1  0
 12 39  1  0
 12 40  1  0
 13 17  1  0
 13 14  1  0
 13 41  1  1
 14 15  1  0
 14 42  1  0
 14 43  1  0
 15 16  1  0
 15 20  1  0
 15 44  1  6
 16 17  1  0
 16 45  1  0
 16 46  1  0
 17 18  1  0
 17 47  1  1
 18 19  1  0
 18 48  1  0
 18 49  1  0
 19 50  1  0
 20 21  1  6
 20 23  1  0
 21 22  1  0
 22 51  1  0
 22 52  1  0
 22 53  1  0
 23 24  1  0
 23 54  1  6
 24 55  1  0
 24 56  1  0
 24 57  1  0
M  CHG  1   6   1
M  END
>  <i_m_ct_stereo_status>  (115) 
1

>  <s_m_source_file>  (115) 
/var/tmp/pbs.5076255.sched01/tmphf7gnms3/50i7j3xhgh.sdf

>  <i_m_source_file_index>  (115) 
1

>  <i_lp_mmshare_version>  (115) 
48012

>  <i_f3d_flags>  (115) 
0

>  <s_epik_input>  (115) 
W0NIMl0xW0NIMl1DMTJbQ0hdM1tDQF00KE9bQ0gzXSlbQ0gyXVtDQEhdKE4oW0NIM10pW0NIMl0zKVtDQEBdKE9bQ0gzXSkoW0NASF00W0NIM10pW0NASF01W0NIMl1bQ0BASF0yW0NAQEhdKFtDSDJdNSlbQ0gyXVtPSF0=

>  <s_epik_cmdline>  (115) 
J2VwaWtfcHl0aG9uJywgJy1waHQnLCAnMi4wJywgJy1waCcsICc3LjAnLCAnLXRuJywgJzgnLCAnLW1hJywgJzIwMCcsICctaW1hZScsICc8aW5maWxlLm1hZT4nLCAnLW9tYWUnLCAnPG91dGZpbGUubWFlPic=

>  <r_epik_Ionization_Penalty>  (115) 
0.0222357

>  <r_epik_Ionization_Penalty_Charging>  (115) 
0.0222352

>  <r_epik_Ionization_Penalty_Neutral>  (115) 
5.0823e-07

>  <r_epik_State_Penalty>  (115) 
0.0179286

>  <r_epik_Charging_Adjusted_Penalty>  (115) 
0.0401638

>  <i_epik_Tot_Q>  (115) 
1

>  <i_epik_Tot_abs_Q>  (115) 
1

>  <s_lp_Force_Field>  (115) 
OPLS3e

>  <r_lp_Energy>  (115) 
74.142

>  <b_lp_Chiralities_Consistent>  (115) 
1

>  <s_lp_Variant>  (115) 
31:0-1

>  <s_i_glide_gridfile>  (115) 
pfpi4k_grid

>  <i_i_glide_lignum>  (115) 
1

>  <i_i_glide_rotatable_bonds>  (115) 
4

>  <r_i_docking_score>  (115) 
-3.14688

>  <r_i_glide_ligand_efficiency>  (115) 
-0.13112

>  <r_i_glide_ligand_efficiency_sa>  (115) 
-0.378215

>  <r_i_glide_ligand_efficiency_ln>  (115) 
-0.753192

>  <r_i_glide_gscore>  (115) 
-3.14688

>  <r_i_glide_lipo>  (115) 
0

>  <r_i_glide_hbond>  (115) 
-0.16

>  <r_i_glide_metal>  (115) 
-0

>  <r_i_glide_rewards>  (115) 
-1.11485

>  <r_i_glide_evdw>  (115) 
-17.8678

>  <r_i_glide_ecoul>  (115) 
-7.54549

>  <r_i_glide_erotb>  (115) 
0.16681

>  <r_i_glide_esite>  (115) 
-0.0136239

>  <r_i_glide_emodel>  (115) 
-28.0419

>  <r_i_glide_energy>  (115) 
-25.4133

>  <r_i_glide_einternal>  (115) 
8.47372

>  <r_i_glide_intrahb_reward>  (115) 
-0

>  <i_i_glide_confnum>  (115) 
6

>  <i_i_glide_posenum>  (115) 
20

>  <r_i_glide_eff_state_penalty>  (115) 
0

>  <ligand_id>  (115) 
31

>  <original_smiles>  (115) 
COC12CC3N(C)CC1C1(CC1)C1CC(CC1CO)C3(OC)C2C

>  <smiles>  (115) 
[H]OC([H])([H])C1([H])C([H])([H])C2([H])C([H])([H])C1([H])C1(C([H])([H])C1([H])[H])C1([H])C3(OC([H])([H])[H])C([H])([H])C([H])(C2(OC([H])([H])[H])C3([H])C([H])([H])[H])[N+]([H])(C([H])([H])[H])C1([H])[H]

$$$$
31:0:1
     RDKit          3D

 58 62  0  0  1  0  0  0  0  0999 V2000
    5.0087   -4.0751    6.1403 C   0  0  0  0  0  0  0  0  0  0  0  0
    3.9970   -3.6537    5.2296 O   0  0  0  0  0  0  0  0  0  0  0  0
    4.0458   -4.1848    3.9037 C   0  0  2  0  0  0  0  0  0  0  0  0
    4.2549   -5.7085    3.8264 C   0  0  0  0  0  0  0  0  0  0  0  0
    4.0691   -5.9005    2.3204 C   0  0  2  0  0  0  0  0  0  0  0  0
    5.3625   -5.4966    1.6445 N   0  0  2  0  0  0  0  0  0  0  0  0
    6.2660   -6.6392    1.3617 C   0  0  0  0  0  0  0  0  0  0  0  0
    6.0870   -4.4139    2.3563 C   0  0  0  0  0  0  0  0  0  0  0  0
    5.1369   -3.4235    3.0360 C   0  0  1  0  0  0  0  0  0  0  0  0
    4.7778   -2.1645    2.1662 C   0  0  0  0  0  0  0  0  0  0  0  0
    4.3918   -0.9276    2.9494 C   0  0  0  0  0  0  0  0  0  0  0  0
    5.7324   -0.9951    2.2686 C   0  0  0  0  0  0  0  0  0  0  0  0
    4.1312   -2.3072    0.7621 C   0  0  2  0  0  0  0  0  0  0  0  0
    2.6633   -2.6781    0.7259 C   0  0  0  0  0  0  0  0  0  0  0  0
    2.6789   -4.2004    0.6398 C   0  0  1  0  0  0  0  0  0  0  0  0
    3.7313   -4.3960   -0.4561 C   0  0  0  0  0  0  0  0  0  0  0  0
    4.7618   -3.2481   -0.3096 C   0  0  1  0  0  0  0  0  0  0  0  0
    4.9821   -2.5691   -1.6796 C   0  0  0  0  0  0  0  0  0  0  0  0
    5.8440   -1.4644   -1.5161 O   0  0  0  0  0  0  0  0  0  0  0  0
    2.7920   -5.0077    1.9995 C   0  0  1  0  0  0  0  0  0  0  0  0
    1.6230   -5.8443    2.0347 O   0  0  0  0  0  0  0  0  0  0  0  0
    1.4962   -6.9057    1.0965 C   0  0  0  0  0  0  0  0  0  0  0  0
    2.6606   -4.0883    3.2720 C   0  0  1  0  0  0  0  0  0  0  0  0
    1.4930   -4.4429    4.2294 C   0  0  0  0  0  0  0  0  0  0  0  0
    4.9109   -3.5013    7.0608 H   0  0  0  0  0  0  0  0  0  0  0  0
    6.0172   -3.9100    5.7609 H   0  0  0  0  0  0  0  0  0  0  0  0
    4.9053   -5.1285    6.4048 H   0  0  0  0  0  0  0  0  0  0  0  0
    5.2062   -6.0586    4.2113 H   0  0  0  0  0  0  0  0  0  0  0  0
    3.4918   -6.2645    4.3653 H   0  0  0  0  0  0  0  0  0  0  0  0
    3.9006   -6.9481    2.0954 H   0  0  0  0  0  0  0  0  0  0  0  0
    6.5712   -7.1377    2.2809 H   0  0  0  0  0  0  0  0  0  0  0  0
    7.1647   -6.2823    0.8617 H   0  0  0  0  0  0  0  0  0  0  0  0
    5.7648   -7.3575    0.7217 H   0  0  0  0  0  0  0  0  0  0  0  0
    6.6651   -4.9052    3.1381 H   0  0  0  0  0  0  0  0  0  0  0  0
    6.8272   -3.9107    1.7305 H   0  0  0  0  0  0  0  0  0  0  0  0
    5.8007   -3.0082    3.7825 H   0  0  0  0  0  0  0  0  0  0  0  0
    3.6503   -0.2669    2.5056 H   0  0  0  0  0  0  0  0  0  0  0  0
    4.3327   -1.0168    4.0358 H   0  0  0  0  0  0  0  0  0  0  0  0
    6.6177   -1.0822    2.8916 H   0  0  0  0  0  0  0  0  0  0  0  0
    5.8810   -0.3653    1.3935 H   0  0  0  0  0  0  0  0  0  0  0  0
    4.1307   -1.2949    0.3715 H   0  0  0  0  0  0  0  0  0  0  0  0
    2.0085   -2.1679    1.4323 H   0  0  0  0  0  0  0  0  0  0  0  0
    2.2806   -2.3190   -0.2290 H   0  0  0  0  0  0  0  0  0  0  0  0
    1.7432   -4.4667    0.1735 H   0  0  0  0  0  0  0  0  0  0  0  0
    4.1249   -5.4075   -0.5353 H   0  0  0  0  0  0  0  0  0  0  0  0
    3.2090   -4.2317   -1.3999 H   0  0  0  0  0  0  0  0  0  0  0  0
    5.7401   -3.6212   -0.0352 H   0  0  0  0  0  0  0  0  0  0  0  0
    5.4397   -3.2713   -2.3782 H   0  0  0  0  0  0  0  0  0  0  0  0
    4.0523   -2.2283   -2.1399 H   0  0  0  0  0  0  0  0  0  0  0  0
    5.3848   -0.8271   -0.9975 H   0  0  0  0  0  0  0  0  0  0  0  0
    0.4497   -7.2061    1.0359 H   0  0  0  0  0  0  0  0  0  0  0  0
    2.0655   -7.7899    1.3782 H   0  0  0  0  0  0  0  0  0  0  0  0
    1.7960   -6.6086    0.0962 H   0  0  0  0  0  0  0  0  0  0  0  0
    2.4910   -3.0370    3.1174 H   0  0  0  0  0  0  0  0  0  0  0  0
    1.5063   -5.4755    4.5791 H   0  0  0  0  0  0  0  0  0  0  0  0
    0.5335   -4.2735    3.7385 H   0  0  0  0  0  0  0  0  0  0  0  0
    1.5083   -3.7992    5.1076 H   0  0  0  0  0  0  0  0  0  0  0  0
    5.0931   -5.0973    0.7505 H   0  0  0  0  0  0  0  0  0  0  0  0
  1  2  1  0
  1 25  1  0
  1 26  1  0
  1 27  1  0
  3  2  1  1
  3  9  1  0
  3 23  1  0
  3  4  1  0
  4  5  1  0
  4 28  1  0
  4 29  1  0
  5 20  1  0
  5  6  1  0
  5 30  1  1
  6  7  1  0
  6  8  1  0
  6 58  1  6
  7 31  1  0
  7 32  1  0
  7 33  1  0
  8  9  1  0
  8 34  1  0
  8 35  1  0
  9 10  1  0
  9 36  1  1
 10 12  1  0
 10 11  1  0
 10 13  1  0
 11 12  1  0
 11 37  1  0
 11 38  1  0
 12 39  1  0
 12 40  1  0
 13 17  1  0
 13 14  1  0
 13 41  1  6
 14 15  1  0
 14 42  1  0
 14 43  1  0
 15 16  1  0
 15 20  1  0
 15 44  1  6
 16 17  1  0
 16 45  1  0
 16 46  1  0
 17 18  1  0
 17 47  1  1
 18 19  1  0
 18 48  1  0
 18 49  1  0
 19 50  1  0
 20 21  1  6
 20 23  1  0
 21 22  1  0
 22 51  1  0
 22 52  1  0
 22 53  1  0
 23 24  1  0
 23 54  1  6
 24 55  1  0
 24 56  1  0
 24 57  1  0
M  CHG  1   6   1
M  END
>  <i_m_ct_stereo_status>  (116) 
1

>  <s_m_source_file>  (116) 
/var/tmp/pbs.5076255.sched01/tmphf7gnms3/50i7j3xhgh.sdf

>  <i_m_source_file_index>  (116) 
1

>  <i_lp_mmshare_version>  (116) 
48012

>  <i_f3d_flags>  (116) 
0

>  <s_epik_input>  (116) 
W0NIMl0xW0NIMl1DMTJbQ0hdM1tDQF00KE9bQ0gzXSlbQ0gyXVtDQEhdKE4oW0NIM10pW0NIMl0zKVtDQEBdKE9bQ0gzXSkoW0NASF00W0NIM10pW0NASF01W0NIMl1bQ0BASF0yW0NAQEhdKFtDSDJdNSlbQ0gyXVtPSF0=

>  <s_epik_cmdline>  (116) 
J2VwaWtfcHl0aG9uJywgJy1waHQnLCAnMi4wJywgJy1waCcsICc3LjAnLCAnLXRuJywgJzgnLCAnLW1hJywgJzIwMCcsICctaW1hZScsICc8aW5maWxlLm1hZT4nLCAnLW9tYWUnLCAnPG91dGZpbGUubWFlPic=

>  <r_epik_Ionization_Penalty>  (116) 
0.0222357

>  <r_epik_Ionization_Penalty_Charging>  (116) 
0.0222352

>  <r_epik_Ionization_Penalty_Neutral>  (116) 
5.0823e-07

>  <r_epik_State_Penalty>  (116) 
0.0179286

>  <r_epik_Charging_Adjusted_Penalty>  (116) 
0.0401638

>  <i_epik_Tot_Q>  (116) 
1

>  <i_epik_Tot_abs_Q>  (116) 
1

>  <s_lp_Force_Field>  (116) 
OPLS3e

>  <r_lp_Energy>  (116) 
74.142

>  <b_lp_Chiralities_Consistent>  (116) 
1

>  <s_lp_Variant>  (116) 
31:0-1

>  <s_i_glide_gridfile>  (116) 
pfpi4k_grid

>  <i_i_glide_lignum>  (116) 
1

>  <i_i_glide_rotatable_bonds>  (116) 
4

>  <r_i_docking_score>  (116) 
-2.85655

>  <r_i_glide_ligand_efficiency>  (116) 
-0.119023

>  <r_i_glide_ligand_efficiency_sa>  (116) 
-0.343322

>  <r_i_glide_ligand_efficiency_ln>  (116) 
-0.683704

>  <r_i_glide_gscore>  (116) 
-2.85655

>  <r_i_glide_lipo>  (116) 
-0.398712

>  <r_i_glide_hbond>  (116) 
-0.0838017

>  <r_i_glide_metal>  (116) 
-0

>  <r_i_glide_rewards>  (116) 
-1.11485

>  <r_i_glide_evdw>  (116) 
-13.5687

>  <r_i_glide_ecoul>  (116) 
-4.98376

>  <r_i_glide_erotb>  (116) 
0.16681

>  <r_i_glide_esite>  (116) 
0

>  <r_i_glide_emodel>  (116) 
-24.7019

>  <r_i_glide_energy>  (116) 
-18.5525

>  <r_i_glide_einternal>  (116) 
0.644194

>  <r_i_glide_intrahb_reward>  (116) 
-0

>  <i_i_glide_confnum>  (116) 
3

>  <i_i_glide_posenum>  (116) 
1

>  <r_i_glide_eff_state_penalty>  (116) 
0

>  <ligand_id>  (116) 
31

>  <original_smiles>  (116) 
COC12CC3N(C)CC1C1(CC1)C1CC(CC1CO)C3(OC)C2C

>  <smiles>  (116) 
[H]OC([H])([H])C1([H])C([H])([H])C2([H])C([H])([H])C1([H])C1(C([H])([H])C1([H])[H])C1([H])C3(OC([H])([H])[H])C([H])([H])C([H])(C2(OC([H])([H])[H])C3([H])C([H])([H])[H])[N+]([H])(C([H])([H])[H])C1([H])[H]

$$$$
31:0:2
     RDKit          3D

 58 62  0  0  1  0  0  0  0  0999 V2000
    4.6258   -2.5407    5.2847 C   0  0  0  0  0  0  0  0  0  0  0  0
    3.6490   -2.7586    4.2712 O   0  0  0  0  0  0  0  0  0  0  0  0
    4.1172   -3.2646    3.0154 C   0  0  2  0  0  0  0  0  0  0  0  0
    5.1495   -4.4016    3.1195 C   0  0  0  0  0  0  0  0  0  0  0  0
    5.2759   -4.7472    1.6352 C   0  0  2  0  0  0  0  0  0  0  0  0
    6.1658   -3.7378    0.9810 N   0  0  2  0  0  0  0  0  0  0  0  0
    7.5768   -4.1885    0.8582 C   0  0  0  0  0  0  0  0  0  0  0  0
    6.0701   -2.3810    1.5734 C   0  0  0  0  0  0  0  0  0  0  0  0
    4.6806   -2.0937    2.1120 C   0  0  1  0  0  0  0  0  0  0  0  0
    3.7794   -1.3355    1.1084 C   0  0  0  0  0  0  0  0  0  0  0  0
    2.7042   -0.4615    1.7264 C   0  0  0  0  0  0  0  0  0  0  0  0
    3.9581    0.1635    1.1764 C   0  0  0  0  0  0  0  0  0  0  0  0
    3.4904   -1.8958   -0.3308 C   0  0  2  0  0  0  0  0  0  0  0  0
    2.4927   -3.0331   -0.3978 C   0  0  0  0  0  0  0  0  0  0  0  0
    3.3317   -4.3053   -0.2888 C   0  0  1  0  0  0  0  0  0  0  0  0
    4.4319   -3.9502   -1.3109 C   0  0  0  0  0  0  0  0  0  0  0  0
    4.6278   -2.4024   -1.2631 C   0  0  1  0  0  0  0  0  0  0  0  0
    4.5436   -1.8174   -2.6935 C   0  0  0  0  0  0  0  0  0  0  0  0
    4.6201   -0.4112   -2.6755 O   0  0  0  0  0  0  0  0  0  0  0  0
    3.7476   -4.7857    1.1671 C   0  0  1  0  0  0  0  0  0  0  0  0
    3.2474   -6.1300    1.2520 O   0  0  0  0  0  0  0  0  0  0  0  0
    4.0134   -7.1846    0.6741 C   0  0  0  0  0  0  0  0  0  0  0  0
    2.9871   -4.0100    2.3132 C   0  0  1  0  0  0  0  0  0  0  0  0
    2.1167   -4.8832    3.2563 C   0  0  0  0  0  0  0  0  0  0  0  0
    4.1495   -2.0448    6.1294 H   0  0  0  0  0  0  0  0  0  0  0  0
    5.4452   -1.9058    4.9488 H   0  0  0  0  0  0  0  0  0  0  0  0
    5.0386   -3.4801    5.6543 H   0  0  0  0  0  0  0  0  0  0  0  0
    6.0955   -4.1389    3.5831 H   0  0  0  0  0  0  0  0  0  0  0  0
    4.7727   -5.2560    3.6782 H   0  0  0  0  0  0  0  0  0  0  0  0
    5.7847   -5.7004    1.5356 H   0  0  0  0  0  0  0  0  0  0  0  0
    8.0126   -4.3909    1.8351 H   0  0  0  0  0  0  0  0  0  0  0  0
    8.1772   -3.4302    0.3667 H   0  0  0  0  0  0  0  0  0  0  0  0
    7.6352   -5.1029    0.2698 H   0  0  0  0  0  0  0  0  0  0  0  0
    6.6465   -2.3470    2.4749 H   0  0  0  0  0  0  0  0  0  0  0  0
    6.4632   -1.5924    0.9342 H   0  0  0  0  0  0  0  0  0  0  0  0
    4.9098   -1.3338    2.8548 H   0  0  0  0  0  0  0  0  0  0  0  0
    1.7814   -0.3179    1.1680 H   0  0  0  0  0  0  0  0  0  0  0  0
    2.5839   -0.4955    2.8084 H   0  0  0  0  0  0  0  0  0  0  0  0
    4.7018    0.5401    1.8659 H   0  0  0  0  0  0  0  0  0  0  0  0
    3.8775    0.7228    0.2585 H   0  0  0  0  0  0  0  0  0  0  0  0
    3.0094   -1.0641   -0.8391 H   0  0  0  0  0  0  0  0  0  0  0  0
    1.6475   -2.8800    0.2518 H   0  0  0  0  0  0  0  0  0  0  0  0
    2.0374   -3.0287   -1.3927 H   0  0  0  0  0  0  0  0  0  0  0  0
    2.6942   -5.0823   -0.7058 H   0  0  0  0  0  0  0  0  0  0  0  0
    5.3336   -4.5527   -1.2286 H   0  0  0  0  0  0  0  0  0  0  0  0
    4.0491   -4.1963   -2.3029 H   0  0  0  0  0  0  0  0  0  0  0  0
    5.6094   -2.1177   -0.9075 H   0  0  0  0  0  0  0  0  0  0  0  0
    5.3829   -2.1916   -3.2777 H   0  0  0  0  0  0  0  0  0  0  0  0
    3.6306   -2.1093   -3.2164 H   0  0  0  0  0  0  0  0  0  0  0  0
    3.8191   -0.0724   -2.3077 H   0  0  0  0  0  0  0  0  0  0  0  0
    3.3958   -8.0638    0.5160 H   0  0  0  0  0  0  0  0  0  0  0  0
    4.7824   -7.5247    1.3667 H   0  0  0  0  0  0  0  0  0  0  0  0
    4.4645   -6.9114   -0.2824 H   0  0  0  0  0  0  0  0  0  0  0  0
    2.2826   -3.2440    2.0413 H   0  0  0  0  0  0  0  0  0  0  0  0
    2.6675   -5.6989    3.7226 H   0  0  0  0  0  0  0  0  0  0  0  0
    1.2832   -5.3200    2.7046 H   0  0  0  0  0  0  0  0  0  0  0  0
    1.6838   -4.2776    4.0533 H   0  0  0  0  0  0  0  0  0  0  0  0
    5.8078   -3.6453    0.0349 H   0  0  0  0  0  0  0  0  0  0  0  0
  1  2  1  0
  1 25  1  0
  1 26  1  0
  1 27  1  0
  3  2  1  1
  3  9  1  0
  3 23  1  0
  3  4  1  0
  4  5  1  0
  4 28  1  0
  4 29  1  0
  5 20  1  0
  5  6  1  0
  5 30  1  1
  6  7  1  0
  6  8  1  0
  6 58  1  6
  7 31  1  0
  7 32  1  0
  7 33  1  0
  8  9  1  0
  8 34  1  0
  8 35  1  0
  9 10  1  0
  9 36  1  1
 10 12  1  0
 10 11  1  0
 10 13  1  0
 11 12  1  0
 11 37  1  0
 11 38  1  0
 12 39  1  0
 12 40  1  0
 13 17  1  0
 13 14  1  0
 13 41  1  6
 14 15  1  0
 14 42  1  0
 14 43  1  0
 15 16  1  0
 15 20  1  0
 15 44  1  6
 16 17  1  0
 16 45  1  0
 16 46  1  0
 17 18  1  0
 17 47  1  1
 18 19  1  0
 18 48  1  0
 18 49  1  0
 19 50  1  0
 20 21  1  6
 20 23  1  0
 21 22  1  0
 22 51  1  0
 22 52  1  0
 22 53  1  0
 23 24  1  0
 23 54  1  6
 24 55  1  0
 24 56  1  0
 24 57  1  0
M  CHG  1   6   1
M  END
>  <i_m_ct_stereo_status>  (117) 
1

>  <s_m_source_file>  (117) 
/var/tmp/pbs.5076255.sched01/tmphf7gnms3/50i7j3xhgh.sdf

>  <i_m_source_file_index>  (117) 
1

>  <i_lp_mmshare_version>  (117) 
48012

>  <i_f3d_flags>  (117) 
0

>  <s_epik_input>  (117) 
W0NIMl0xW0NIMl1DMTJbQ0hdM1tDQF00KE9bQ0gzXSlbQ0gyXVtDQEhdKE4oW0NIM10pW0NIMl0zKVtDQEBdKE9bQ0gzXSkoW0NASF00W0NIM10pW0NASF01W0NIMl1bQ0BASF0yW0NAQEhdKFtDSDJdNSlbQ0gyXVtPSF0=

>  <s_epik_cmdline>  (117) 
J2VwaWtfcHl0aG9uJywgJy1waHQnLCAnMi4wJywgJy1waCcsICc3LjAnLCAnLXRuJywgJzgnLCAnLW1hJywgJzIwMCcsICctaW1hZScsICc8aW5maWxlLm1hZT4nLCAnLW9tYWUnLCAnPG91dGZpbGUubWFlPic=

>  <r_epik_Ionization_Penalty>  (117) 
0.0222357

>  <r_epik_Ionization_Penalty_Charging>  (117) 
0.0222352

>  <r_epik_Ionization_Penalty_Neutral>  (117) 
5.0823e-07

>  <r_epik_State_Penalty>  (117) 
0.0179286

>  <r_epik_Charging_Adjusted_Penalty>  (117) 
0.0401638

>  <i_epik_Tot_Q>  (117) 
1

>  <i_epik_Tot_abs_Q>  (117) 
1

>  <s_lp_Force_Field>  (117) 
OPLS3e

>  <r_lp_Energy>  (117) 
74.142

>  <b_lp_Chiralities_Consistent>  (117) 
1

>  <s_lp_Variant>  (117) 
31:0-1

>  <s_i_glide_gridfile>  (117) 
pfpi4k_grid

>  <i_i_glide_lignum>  (117) 
1

>  <i_i_glide_rotatable_bonds>  (117) 
4

>  <r_i_docking_score>  (117) 
-2.51764

>  <r_i_glide_ligand_efficiency>  (117) 
-0.104902

>  <r_i_glide_ligand_efficiency_sa>  (117) 
-0.302589

>  <r_i_glide_ligand_efficiency_ln>  (117) 
-0.602587

>  <r_i_glide_gscore>  (117) 
-2.51764

>  <r_i_glide_lipo>  (117) 
-0.534041

>  <r_i_glide_hbond>  (117) 
0

>  <r_i_glide_metal>  (117) 
-0

>  <r_i_glide_rewards>  (117) 
-1.11485

>  <r_i_glide_evdw>  (117) 
-13.4997

>  <r_i_glide_ecoul>  (117) 
-2.40385

>  <r_i_glide_erotb>  (117) 
0.16681

>  <r_i_glide_esite>  (117) 
0

>  <r_i_glide_emodel>  (117) 
-20.1953

>  <r_i_glide_energy>  (117) 
-15.9035

>  <r_i_glide_einternal>  (117) 
1.91723

>  <r_i_glide_intrahb_reward>  (117) 
-0

>  <i_i_glide_confnum>  (117) 
6

>  <i_i_glide_posenum>  (117) 
12

>  <r_i_glide_eff_state_penalty>  (117) 
0

>  <ligand_id>  (117) 
31

>  <original_smiles>  (117) 
COC12CC3N(C)CC1C1(CC1)C1CC(CC1CO)C3(OC)C2C

>  <smiles>  (117) 
[H]OC([H])([H])C1([H])C([H])([H])C2([H])C([H])([H])C1([H])C1(C([H])([H])C1([H])[H])C1([H])C3(OC([H])([H])[H])C([H])([H])C([H])(C2(OC([H])([H])[H])C3([H])C([H])([H])[H])[N+]([H])(C([H])([H])[H])C1([H])[H]

$$$$
32:0:0
     RDKit          3D

 29 31  0  0  1  0  0  0  0  0999 V2000
    2.1006   -3.1706   -2.8152 C   0  0  0  0  0  0  0  0  0  0  0  0
    3.5248   -3.0538   -2.5849 N   0  0  0  0  0  0  0  0  0  0  0  0
    4.3926   -3.1042   -3.6149 N   0  0  0  0  0  0  0  0  0  0  0  0
    5.5838   -3.0508   -3.0957 N   0  0  0  0  0  0  0  0  0  0  0  0
    5.5268   -2.9308   -1.7253 N   0  0  0  0  0  0  0  0  0  0  0  0
    4.2319   -2.9741   -1.4507 C   0  0  0  0  0  0  0  0  0  0  0  0
    3.5150   -2.9703    0.1622 S   0  0  0  0  0  0  0  0  0  0  0  0
    3.5274   -1.1756    0.4526 C   0  0  0  0  0  0  0  0  0  0  0  0
    2.8574   -0.7808    1.7692 C   0  0  0  0  0  0  0  0  0  0  0  0
    3.4271   -1.0231    2.8325 O   0  0  0  0  0  0  0  0  0  0  0  0
    1.6649   -0.1642    1.6831 N   0  0  0  0  0  0  0  0  0  0  0  0
    0.8202    0.2505    2.7350 C   0  0  0  0  0  0  0  0  0  0  0  0
    0.6901   -0.5290    3.9127 C   0  0  0  0  0  0  0  0  0  0  0  0
   -0.1566   -0.1122    4.9531 C   0  0  0  0  0  0  0  0  0  0  0  0
   -0.8951    1.0705    4.8038 C   0  0  0  0  0  0  0  0  0  0  0  0
   -1.7017    1.5368    5.7591 N   0  0  0  0  0  0  0  0  0  0  0  0
   -2.2930    2.9706    5.1002 S   0  0  0  0  0  0  0  0  0  0  0  0
   -1.5420    2.9446    3.5943 N   0  0  0  0  0  0  0  0  0  0  0  0
   -0.8046    1.8325    3.6294 C   0  0  0  0  0  0  0  0  0  0  0  0
    0.0386    1.4227    2.5797 C   0  0  0  0  0  0  0  0  0  0  0  0
    1.5485   -2.6575   -2.0292 H   0  0  0  0  0  0  0  0  0  0  0  0
    1.8100   -4.2214   -2.8028 H   0  0  0  0  0  0  0  0  0  0  0  0
    1.8399   -2.7381   -3.7830 H   0  0  0  0  0  0  0  0  0  0  0  0
    4.5585   -0.8232    0.4843 H   0  0  0  0  0  0  0  0  0  0  0  0
    3.0442   -0.6749   -0.3869 H   0  0  0  0  0  0  0  0  0  0  0  0
    1.2985   -0.0741    0.7349 H   0  0  0  0  0  0  0  0  0  0  0  0
    1.2280   -1.4558    4.0273 H   0  0  0  0  0  0  0  0  0  0  0  0
   -0.2268   -0.6956    5.8558 H   0  0  0  0  0  0  0  0  0  0  0  0
    0.1021    2.0117    1.6712 H   0  0  0  0  0  0  0  0  0  0  0  0
  1  2  1  0
  1 21  1  0
  1 22  1  0
  1 23  1  0
  2  6  1  0
  2  3  1  0
  3  4  2  0
  4  5  1  0
  5  6  2  0
  6  7  1  0
  7  8  1  0
  8  9  1  0
  8 24  1  0
  8 25  1  0
  9 10  2  0
  9 11  1  0
 11 12  1  0
 11 26  1  0
 12 20  2  0
 12 13  1  0
 13 14  2  0
 13 27  1  0
 14 15  1  0
 14 28  1  0
 15 19  1  0
 15 16  2  0
 16 17  1  0
 17 18  1  0
 18 19  2  0
 19 20  1  0
 20 29  1  0
M  END
>  <i_m_ct_stereo_status>  (118) 
1

>  <s_m_source_file>  (118) 
/var/tmp/pbs.5076255.sched01/tmphf7gnms3/50i7j3xhgh.sdf

>  <i_m_source_file_index>  (118) 
3

>  <i_lp_mmshare_version>  (118) 
48012

>  <i_f3d_flags>  (118) 
0

>  <s_epik_input>  (118) 
W0NIM11uMW5ubmMxU1tDSDJdQyg9TylbTkhdYyhbY0hdW2NIXTIpW2NIXWMoYzIzKW5zbjM=

>  <s_epik_cmdline>  (118) 
J2VwaWtfcHl0aG9uJywgJy1waHQnLCAnMi4wJywgJy1waCcsICc3LjAnLCAnLXRuJywgJzgnLCAnLW1hJywgJzIwMCcsICctaW1hZScsICc8aW5maWxlLm1hZT4nLCAnLW9tYWUnLCAnPG91dGZpbGUubWFlPic=

>  <r_lp_tautomer_probability>  (118) 
1

>  <r_epik_Ionization_Penalty>  (118) 
6.20908e-06

>  <r_epik_Ionization_Penalty_Charging>  (118) 
0

>  <r_epik_Ionization_Penalty_Neutral>  (118) 
6.20908e-06

>  <r_epik_State_Penalty>  (118) 
-0

>  <r_epik_Charging_Adjusted_Penalty>  (118) 
0

>  <i_epik_Tot_Q>  (118) 
0

>  <i_epik_Tot_abs_Q>  (118) 
0

>  <s_lp_Force_Field>  (118) 
OPLS3e

>  <r_lp_Energy>  (118) 
19.1442

>  <b_lp_Chiralities_Consistent>  (118) 
1

>  <s_lp_Variant>  (118) 
32:0-1

>  <s_i_glide_gridfile>  (118) 
pfpi4k_grid

>  <i_i_glide_lignum>  (118) 
3

>  <i_i_glide_rotatable_bonds>  (118) 
5

>  <r_i_docking_score>  (118) 
-3.668

>  <r_i_glide_ligand_efficiency>  (118) 
-0.1834

>  <r_i_glide_ligand_efficiency_sa>  (118) 
-0.497825

>  <r_i_glide_ligand_efficiency_ln>  (118) 
-0.917981

>  <r_i_glide_gscore>  (118) 
-3.668

>  <r_i_glide_lipo>  (118) 
-0.211625

>  <r_i_glide_hbond>  (118) 
-0.149392

>  <r_i_glide_metal>  (118) 
-0

>  <r_i_glide_rewards>  (118) 
-1.31348

>  <r_i_glide_evdw>  (118) 
-30.8523

>  <r_i_glide_ecoul>  (118) 
-7.04013

>  <r_i_glide_erotb>  (118) 
0.782724

>  <r_i_glide_esite>  (118) 
-0.1776

>  <r_i_glide_emodel>  (118) 
-45.0727

>  <r_i_glide_energy>  (118) 
-37.8924

>  <r_i_glide_einternal>  (118) 
5.19199

>  <r_i_glide_intrahb_reward>  (118) 
-0

>  <i_i_glide_confnum>  (118) 
2

>  <i_i_glide_posenum>  (118) 
31

>  <r_i_glide_eff_state_penalty>  (118) 
0

>  <ligand_id>  (118) 
32

>  <original_smiles>  (118) 
Cn1nnnc1SCC(=O)Nc1ccc2nsnc2c1

>  <smiles>  (118) 
[H]c1c(N([H])C(=O)C([H])([H])Sc2nnnn2C([H])([H])[H])c([H])c2nsnc2c1[H]

$$$$
32:0:1
     RDKit          3D

 29 31  0  0  1  0  0  0  0  0999 V2000
    2.1243   -3.1170   -3.0686 C   0  0  0  0  0  0  0  0  0  0  0  0
    3.4942   -3.0557   -2.5981 N   0  0  0  0  0  0  0  0  0  0  0  0
    4.5323   -3.0597   -3.4670 N   0  0  0  0  0  0  0  0  0  0  0  0
    5.6164   -3.0487   -2.7512 N   0  0  0  0  0  0  0  0  0  0  0  0
    5.3251   -2.9912   -1.4015 N   0  0  0  0  0  0  0  0  0  0  0  0
    4.0001   -3.0256   -1.3595 C   0  0  0  0  0  0  0  0  0  0  0  0
    3.0168   -3.0829    0.1066 S   0  0  0  0  0  0  0  0  0  0  0  0
    3.3694   -1.4192    0.7411 C   0  0  0  0  0  0  0  0  0  0  0  0
    2.5307   -1.0621    1.9682 C   0  0  0  0  0  0  0  0  0  0  0  0
    2.8685   -1.4678    3.0787 O   0  0  0  0  0  0  0  0  0  0  0  0
    1.4480   -0.3092    1.7213 N   0  0  0  0  0  0  0  0  0  0  0  0
    0.5779    0.3664    2.6284 C   0  0  0  0  0  0  0  0  0  0  0  0
   -0.2304    1.3801    2.0723 C   0  0  0  0  0  0  0  0  0  0  0  0
   -1.1273    2.1227    2.8639 C   0  0  0  0  0  0  0  0  0  0  0  0
   -1.2287    1.8344    4.2323 C   0  0  0  0  0  0  0  0  0  0  0  0
   -2.0494    2.4989    5.0501 N   0  0  0  0  0  0  0  0  0  0  0  0
   -1.7837    1.7702    6.5445 S   0  0  0  0  0  0  0  0  0  0  0  0
   -0.6432    0.6067    6.1079 N   0  0  0  0  0  0  0  0  0  0  0  0
   -0.4551    0.8203    4.8009 C   0  0  0  0  0  0  0  0  0  0  0  0
    0.4587    0.0797    4.0171 C   0  0  0  0  0  0  0  0  0  0  0  0
    1.4513   -2.6391   -2.3581 H   0  0  0  0  0  0  0  0  0  0  0  0
    1.8223   -4.1586   -3.1559 H   0  0  0  0  0  0  0  0  0  0  0  0
    2.0357   -2.6338   -4.0427 H   0  0  0  0  0  0  0  0  0  0  0  0
    4.4239   -1.3358    1.0025 H   0  0  0  0  0  0  0  0  0  0  0  0
    3.1885   -0.6892   -0.0492 H   0  0  0  0  0  0  0  0  0  0  0  0
    1.2532   -0.1772    0.7280 H   0  0  0  0  0  0  0  0  0  0  0  0
   -0.1560    1.6122    1.0174 H   0  0  0  0  0  0  0  0  0  0  0  0
   -1.7234    2.9040    2.4191 H   0  0  0  0  0  0  0  0  0  0  0  0
    1.0406   -0.6928    4.4922 H   0  0  0  0  0  0  0  0  0  0  0  0
  1  2  1  0
  1 21  1  0
  1 22  1  0
  1 23  1  0
  2  6  1  0
  2  3  1  0
  3  4  2  0
  4  5  1  0
  5  6  2  0
  6  7  1  0
  7  8  1  0
  8  9  1  0
  8 24  1  0
  8 25  1  0
  9 10  2  0
  9 11  1  0
 11 12  1  0
 11 26  1  0
 12 20  2  0
 12 13  1  0
 13 14  2  0
 13 27  1  0
 14 15  1  0
 14 28  1  0
 15 19  1  0
 15 16  2  0
 16 17  1  0
 17 18  1  0
 18 19  2  0
 19 20  1  0
 20 29  1  0
M  END
>  <i_m_ct_stereo_status>  (119) 
1

>  <s_m_source_file>  (119) 
/var/tmp/pbs.5076255.sched01/tmphf7gnms3/50i7j3xhgh.sdf

>  <i_m_source_file_index>  (119) 
3

>  <i_lp_mmshare_version>  (119) 
48012

>  <i_f3d_flags>  (119) 
0

>  <s_epik_input>  (119) 
W0NIM11uMW5ubmMxU1tDSDJdQyg9TylbTkhdYyhbY0hdW2NIXTIpW2NIXWMoYzIzKW5zbjM=

>  <s_epik_cmdline>  (119) 
J2VwaWtfcHl0aG9uJywgJy1waHQnLCAnMi4wJywgJy1waCcsICc3LjAnLCAnLXRuJywgJzgnLCAnLW1hJywgJzIwMCcsICctaW1hZScsICc8aW5maWxlLm1hZT4nLCAnLW9tYWUnLCAnPG91dGZpbGUubWFlPic=

>  <r_lp_tautomer_probability>  (119) 
1

>  <r_epik_Ionization_Penalty>  (119) 
6.20908e-06

>  <r_epik_Ionization_Penalty_Charging>  (119) 
0

>  <r_epik_Ionization_Penalty_Neutral>  (119) 
6.20908e-06

>  <r_epik_State_Penalty>  (119) 
-0

>  <r_epik_Charging_Adjusted_Penalty>  (119) 
0

>  <i_epik_Tot_Q>  (119) 
0

>  <i_epik_Tot_abs_Q>  (119) 
0

>  <s_lp_Force_Field>  (119) 
OPLS3e

>  <r_lp_Energy>  (119) 
19.1442

>  <b_lp_Chiralities_Consistent>  (119) 
1

>  <s_lp_Variant>  (119) 
32:0-1

>  <s_i_glide_gridfile>  (119) 
pfpi4k_grid

>  <i_i_glide_lignum>  (119) 
3

>  <i_i_glide_rotatable_bonds>  (119) 
5

>  <r_i_docking_score>  (119) 
-3.65817

>  <r_i_glide_ligand_efficiency>  (119) 
-0.182909

>  <r_i_glide_ligand_efficiency_sa>  (119) 
-0.496491

>  <r_i_glide_ligand_efficiency_ln>  (119) 
-0.91552

>  <r_i_glide_gscore>  (119) 
-3.65817

>  <r_i_glide_lipo>  (119) 
-0.20755

>  <r_i_glide_hbond>  (119) 
-0.1456

>  <r_i_glide_metal>  (119) 
-0

>  <r_i_glide_rewards>  (119) 
-1.31348

>  <r_i_glide_evdw>  (119) 
-29.9407

>  <r_i_glide_ecoul>  (119) 
-7.27353

>  <r_i_glide_erotb>  (119) 
0.782724

>  <r_i_glide_esite>  (119) 
-0.186204

>  <r_i_glide_emodel>  (119) 
-45.6733

>  <r_i_glide_energy>  (119) 
-37.2143

>  <r_i_glide_einternal>  (119) 
2.45045

>  <r_i_glide_intrahb_reward>  (119) 
-0

>  <i_i_glide_confnum>  (119) 
2

>  <i_i_glide_posenum>  (119) 
12

>  <r_i_glide_eff_state_penalty>  (119) 
0

>  <ligand_id>  (119) 
32

>  <original_smiles>  (119) 
Cn1nnnc1SCC(=O)Nc1ccc2nsnc2c1

>  <smiles>  (119) 
[H]c1c(N([H])C(=O)C([H])([H])Sc2nnnn2C([H])([H])[H])c([H])c2nsnc2c1[H]

$$$$
32:0:2
     RDKit          3D

 29 31  0  0  1  0  0  0  0  0999 V2000
   -0.9534    3.3951    3.5365 C   0  0  0  0  0  0  0  0  0  0  0  0
   -1.0888    2.1288    4.2245 N   0  0  0  0  0  0  0  0  0  0  0  0
   -1.8519    2.0316    5.3371 N   0  0  0  0  0  0  0  0  0  0  0  0
   -1.7858    0.7934    5.7241 N   0  0  0  0  0  0  0  0  0  0  0  0
   -0.9806    0.0467    4.8963 N   0  0  0  0  0  0  0  0  0  0  0  0
   -0.5484    0.9247    3.9914 C   0  0  0  0  0  0  0  0  0  0  0  0
    0.5863    0.6166    2.6706 S   0  0  0  0  0  0  0  0  0  0  0  0
    1.1248   -1.0747    3.0719 C   0  0  0  0  0  0  0  0  0  0  0  0
    2.5400   -1.3684    2.6063 C   0  0  0  0  0  0  0  0  0  0  0  0
    3.4229   -1.5313    3.4416 O   0  0  0  0  0  0  0  0  0  0  0  0
    2.7111   -1.4388    1.2763 N   0  0  0  0  0  0  0  0  0  0  0  0
    3.8848   -1.7418    0.5349 C   0  0  0  0  0  0  0  0  0  0  0  0
    3.8147   -1.4909   -0.8556 C   0  0  0  0  0  0  0  0  0  0  0  0
    4.8913   -1.7969   -1.7055 C   0  0  0  0  0  0  0  0  0  0  0  0
    6.0523   -2.3572   -1.1528 C   0  0  0  0  0  0  0  0  0  0  0  0
    7.1193   -2.6569   -1.8875 N   0  0  0  0  0  0  0  0  0  0  0  0
    8.2158   -3.2530   -0.7618 S   0  0  0  0  0  0  0  0  0  0  0  0
    7.2966   -3.1306    0.6402 N   0  0  0  0  0  0  0  0  0  0  0  0
    6.1457   -2.6050    0.2177 C   0  0  0  0  0  0  0  0  0  0  0  0
    5.0725   -2.3051    1.0785 C   0  0  0  0  0  0  0  0  0  0  0  0
   -0.7655    3.2314    2.4794 H   0  0  0  0  0  0  0  0  0  0  0  0
   -0.1247    3.9625    3.9610 H   0  0  0  0  0  0  0  0  0  0  0  0
   -1.8742    3.9713    3.6359 H   0  0  0  0  0  0  0  0  0  0  0  0
    1.0965   -1.2676    4.1429 H   0  0  0  0  0  0  0  0  0  0  0  0
    0.4475   -1.7859    2.6074 H   0  0  0  0  0  0  0  0  0  0  0  0
    1.9015   -1.1914    0.7115 H   0  0  0  0  0  0  0  0  0  0  0  0
    2.9220   -1.0703   -1.2885 H   0  0  0  0  0  0  0  0  0  0  0  0
    4.8191   -1.6044   -2.7651 H   0  0  0  0  0  0  0  0  0  0  0  0
    5.1790   -2.5351    2.1277 H   0  0  0  0  0  0  0  0  0  0  0  0
  1  2  1  0
  1 21  1  0
  1 22  1  0
  1 23  1  0
  2  6  1  0
  2  3  1  0
  3  4  2  0
  4  5  1  0
  5  6  2  0
  6  7  1  0
  7  8  1  0
  8  9  1  0
  8 24  1  0
  8 25  1  0
  9 10  2  0
  9 11  1  0
 11 12  1  0
 11 26  1  0
 12 20  2  0
 12 13  1  0
 13 14  2  0
 13 27  1  0
 14 15  1  0
 14 28  1  0
 15 19  1  0
 15 16  2  0
 16 17  1  0
 17 18  1  0
 18 19  2  0
 19 20  1  0
 20 29  1  0
M  END
>  <i_m_ct_stereo_status>  (120) 
1

>  <s_m_source_file>  (120) 
/var/tmp/pbs.5076255.sched01/tmphf7gnms3/50i7j3xhgh.sdf

>  <i_m_source_file_index>  (120) 
3

>  <i_lp_mmshare_version>  (120) 
48012

>  <i_f3d_flags>  (120) 
0

>  <s_epik_input>  (120) 
W0NIM11uMW5ubmMxU1tDSDJdQyg9TylbTkhdYyhbY0hdW2NIXTIpW2NIXWMoYzIzKW5zbjM=

>  <s_epik_cmdline>  (120) 
J2VwaWtfcHl0aG9uJywgJy1waHQnLCAnMi4wJywgJy1waCcsICc3LjAnLCAnLXRuJywgJzgnLCAnLW1hJywgJzIwMCcsICctaW1hZScsICc8aW5maWxlLm1hZT4nLCAnLW9tYWUnLCAnPG91dGZpbGUubWFlPic=

>  <r_lp_tautomer_probability>  (120) 
1

>  <r_epik_Ionization_Penalty>  (120) 
6.20908e-06

>  <r_epik_Ionization_Penalty_Charging>  (120) 
0

>  <r_epik_Ionization_Penalty_Neutral>  (120) 
6.20908e-06

>  <r_epik_State_Penalty>  (120) 
-0

>  <r_epik_Charging_Adjusted_Penalty>  (120) 
0

>  <i_epik_Tot_Q>  (120) 
0

>  <i_epik_Tot_abs_Q>  (120) 
0

>  <s_lp_Force_Field>  (120) 
OPLS3e

>  <r_lp_Energy>  (120) 
19.1442

>  <b_lp_Chiralities_Consistent>  (120) 
1

>  <s_lp_Variant>  (120) 
32:0-1

>  <s_i_glide_gridfile>  (120) 
pfpi4k_grid

>  <i_i_glide_lignum>  (120) 
3

>  <i_i_glide_rotatable_bonds>  (120) 
5

>  <r_i_docking_score>  (120) 
-3.43977

>  <r_i_glide_ligand_efficiency>  (120) 
-0.171988

>  <r_i_glide_ligand_efficiency_sa>  (120) 
-0.466848

>  <r_i_glide_ligand_efficiency_ln>  (120) 
-0.86086

>  <r_i_glide_gscore>  (120) 
-3.43977

>  <r_i_glide_lipo>  (120) 
-0.158694

>  <r_i_glide_hbond>  (120) 
-0.275778

>  <r_i_glide_metal>  (120) 
-0

>  <r_i_glide_rewards>  (120) 
-1.31348

>  <r_i_glide_evdw>  (120) 
-27.8648

>  <r_i_glide_ecoul>  (120) 
-5.84734

>  <r_i_glide_erotb>  (120) 
0.782724

>  <r_i_glide_esite>  (120) 
-0.204201

>  <r_i_glide_emodel>  (120) 
-42.3386

>  <r_i_glide_energy>  (120) 
-33.7121

>  <r_i_glide_einternal>  (120) 
0.997525

>  <r_i_glide_intrahb_reward>  (120) 
-0

>  <i_i_glide_confnum>  (120) 
2

>  <i_i_glide_posenum>  (120) 
33

>  <r_i_glide_eff_state_penalty>  (120) 
0

>  <ligand_id>  (120) 
32

>  <original_smiles>  (120) 
Cn1nnnc1SCC(=O)Nc1ccc2nsnc2c1

>  <smiles>  (120) 
[H]c1c(N([H])C(=O)C([H])([H])Sc2nnnn2C([H])([H])[H])c([H])c2nsnc2c1[H]

$$$$
33:0:0
     RDKit          3D

 62 66  0  0  1  0  0  0  0  0999 V2000
    3.4560   -5.3261    4.1715 C   0  0  0  0  0  0  0  0  0  0  0  0
    3.9145   -4.4892    3.1180 O   0  0  0  0  0  0  0  0  0  0  0  0
    4.7219   -3.3878    3.5178 C   0  0  2  0  0  0  0  0  0  0  0  0
    3.8761   -2.3035    4.2018 C   0  0  0  0  0  0  0  0  0  0  0  0
    2.8865   -1.6204    3.2318 C   0  0  1  0  0  0  0  0  0  0  0  0
    2.0151   -0.5899    4.0122 C   0  0  2  0  0  0  0  0  0  0  0  0
    0.8290   -1.2005    4.7725 C   0  0  0  0  0  0  0  0  0  0  0  0
   -0.1290   -0.0293    4.9908 C   0  0  0  0  0  0  0  0  0  0  0  0
   -0.0570    0.7449    3.6717 C   0  0  1  0  0  0  0  0  0  0  0  0
   -0.6375    2.1563    3.7259 C   0  0  0  0  0  0  0  0  0  0  0  0
   -0.2618    3.1910    4.7586 C   0  0  0  0  0  0  0  0  0  0  0  0
   -1.0960    4.2891    4.4362 O   0  0  0  0  0  0  0  0  0  0  0  0
   -1.8347    4.0427    3.3383 C   0  0  0  0  0  0  0  0  0  0  0  0
   -2.5918    4.8521    2.8009 O   0  0  0  0  0  0  0  0  0  0  0  0
   -1.5796    2.6671    2.9195 C   0  0  0  0  0  0  0  0  0  0  0  0
    1.4222    0.5869    3.1792 C   0  0  1  0  0  0  0  0  0  0  0  0
    2.2943    1.8402    3.4241 C   0  0  0  0  0  0  0  0  0  0  0  0
    1.4272    0.2216    1.6853 C   0  0  0  0  0  0  0  0  0  0  0  0
    2.8238   -0.1004    1.1368 C   0  0  0  0  0  0  0  0  0  0  0  0
    3.6976   -0.9888    2.0685 C   0  0  2  0  0  0  0  0  0  0  0  0
    4.6230   -1.9975    1.2935 C   0  0  2  0  0  0  0  0  0  0  0  0
    5.5506   -1.1579    0.3728 C   0  0  0  0  0  0  0  0  0  0  0  0
    3.8198   -3.0093    0.4143 C   0  0  0  0  0  0  0  0  0  0  0  0
    4.7103   -4.0292   -0.3183 C   0  0  0  0  0  0  0  0  0  0  0  0
    5.6554   -4.7431    0.6416 C   0  0  0  0  0  0  0  0  0  0  0  0
    5.8434   -5.9522    0.5767 O   0  0  0  0  0  0  0  0  0  0  0  0
    6.4049   -3.8696    1.6496 C   0  0  0  0  0  0  0  0  0  0  0  0
    5.5068   -2.7996    2.3166 C   0  0  2  0  0  0  0  0  0  0  0  0
    2.9322   -6.1816    3.7457 H   0  0  0  0  0  0  0  0  0  0  0  0
    2.7520   -4.8080    4.8224 H   0  0  0  0  0  0  0  0  0  0  0  0
    4.2818   -5.7082    4.7751 H   0  0  0  0  0  0  0  0  0  0  0  0
    5.4587   -3.7510    4.2366 H   0  0  0  0  0  0  0  0  0  0  0  0
    3.3490   -2.7036    5.0678 H   0  0  0  0  0  0  0  0  0  0  0  0
    4.5575   -1.5482    4.5999 H   0  0  0  0  0  0  0  0  0  0  0  0
    2.2251   -2.3770    2.8109 H   0  0  0  0  0  0  0  0  0  0  0  0
    2.6510   -0.1375    4.7750 H   0  0  0  0  0  0  0  0  0  0  0  0
    0.3352   -1.9646    4.1682 H   0  0  0  0  0  0  0  0  0  0  0  0
    1.1313   -1.6678    5.7114 H   0  0  0  0  0  0  0  0  0  0  0  0
   -1.1402   -0.3576    5.2373 H   0  0  0  0  0  0  0  0  0  0  0  0
    0.2346    0.5876    5.8128 H   0  0  0  0  0  0  0  0  0  0  0  0
   -0.6966    0.1926    2.9807 H   0  0  0  0  0  0  0  0  0  0  0  0
    0.7759    3.5125    4.6856 H   0  0  0  0  0  0  0  0  0  0  0  0
   -0.4581    2.8354    5.7698 H   0  0  0  0  0  0  0  0  0  0  0  0
   -2.0730    2.1842    2.0876 H   0  0  0  0  0  0  0  0  0  0  0  0
    1.9456    2.6866    2.8311 H   0  0  0  0  0  0  0  0  0  0  0  0
    3.3404    1.6755    3.1606 H   0  0  0  0  0  0  0  0  0  0  0  0
    2.2814    2.1205    4.4775 H   0  0  0  0  0  0  0  0  0  0  0  0
    0.7987   -0.6570    1.5411 H   0  0  0  0  0  0  0  0  0  0  0  0
    0.9728    1.0223    1.0968 H   0  0  0  0  0  0  0  0  0  0  0  0
    2.6992   -0.5431    0.1547 H   0  0  0  0  0  0  0  0  0  0  0  0
    3.3636    0.8287    0.9562 H   0  0  0  0  0  0  0  0  0  0  0  0
    4.3757   -0.2865    2.5615 H   0  0  0  0  0  0  0  0  0  0  0  0
    6.3132   -1.7603   -0.1162 H   0  0  0  0  0  0  0  0  0  0  0  0
    6.0713   -0.3771    0.9297 H   0  0  0  0  0  0  0  0  0  0  0  0
    4.9850   -0.6676   -0.4210 H   0  0  0  0  0  0  0  0  0  0  0  0
    3.1072   -3.5574    1.0263 H   0  0  0  0  0  0  0  0  0  0  0  0
    3.2124   -2.5045   -0.3355 H   0  0  0  0  0  0  0  0  0  0  0  0
    4.0966   -4.7675   -0.8372 H   0  0  0  0  0  0  0  0  0  0  0  0
    5.3090   -3.5336   -1.0831 H   0  0  0  0  0  0  0  0  0  0  0  0
    6.8512   -4.5208    2.3993 H   0  0  0  0  0  0  0  0  0  0  0  0
    7.2344   -3.4007    1.1236 H   0  0  0  0  0  0  0  0  0  0  0  0
    6.1933   -2.0697    2.7464 H   0  0  0  0  0  0  0  0  0  0  0  0
  1  2  1  0
  1 29  1  0
  1 30  1  0
  1 31  1  0
  2  3  1  0
  3 28  1  0
  3  4  1  0
  3 32  1  1
  4  5  1  0
  4 33  1  0
  4 34  1  0
  5 20  1  0
  5  6  1  0
  5 35  1  6
  6 16  1  0
  6  7  1  0
  6 36  1  1
  7  8  1  0
  7 37  1  0
  7 38  1  0
  8  9  1  0
  8 39  1  0
  8 40  1  0
  9 16  1  0
  9 41  1  6
  9 10  1  0
 10 15  2  0
 10 11  1  0
 11 12  1  0
 11 42  1  0
 11 43  1  0
 12 13  1  0
 13 15  1  0
 13 14  2  0
 15 44  1  0
 16 17  1  6
 16 18  1  0
 17 45  1  0
 17 46  1  0
 17 47  1  0
 18 19  1  0
 18 48  1  0
 18 49  1  0
 19 20  1  0
 19 50  1  0
 19 51  1  0
 20 21  1  0
 20 52  1  1
 21 28  1  0
 21 22  1  6
 21 23  1  0
 22 53  1  0
 22 54  1  0
 22 55  1  0
 23 24  1  0
 23 56  1  0
 23 57  1  0
 24 25  1  0
 24 58  1  0
 24 59  1  0
 25 26  2  0
 25 27  1  0
 27 28  1  0
 27 60  1  0
 27 61  1  0
 28 62  1  1
M  END
>  <i_m_ct_stereo_status>  (121) 
1

>  <s_m_source_file>  (121) 
/var/tmp/pbs.5076255.sched01/tmphf7gnms3/50i7j3xhgh.sdf

>  <i_m_source_file_index>  (121) 
4

>  <i_lp_mmshare_version>  (121) 
48012

>  <i_f3d_flags>  (121) 
0

>  <s_epik_input>  (121) 
W0NIMl0xW0NIMl1DKD1PKVtDSDJdW0NASF0oW0NAQEhdKFtDSDJdMilPW0NIM10pW0NAXTEoW0NIM10pW0NAQEhdKFtDSDJdW0NIMl0zKVtDQEBIXTJbQ0BASF0oW0NAQF0zNFtDSDNdKVtDSDJdW0NIMl1bQ0BIXTRjNVtjSF1vYyhbT0hdKVtjSF01

>  <s_epik_cmdline>  (121) 
J2VwaWtfcHl0aG9uJywgJy1waHQnLCAnMi4wJywgJy1waCcsICc3LjAnLCAnLXRuJywgJzgnLCAnLW1hJywgJzIwMCcsICctaW1hZScsICc8aW5maWxlLm1hZT4nLCAnLW9tYWUnLCAnPG91dGZpbGUubWFlPic=

>  <r_lp_tautomer_probability>  (121) 
1

>  <r_epik_Ionization_Penalty>  (121) 
2.71886e-11

>  <r_epik_Ionization_Penalty_Charging>  (121) 
0

>  <r_epik_Ionization_Penalty_Neutral>  (121) 
2.71886e-11

>  <r_epik_State_Penalty>  (121) 
-0

>  <r_epik_Charging_Adjusted_Penalty>  (121) 
0

>  <i_epik_Tot_Q>  (121) 
0

>  <i_epik_Tot_abs_Q>  (121) 
0

>  <s_epik_Chemistry_Notes>  (121) 
This compound has an ester and may undergo hydrolysis at high or low pH.

>  <s_lp_Force_Field>  (121) 
OPLS3e

>  <r_lp_Energy>  (121) 
30.3746

>  <b_lp_Chiralities_Consistent>  (121) 
1

>  <s_lp_Variant>  (121) 
33:0-1

>  <s_i_glide_gridfile>  (121) 
pfpi4k_grid

>  <i_i_glide_lignum>  (121) 
4

>  <i_i_glide_rotatable_bonds>  (121) 
2

>  <r_i_docking_score>  (121) 
-3.0023

>  <r_i_glide_ligand_efficiency>  (121) 
-0.107225

>  <r_i_glide_ligand_efficiency_sa>  (121) 
-0.325598

>  <r_i_glide_ligand_efficiency_ln>  (121) 
-0.693019

>  <r_i_glide_gscore>  (121) 
-3.0023

>  <r_i_glide_lipo>  (121) 
-0.272219

>  <r_i_glide_hbond>  (121) 
-0.16

>  <r_i_glide_metal>  (121) 
-0

>  <r_i_glide_rewards>  (121) 
-0.891021

>  <r_i_glide_evdw>  (121) 
-21.573

>  <r_i_glide_ecoul>  (121) 
-4.20461

>  <r_i_glide_erotb>  (121) 
0.130282

>  <r_i_glide_esite>  (121) 
-0.1

>  <r_i_glide_emodel>  (121) 
-29.6295

>  <r_i_glide_energy>  (121) 
-25.7776

>  <r_i_glide_einternal>  (121) 
1.70957

>  <r_i_glide_intrahb_reward>  (121) 
-0

>  <i_i_glide_confnum>  (121) 
5

>  <i_i_glide_posenum>  (121) 
1

>  <r_i_glide_eff_state_penalty>  (121) 
0

>  <ligand_id>  (121) 
33

>  <original_smiles>  (121) 
COC1CC2C3CCC(c4coc(O)c4)C3(C)CCC2C2(C)CCC(=O)CC12

>  <smiles>  (121) 
[H]C1=C(C2([H])C([H])([H])C([H])([H])C3([H])C4([H])C([H])([H])C([H])(OC([H])([H])[H])C5([H])C([H])([H])C(=O)C([H])([H])C([H])([H])C5(C([H])([H])[H])C4([H])C([H])([H])C([H])([H])C23C([H])([H])[H])C([H])([H])OC1=O

$$$$
33:0:1
     RDKit          3D

 62 66  0  0  1  0  0  0  0  0999 V2000
    2.4374   -6.0227    3.6373 C   0  0  0  0  0  0  0  0  0  0  0  0
    3.1692   -5.0944    2.8520 O   0  0  0  0  0  0  0  0  0  0  0  0
    3.9869   -4.1866    3.5862 C   0  0  2  0  0  0  0  0  0  0  0  0
    3.1294   -3.1210    4.2847 C   0  0  0  0  0  0  0  0  0  0  0  0
    2.4239   -2.1744    3.2905 C   0  0  1  0  0  0  0  0  0  0  0  0
    1.5168   -1.1697    4.0706 C   0  0  2  0  0  0  0  0  0  0  0  0
    0.1543   -1.7350    4.4862 C   0  0  0  0  0  0  0  0  0  0  0  0
   -0.7042   -0.4925    4.7332 C   0  0  0  0  0  0  0  0  0  0  0  0
   -0.2968    0.4718    3.6110 C   0  0  1  0  0  0  0  0  0  0  0  0
   -0.7920    1.9065    3.8026 C   0  0  0  0  0  0  0  0  0  0  0  0
   -2.1566    2.1972    4.3734 C   0  0  0  0  0  0  0  0  0  0  0  0
   -2.2038    3.6176    4.3937 O   0  0  0  0  0  0  0  0  0  0  0  0
   -1.0749    4.1428    3.8782 C   0  0  0  0  0  0  0  0  0  0  0  0
   -0.8207    5.3398    3.8101 O   0  0  0  0  0  0  0  0  0  0  0  0
   -0.1876    3.0619    3.4732 C   0  0  0  0  0  0  0  0  0  0  0  0
    1.2372    0.2029    3.3790 C   0  0  1  0  0  0  0  0  0  0  0  0
    2.1796    1.2742    4.0127 C   0  0  0  0  0  0  0  0  0  0  0  0
    1.5032    0.0798    1.8696 C   0  0  0  0  0  0  0  0  0  0  0  0
    2.9338   -0.3495    1.5209 C   0  0  0  0  0  0  0  0  0  0  0  0
    3.5102   -1.4720    2.4234 C   0  0  2  0  0  0  0  0  0  0  0  0
    4.4744   -2.4587    1.6648 C   0  0  2  0  0  0  0  0  0  0  0  0
    5.6452   -1.6125    1.0933 C   0  0  0  0  0  0  0  0  0  0  0  0
    3.7703   -3.2042    0.4869 C   0  0  0  0  0  0  0  0  0  0  0  0
    4.6862   -4.2077   -0.2374 C   0  0  0  0  0  0  0  0  0  0  0  0
    5.3441   -5.1746    0.7494 C   0  0  0  0  0  0  0  0  0  0  0  0
    5.4014   -6.3849    0.5426 O   0  0  0  0  0  0  0  0  0  0  0  0
    5.9636   -4.5710    2.0050 C   0  0  0  0  0  0  0  0  0  0  0  0
    5.0497   -3.5152    2.6735 C   0  0  2  0  0  0  0  0  0  0  0  0
    1.9291   -6.7246    2.9787 H   0  0  0  0  0  0  0  0  0  0  0  0
    1.6710   -5.5295    4.2336 H   0  0  0  0  0  0  0  0  0  0  0  0
    3.0837   -6.6018    4.3002 H   0  0  0  0  0  0  0  0  0  0  0  0
    4.5280   -4.7498    4.3491 H   0  0  0  0  0  0  0  0  0  0  0  0
    2.4045   -3.5819    4.9552 H   0  0  0  0  0  0  0  0  0  0  0  0
    3.7899   -2.5298    4.9250 H   0  0  0  0  0  0  0  0  0  0  0  0
    1.7921   -2.7640    2.6259 H   0  0  0  0  0  0  0  0  0  0  0  0
    2.0249   -0.9456    5.0046 H   0  0  0  0  0  0  0  0  0  0  0  0
   -0.2775   -2.3286    3.6797 H   0  0  0  0  0  0  0  0  0  0  0  0
    0.2124   -2.3853    5.3636 H   0  0  0  0  0  0  0  0  0  0  0  0
   -1.7691   -0.7306    4.7258 H   0  0  0  0  0  0  0  0  0  0  0  0
   -0.4569   -0.0616    5.7038 H   0  0  0  0  0  0  0  0  0  0  0  0
   -0.8431    0.1434    2.7302 H   0  0  0  0  0  0  0  0  0  0  0  0
   -2.2667    1.7938    5.3819 H   0  0  0  0  0  0  0  0  0  0  0  0
   -2.9374    1.8054    3.7236 H   0  0  0  0  0  0  0  0  0  0  0  0
    0.7712    3.1984    2.9940 H   0  0  0  0  0  0  0  0  0  0  0  0
    2.1885    2.1914    3.4524 H   0  0  0  0  0  0  0  0  0  0  0  0
    3.2084    0.8803    4.0980 H   0  0  0  0  0  0  0  0  0  0  0  0
    1.8585    1.4767    5.0422 H   0  0  0  0  0  0  0  0  0  0  0  0
    0.8380   -0.6780    1.4591 H   0  0  0  0  0  0  0  0  0  0  0  0
    1.2489    1.0106    1.3595 H   0  0  0  0  0  0  0  0  0  0  0  0
    2.9606   -0.6004    0.4639 H   0  0  0  0  0  0  0  0  0  0  0  0
    3.5812    0.5207    1.6072 H   0  0  0  0  0  0  0  0  0  0  0  0
    4.1422   -0.9537    3.1506 H   0  0  0  0  0  0  0  0  0  0  0  0
    6.4306   -2.2226    0.6522 H   0  0  0  0  0  0  0  0  0  0  0  0
    6.1147   -1.0049    1.8669 H   0  0  0  0  0  0  0  0  0  0  0  0
    5.3006   -0.9371    0.3140 H   0  0  0  0  0  0  0  0  0  0  0  0
    2.9064   -3.7555    0.8523 H   0  0  0  0  0  0  0  0  0  0  0  0
    3.3747   -2.5187   -0.2577 H   0  0  0  0  0  0  0  0  0  0  0  0
    4.1325   -4.7696   -0.9876 H   0  0  0  0  0  0  0  0  0  0  0  0
    5.4733   -3.6813   -0.7784 H   0  0  0  0  0  0  0  0  0  0  0  0
    6.1918   -5.3835    2.6994 H   0  0  0  0  0  0  0  0  0  0  0  0
    6.9247   -4.1405    1.7220 H   0  0  0  0  0  0  0  0  0  0  0  0
    5.7068   -2.9636    3.3487 H   0  0  0  0  0  0  0  0  0  0  0  0
  1  2  1  0
  1 29  1  0
  1 30  1  0
  1 31  1  0
  2  3  1  0
  3 28  1  0
  3  4  1  0
  3 32  1  1
  4  5  1  0
  4 33  1  0
  4 34  1  0
  5 20  1  0
  5  6  1  0
  5 35  1  6
  6 16  1  0
  6  7  1  0
  6 36  1  1
  7  8  1  0
  7 37  1  0
  7 38  1  0
  8  9  1  0
  8 39  1  0
  8 40  1  0
  9 16  1  0
  9 41  1  6
  9 10  1  0
 10 15  2  0
 10 11  1  0
 11 12  1  0
 11 42  1  0
 11 43  1  0
 12 13  1  0
 13 15  1  0
 13 14  2  0
 15 44  1  0
 16 17  1  1
 16 18  1  0
 17 45  1  0
 17 46  1  0
 17 47  1  0
 18 19  1  0
 18 48  1  0
 18 49  1  0
 19 20  1  0
 19 50  1  0
 19 51  1  0
 20 21  1  0
 20 52  1  1
 21 28  1  0
 21 22  1  6
 21 23  1  0
 22 53  1  0
 22 54  1  0
 22 55  1  0
 23 24  1  0
 23 56  1  0
 23 57  1  0
 24 25  1  0
 24 58  1  0
 24 59  1  0
 25 26  2  0
 25 27  1  0
 27 28  1  0
 27 60  1  0
 27 61  1  0
 28 62  1  1
M  END
>  <i_m_ct_stereo_status>  (122) 
1

>  <s_m_source_file>  (122) 
/var/tmp/pbs.5076255.sched01/tmphf7gnms3/50i7j3xhgh.sdf

>  <i_m_source_file_index>  (122) 
4

>  <i_lp_mmshare_version>  (122) 
48012

>  <i_f3d_flags>  (122) 
0

>  <s_epik_input>  (122) 
W0NIMl0xW0NIMl1DKD1PKVtDSDJdW0NASF0oW0NAQEhdKFtDSDJdMilPW0NIM10pW0NAXTEoW0NIM10pW0NAQEhdKFtDSDJdW0NIMl0zKVtDQEBIXTJbQ0BASF0oW0NAQF0zNFtDSDNdKVtDSDJdW0NIMl1bQ0BIXTRjNVtjSF1vYyhbT0hdKVtjSF01

>  <s_epik_cmdline>  (122) 
J2VwaWtfcHl0aG9uJywgJy1waHQnLCAnMi4wJywgJy1waCcsICc3LjAnLCAnLXRuJywgJzgnLCAnLW1hJywgJzIwMCcsICctaW1hZScsICc8aW5maWxlLm1hZT4nLCAnLW9tYWUnLCAnPG91dGZpbGUubWFlPic=

>  <r_lp_tautomer_probability>  (122) 
1

>  <r_epik_Ionization_Penalty>  (122) 
2.71886e-11

>  <r_epik_Ionization_Penalty_Charging>  (122) 
0

>  <r_epik_Ionization_Penalty_Neutral>  (122) 
2.71886e-11

>  <r_epik_State_Penalty>  (122) 
-0

>  <r_epik_Charging_Adjusted_Penalty>  (122) 
0

>  <i_epik_Tot_Q>  (122) 
0

>  <i_epik_Tot_abs_Q>  (122) 
0

>  <s_epik_Chemistry_Notes>  (122) 
This compound has an ester and may undergo hydrolysis at high or low pH.

>  <s_lp_Force_Field>  (122) 
OPLS3e

>  <r_lp_Energy>  (122) 
30.3746

>  <b_lp_Chiralities_Consistent>  (122) 
1

>  <s_lp_Variant>  (122) 
33:0-1

>  <s_i_glide_gridfile>  (122) 
pfpi4k_grid

>  <i_i_glide_lignum>  (122) 
4

>  <i_i_glide_rotatable_bonds>  (122) 
2

>  <r_i_docking_score>  (122) 
-2.81246

>  <r_i_glide_ligand_efficiency>  (122) 
-0.100445

>  <r_i_glide_ligand_efficiency_sa>  (122) 
-0.30501

>  <r_i_glide_ligand_efficiency_ln>  (122) 
-0.649198

>  <r_i_glide_gscore>  (122) 
-2.81246

>  <r_i_glide_lipo>  (122) 
-0.246255

>  <r_i_glide_hbond>  (122) 
-0.110164

>  <r_i_glide_metal>  (122) 
-0

>  <r_i_glide_rewards>  (122) 
-0.886434

>  <r_i_glide_evdw>  (122) 
-20.3538

>  <r_i_glide_ecoul>  (122) 
-3.92395

>  <r_i_glide_erotb>  (122) 
0.130282

>  <r_i_glide_esite>  (122) 
-0.0936001

>  <r_i_glide_emodel>  (122) 
-26.8913

>  <r_i_glide_energy>  (122) 
-24.2778

>  <r_i_glide_einternal>  (122) 
2.18009

>  <r_i_glide_intrahb_reward>  (122) 
-0

>  <i_i_glide_confnum>  (122) 
5

>  <i_i_glide_posenum>  (122) 
37

>  <r_i_glide_eff_state_penalty>  (122) 
0

>  <ligand_id>  (122) 
33

>  <original_smiles>  (122) 
COC1CC2C3CCC(c4coc(O)c4)C3(C)CCC2C2(C)CCC(=O)CC12

>  <smiles>  (122) 
[H]C1=C(C2([H])C([H])([H])C([H])([H])C3([H])C4([H])C([H])([H])C([H])(OC([H])([H])[H])C5([H])C([H])([H])C(=O)C([H])([H])C([H])([H])C5(C([H])([H])[H])C4([H])C([H])([H])C([H])([H])C23C([H])([H])[H])C([H])([H])OC1=O

$$$$
33:0:2
     RDKit          3D

 62 66  0  0  1  0  0  0  0  0999 V2000
    3.0019    2.7721    7.5058 C   0  0  0  0  0  0  0  0  0  0  0  0
    1.8388    2.6579    6.6961 O   0  0  0  0  0  0  0  0  0  0  0  0
    1.2380    1.3678    6.6686 C   0  0  2  0  0  0  0  0  0  0  0  0
    2.0959    0.3700    5.8746 C   0  0  0  0  0  0  0  0  0  0  0  0
    2.1669    0.7083    4.3672 C   0  0  1  0  0  0  0  0  0  0  0  0
    3.1124   -0.3030    3.6485 C   0  0  2  0  0  0  0  0  0  0  0  0
    4.6060    0.0224    3.7823 C   0  0  0  0  0  0  0  0  0  0  0  0
    5.2615   -0.7224    2.6182 C   0  0  0  0  0  0  0  0  0  0  0  0
    4.2750   -0.5306    1.4617 C   0  0  1  0  0  0  0  0  0  0  0  0
    4.4940   -1.4747    0.2699 C   0  0  0  0  0  0  0  0  0  0  0  0
    4.6867   -2.9624    0.4071 C   0  0  0  0  0  0  0  0  0  0  0  0
    4.9027   -3.3850   -0.9318 O   0  0  0  0  0  0  0  0  0  0  0  0
    4.8184   -2.3597   -1.7988 C   0  0  0  0  0  0  0  0  0  0  0  0
    4.9278   -2.4364   -3.0211 O   0  0  0  0  0  0  0  0  0  0  0  0
    4.5904   -1.1434   -1.0183 C   0  0  0  0  0  0  0  0  0  0  0  0
    2.8566   -0.5211    2.1242 C   0  0  1  0  0  0  0  0  0  0  0  0
    2.0922   -1.8560    1.9485 C   0  0  0  0  0  0  0  0  0  0  0  0
    2.0374    0.6612    1.5615 C   0  0  0  0  0  0  0  0  0  0  0  0
    0.6790    0.8512    2.2447 C   0  0  0  0  0  0  0  0  0  0  0  0
    0.7206    0.7171    3.7956 C   0  0  2  0  0  0  0  0  0  0  0  0
   -0.2710    1.6845    4.5418 C   0  0  2  0  0  0  0  0  0  0  0  0
   -1.7026    1.3552    4.0385 C   0  0  0  0  0  0  0  0  0  0  0  0
    0.0316    3.1891    4.2602 C   0  0  0  0  0  0  0  0  0  0  0  0
   -0.9069    4.1524    5.0071 C   0  0  0  0  0  0  0  0  0  0  0  0
   -0.9473    3.8571    6.5037 C   0  0  0  0  0  0  0  0  0  0  0  0
   -0.9129    4.7597    7.3374 O   0  0  0  0  0  0  0  0  0  0  0  0
   -1.0968    2.3896    6.9148 C   0  0  0  0  0  0  0  0  0  0  0  0
   -0.2005    1.4281    6.0928 C   0  0  2  0  0  0  0  0  0  0  0  0
    3.3194    3.8140    7.5253 H   0  0  0  0  0  0  0  0  0  0  0  0
    3.8325    2.1895    7.1073 H   0  0  0  0  0  0  0  0  0  0  0  0
    2.8107    2.4606    8.5341 H   0  0  0  0  0  0  0  0  0  0  0  0
    1.1597    1.0084    7.6953 H   0  0  0  0  0  0  0  0  0  0  0  0
    3.0992    0.2903    6.2945 H   0  0  0  0  0  0  0  0  0  0  0  0
    1.6570   -0.6240    5.9921 H   0  0  0  0  0  0  0  0  0  0  0  0
    2.5788    1.7101    4.2494 H   0  0  0  0  0  0  0  0  0  0  0  0
    2.9808   -1.2734    4.1300 H   0  0  0  0  0  0  0  0  0  0  0  0
    4.7764    1.0947    3.6808 H   0  0  0  0  0  0  0  0  0  0  0  0
    5.0191   -0.2783    4.7466 H   0  0  0  0  0  0  0  0  0  0  0  0
    6.2636   -0.3507    2.3951 H   0  0  0  0  0  0  0  0  0  0  0  0
    5.3508   -1.7789    2.8737 H   0  0  0  0  0  0  0  0  0  0  0  0
    4.4709    0.4706    1.0736 H   0  0  0  0  0  0  0  0  0  0  0  0
    3.8112   -3.4677    0.8128 H   0  0  0  0  0  0  0  0  0  0  0  0
    5.5530   -3.1960    1.0249 H   0  0  0  0  0  0  0  0  0  0  0  0
    4.5136   -0.1598   -1.4566 H   0  0  0  0  0  0  0  0  0  0  0  0
    1.8509   -2.0365    0.9010 H   0  0  0  0  0  0  0  0  0  0  0  0
    1.1553   -1.8608    2.5083 H   0  0  0  0  0  0  0  0  0  0  0  0
    2.6864   -2.6948    2.3162 H   0  0  0  0  0  0  0  0  0  0  0  0
    2.6083    1.5854    1.6756 H   0  0  0  0  0  0  0  0  0  0  0  0
    1.8729    0.5312    0.4906 H   0  0  0  0  0  0  0  0  0  0  0  0
    0.2831    1.8096    1.9205 H   0  0  0  0  0  0  0  0  0  0  0  0
   -0.0254    0.1154    1.8556 H   0  0  0  0  0  0  0  0  0  0  0  0
    0.3496   -0.2928    3.9960 H   0  0  0  0  0  0  0  0  0  0  0  0
   -2.4748    1.8974    4.5784 H   0  0  0  0  0  0  0  0  0  0  0  0
   -1.9245    0.2919    4.1379 H   0  0  0  0  0  0  0  0  0  0  0  0
   -1.8168    1.6179    2.9867 H   0  0  0  0  0  0  0  0  0  0  0  0
    1.0574    3.4305    4.5288 H   0  0  0  0  0  0  0  0  0  0  0  0
   -0.0395    3.4251    3.1999 H   0  0  0  0  0  0  0  0  0  0  0  0
   -0.5861    5.1832    4.8494 H   0  0  0  0  0  0  0  0  0  0  0  0
   -1.9232    4.0724    4.6197 H   0  0  0  0  0  0  0  0  0  0  0  0
   -0.8811    2.2976    7.9789 H   0  0  0  0  0  0  0  0  0  0  0  0
   -2.1482    2.1317    6.7947 H   0  0  0  0  0  0  0  0  0  0  0  0
   -0.6196    0.4335    6.2514 H   0  0  0  0  0  0  0  0  0  0  0  0
  1  2  1  0
  1 29  1  0
  1 30  1  0
  1 31  1  0
  2  3  1  0
  3 28  1  0
  3  4  1  0
  3 32  1  1
  4  5  1  0
  4 33  1  0
  4 34  1  0
  5 20  1  0
  5  6  1  0
  5 35  1  1
  6 16  1  0
  6  7  1  0
  6 36  1  1
  7  8  1  0
  7 37  1  0
  7 38  1  0
  8  9  1  0
  8 39  1  0
  8 40  1  0
  9 16  1  0
  9 41  1  6
  9 10  1  0
 10 15  2  0
 10 11  1  0
 11 12  1  0
 11 42  1  0
 11 43  1  0
 12 13  1  0
 13 15  1  0
 13 14  2  0
 15 44  1  0
 16 17  1  1
 16 18  1  0
 17 45  1  0
 17 46  1  0
 17 47  1  0
 18 19  1  0
 18 48  1  0
 18 49  1  0
 19 20  1  0
 19 50  1  0
 19 51  1  0
 20 21  1  0
 20 52  1  6
 21 28  1  0
 21 22  1  6
 21 23  1  0
 22 53  1  0
 22 54  1  0
 22 55  1  0
 23 24  1  0
 23 56  1  0
 23 57  1  0
 24 25  1  0
 24 58  1  0
 24 59  1  0
 25 26  2  0
 25 27  1  0
 27 28  1  0
 27 60  1  0
 27 61  1  0
 28 62  1  6
M  END
>  <i_m_ct_stereo_status>  (123) 
1

>  <s_m_source_file>  (123) 
/var/tmp/pbs.5076255.sched01/tmphf7gnms3/50i7j3xhgh.sdf

>  <i_m_source_file_index>  (123) 
4

>  <i_lp_mmshare_version>  (123) 
48012

>  <i_f3d_flags>  (123) 
0

>  <s_epik_input>  (123) 
W0NIMl0xW0NIMl1DKD1PKVtDSDJdW0NASF0oW0NAQEhdKFtDSDJdMilPW0NIM10pW0NAXTEoW0NIM10pW0NAQEhdKFtDSDJdW0NIMl0zKVtDQEBIXTJbQ0BASF0oW0NAQF0zNFtDSDNdKVtDSDJdW0NIMl1bQ0BIXTRjNVtjSF1vYyhbT0hdKVtjSF01

>  <s_epik_cmdline>  (123) 
J2VwaWtfcHl0aG9uJywgJy1waHQnLCAnMi4wJywgJy1waCcsICc3LjAnLCAnLXRuJywgJzgnLCAnLW1hJywgJzIwMCcsICctaW1hZScsICc8aW5maWxlLm1hZT4nLCAnLW9tYWUnLCAnPG91dGZpbGUubWFlPic=

>  <r_lp_tautomer_probability>  (123) 
1

>  <r_epik_Ionization_Penalty>  (123) 
2.71886e-11

>  <r_epik_Ionization_Penalty_Charging>  (123) 
0

>  <r_epik_Ionization_Penalty_Neutral>  (123) 
2.71886e-11

>  <r_epik_State_Penalty>  (123) 
-0

>  <r_epik_Charging_Adjusted_Penalty>  (123) 
0

>  <i_epik_Tot_Q>  (123) 
0

>  <i_epik_Tot_abs_Q>  (123) 
0

>  <s_epik_Chemistry_Notes>  (123) 
This compound has an ester and may undergo hydrolysis at high or low pH.

>  <s_lp_Force_Field>  (123) 
OPLS3e

>  <r_lp_Energy>  (123) 
30.3746

>  <b_lp_Chiralities_Consistent>  (123) 
1

>  <s_lp_Variant>  (123) 
33:0-1

>  <s_i_glide_gridfile>  (123) 
pfpi4k_grid

>  <i_i_glide_lignum>  (123) 
4

>  <i_i_glide_rotatable_bonds>  (123) 
2

>  <r_i_docking_score>  (123) 
-2.28729

>  <r_i_glide_ligand_efficiency>  (123) 
-0.0816889

>  <r_i_glide_ligand_efficiency_sa>  (123) 
-0.248056

>  <r_i_glide_ligand_efficiency_ln>  (123) 
-0.527973

>  <r_i_glide_gscore>  (123) 
-2.28729

>  <r_i_glide_lipo>  (123) 
-0.279693

>  <r_i_glide_hbond>  (123) 
0

>  <r_i_glide_metal>  (123) 
-0

>  <r_i_glide_rewards>  (123) 
-0.773698

>  <r_i_glide_evdw>  (123) 
-23.741

>  <r_i_glide_ecoul>  (123) 
-1.10214

>  <r_i_glide_erotb>  (123) 
0.130282

>  <r_i_glide_esite>  (123) 
-0.0118103

>  <r_i_glide_emodel>  (123) 
-27.6002

>  <r_i_glide_energy>  (123) 
-24.8431

>  <r_i_glide_einternal>  (123) 
1.6052

>  <r_i_glide_intrahb_reward>  (123) 
-0

>  <i_i_glide_confnum>  (123) 
5

>  <i_i_glide_posenum>  (123) 
2

>  <r_i_glide_eff_state_penalty>  (123) 
0

>  <ligand_id>  (123) 
33

>  <original_smiles>  (123) 
COC1CC2C3CCC(c4coc(O)c4)C3(C)CCC2C2(C)CCC(=O)CC12

>  <smiles>  (123) 
[H]C1=C(C2([H])C([H])([H])C([H])([H])C3([H])C4([H])C([H])([H])C([H])(OC([H])([H])[H])C5([H])C([H])([H])C(=O)C([H])([H])C([H])([H])C5(C([H])([H])[H])C4([H])C([H])([H])C([H])([H])C23C([H])([H])[H])C([H])([H])OC1=O

$$$$
35:0:0
     RDKit          3D

 25 28  0  0  1  0  0  0  0  0999 V2000
  -10.9959   -7.0097   -9.8186 C   0  0  0  0  0  0  0  0  0  0  0  0
   -9.8405   -7.9317   -9.4759 C   0  0  2  0  0  0  0  0  0  0  0  0
   -9.7566   -8.0690   -8.0159 O   0  0  0  0  0  0  0  0  0  0  0  0
   -8.5173   -7.3302   -7.9125 C   0  0  2  0  0  0  0  0  0  0  0  0
   -7.3153   -8.0195   -7.3327 C   0  0  0  0  0  0  0  0  0  0  0  0
   -6.6952   -7.2611   -6.4100 C   0  0  0  0  0  0  0  0  0  0  0  0
   -7.4737   -6.0269   -6.2249 C   0  0  0  0  0  0  0  0  0  0  0  0
   -7.4798   -4.9322   -5.5152 C   0  0  0  0  0  0  0  0  0  0  0  0
   -8.7032   -4.1969   -5.9379 C   0  0  0  0  0  0  0  0  0  0  0  0
   -9.0978   -3.1169   -5.5337 O   0  0  0  0  0  0  0  0  0  0  0  0
   -9.3565   -5.0085   -6.9720 C   0  0  0  0  0  0  0  0  0  0  0  0
   -8.5509   -6.0728   -7.1186 C   0  0  0  0  0  0  0  0  0  0  0  0
   -8.4994   -7.2842   -9.3640 C   0  0  1  0  0  0  0  0  0  0  0  0
   -7.3133   -7.4197  -10.2734 C   0  0  0  0  0  0  0  0  0  0  0  0
   -8.0314   -6.1693  -10.1230 O   0  0  0  0  0  0  0  0  0  0  0  0
  -10.9986   -6.8124  -10.8872 H   0  0  0  0  0  0  0  0  0  0  0  0
  -10.9475   -6.0532   -9.2932 H   0  0  0  0  0  0  0  0  0  0  0  0
  -11.9425   -7.4796   -9.5575 H   0  0  0  0  0  0  0  0  0  0  0  0
   -9.8508   -8.8964   -9.9735 H   0  0  0  0  0  0  0  0  0  0  0  0
   -7.0711   -8.9728   -7.7932 H   0  0  0  0  0  0  0  0  0  0  0  0
   -5.7650   -7.4699   -5.8990 H   0  0  0  0  0  0  0  0  0  0  0  0
   -6.8100   -4.5315   -4.7503 H   0  0  0  0  0  0  0  0  0  0  0  0
  -10.2756   -4.7631   -7.4646 H   0  0  0  0  0  0  0  0  0  0  0  0
   -6.3004   -7.4507   -9.8679 H   0  0  0  0  0  0  0  0  0  0  0  0
   -7.4499   -7.8978  -11.2273 H   0  0  0  0  0  0  0  0  0  0  0  0
  1  2  1  0
  1 16  1  0
  1 17  1  0
  1 18  1  0
  2 13  1  0
  2  3  1  0
  2 19  1  6
  4  3  1  6
  4 12  1  0
  4  5  1  0
  4 13  1  0
  5  6  2  0
  5 20  1  0
  6  7  1  0
  6 21  1  0
  7 12  1  0
  7  8  2  0
  8  9  1  0
  8 22  1  0
  9 10  2  0
  9 11  1  0
 11 12  2  0
 11 23  1  0
 13 15  1  1
 13 14  1  0
 14 15  1  0
 14 24  1  0
 14 25  1  0
M  END
>  <i_m_ct_stereo_status>  (124) 
1

>  <s_m_source_file>  (124) 
/var/tmp/pbs.5076255.sched01/tmphf7gnms3/50i7j3xhgh.sdf

>  <i_m_source_file_index>  (124) 
6

>  <i_lp_mmshare_version>  (124) 
48012

>  <i_f3d_flags>  (124) 
0

>  <s_epik_input>  (124) 
W0NIM11bQ0BIXShPMSlbQ0BdMihbQ0gyXU8yKVtDQEBdMTNDNEMoW0NIXT1bQ0hdMyk9W0NIXUMoPU8pW0NIXT00

>  <s_epik_cmdline>  (124) 
J2VwaWtfcHl0aG9uJywgJy1waHQnLCAnMi4wJywgJy1waCcsICc3LjAnLCAnLXRuJywgJzgnLCAnLW1hJywgJzIwMCcsICctaW1hZScsICc8aW5maWxlLm1hZT4nLCAnLW9tYWUnLCAnPG91dGZpbGUubWFlPic=

>  <r_lp_tautomer_probability>  (124) 
1

>  <r_epik_Ionization_Penalty>  (124) 
1.49976e-14

>  <r_epik_Ionization_Penalty_Charging>  (124) 
0

>  <r_epik_Ionization_Penalty_Neutral>  (124) 
1.49976e-14

>  <r_epik_State_Penalty>  (124) 
-0

>  <r_epik_Charging_Adjusted_Penalty>  (124) 
0

>  <i_epik_Tot_Q>  (124) 
0

>  <i_epik_Tot_abs_Q>  (124) 
0

>  <s_lp_Force_Field>  (124) 
OPLS3e

>  <r_lp_Energy>  (124) 
4.12455

>  <b_lp_Chiralities_Consistent>  (124) 
1

>  <s_lp_Variant>  (124) 
35:0-1

>  <s_i_glide_gridfile>  (124) 
pfpi4k_grid

>  <i_i_glide_lignum>  (124) 
6

>  <i_i_glide_rotatable_bonds>  (124) 
0

>  <r_i_docking_score>  (124) 
-5.82942

>  <r_i_glide_ligand_efficiency>  (124) 
-0.388628

>  <r_i_glide_ligand_efficiency_sa>  (124) 
-0.958438

>  <r_i_glide_ligand_efficiency_ln>  (124) 
-1.5721

>  <r_i_glide_gscore>  (124) 
-5.82942

>  <r_i_glide_lipo>  (124) 
-1.72756

>  <r_i_glide_hbond>  (124) 
0

>  <r_i_glide_metal>  (124) 
-0

>  <r_i_glide_rewards>  (124) 
-2.98385

>  <r_i_glide_evdw>  (124) 
-20.1635

>  <r_i_glide_ecoul>  (124) 
-0.732275

>  <r_i_glide_erotb>  (124) 
0

>  <r_i_glide_esite>  (124) 
0

>  <r_i_glide_emodel>  (124) 
-27.6823

>  <r_i_glide_energy>  (124) 
-20.8957

>  <r_i_glide_einternal>  (124) 
0

>  <r_i_glide_intrahb_reward>  (124) 
-0

>  <i_i_glide_confnum>  (124) 
1

>  <i_i_glide_posenum>  (124) 
6

>  <r_i_glide_eff_state_penalty>  (124) 
0

>  <ligand_id>  (124) 
35

>  <original_smiles>  (124) 
CC1OC2(C=CC3=CC(=O)C=C32)C12CO2

>  <smiles>  (124) 
[H]C1=C2C([H])=C([H])C3(OC([H])(C([H])([H])[H])C34OC4([H])[H])C2=C([H])C1=O

$$$$
35:0:1
     RDKit          3D

 25 28  0  0  1  0  0  0  0  0999 V2000
  -10.1159   -4.8111   -7.4608 C   0  0  0  0  0  0  0  0  0  0  0  0
  -10.1274   -5.9347   -8.4788 C   0  0  2  0  0  0  0  0  0  0  0  0
   -9.9070   -7.2210   -7.8181 O   0  0  0  0  0  0  0  0  0  0  0  0
   -8.5916   -7.4101   -8.3691 C   0  0  2  0  0  0  0  0  0  0  0  0
   -8.3586   -8.6273   -9.2233 C   0  0  0  0  0  0  0  0  0  0  0  0
   -7.2310   -9.2361   -8.8657 C   0  0  0  0  0  0  0  0  0  0  0  0
   -6.6271   -8.5525   -7.6951 C   0  0  0  0  0  0  0  0  0  0  0  0
   -5.6019   -8.6072   -6.8587 C   0  0  0  0  0  0  0  0  0  0  0  0
   -5.7861   -7.4806   -5.9055 C   0  0  0  0  0  0  0  0  0  0  0  0
   -5.0570   -7.1513   -4.9668 O   0  0  0  0  0  0  0  0  0  0  0  0
   -7.0229   -6.7941   -6.3127 C   0  0  0  0  0  0  0  0  0  0  0  0
   -7.4579   -7.4670   -7.3987 C   0  0  0  0  0  0  0  0  0  0  0  0
   -8.8295   -6.2164   -9.1618 C   0  0  1  0  0  0  0  0  0  0  0  0
   -8.4499   -5.9825  -10.6054 C   0  0  0  0  0  0  0  0  0  0  0  0
   -7.8293   -5.2597   -9.5157 O   0  0  0  0  0  0  0  0  0  0  0  0
  -10.1699   -3.8547   -7.9707 H   0  0  0  0  0  0  0  0  0  0  0  0
   -9.2229   -4.8080   -6.8368 H   0  0  0  0  0  0  0  0  0  0  0  0
  -10.9823   -4.8853   -6.8051 H   0  0  0  0  0  0  0  0  0  0  0  0
  -11.0083   -5.9676   -9.1061 H   0  0  0  0  0  0  0  0  0  0  0  0
   -9.1483   -8.7158  -10.0187 H   0  0  0  0  0  0  0  0  0  0  0  0
   -6.7148  -10.0968   -9.3019 H   0  0  0  0  0  0  0  0  0  0  0  0
   -4.7459   -9.2812   -6.7699 H   0  0  0  0  0  0  0  0  0  0  0  0
   -7.4392   -5.9344   -5.8215 H   0  0  0  0  0  0  0  0  0  0  0  0
   -7.7991   -6.6876  -11.1290 H   0  0  0  0  0  0  0  0  0  0  0  0
   -9.1014   -5.3877  -11.2355 H   0  0  0  0  0  0  0  0  0  0  0  0
  1  2  1  0
  1 16  1  0
  1 17  1  0
  1 18  1  0
  2 13  1  0
  2  3  1  0
  2 19  1  6
  4  3  1  1
  4 12  1  0
  4  5  1  0
  4 13  1  0
  5  6  2  0
  5 20  1  0
  6  7  1  0
  6 21  1  0
  7 12  1  0
  7  8  2  0
  8  9  1  0
  8 22  1  0
  9 10  2  0
  9 11  1  0
 11 12  2  0
 11 23  1  0
 13 15  1  1
 13 14  1  0
 14 15  1  0
 14 24  1  0
 14 25  1  0
M  END
>  <i_m_ct_stereo_status>  (125) 
1

>  <s_m_source_file>  (125) 
/var/tmp/pbs.5076255.sched01/tmphf7gnms3/50i7j3xhgh.sdf

>  <i_m_source_file_index>  (125) 
6

>  <i_lp_mmshare_version>  (125) 
48012

>  <i_f3d_flags>  (125) 
0

>  <s_epik_input>  (125) 
W0NIM11bQ0BIXShPMSlbQ0BdMihbQ0gyXU8yKVtDQEBdMTNDNEMoW0NIXT1bQ0hdMyk9W0NIXUMoPU8pW0NIXT00

>  <s_epik_cmdline>  (125) 
J2VwaWtfcHl0aG9uJywgJy1waHQnLCAnMi4wJywgJy1waCcsICc3LjAnLCAnLXRuJywgJzgnLCAnLW1hJywgJzIwMCcsICctaW1hZScsICc8aW5maWxlLm1hZT4nLCAnLW9tYWUnLCAnPG91dGZpbGUubWFlPic=

>  <r_lp_tautomer_probability>  (125) 
1

>  <r_epik_Ionization_Penalty>  (125) 
1.49976e-14

>  <r_epik_Ionization_Penalty_Charging>  (125) 
0

>  <r_epik_Ionization_Penalty_Neutral>  (125) 
1.49976e-14

>  <r_epik_State_Penalty>  (125) 
-0

>  <r_epik_Charging_Adjusted_Penalty>  (125) 
0

>  <i_epik_Tot_Q>  (125) 
0

>  <i_epik_Tot_abs_Q>  (125) 
0

>  <s_lp_Force_Field>  (125) 
OPLS3e

>  <r_lp_Energy>  (125) 
4.12455

>  <b_lp_Chiralities_Consistent>  (125) 
1

>  <s_lp_Variant>  (125) 
35:0-1

>  <s_i_glide_gridfile>  (125) 
pfpi4k_grid

>  <i_i_glide_lignum>  (125) 
6

>  <i_i_glide_rotatable_bonds>  (125) 
0

>  <r_i_docking_score>  (125) 
-5.29573

>  <r_i_glide_ligand_efficiency>  (125) 
-0.353049

>  <r_i_glide_ligand_efficiency_sa>  (125) 
-0.870694

>  <r_i_glide_ligand_efficiency_ln>  (125) 
-1.42817

>  <r_i_glide_gscore>  (125) 
-5.29573

>  <r_i_glide_lipo>  (125) 
-1.43999

>  <r_i_glide_hbond>  (125) 
0

>  <r_i_glide_metal>  (125) 
-0

>  <r_i_glide_rewards>  (125) 
-2.93554

>  <r_i_glide_evdw>  (125) 
-18.0786

>  <r_i_glide_ecoul>  (125) 
-0.108527

>  <r_i_glide_erotb>  (125) 
0

>  <r_i_glide_esite>  (125) 
0

>  <r_i_glide_emodel>  (125) 
-23.1953

>  <r_i_glide_energy>  (125) 
-18.1871

>  <r_i_glide_einternal>  (125) 
0

>  <r_i_glide_intrahb_reward>  (125) 
-0

>  <i_i_glide_confnum>  (125) 
2

>  <i_i_glide_posenum>  (125) 
7

>  <r_i_glide_eff_state_penalty>  (125) 
0

>  <ligand_id>  (125) 
35

>  <original_smiles>  (125) 
CC1OC2(C=CC3=CC(=O)C=C32)C12CO2

>  <smiles>  (125) 
[H]C1=C2C([H])=C([H])C3(OC([H])(C([H])([H])[H])C34OC4([H])[H])C2=C([H])C1=O

$$$$
35:0:2
     RDKit          3D

 25 28  0  0  1  0  0  0  0  0999 V2000
    2.6744    0.1136    1.4676 C   0  0  0  0  0  0  0  0  0  0  0  0
    3.9412   -0.5644    1.9391 C   0  0  2  0  0  0  0  0  0  0  0  0
    5.0294   -0.3116    0.9824 O   0  0  0  0  0  0  0  0  0  0  0  0
    5.0867   -1.6954    0.5466 C   0  0  2  0  0  0  0  0  0  0  0  0
    6.3592   -2.4497    0.7803 C   0  0  0  0  0  0  0  0  0  0  0  0
    6.7049   -3.1192   -0.3793 C   0  0  0  0  0  0  0  0  0  0  0  0
    5.7355   -2.7875   -1.4349 C   0  0  0  0  0  0  0  0  0  0  0  0
    5.4592   -3.0359   -2.7308 C   0  0  0  0  0  0  0  0  0  0  0  0
    4.2360   -2.2463   -3.0466 C   0  0  0  0  0  0  0  0  0  0  0  0
    3.6526   -2.1701   -4.1299 O   0  0  0  0  0  0  0  0  0  0  0  0
    3.8650   -1.5503   -1.8045 C   0  0  0  0  0  0  0  0  0  0  0  0
    4.7749   -1.9335   -0.8960 C   0  0  0  0  0  0  0  0  0  0  0  0
    4.0943   -2.0073    1.5715 C   0  0  1  0  0  0  0  0  0  0  0  0
    4.0461   -3.2267    2.4673 C   0  0  0  0  0  0  0  0  0  0  0  0
    3.0562   -2.9864    1.4365 O   0  0  0  0  0  0  0  0  0  0  0  0
    1.8447   -0.1553    2.1159 H   0  0  0  0  0  0  0  0  0  0  0  0
    2.4068   -0.1664    0.4544 H   0  0  0  0  0  0  0  0  0  0  0  0
    2.7893    1.1965    1.4957 H   0  0  0  0  0  0  0  0  0  0  0  0
    4.2303   -0.3094    2.9504 H   0  0  0  0  0  0  0  0  0  0  0  0
    6.6995   -2.3707    1.8312 H   0  0  0  0  0  0  0  0  0  0  0  0
    7.5072   -3.8083   -0.5800 H   0  0  0  0  0  0  0  0  0  0  0  0
    5.9438   -3.6422   -3.4884 H   0  0  0  0  0  0  0  0  0  0  0  0
    3.0143   -0.8960   -1.7033 H   0  0  0  0  0  0  0  0  0  0  0  0
    4.7076   -4.0791    2.2882 H   0  0  0  0  0  0  0  0  0  0  0  0
    3.6827   -3.1257    3.4865 H   0  0  0  0  0  0  0  0  0  0  0  0
  1  2  1  0
  1 16  1  0
  1 17  1  0
  1 18  1  0
  2 13  1  0
  2  3  1  0
  2 19  1  1
  4  3  1  6
  4 12  1  0
  4  5  1  0
  4 13  1  0
  5  6  2  0
  5 20  1  0
  6  7  1  0
  6 21  1  0
  7 12  1  0
  7  8  2  0
  8  9  1  0
  8 22  1  0
  9 10  2  0
  9 11  1  0
 11 12  2  0
 11 23  1  0
 13 15  1  6
 13 14  1  0
 14 15  1  0
 14 24  1  0
 14 25  1  0
M  END
>  <i_m_ct_stereo_status>  (126) 
1

>  <s_m_source_file>  (126) 
/var/tmp/pbs.5076255.sched01/tmphf7gnms3/50i7j3xhgh.sdf

>  <i_m_source_file_index>  (126) 
6

>  <i_lp_mmshare_version>  (126) 
48012

>  <i_f3d_flags>  (126) 
0

>  <s_epik_input>  (126) 
W0NIM11bQ0BIXShPMSlbQ0BdMihbQ0gyXU8yKVtDQEBdMTNDNEMoW0NIXT1bQ0hdMyk9W0NIXUMoPU8pW0NIXT00

>  <s_epik_cmdline>  (126) 
J2VwaWtfcHl0aG9uJywgJy1waHQnLCAnMi4wJywgJy1waCcsICc3LjAnLCAnLXRuJywgJzgnLCAnLW1hJywgJzIwMCcsICctaW1hZScsICc8aW5maWxlLm1hZT4nLCAnLW9tYWUnLCAnPG91dGZpbGUubWFlPic=

>  <r_lp_tautomer_probability>  (126) 
1

>  <r_epik_Ionization_Penalty>  (126) 
1.49976e-14

>  <r_epik_Ionization_Penalty_Charging>  (126) 
0

>  <r_epik_Ionization_Penalty_Neutral>  (126) 
1.49976e-14

>  <r_epik_State_Penalty>  (126) 
-0

>  <r_epik_Charging_Adjusted_Penalty>  (126) 
0

>  <i_epik_Tot_Q>  (126) 
0

>  <i_epik_Tot_abs_Q>  (126) 
0

>  <s_lp_Force_Field>  (126) 
OPLS3e

>  <r_lp_Energy>  (126) 
4.12455

>  <b_lp_Chiralities_Consistent>  (126) 
1

>  <s_lp_Variant>  (126) 
35:0-1

>  <s_i_glide_gridfile>  (126) 
pfpi4k_grid

>  <i_i_glide_lignum>  (126) 
6

>  <i_i_glide_rotatable_bonds>  (126) 
0

>  <r_i_docking_score>  (126) 
-4.12403

>  <r_i_glide_ligand_efficiency>  (126) 
-0.274936

>  <r_i_glide_ligand_efficiency_sa>  (126) 
-0.678049

>  <r_i_glide_ligand_efficiency_ln>  (126) 
-1.11218

>  <r_i_glide_gscore>  (126) 
-4.12403

>  <r_i_glide_lipo>  (126) 
-0.454546

>  <r_i_glide_hbond>  (126) 
-0.268866

>  <r_i_glide_metal>  (126) 
-0

>  <r_i_glide_rewards>  (126) 
-2.20871

>  <r_i_glide_evdw>  (126) 
-20.5932

>  <r_i_glide_ecoul>  (126) 
-1.40255

>  <r_i_glide_erotb>  (126) 
0

>  <r_i_glide_esite>  (126) 
0

>  <r_i_glide_emodel>  (126) 
-23.7718

>  <r_i_glide_energy>  (126) 
-21.9958

>  <r_i_glide_einternal>  (126) 
0

>  <r_i_glide_intrahb_reward>  (126) 
-0

>  <i_i_glide_confnum>  (126) 
1

>  <i_i_glide_posenum>  (126) 
1

>  <r_i_glide_eff_state_penalty>  (126) 
0

>  <ligand_id>  (126) 
35

>  <original_smiles>  (126) 
CC1OC2(C=CC3=CC(=O)C=C32)C12CO2

>  <smiles>  (126) 
[H]C1=C2C([H])=C([H])C3(OC([H])(C([H])([H])[H])C34OC4([H])[H])C2=C([H])C1=O

$$$$
36:0:0
     RDKit          3D

103109  0  0  1  0  0  0  0  0999 V2000
    4.0518   -6.5773    0.6040 C   0  0  0  0  0  0  0  0  0  0  0  0
    2.8709   -6.8067    1.2496 C   0  0  0  0  0  0  0  0  0  0  0  0
    1.5927   -6.3413    0.5586 C   0  0  0  0  0  0  0  0  0  0  0  0
    2.7808   -7.5673    2.6016 C   0  0  2  0  0  0  0  0  0  0  0  0
    4.0520   -8.4478    2.7882 C   0  0  0  0  0  0  0  0  0  0  0  0
    3.9674   -9.5096    3.8984 C   0  0  0  0  0  0  0  0  0  0  0  0
    2.6284   -9.5711    4.6812 C   0  0  2  0  0  0  0  0  0  0  0  0
    2.7928  -10.7641    5.4196 O   0  0  0  0  0  0  0  0  0  0  0  0
    1.6252   -9.7936    3.5066 C   0  0  1  0  0  0  0  0  0  0  0  0
    0.2461  -10.3912    3.8455 C   0  0  0  0  0  0  0  0  0  0  0  0
    1.5790   -8.5875    2.5127 C   0  0  0  0  0  0  0  0  0  0  0  0
    2.2715   -8.3799    5.6962 C   0  0  1  0  0  0  0  0  0  0  0  0
    1.1280   -8.8305    6.3959 O   0  0  0  0  0  0  0  0  0  0  0  0
    3.2631   -8.0938    6.9099 C   0  0  1  0  0  0  0  0  0  0  0  0
    4.7658   -8.2742    6.6209 C   0  0  0  0  0  0  0  0  0  0  0  0
    2.9038   -6.9764    8.0063 C   0  0  1  0  0  0  0  0  0  0  0  0
    3.7005   -7.3299    9.1423 O   0  0  0  0  0  0  0  0  0  0  0  0
    2.7982   -5.3430    7.8498 C   0  0  1  0  0  0  0  0  0  0  0  0
    2.7575   -5.0506    9.2284 O   0  0  0  0  0  0  0  0  0  0  0  0
    4.1158   -4.5393    7.3903 C   0  0  2  0  0  0  0  0  0  0  0  0
    5.4340   -5.3322    7.4743 C   0  0  0  0  0  0  0  0  0  0  0  0
    4.4514   -3.2016    8.1344 C   0  0  0  0  0  0  0  0  0  0  0  0
    3.6484   -1.9073    7.9500 C   0  0  0  0  0  0  0  0  0  0  0  0
    3.8460   -1.1483    6.6227 C   0  0  1  0  0  0  0  0  0  0  0  0
    5.0324   -0.1257    6.5758 C   0  0  0  0  0  0  0  0  0  0  0  0
    6.4344   -0.6883    6.8597 C   0  0  0  0  0  0  0  0  0  0  0  0
    4.8032    1.0950    7.4787 C   0  0  0  0  0  0  0  0  0  0  0  0
    3.6212   -1.9954    5.3478 C   0  0  1  0  0  0  0  0  0  0  0  0
    4.7749   -2.1649    4.5679 O   0  0  0  0  0  0  0  0  0  0  0  0
    3.0635   -3.4053    5.5858 C   0  0  2  0  0  0  0  0  0  0  0  0
    4.0339   -4.3115    5.9997 O   0  0  0  0  0  0  0  0  0  0  0  0
    2.1608   -3.9606    4.5584 C   0  0  1  0  0  0  0  0  0  0  0  0
    2.4208   -5.0980    3.5419 C   0  0  0  0  0  0  0  0  0  0  0  0
    2.7298   -6.5788    3.8438 C   0  0  1  0  0  0  0  0  0  0  0  0
    1.8516   -7.0611    4.9952 C   0  0  1  0  0  0  0  0  0  0  0  0
    0.3155   -6.8060    4.7775 C   0  0  0  0  0  0  0  0  0  0  0  0
   -0.4064   -5.8621    5.7478 C   0  0  0  0  0  0  0  0  0  0  0  0
    0.2354   -5.6963    7.1332 C   0  0  0  0  0  0  0  0  0  0  0  0
   -0.2013   -6.3363    8.0744 O   0  0  0  0  0  0  0  0  0  0  0  0
    1.4297   -4.6778    7.2889 C   0  0  1  0  0  0  0  0  0  0  0  0
    1.0182   -3.6501    8.2448 O   0  0  0  0  0  0  0  0  0  0  0  0
    0.1070   -3.8244    9.3262 C   0  0  0  0  0  0  0  0  0  0  0  0
    0.1149   -2.5119   10.1154 C   0  0  0  0  0  0  0  0  0  0  0  0
    1.6091   -3.7516    6.0050 C   0  0  1  0  0  0  0  0  0  0  0  0
    0.5375   -2.6384    6.0082 C   0  0  0  0  0  0  0  0  0  0  0  0
    4.0730   -6.0664   -0.3326 H   0  0  0  0  0  0  0  0  0  0  0  0
    5.0044   -6.8950    0.9821 H   0  0  0  0  0  0  0  0  0  0  0  0
    0.8443   -5.9018    1.2277 H   0  0  0  0  0  0  0  0  0  0  0  0
    1.0787   -7.1545    0.0716 H   0  0  0  0  0  0  0  0  0  0  0  0
    1.8262   -5.6131   -0.2018 H   0  0  0  0  0  0  0  0  0  0  0  0
    4.2700   -8.9855    1.8658 H   0  0  0  0  0  0  0  0  0  0  0  0
    4.9362   -7.8324    2.9802 H   0  0  0  0  0  0  0  0  0  0  0  0
    4.1005  -10.4714    3.3883 H   0  0  0  0  0  0  0  0  0  0  0  0
    4.8739   -9.5017    4.4850 H   0  0  0  0  0  0  0  0  0  0  0  0
    1.9569  -11.0565    5.7752 H   0  0  0  0  0  0  0  0  0  0  0  0
    2.0414  -10.6095    2.9009 H   0  0  0  0  0  0  0  0  0  0  0  0
   -0.3563   -9.7536    4.4844 H   0  0  0  0  0  0  0  0  0  0  0  0
    0.3372  -11.3492    4.3615 H   0  0  0  0  0  0  0  0  0  0  0  0
   -0.3317  -10.5678    2.9366 H   0  0  0  0  0  0  0  0  0  0  0  0
    0.5998   -8.1016    2.5313 H   0  0  0  0  0  0  0  0  0  0  0  0
    1.6226   -9.0173    1.5158 H   0  0  0  0  0  0  0  0  0  0  0  0
    1.3326   -9.6600    6.8213 H   0  0  0  0  0  0  0  0  0  0  0  0
    3.1270   -8.9963    7.5119 H   0  0  0  0  0  0  0  0  0  0  0  0
    5.0870   -7.7536    5.7207 H   0  0  0  0  0  0  0  0  0  0  0  0
    4.9979   -9.3320    6.5125 H   0  0  0  0  0  0  0  0  0  0  0  0
    5.4148   -7.9786    7.4407 H   0  0  0  0  0  0  0  0  0  0  0  0
    1.9386   -7.3085    8.3820 H   0  0  0  0  0  0  0  0  0  0  0  0
    4.6178   -7.3149    8.8785 H   0  0  0  0  0  0  0  0  0  0  0  0
    3.4710   -5.5496    9.6241 H   0  0  0  0  0  0  0  0  0  0  0  0
    6.3278   -4.7006    7.4199 H   0  0  0  0  0  0  0  0  0  0  0  0
    5.5697   -5.9578    6.5976 H   0  0  0  0  0  0  0  0  0  0  0  0
    5.5409   -5.8771    8.4136 H   0  0  0  0  0  0  0  0  0  0  0  0
    4.5331   -3.4136    9.2016 H   0  0  0  0  0  0  0  0  0  0  0  0
    5.4522   -2.9015    7.8275 H   0  0  0  0  0  0  0  0  0  0  0  0
    2.5866   -2.0546    8.1156 H   0  0  0  0  0  0  0  0  0  0  0  0
    3.9188   -1.2410    8.7610 H   0  0  0  0  0  0  0  0  0  0  0  0
    2.9696   -0.5021    6.5943 H   0  0  0  0  0  0  0  0  0  0  0  0
    5.0233    0.2844    5.5646 H   0  0  0  0  0  0  0  0  0  0  0  0
    6.5263   -1.0579    7.8813 H   0  0  0  0  0  0  0  0  0  0  0  0
    7.1944    0.0786    6.7055 H   0  0  0  0  0  0  0  0  0  0  0  0
    6.6709   -1.5098    6.1957 H   0  0  0  0  0  0  0  0  0  0  0  0
    4.7672    0.8273    8.5354 H   0  0  0  0  0  0  0  0  0  0  0  0
    3.8804    1.6148    7.2187 H   0  0  0  0  0  0  0  0  0  0  0  0
    5.6219    1.8029    7.3540 H   0  0  0  0  0  0  0  0  0  0  0  0
    2.9264   -1.4454    4.7188 H   0  0  0  0  0  0  0  0  0  0  0  0
    5.3521   -2.7501    5.0511 H   0  0  0  0  0  0  0  0  0  0  0  0
    1.8048   -3.1780    3.9158 H   0  0  0  0  0  0  0  0  0  0  0  0
    1.5169   -5.0442    2.9267 H   0  0  0  0  0  0  0  0  0  0  0  0
    3.2073   -4.7058    2.8973 H   0  0  0  0  0  0  0  0  0  0  0  0
    3.7424   -6.5424    4.2739 H   0  0  0  0  0  0  0  0  0  0  0  0
    2.1794   -6.3260    5.6859 H   0  0  0  0  0  0  0  0  0  0  0  0
    0.1313   -6.4002    3.7884 H   0  0  0  0  0  0  0  0  0  0  0  0
   -0.2529   -7.7245    4.7473 H   0  0  0  0  0  0  0  0  0  0  0  0
   -0.5191   -4.8934    5.2735 H   0  0  0  0  0  0  0  0  0  0  0  0
   -1.4202   -6.2284    5.9016 H   0  0  0  0  0  0  0  0  0  0  0  0
   -0.9050   -4.0147    8.9689 H   0  0  0  0  0  0  0  0  0  0  0  0
    0.4002   -4.6484    9.9775 H   0  0  0  0  0  0  0  0  0  0  0  0
   -0.5707   -2.5580   10.9661 H   0  0  0  0  0  0  0  0  0  0  0  0
   -0.1802   -1.6684    9.4834 H   0  0  0  0  0  0  0  0  0  0  0  0
    1.1171   -2.2982   10.5011 H   0  0  0  0  0  0  0  0  0  0  0  0
   -0.4529   -2.9982    6.3058 H   0  0  0  0  0  0  0  0  0  0  0  0
    0.4227   -2.1618    5.0356 H   0  0  0  0  0  0  0  0  0  0  0  0
    0.8165   -1.8364    6.6966 H   0  0  0  0  0  0  0  0  0  0  0  0
  1  2  2  0
  1 46  1  0
  1 47  1  0
  2  3  1  0
  4  2  1  6
  3 48  1  0
  3 49  1  0
  3 50  1  0
  4 11  1  0
  4 34  1  0
  4  5  1  0
  5  6  1  0
  5 51  1  0
  5 52  1  0
  6  7  1  0
  6 53  1  0
  6 54  1  0
  7  8  1  1
  7  9  1  0
  7 12  1  0
  8 55  1  0
  9 10  1  0
  9 11  1  0
  9 56  1  6
 10 57  1  0
 10 58  1  0
 10 59  1  0
 11 60  1  0
 11 61  1  0
 12 35  1  0
 12 13  1  1
 12 14  1  0
 13 62  1  0
 14 15  1  0
 14 16  1  0
 14 63  1  1
 15 64  1  0
 15 65  1  0
 15 66  1  0
 16 17  1  0
 16 18  1  0
 16 67  1  1
 17 68  1  0
 18 40  1  0
 18 19  1  1
 18 20  1  0
 19 69  1  0
 20 31  1  0
 20 21  1  6
 20 22  1  0
 21 70  1  0
 21 71  1  0
 21 72  1  0
 22 23  1  0
 22 73  1  0
 22 74  1  0
 23 24  1  0
 23 75  1  0
 23 76  1  0
 24 25  1  0
 24 28  1  0
 24 77  1  1
 25 26  1  0
 25 27  1  0
 25 78  1  0
 26 79  1  0
 26 80  1  0
 26 81  1  0
 27 82  1  0
 27 83  1  0
 27 84  1  0
 28 29  1  0
 28 30  1  0
 28 85  1  6
 29 86  1  0
 30 44  1  0
 30 31  1  1
 30 32  1  0
 32 44  1  0
 32 33  1  0
 32 87  1  6
 33 34  1  0
 33 88  1  0
 33 89  1  0
 34 35  1  0
 34 90  1  1
 35 36  1  0
 35 91  1  1
 36 37  1  0
 36 92  1  0
 36 93  1  0
 37 38  1  0
 37 94  1  0
 37 95  1  0
 38 39  2  0
 38 40  1  0
 40 41  1  1
 40 44  1  0
 41 42  1  0
 42 43  1  0
 42 96  1  0
 42 97  1  0
 43 98  1  0
 43 99  1  0
 43100  1  0
 44 45  1  6
 45101  1  0
 45102  1  0
 45103  1  0
M  END
>  <i_m_ct_stereo_status>  (127) 
1

>  <s_m_source_file>  (127) 
/var/tmp/pbs.5076255.sched01/tmphf7gnms3/50i7j3xhgh.sdf

>  <i_m_source_file_index>  (127) 
7

>  <i_lp_mmshare_version>  (127) 
48012

>  <i_f3d_flags>  (127) 
0

>  <s_epik_input>  (127) 
Tz1DMVtDSDJdW0NIMl1bQ0BASF0yW0NASF0oW0NIMl0zKVtDQF0oQyg9W0NIMl0pW0NIM10pKFtDSDJdW0NAQEhdNFtDSDNdKVtDSDJdW0NIMl1bQ0BAXTQoW09IXSlbQ0BAXTIoW09IXSlbQ0BASF0oW0NIM10pW0NAQEhdKFtPSF0pW0NAXShbT0hdKShbQ0BdMShbQ0BAXTUoW0NASF0zW0NAXTU2NylbQ0gzXSlPW0NIMl1bQ0gzXSlbQ0BdKE83KShbQ0gzXSlbQ0gyXVtDSDJdW0NAQEhdKFtDSF0oW0NIM10pW0NIM10pW0NASF02W09IXQ==

>  <s_epik_cmdline>  (127) 
J2VwaWtfcHl0aG9uJywgJy1waHQnLCAnMi4wJywgJy1waCcsICc3LjAnLCAnLXRuJywgJzgnLCAnLW1hJywgJzIwMCcsICctaW1hZScsICc8aW5maWxlLm1hZT4nLCAnLW9tYWUnLCAnPG91dGZpbGUubWFlPic=

>  <r_lp_tautomer_probability>  (127) 
1

>  <r_epik_Ionization_Penalty>  (127) 
1.34469e-06

>  <r_epik_Ionization_Penalty_Charging>  (127) 
0

>  <r_epik_Ionization_Penalty_Neutral>  (127) 
1.34469e-06

>  <r_epik_State_Penalty>  (127) 
-0

>  <r_epik_Charging_Adjusted_Penalty>  (127) 
0

>  <i_epik_Tot_Q>  (127) 
0

>  <i_epik_Tot_abs_Q>  (127) 
0

>  <s_lp_Force_Field>  (127) 
OPLS3e

>  <r_lp_Energy>  (127) 
215.697

>  <b_lp_Chiralities_Consistent>  (127) 
1

>  <s_lp_Variant>  (127) 
36:0-1

>  <s_i_glide_gridfile>  (127) 
pfpi4k_grid

>  <i_i_glide_lignum>  (127) 
7

>  <i_i_glide_rotatable_bonds>  (127) 
9

>  <r_i_docking_score>  (127) 
-1.64302

>  <r_i_glide_ligand_efficiency>  (127) 
-0.0365115

>  <r_i_glide_ligand_efficiency_sa>  (127) 
-0.129867

>  <r_i_glide_ligand_efficiency_ln>  (127) 
-0.34182

>  <r_i_glide_gscore>  (127) 
-1.64302

>  <r_i_glide_lipo>  (127) 
-0.203612

>  <r_i_glide_hbond>  (127) 
0

>  <r_i_glide_metal>  (127) 
-0

>  <r_i_glide_rewards>  (127) 
0

>  <r_i_glide_evdw>  (127) 
-21.1152

>  <r_i_glide_ecoul>  (127) 
-3.24818

>  <r_i_glide_erotb>  (127) 
0.106277

>  <r_i_glide_esite>  (127) 
-0.0026956

>  <r_i_glide_emodel>  (127) 
-24.8384

>  <r_i_glide_energy>  (127) 
-24.3633

>  <r_i_glide_einternal>  (127) 
1.33442

>  <r_i_glide_intrahb_reward>  (127) 
-0

>  <i_i_glide_confnum>  (127) 
2

>  <i_i_glide_posenum>  (127) 
7

>  <r_i_glide_eff_state_penalty>  (127) 
0

>  <ligand_id>  (127) 
36

>  <original_smiles>  (127) 
C=C(C)C12CCC(O)(C(C)C1)C1(O)C(C)C(O)C3(O)C4(C)CCC(C(C)C)C(O)C5(O4)C4CC2C1CCC(=O)C3(OCC)C45C

>  <smiles>  (127) 
[H]OC1([H])C([H])(C([H])([H])[H])C2(O[H])C3([H])C([H])([H])C([H])([H])C(=O)C4(OC([H])([H])C([H])([H])[H])C1(O[H])C1(C([H])([H])[H])OC5(C([H])(O[H])C([H])(C([H])(C([H])([H])[H])C([H])([H])[H])C([H])([H])C1([H])[H])C([H])(C([H])([H])C3([H])C1(C(=C([H])[H])C([H])([H])[H])C([H])([H])C([H])([H])C2(O[H])C([H])(C([H])([H])[H])C1([H])[H])C45C([H])([H])[H]

$$$$
36:0:1
     RDKit          3D

103109  0  0  1  0  0  0  0  0999 V2000
   -0.7175   -7.0541    2.6444 C   0  0  0  0  0  0  0  0  0  0  0  0
    0.3761   -7.0686    3.4318 C   0  0  0  0  0  0  0  0  0  0  0  0
    0.2813   -7.7916    4.7771 C   0  0  0  0  0  0  0  0  0  0  0  0
    1.7425   -6.4237    3.0430 C   0  0  2  0  0  0  0  0  0  0  0  0
    1.7860   -6.2415    1.4949 C   0  0  0  0  0  0  0  0  0  0  0  0
    3.1633   -5.9148    0.8982 C   0  0  0  0  0  0  0  0  0  0  0  0
    4.3299   -5.8278    1.9199 C   0  0  2  0  0  0  0  0  0  0  0  0
    5.4882   -5.7755    1.0946 O   0  0  0  0  0  0  0  0  0  0  0  0
    4.2464   -7.2315    2.6110 C   0  0  1  0  0  0  0  0  0  0  0  0
    5.5007   -7.7723    3.3349 C   0  0  0  0  0  0  0  0  0  0  0  0
    2.8999   -7.4407    3.3770 C   0  0  0  0  0  0  0  0  0  0  0  0
    4.3931   -4.5782    2.9297 C   0  0  1  0  0  0  0  0  0  0  0  0
    5.6723   -4.6872    3.5485 O   0  0  0  0  0  0  0  0  0  0  0  0
    4.4912   -3.1159    2.2977 C   0  0  1  0  0  0  0  0  0  0  0  0
    3.6954   -2.8701    0.9984 C   0  0  0  0  0  0  0  0  0  0  0  0
    4.6579   -1.8348    3.2526 C   0  0  1  0  0  0  0  0  0  0  0  0
    5.1949   -0.8360    2.3779 O   0  0  0  0  0  0  0  0  0  0  0  0
    3.6012   -1.1666    4.3201 C   0  0  1  0  0  0  0  0  0  0  0  0
    4.2951    0.0590    4.5138 O   0  0  0  0  0  0  0  0  0  0  0  0
    2.1734   -0.6537    3.7835 C   0  0  2  0  0  0  0  0  0  0  0  0
    2.0771   -0.4868    2.2564 C   0  0  0  0  0  0  0  0  0  0  0  0
    1.6200    0.7229    4.3303 C   0  0  0  0  0  0  0  0  0  0  0  0
    1.1225    0.9129    5.7739 C   0  0  0  0  0  0  0  0  0  0  0  0
   -0.2588    0.3179    6.1084 C   0  0  1  0  0  0  0  0  0  0  0  0
   -1.4973    1.2151    5.7758 C   0  0  0  0  0  0  0  0  0  0  0  0
   -1.6362    1.6377    4.2965 C   0  0  0  0  0  0  0  0  0  0  0  0
   -1.5746    2.4722    6.6561 C   0  0  0  0  0  0  0  0  0  0  0  0
   -0.4009   -1.1924    5.7766 C   0  0  1  0  0  0  0  0  0  0  0  0
   -1.3565   -1.4612    4.7816 O   0  0  0  0  0  0  0  0  0  0  0  0
    0.8791   -1.9220    5.3454 C   0  0  2  0  0  0  0  0  0  0  0  0
    1.2318   -1.6785    4.0010 O   0  0  0  0  0  0  0  0  0  0  0  0
    1.0227   -3.3358    5.7434 C   0  0  1  0  0  0  0  0  0  0  0  0
    0.9575   -4.6142    4.8585 C   0  0  0  0  0  0  0  0  0  0  0  0
    1.9223   -4.9720    3.6813 C   0  0  1  0  0  0  0  0  0  0  0  0
    3.3477   -4.6335    4.0794 C   0  0  1  0  0  0  0  0  0  0  0  0
    3.8102   -5.2435    5.4536 C   0  0  0  0  0  0  0  0  0  0  0  0
    4.1861   -4.2800    6.5938 C   0  0  0  0  0  0  0  0  0  0  0  0
    4.6135   -2.8731    6.1647 C   0  0  0  0  0  0  0  0  0  0  0  0
    5.8139   -2.6274    6.0934 O   0  0  0  0  0  0  0  0  0  0  0  0
    3.5103   -1.8048    5.8250 C   0  0  1  0  0  0  0  0  0  0  0  0
    3.6604   -0.7012    6.7739 O   0  0  0  0  0  0  0  0  0  0  0  0
    4.8775   -0.2521    7.3835 C   0  0  0  0  0  0  0  0  0  0  0  0
    4.5158    0.9081    8.3100 C   0  0  0  0  0  0  0  0  0  0  0  0
    2.0576   -2.3012    6.2876 C   0  0  1  0  0  0  0  0  0  0  0  0
    1.8685   -2.1242    7.8215 C   0  0  0  0  0  0  0  0  0  0  0  0
   -1.6356   -7.5153    2.9693 H   0  0  0  0  0  0  0  0  0  0  0  0
   -0.7412   -6.6065    1.6692 H   0  0  0  0  0  0  0  0  0  0  0  0
    0.7557   -7.2760    5.6010 H   0  0  0  0  0  0  0  0  0  0  0  0
    0.7139   -8.7922    4.6897 H   0  0  0  0  0  0  0  0  0  0  0  0
   -0.7634   -7.9564    5.0449 H   0  0  0  0  0  0  0  0  0  0  0  0
    1.4395   -7.1498    1.0033 H   0  0  0  0  0  0  0  0  0  0  0  0
    1.0968   -5.4612    1.1766 H   0  0  0  0  0  0  0  0  0  0  0  0
    3.4108   -6.7282    0.2125 H   0  0  0  0  0  0  0  0  0  0  0  0
    3.0804   -5.1109    0.1837 H   0  0  0  0  0  0  0  0  0  0  0  0
    6.2355   -5.9854    1.6309 H   0  0  0  0  0  0  0  0  0  0  0  0
    4.1835   -7.9502    1.7856 H   0  0  0  0  0  0  0  0  0  0  0  0
    5.8049   -7.1870    4.1935 H   0  0  0  0  0  0  0  0  0  0  0  0
    6.3588   -7.8145    2.6652 H   0  0  0  0  0  0  0  0  0  0  0  0
    5.3259   -8.7871    3.6888 H   0  0  0  0  0  0  0  0  0  0  0  0
    3.0747   -7.5187    4.4481 H   0  0  0  0  0  0  0  0  0  0  0  0
    2.5450   -8.4316    3.1067 H   0  0  0  0  0  0  0  0  0  0  0  0
    6.3303   -4.6335    2.8734 H   0  0  0  0  0  0  0  0  0  0  0  0
    5.4868   -3.1519    1.8382 H   0  0  0  0  0  0  0  0  0  0  0  0
    2.6612   -3.1979    1.0755 H   0  0  0  0  0  0  0  0  0  0  0  0
    4.1673   -3.3884    0.1644 H   0  0  0  0  0  0  0  0  0  0  0  0
    3.7059   -1.8361    0.6646 H   0  0  0  0  0  0  0  0  0  0  0  0
    5.5632   -2.0614    3.8115 H   0  0  0  0  0  0  0  0  0  0  0  0
    5.9421   -1.2017    1.9283 H   0  0  0  0  0  0  0  0  0  0  0  0
    4.3563    0.4543    3.6548 H   0  0  0  0  0  0  0  0  0  0  0  0
    1.2354    0.1273    1.9382 H   0  0  0  0  0  0  0  0  0  0  0  0
    1.8505   -1.4267    1.7721 H   0  0  0  0  0  0  0  0  0  0  0  0
    2.9530   -0.0070    1.8258 H   0  0  0  0  0  0  0  0  0  0  0  0
    2.3726    1.4920    4.1283 H   0  0  0  0  0  0  0  0  0  0  0  0
    0.7599    1.0179    3.7308 H   0  0  0  0  0  0  0  0  0  0  0  0
    1.8395    0.5700    6.4988 H   0  0  0  0  0  0  0  0  0  0  0  0
    1.0951    1.9788    5.9642 H   0  0  0  0  0  0  0  0  0  0  0  0
   -0.2464    0.3039    7.1953 H   0  0  0  0  0  0  0  0  0  0  0  0
   -2.3794    0.6323    6.0400 H   0  0  0  0  0  0  0  0  0  0  0  0
   -0.7599    2.2000    3.9596 H   0  0  0  0  0  0  0  0  0  0  0  0
   -2.5354    2.2453    4.1526 H   0  0  0  0  0  0  0  0  0  0  0  0
   -1.7457    0.7839    3.6290 H   0  0  0  0  0  0  0  0  0  0  0  0
   -0.7344    3.1444    6.4798 H   0  0  0  0  0  0  0  0  0  0  0  0
   -1.5947    2.2220    7.7166 H   0  0  0  0  0  0  0  0  0  0  0  0
   -2.4828    3.0330    6.4376 H   0  0  0  0  0  0  0  0  0  0  0  0
   -0.8004   -1.6792    6.6705 H   0  0  0  0  0  0  0  0  0  0  0  0
   -0.9859   -1.1177    3.9705 H   0  0  0  0  0  0  0  0  0  0  0  0
    0.3010   -3.5999    6.5069 H   0  0  0  0  0  0  0  0  0  0  0  0
    0.9766   -5.4181    5.5725 H   0  0  0  0  0  0  0  0  0  0  0  0
   -0.0609   -4.6197    4.4589 H   0  0  0  0  0  0  0  0  0  0  0  0
    1.6628   -4.2428    2.9109 H   0  0  0  0  0  0  0  0  0  0  0  0
    3.1677   -3.6018    4.2546 H   0  0  0  0  0  0  0  0  0  0  0  0
    3.0353   -5.8834    5.8636 H   0  0  0  0  0  0  0  0  0  0  0  0
    4.6325   -5.9398    5.3412 H   0  0  0  0  0  0  0  0  0  0  0  0
    3.3619   -4.2222    7.2982 H   0  0  0  0  0  0  0  0  0  0  0  0
    5.0125   -4.7126    7.1591 H   0  0  0  0  0  0  0  0  0  0  0  0
    5.3402   -1.0323    7.9902 H   0  0  0  0  0  0  0  0  0  0  0  0
    5.6016    0.0698    6.6332 H   0  0  0  0  0  0  0  0  0  0  0  0
    5.4052    1.2917    8.8048 H   0  0  0  0  0  0  0  0  0  0  0  0
    3.8171    0.5777    9.0792 H   0  0  0  0  0  0  0  0  0  0  0  0
    4.0488    1.7237    7.7579 H   0  0  0  0  0  0  0  0  0  0  0  0
    2.7512   -2.4328    8.3803 H   0  0  0  0  0  0  0  0  0  0  0  0
    1.0311   -2.6939    8.2100 H   0  0  0  0  0  0  0  0  0  0  0  0
    1.6649   -1.0844    8.0726 H   0  0  0  0  0  0  0  0  0  0  0  0
  1  2  2  0
  1 46  1  0
  1 47  1  0
  2  3  1  0
  4  2  1  6
  3 48  1  0
  3 49  1  0
  3 50  1  0
  4 11  1  0
  4 34  1  0
  4  5  1  0
  5  6  1  0
  5 51  1  0
  5 52  1  0
  6  7  1  0
  6 53  1  0
  6 54  1  0
  7  8  1  6
  7  9  1  0
  7 12  1  0
  8 55  1  0
  9 10  1  0
  9 11  1  0
  9 56  1  6
 10 57  1  0
 10 58  1  0
 10 59  1  0
 11 60  1  0
 11 61  1  0
 12 35  1  0
 12 13  1  1
 12 14  1  0
 13 62  1  0
 14 15  1  0
 14 16  1  0
 14 63  1  6
 15 64  1  0
 15 65  1  0
 15 66  1  0
 16 17  1  0
 16 18  1  0
 16 67  1  1
 17 68  1  0
 18 40  1  0
 18 19  1  1
 18 20  1  0
 19 69  1  0
 20 31  1  0
 20 21  1  6
 20 22  1  0
 21 70  1  0
 21 71  1  0
 21 72  1  0
 22 23  1  0
 22 73  1  0
 22 74  1  0
 23 24  1  0
 23 75  1  0
 23 76  1  0
 24 25  1  0
 24 28  1  0
 24 77  1  1
 25 26  1  0
 25 27  1  0
 25 78  1  0
 26 79  1  0
 26 80  1  0
 26 81  1  0
 27 82  1  0
 27 83  1  0
 27 84  1  0
 28 29  1  0
 28 30  1  0
 28 85  1  1
 29 86  1  0
 30 44  1  0
 30 31  1  6
 30 32  1  0
 32 44  1  0
 32 33  1  0
 32 87  1  1
 33 34  1  0
 33 88  1  0
 33 89  1  0
 34 35  1  0
 34 90  1  6
 35 36  1  0
 35 91  1  1
 36 37  1  0
 36 92  1  0
 36 93  1  0
 37 38  1  0
 37 94  1  0
 37 95  1  0
 38 39  2  0
 38 40  1  0
 40 41  1  1
 40 44  1  0
 41 42  1  0
 42 43  1  0
 42 96  1  0
 42 97  1  0
 43 98  1  0
 43 99  1  0
 43100  1  0
 44 45  1  1
 45101  1  0
 45102  1  0
 45103  1  0
M  END
>  <i_m_ct_stereo_status>  (128) 
1

>  <s_m_source_file>  (128) 
/var/tmp/pbs.5076255.sched01/tmphf7gnms3/50i7j3xhgh.sdf

>  <i_m_source_file_index>  (128) 
7

>  <i_lp_mmshare_version>  (128) 
48012

>  <i_f3d_flags>  (128) 
0

>  <s_epik_input>  (128) 
Tz1DMVtDSDJdW0NIMl1bQ0BASF0yW0NASF0oW0NIMl0zKVtDQF0oQyg9W0NIMl0pW0NIM10pKFtDSDJdW0NAQEhdNFtDSDNdKVtDSDJdW0NIMl1bQ0BAXTQoW09IXSlbQ0BAXTIoW09IXSlbQ0BASF0oW0NIM10pW0NAQEhdKFtPSF0pW0NAXShbT0hdKShbQ0BdMShbQ0BAXTUoW0NASF0zW0NAXTU2NylbQ0gzXSlPW0NIMl1bQ0gzXSlbQ0BdKE83KShbQ0gzXSlbQ0gyXVtDSDJdW0NAQEhdKFtDSF0oW0NIM10pW0NIM10pW0NASF02W09IXQ==

>  <s_epik_cmdline>  (128) 
J2VwaWtfcHl0aG9uJywgJy1waHQnLCAnMi4wJywgJy1waCcsICc3LjAnLCAnLXRuJywgJzgnLCAnLW1hJywgJzIwMCcsICctaW1hZScsICc8aW5maWxlLm1hZT4nLCAnLW9tYWUnLCAnPG91dGZpbGUubWFlPic=

>  <r_lp_tautomer_probability>  (128) 
1

>  <r_epik_Ionization_Penalty>  (128) 
1.34469e-06

>  <r_epik_Ionization_Penalty_Charging>  (128) 
0

>  <r_epik_Ionization_Penalty_Neutral>  (128) 
1.34469e-06

>  <r_epik_State_Penalty>  (128) 
-0

>  <r_epik_Charging_Adjusted_Penalty>  (128) 
0

>  <i_epik_Tot_Q>  (128) 
0

>  <i_epik_Tot_abs_Q>  (128) 
0

>  <s_lp_Force_Field>  (128) 
OPLS3e

>  <r_lp_Energy>  (128) 
215.697

>  <b_lp_Chiralities_Consistent>  (128) 
1

>  <s_lp_Variant>  (128) 
36:0-1

>  <s_i_glide_gridfile>  (128) 
pfpi4k_grid

>  <i_i_glide_lignum>  (128) 
7

>  <i_i_glide_rotatable_bonds>  (128) 
9

>  <r_i_docking_score>  (128) 
-1.33707

>  <r_i_glide_ligand_efficiency>  (128) 
-0.0297126

>  <r_i_glide_ligand_efficiency_sa>  (128) 
-0.105685

>  <r_i_glide_ligand_efficiency_ln>  (128) 
-0.27817

>  <r_i_glide_gscore>  (128) 
-1.33707

>  <r_i_glide_lipo>  (128) 
-0.110937

>  <r_i_glide_hbond>  (128) 
0

>  <r_i_glide_metal>  (128) 
-0

>  <r_i_glide_rewards>  (128) 
-0.00336482

>  <r_i_glide_evdw>  (128) 
-24.9468

>  <r_i_glide_ecoul>  (128) 
-0.544697

>  <r_i_glide_erotb>  (128) 
0.106277

>  <r_i_glide_esite>  (128) 
0

>  <r_i_glide_emodel>  (128) 
-25.2351

>  <r_i_glide_energy>  (128) 
-25.4915

>  <r_i_glide_einternal>  (128) 
1.59563

>  <r_i_glide_intrahb_reward>  (128) 
-0

>  <i_i_glide_confnum>  (128) 
2

>  <i_i_glide_posenum>  (128) 
2

>  <r_i_glide_eff_state_penalty>  (128) 
0

>  <ligand_id>  (128) 
36

>  <original_smiles>  (128) 
C=C(C)C12CCC(O)(C(C)C1)C1(O)C(C)C(O)C3(O)C4(C)CCC(C(C)C)C(O)C5(O4)C4CC2C1CCC(=O)C3(OCC)C45C

>  <smiles>  (128) 
[H]OC1([H])C([H])(C([H])([H])[H])C2(O[H])C3([H])C([H])([H])C([H])([H])C(=O)C4(OC([H])([H])C([H])([H])[H])C1(O[H])C1(C([H])([H])[H])OC5(C([H])(O[H])C([H])(C([H])(C([H])([H])[H])C([H])([H])[H])C([H])([H])C1([H])[H])C([H])(C([H])([H])C3([H])C1(C(=C([H])[H])C([H])([H])[H])C([H])([H])C([H])([H])C2(O[H])C([H])(C([H])([H])[H])C1([H])[H])C45C([H])([H])[H]

$$$$
36:0:2
     RDKit          3D

103109  0  0  1  0  0  0  0  0999 V2000
   -1.0771   -7.8476    3.7070 C   0  0  0  0  0  0  0  0  0  0  0  0
    0.0876   -8.1170    4.3287 C   0  0  0  0  0  0  0  0  0  0  0  0
    0.0471   -8.8582    5.6634 C   0  0  0  0  0  0  0  0  0  0  0  0
    1.4825   -7.7444    3.7503 C   0  0  2  0  0  0  0  0  0  0  0  0
    1.3908   -7.7881    2.2009 C   0  0  0  0  0  0  0  0  0  0  0  0
    2.7419   -7.7671    1.4762 C   0  0  0  0  0  0  0  0  0  0  0  0
    3.9981   -7.6985    2.3876 C   0  0  2  0  0  0  0  0  0  0  0  0
    5.0865   -7.9312    1.5099 O   0  0  0  0  0  0  0  0  0  0  0  0
    3.7961   -8.9679    3.2691 C   0  0  1  0  0  0  0  0  0  0  0  0
    5.0327   -9.5584    3.9838 C   0  0  0  0  0  0  0  0  0  0  0  0
    2.5246   -8.8539    4.1570 C   0  0  0  0  0  0  0  0  0  0  0  0
    4.3116   -6.3304    3.1733 C   0  0  1  0  0  0  0  0  0  0  0  0
    5.6192   -6.5086    3.6827 O   0  0  0  0  0  0  0  0  0  0  0  0
    4.5300   -5.0035    2.3194 C   0  0  1  0  0  0  0  0  0  0  0  0
    3.6763   -4.8333    1.0534 C   0  0  0  0  0  0  0  0  0  0  0  0
    4.9318   -3.6381    3.0536 C   0  0  1  0  0  0  0  0  0  0  0  0
    5.5128   -2.8468    2.0199 O   0  0  0  0  0  0  0  0  0  0  0  0
    4.0768   -2.6772    4.0824 C   0  0  1  0  0  0  0  0  0  0  0  0
    4.9312   -1.5552    4.0367 O   0  0  0  0  0  0  0  0  0  0  0  0
    2.6920   -2.0431    3.5712 C   0  0  2  0  0  0  0  0  0  0  0  0
    2.4893   -2.0751    2.0569 C   0  0  0  0  0  0  0  0  0  0  0  0
    2.3597   -0.5469    3.9349 C   0  0  0  0  0  0  0  0  0  0  0  0
    2.0588   -0.0888    5.3667 C   0  0  0  0  0  0  0  0  0  0  0  0
    0.6532   -0.4239    5.9064 C   0  0  1  0  0  0  0  0  0  0  0  0
   -0.4946    0.5595    5.4879 C   0  0  0  0  0  0  0  0  0  0  0  0
   -0.1140    2.0490    5.5869 C   0  0  0  0  0  0  0  0  0  0  0  0
   -1.7679    0.3535    6.3327 C   0  0  0  0  0  0  0  0  0  0  0  0
    0.2880   -1.9314    5.7910 C   0  0  1  0  0  0  0  0  0  0  0  0
   -0.7432   -2.1802    4.8715 O   0  0  0  0  0  0  0  0  0  0  0  0
    1.4198   -2.8954    5.3925 C   0  0  2  0  0  0  0  0  0  0  0  0
    1.6513   -2.8992    3.9983 O   0  0  0  0  0  0  0  0  0  0  0  0
    1.4105   -4.2533    5.9849 C   0  0  1  0  0  0  0  0  0  0  0  0
    1.1007   -5.6136    5.3158 C   0  0  0  0  0  0  0  0  0  0  0  0
    1.8936   -6.2616    4.1551 C   0  0  1  0  0  0  0  0  0  0  0  0
    3.3873   -6.0732    4.3889 C   0  0  1  0  0  0  0  0  0  0  0  0
    3.8876   -6.5451    5.7987 C   0  0  0  0  0  0  0  0  0  0  0  0
    4.4828   -5.4882    6.7469 C   0  0  0  0  0  0  0  0  0  0  0  0
    5.0417   -4.2346    6.0788 C   0  0  0  0  0  0  0  0  0  0  0  0
    6.2571   -4.1640    5.8965 O   0  0  0  0  0  0  0  0  0  0  0  0
    4.0652   -3.0769    5.6645 C   0  0  1  0  0  0  0  0  0  0  0  0
    4.4470   -1.8849    6.4121 O   0  0  0  0  0  0  0  0  0  0  0  0
    5.7493   -1.5625    6.9052 C   0  0  0  0  0  0  0  0  0  0  0  0
    5.6444   -0.2184    7.6285 C   0  0  0  0  0  0  0  0  0  0  0  0
    2.6126   -3.2970    6.2888 C   0  0  1  0  0  0  0  0  0  0  0  0
    2.6033   -2.8798    7.7745 C   0  0  0  0  0  0  0  0  0  0  0  0
   -2.0128   -8.1379    4.1628 H   0  0  0  0  0  0  0  0  0  0  0  0
   -1.1472   -7.3428    2.7553 H   0  0  0  0  0  0  0  0  0  0  0  0
    0.7107   -8.4322    6.4171 H   0  0  0  0  0  0  0  0  0  0  0  0
    0.3173   -9.9060    5.5246 H   0  0  0  0  0  0  0  0  0  0  0  0
   -0.9698   -8.8522    6.0526 H   0  0  0  0  0  0  0  0  0  0  0  0
    0.8727   -8.6950    1.8929 H   0  0  0  0  0  0  0  0  0  0  0  0
    0.7852   -6.9667    1.8070 H   0  0  0  0  0  0  0  0  0  0  0  0
    2.7843   -8.6920    0.8957 H   0  0  0  0  0  0  0  0  0  0  0  0
    2.7070   -7.0380    0.6858 H   0  0  0  0  0  0  0  0  0  0  0  0
    4.9419   -8.7807    1.1129 H   0  0  0  0  0  0  0  0  0  0  0  0
    3.5554   -9.7800    2.5763 H   0  0  0  0  0  0  0  0  0  0  0  0
    5.4796   -8.8952    4.7117 H   0  0  0  0  0  0  0  0  0  0  0  0
    5.8148   -9.8159    3.2700 H   0  0  0  0  0  0  0  0  0  0  0  0
    4.7583  -10.4759    4.5070 H   0  0  0  0  0  0  0  0  0  0  0  0
    2.7927   -8.8301    5.2122 H   0  0  0  0  0  0  0  0  0  0  0  0
    2.0158   -9.8079    4.0430 H   0  0  0  0  0  0  0  0  0  0  0  0
    6.1444   -6.8064    2.9474 H   0  0  0  0  0  0  0  0  0  0  0  0
    5.4735   -5.2372    1.8073 H   0  0  0  0  0  0  0  0  0  0  0  0
    2.6190   -4.9910    1.2539 H   0  0  0  0  0  0  0  0  0  0  0  0
    4.0086   -5.5287    0.2810 H   0  0  0  0  0  0  0  0  0  0  0  0
    3.7974   -3.8691    0.5696 H   0  0  0  0  0  0  0  0  0  0  0  0
    5.8304   -3.9149    3.5904 H   0  0  0  0  0  0  0  0  0  0  0  0
    6.1602   -3.3742    1.5785 H   0  0  0  0  0  0  0  0  0  0  0  0
    5.0657   -1.3941    3.1079 H   0  0  0  0  0  0  0  0  0  0  0  0
    1.7119   -1.3951    1.7118 H   0  0  0  0  0  0  0  0  0  0  0  0
    2.1174   -3.0416    1.7441 H   0  0  0  0  0  0  0  0  0  0  0  0
    3.3807   -1.7890    1.5078 H   0  0  0  0  0  0  0  0  0  0  0  0
    3.1688    0.0796    3.5478 H   0  0  0  0  0  0  0  0  0  0  0  0
    1.4902   -0.2200    3.3680 H   0  0  0  0  0  0  0  0  0  0  0  0
    2.8000   -0.4488    6.0538 H   0  0  0  0  0  0  0  0  0  0  0  0
    2.2333    0.9859    5.4085 H   0  0  0  0  0  0  0  0  0  0  0  0
    0.7742   -0.2542    6.9775 H   0  0  0  0  0  0  0  0  0  0  0  0
   -0.7534    0.3626    4.4466 H   0  0  0  0  0  0  0  0  0  0  0  0
    0.2715    2.3066    6.5758 H   0  0  0  0  0  0  0  0  0  0  0  0
   -0.9896    2.6741    5.3978 H   0  0  0  0  0  0  0  0  0  0  0  0
    0.6303    2.3257    4.8378 H   0  0  0  0  0  0  0  0  0  0  0  0
   -1.5713    0.5645    7.3857 H   0  0  0  0  0  0  0  0  0  0  0  0
   -2.1626   -0.6522    6.2351 H   0  0  0  0  0  0  0  0  0  0  0  0
   -2.5664    1.0246    6.0145 H   0  0  0  0  0  0  0  0  0  0  0  0
   -0.0992   -2.2292    6.7687 H   0  0  0  0  0  0  0  0  0  0  0  0
   -0.3810   -2.0397    4.0052 H   0  0  0  0  0  0  0  0  0  0  0  0
    0.7346   -4.3090    6.8330 H   0  0  0  0  0  0  0  0  0  0  0  0
    1.0501   -6.3093    6.1507 H   0  0  0  0  0  0  0  0  0  0  0  0
    0.0636   -5.5359    4.9866 H   0  0  0  0  0  0  0  0  0  0  0  0
    1.6560   -5.6221    3.3017 H   0  0  0  0  0  0  0  0  0  0  0  0
    3.3454   -5.0141    4.4133 H   0  0  0  0  0  0  0  0  0  0  0  0
    3.0785   -7.0023    6.3558 H   0  0  0  0  0  0  0  0  0  0  0  0
    4.6024   -7.3543    5.7265 H   0  0  0  0  0  0  0  0  0  0  0  0
    3.7352   -5.2182    7.4870 H   0  0  0  0  0  0  0  0  0  0  0  0
    5.2977   -5.9457    7.3145 H   0  0  0  0  0  0  0  0  0  0  0  0
    6.1035   -2.2970    7.6296 H   0  0  0  0  0  0  0  0  0  0  0  0
    6.4704   -1.5060    6.0882 H   0  0  0  0  0  0  0  0  0  0  0  0
    6.6091    0.0744    8.0326 H   0  0  0  0  0  0  0  0  0  0  0  0
    4.9357   -0.2907    8.4593 H   0  0  0  0  0  0  0  0  0  0  0  0
    5.2912    0.5625    6.9549 H   0  0  0  0  0  0  0  0  0  0  0  0
    3.4904   -3.2276    8.3084 H   0  0  0  0  0  0  0  0  0  0  0  0
    1.7269   -3.2614    8.3019 H   0  0  0  0  0  0  0  0  0  0  0  0
    2.5603   -1.7918    7.8648 H   0  0  0  0  0  0  0  0  0  0  0  0
  1  2  2  0
  1 46  1  0
  1 47  1  0
  2  3  1  0
  4  2  1  1
  3 48  1  0
  3 49  1  0
  3 50  1  0
  4 11  1  0
  4 34  1  0
  4  5  1  0
  5  6  1  0
  5 51  1  0
  5 52  1  0
  6  7  1  0
  6 53  1  0
  6 54  1  0
  7  8  1  6
  7  9  1  0
  7 12  1  0
  8 55  1  0
  9 10  1  0
  9 11  1  0
  9 56  1  6
 10 57  1  0
 10 58  1  0
 10 59  1  0
 11 60  1  0
 11 61  1  0
 12 35  1  0
 12 13  1  1
 12 14  1  0
 13 62  1  0
 14 15  1  0
 14 16  1  0
 14 63  1  6
 15 64  1  0
 15 65  1  0
 15 66  1  0
 16 17  1  0
 16 18  1  0
 16 67  1  1
 17 68  1  0
 18 40  1  0
 18 19  1  1
 18 20  1  0
 19 69  1  0
 20 31  1  0
 20 21  1  6
 20 22  1  0
 21 70  1  0
 21 71  1  0
 21 72  1  0
 22 23  1  0
 22 73  1  0
 22 74  1  0
 23 24  1  0
 23 75  1  0
 23 76  1  0
 24 25  1  0
 24 28  1  0
 24 77  1  1
 25 26  1  0
 25 27  1  0
 25 78  1  0
 26 79  1  0
 26 80  1  0
 26 81  1  0
 27 82  1  0
 27 83  1  0
 27 84  1  0
 28 29  1  0
 28 30  1  0
 28 85  1  1
 29 86  1  0
 30 44  1  0
 30 31  1  6
 30 32  1  0
 32 44  1  0
 32 33  1  0
 32 87  1  1
 33 34  1  0
 33 88  1  0
 33 89  1  0
 34 35  1  0
 34 90  1  6
 35 36  1  0
 35 91  1  1
 36 37  1  0
 36 92  1  0
 36 93  1  0
 37 38  1  0
 37 94  1  0
 37 95  1  0
 38 39  2  0
 38 40  1  0
 40 41  1  1
 40 44  1  0
 41 42  1  0
 42 43  1  0
 42 96  1  0
 42 97  1  0
 43 98  1  0
 43 99  1  0
 43100  1  0
 44 45  1  1
 45101  1  0
 45102  1  0
 45103  1  0
M  END
>  <i_m_ct_stereo_status>  (129) 
1

>  <s_m_source_file>  (129) 
/var/tmp/pbs.5076255.sched01/tmphf7gnms3/50i7j3xhgh.sdf

>  <i_m_source_file_index>  (129) 
7

>  <i_lp_mmshare_version>  (129) 
48012

>  <i_f3d_flags>  (129) 
0

>  <s_epik_input>  (129) 
Tz1DMVtDSDJdW0NIMl1bQ0BASF0yW0NASF0oW0NIMl0zKVtDQF0oQyg9W0NIMl0pW0NIM10pKFtDSDJdW0NAQEhdNFtDSDNdKVtDSDJdW0NIMl1bQ0BAXTQoW09IXSlbQ0BAXTIoW09IXSlbQ0BASF0oW0NIM10pW0NAQEhdKFtPSF0pW0NAXShbT0hdKShbQ0BdMShbQ0BAXTUoW0NASF0zW0NAXTU2NylbQ0gzXSlPW0NIMl1bQ0gzXSlbQ0BdKE83KShbQ0gzXSlbQ0gyXVtDSDJdW0NAQEhdKFtDSF0oW0NIM10pW0NIM10pW0NASF02W09IXQ==

>  <s_epik_cmdline>  (129) 
J2VwaWtfcHl0aG9uJywgJy1waHQnLCAnMi4wJywgJy1waCcsICc3LjAnLCAnLXRuJywgJzgnLCAnLW1hJywgJzIwMCcsICctaW1hZScsICc8aW5maWxlLm1hZT4nLCAnLW9tYWUnLCAnPG91dGZpbGUubWFlPic=

>  <r_lp_tautomer_probability>  (129) 
1

>  <r_epik_Ionization_Penalty>  (129) 
1.34469e-06

>  <r_epik_Ionization_Penalty_Charging>  (129) 
0

>  <r_epik_Ionization_Penalty_Neutral>  (129) 
1.34469e-06

>  <r_epik_State_Penalty>  (129) 
-0

>  <r_epik_Charging_Adjusted_Penalty>  (129) 
0

>  <i_epik_Tot_Q>  (129) 
0

>  <i_epik_Tot_abs_Q>  (129) 
0

>  <s_lp_Force_Field>  (129) 
OPLS3e

>  <r_lp_Energy>  (129) 
215.697

>  <b_lp_Chiralities_Consistent>  (129) 
1

>  <s_lp_Variant>  (129) 
36:0-1

>  <s_i_glide_gridfile>  (129) 
pfpi4k_grid

>  <i_i_glide_lignum>  (129) 
7

>  <i_i_glide_rotatable_bonds>  (129) 
9

>  <r_i_docking_score>  (129) 
-1.21598

>  <r_i_glide_ligand_efficiency>  (129) 
-0.0270219

>  <r_i_glide_ligand_efficiency_sa>  (129) 
-0.0961139

>  <r_i_glide_ligand_efficiency_ln>  (129) 
-0.252979

>  <r_i_glide_gscore>  (129) 
-1.21598

>  <r_i_glide_lipo>  (129) 
-0.0599631

>  <r_i_glide_hbond>  (129) 
0

>  <r_i_glide_metal>  (129) 
-0

>  <r_i_glide_rewards>  (129) 
-0.000691131

>  <r_i_glide_evdw>  (129) 
-22.2875

>  <r_i_glide_ecoul>  (129) 
-0.981531

>  <r_i_glide_erotb>  (129) 
0.106277

>  <r_i_glide_esite>  (129) 
0

>  <r_i_glide_emodel>  (129) 
-24.2234

>  <r_i_glide_energy>  (129) 
-23.2691

>  <r_i_glide_einternal>  (129) 
0.859524

>  <r_i_glide_intrahb_reward>  (129) 
-0

>  <i_i_glide_confnum>  (129) 
5

>  <i_i_glide_posenum>  (129) 
8

>  <r_i_glide_eff_state_penalty>  (129) 
0

>  <ligand_id>  (129) 
36

>  <original_smiles>  (129) 
C=C(C)C12CCC(O)(C(C)C1)C1(O)C(C)C(O)C3(O)C4(C)CCC(C(C)C)C(O)C5(O4)C4CC2C1CCC(=O)C3(OCC)C45C

>  <smiles>  (129) 
[H]OC1([H])C([H])(C([H])([H])[H])C2(O[H])C3([H])C([H])([H])C([H])([H])C(=O)C4(OC([H])([H])C([H])([H])[H])C1(O[H])C1(C([H])([H])[H])OC5(C([H])(O[H])C([H])(C([H])(C([H])([H])[H])C([H])([H])[H])C([H])([H])C1([H])[H])C([H])(C([H])([H])C3([H])C1(C(=C([H])[H])C([H])([H])[H])C([H])([H])C([H])([H])C2(O[H])C([H])(C([H])([H])[H])C1([H])[H])C45C([H])([H])[H]

$$$$
37:0:0
     RDKit          3D

 54 59  0  0  1  0  0  0  0  0999 V2000
    7.0404  -11.8038    2.1010 C   0  0  0  0  0  0  0  0  0  0  0  0
    6.4061  -10.7913    1.4885 C   0  0  0  0  0  0  0  0  0  0  0  0
    6.4322   -9.3447    1.9465 C   0  0  0  0  0  0  0  0  0  0  0  0
    5.1298   -8.9025    2.5181 N   0  0  1  0  0  0  0  0  0  0  0  0
    4.0000   -8.9650    1.5664 C   0  0  0  0  0  0  0  0  0  0  0  0
    2.7553   -8.2819    2.1586 C   0  0  0  0  0  0  0  0  0  0  0  0
    2.2151   -8.9517    3.4694 C   0  0  1  0  0  0  0  0  0  0  0  0
    3.4825   -9.0666    4.4235 C   0  0  1  0  0  0  0  0  0  0  0  0
    4.7822   -9.5944    3.7769 C   0  0  0  0  0  0  0  0  0  0  0  0
    3.5583   -7.6118    4.9716 C   0  0  0  0  0  0  0  0  0  0  0  0
    4.5775   -6.6710    5.2163 C   0  0  0  0  0  0  0  0  0  0  0  0
    4.2298   -5.2894    5.2256 C   0  0  0  0  0  0  0  0  0  0  0  0
    2.9270   -4.8457    4.8644 C   0  0  0  0  0  0  0  0  0  0  0  0
    2.6721   -3.5164    4.7096 O   0  0  0  0  0  0  0  0  0  0  0  0
    1.9019   -5.7892    4.6199 C   0  0  0  0  0  0  0  0  0  0  0  0
    2.2692   -7.1163    4.8349 C   0  0  0  0  0  0  0  0  0  0  0  0
    1.3574   -8.2396    4.5795 C   0  0  2  0  0  0  0  0  0  0  0  0
    0.9937   -9.0222    5.8759 C   0  0  0  0  0  0  0  0  0  0  0  0
    0.7449  -10.5082    5.5230 C   0  0  0  0  0  0  0  0  0  0  0  0
    0.3236  -10.6636    4.1053 N   0  0  2  0  0  0  0  0  0  0  0  0
    0.6863  -11.9852    3.5454 C   0  0  0  0  0  0  0  0  0  0  0  0
    0.7600   -9.5300    3.2286 C   0  0  1  0  0  0  0  0  0  0  0  0
    0.1607   -8.1554    3.7058 C   0  0  2  0  0  0  0  0  0  0  0  0
    0.1357   -6.8286    2.9790 C   0  0  0  0  0  0  0  0  0  0  0  0
   -0.1820   -6.6192    1.8068 O   0  0  0  0  0  0  0  0  0  0  0  0
    0.5445   -5.6320    3.9031 C   0  0  0  0  0  0  0  0  0  0  0  0
    7.6389  -11.6428    2.9884 H   0  0  0  0  0  0  0  0  0  0  0  0
    6.9569  -12.8138    1.7213 H   0  0  0  0  0  0  0  0  0  0  0  0
    5.8178  -11.0069    0.6066 H   0  0  0  0  0  0  0  0  0  0  0  0
    7.2290   -9.2048    2.6795 H   0  0  0  0  0  0  0  0  0  0  0  0
    6.6970   -8.7203    1.0933 H   0  0  0  0  0  0  0  0  0  0  0  0
    4.2837   -8.4543    0.6470 H   0  0  0  0  0  0  0  0  0  0  0  0
    3.7741   -9.9982    1.3042 H   0  0  0  0  0  0  0  0  0  0  0  0
    2.9705   -7.2232    2.3044 H   0  0  0  0  0  0  0  0  0  0  0  0
    1.9965   -8.3140    1.3741 H   0  0  0  0  0  0  0  0  0  0  0  0
    3.3285   -9.7344    5.2652 H   0  0  0  0  0  0  0  0  0  0  0  0
    4.6747  -10.6623    3.5851 H   0  0  0  0  0  0  0  0  0  0  0  0
    5.6057   -9.4865    4.4830 H   0  0  0  0  0  0  0  0  0  0  0  0
    5.6010   -6.9828    5.3472 H   0  0  0  0  0  0  0  0  0  0  0  0
    5.0014   -4.5614    5.4162 H   0  0  0  0  0  0  0  0  0  0  0  0
    3.4153   -2.9591    4.8848 H   0  0  0  0  0  0  0  0  0  0  0  0
    1.7725   -8.9637    6.6384 H   0  0  0  0  0  0  0  0  0  0  0  0
    0.1031   -8.5962    6.3439 H   0  0  0  0  0  0  0  0  0  0  0  0
    1.6564  -11.0833    5.6814 H   0  0  0  0  0  0  0  0  0  0  0  0
   -0.0084  -10.9484    6.1780 H   0  0  0  0  0  0  0  0  0  0  0  0
    1.7696  -12.0995    3.4690 H   0  0  0  0  0  0  0  0  0  0  0  0
    0.2702  -12.1228    2.5452 H   0  0  0  0  0  0  0  0  0  0  0  0
    0.2985  -12.7825    4.1839 H   0  0  0  0  0  0  0  0  0  0  0  0
    0.5003   -9.7238    2.1850 H   0  0  0  0  0  0  0  0  0  0  0  0
   -0.7589   -8.2967    4.2761 H   0  0  0  0  0  0  0  0  0  0  0  0
   -0.2298   -5.4384    4.6445 H   0  0  0  0  0  0  0  0  0  0  0  0
    0.6047   -4.7368    3.2871 H   0  0  0  0  0  0  0  0  0  0  0  0
    5.2551   -7.9290    2.7538 H   0  0  0  0  0  0  0  0  0  0  0  0
   -0.6951  -10.6515    4.1651 H   0  0  0  0  0  0  0  0  0  0  0  0
  1  2  2  0
  1 27  1  0
  1 28  1  0
  2  3  1  0
  2 29  1  0
  3  4  1  0
  3 30  1  0
  3 31  1  0
  4  9  1  0
  4  5  1  0
  4 53  1  1
  5  6  1  0
  5 32  1  0
  5 33  1  0
  7  6  1  6
  6 34  1  0
  6 35  1  0
  7 17  1  0
  7 22  1  0
  7  8  1  0
  8  9  1  0
  8 10  1  0
  8 36  1  1
  9 37  1  0
  9 38  1  0
 10 16  2  0
 10 11  1  0
 11 12  2  0
 11 39  1  0
 12 13  1  0
 12 40  1  0
 13 14  1  0
 13 15  2  0
 14 41  1  0
 15 26  1  0
 15 16  1  0
 16 17  1  0
 17 23  1  0
 17 18  1  1
 18 19  1  0
 18 42  1  0
 18 43  1  0
 19 20  1  0
 19 44  1  0
 19 45  1  0
 20 21  1  0
 20 22  1  0
 20 54  1  1
 21 46  1  0
 21 47  1  0
 21 48  1  0
 22 23  1  0
 22 49  1  6
 23 24  1  0
 23 50  1  1
 24 25  2  0
 24 26  1  0
 26 51  1  0
 26 52  1  0
M  CHG  2   4   1  20   1
M  END
>  <i_m_ct_stereo_status>  (130) 
1

>  <s_m_source_file>  (130) 
/var/tmp/pbs.5076255.sched01/tmphf7gnms3/50i7j3xhgh.sdf

>  <i_m_source_file_index>  (130) 
8

>  <i_lp_mmshare_version>  (130) 
48012

>  <i_f3d_flags>  (130) 
0

>  <s_epik_input>  (130) 
W0NIMl09W0NIXVtDSDJdTihbQ0gyXVtDSDJdMSlbQ0gyXVtDQEhdMmMoYzNbQ0BAXTQ1W0NAQF0xMjYpW2NIXVtjSF1jKFtPSF0pYzNbQ0gyXUMoPU8pW0NIXTVbQ0BASF02TihbQ0gzXSlbQ0gyXVtDSDJdNA==

>  <s_epik_cmdline>  (130) 
J2VwaWtfcHl0aG9uJywgJy1waHQnLCAnMi4wJywgJy1waCcsICc3LjAnLCAnLXRuJywgJzgnLCAnLW1hJywgJzIwMCcsICctaW1hZScsICc8aW5maWxlLm1hZT4nLCAnLW9tYWUnLCAnPG91dGZpbGUubWFlPic=

>  <r_lp_tautomer_probability>  (130) 
1

>  <r_epik_Ionization_Penalty>  (130) 
0.388164

>  <r_epik_Ionization_Penalty_Charging>  (130) 
0.38699

>  <r_epik_Ionization_Penalty_Neutral>  (130) 
0.00117358

>  <r_epik_State_Penalty>  (130) 
0.32386

>  <r_epik_Charging_Adjusted_Penalty>  (130) 
0.710851

>  <i_epik_Tot_Q>  (130) 
2

>  <i_epik_Tot_abs_Q>  (130) 
2

>  <s_lp_Force_Field>  (130) 
OPLS3e

>  <r_lp_Energy>  (130) 
160.644

>  <b_lp_Chiralities_Consistent>  (130) 
1

>  <s_lp_Variant>  (130) 
37:0-1

>  <s_i_glide_gridfile>  (130) 
pfpi4k_grid

>  <i_i_glide_lignum>  (130) 
8

>  <i_i_glide_rotatable_bonds>  (130) 
3

>  <r_i_docking_score>  (130) 
-3.63177

>  <r_i_glide_ligand_efficiency>  (130) 
-0.139683

>  <r_i_glide_ligand_efficiency_sa>  (130) 
-0.413811

>  <r_i_glide_ligand_efficiency_ln>  (130) 
-0.852909

>  <r_i_glide_gscore>  (130) 
-3.63177

>  <r_i_glide_lipo>  (130) 
-0.0431022

>  <r_i_glide_hbond>  (130) 
-0.420332

>  <r_i_glide_metal>  (130) 
-0

>  <r_i_glide_rewards>  (130) 
-1.00589

>  <r_i_glide_evdw>  (130) 
-18.6978

>  <r_i_glide_ecoul>  (130) 
-9.31246

>  <r_i_glide_erotb>  (130) 
0.307245

>  <r_i_glide_esite>  (130) 
-0.13793

>  <r_i_glide_emodel>  (130) 
-38.1624

>  <r_i_glide_energy>  (130) 
-28.0103

>  <r_i_glide_einternal>  (130) 
0.854146

>  <r_i_glide_intrahb_reward>  (130) 
-0

>  <i_i_glide_confnum>  (130) 
6

>  <i_i_glide_posenum>  (130) 
13

>  <r_i_glide_eff_state_penalty>  (130) 
0

>  <ligand_id>  (130) 
37

>  <original_smiles>  (130) 
C=CCN1CCC23C(C1)c1ccc(O)c4c1C21CCN(C)C3C1C(=O)C4

>  <smiles>  (130) 
[H]Oc1c([H])c([H])c2c3c1C([H])([H])C(=O)C1([H])C34C([H])([H])C([H])([H])[N+]([H])(C([H])([H])[H])C1([H])C41C([H])([H])C([H])([H])[N+]([H])(C([H])([H])C([H])=C([H])[H])C([H])([H])C21[H]

$$$$
37:0:1
     RDKit          3D

 54 59  0  0  1  0  0  0  0  0999 V2000
    4.6964   -0.4887    1.1534 C   0  0  0  0  0  0  0  0  0  0  0  0
    3.6436    0.3330    1.2919 C   0  0  0  0  0  0  0  0  0  0  0  0
    2.3438    0.0025    2.0110 C   0  0  0  0  0  0  0  0  0  0  0  0
    1.9795    1.0174    3.0378 N   0  0  1  0  0  0  0  0  0  0  0  0
    3.0847    1.3788    3.9458 C   0  0  0  0  0  0  0  0  0  0  0  0
    2.5946    2.2555    5.1051 C   0  0  0  0  0  0  0  0  0  0  0  0
    1.9754    3.6246    4.6560 C   0  0  1  0  0  0  0  0  0  0  0  0
    0.9081    3.2444    3.5399 C   0  0  1  0  0  0  0  0  0  0  0  0
    1.3643    2.2319    2.4648 C   0  0  0  0  0  0  0  0  0  0  0  0
   -0.2754    2.7771    4.4331 C   0  0  0  0  0  0  0  0  0  0  0  0
   -1.2005    1.7151    4.4168 C   0  0  0  0  0  0  0  0  0  0  0  0
   -1.7819    1.3124    5.6539 C   0  0  0  0  0  0  0  0  0  0  0  0
   -1.3535    1.8700    6.8964 C   0  0  0  0  0  0  0  0  0  0  0  0
   -1.8036    1.3447    8.0702 O   0  0  0  0  0  0  0  0  0  0  0  0
   -0.4294    2.9330    6.9149 C   0  0  0  0  0  0  0  0  0  0  0  0
   -0.0635    3.4071    5.6564 C   0  0  0  0  0  0  0  0  0  0  0  0
    0.9323    4.4693    5.4755 C   0  0  2  0  0  0  0  0  0  0  0  0
    0.3265    5.7529    4.8378 C   0  0  0  0  0  0  0  0  0  0  0  0
    1.4046    6.4628    3.9829 C   0  0  0  0  0  0  0  0  0  0  0  0
    2.7748    6.1209    4.4463 N   0  0  2  0  0  0  0  0  0  0  0  0
    3.7920    6.2166    3.3753 C   0  0  0  0  0  0  0  0  0  0  0  0
    2.8406    4.8290    5.2059 C   0  0  1  0  0  0  0  0  0  0  0  0
    1.9366    4.8523    6.4989 C   0  0  2  0  0  0  0  0  0  0  0  0
    1.9069    3.8800    7.6621 C   0  0  0  0  0  0  0  0  0  0  0  0
    2.8699    3.4103    8.2722 O   0  0  0  0  0  0  0  0  0  0  0  0
    0.4504    3.4827    8.0667 C   0  0  0  0  0  0  0  0  0  0  0  0
    4.6967   -1.4950    1.5545 H   0  0  0  0  0  0  0  0  0  0  0  0
    5.5858   -0.1501    0.6354 H   0  0  0  0  0  0  0  0  0  0  0  0
    3.7161    1.3253    0.8778 H   0  0  0  0  0  0  0  0  0  0  0  0
    1.5412   -0.0989    1.2796 H   0  0  0  0  0  0  0  0  0  0  0  0
    2.4415   -0.9756    2.4812 H   0  0  0  0  0  0  0  0  0  0  0  0
    3.5445    0.4736    4.3393 H   0  0  0  0  0  0  0  0  0  0  0  0
    3.8391    1.9236    3.3908 H   0  0  0  0  0  0  0  0  0  0  0  0
    1.9028    1.6748    5.7166 H   0  0  0  0  0  0  0  0  0  0  0  0
    3.4701    2.4268    5.7363 H   0  0  0  0  0  0  0  0  0  0  0  0
    0.5780    4.0974    2.9567 H   0  0  0  0  0  0  0  0  0  0  0  0
    2.0671    2.7195    1.7890 H   0  0  0  0  0  0  0  0  0  0  0  0
    0.5042    1.9492    1.8583 H   0  0  0  0  0  0  0  0  0  0  0  0
   -1.4292    1.1926    3.4997 H   0  0  0  0  0  0  0  0  0  0  0  0
   -2.4886    0.5020    5.6572 H   0  0  0  0  0  0  0  0  0  0  0  0
   -1.4865    1.8044    8.8381 H   0  0  0  0  0  0  0  0  0  0  0  0
   -0.5400    5.5374    4.2086 H   0  0  0  0  0  0  0  0  0  0  0  0
   -0.0381    6.4276    5.6176 H   0  0  0  0  0  0  0  0  0  0  0  0
    1.2984    6.1691    2.9371 H   0  0  0  0  0  0  0  0  0  0  0  0
    1.2717    7.5446    4.0118 H   0  0  0  0  0  0  0  0  0  0  0  0
    3.6415    5.4414    2.6186 H   0  0  0  0  0  0  0  0  0  0  0  0
    4.7958    6.1198    3.7930 H   0  0  0  0  0  0  0  0  0  0  0  0
    3.7596    7.1912    2.8827 H   0  0  0  0  0  0  0  0  0  0  0  0
    3.8704    4.5826    5.4704 H   0  0  0  0  0  0  0  0  0  0  0  0
    1.7704    5.8710    6.8539 H   0  0  0  0  0  0  0  0  0  0  0  0
   -0.0580    4.3224    8.5385 H   0  0  0  0  0  0  0  0  0  0  0  0
    0.5258    2.7100    8.8268 H   0  0  0  0  0  0  0  0  0  0  0  0
    1.2663    0.5837    3.6033 H   0  0  0  0  0  0  0  0  0  0  0  0
    3.0212    6.8461    5.1058 H   0  0  0  0  0  0  0  0  0  0  0  0
  1  2  2  0
  1 27  1  0
  1 28  1  0
  2  3  1  0
  2 29  1  0
  3  4  1  0
  3 30  1  0
  3 31  1  0
  4  9  1  0
  4  5  1  0
  4 53  1  1
  5  6  1  0
  5 32  1  0
  5 33  1  0
  7  6  1  1
  6 34  1  0
  6 35  1  0
  7 17  1  0
  7 22  1  0
  7  8  1  0
  8  9  1  0
  8 10  1  0
  8 36  1  6
  9 37  1  0
  9 38  1  0
 10 16  2  0
 10 11  1  0
 11 12  2  0
 11 39  1  0
 12 13  1  0
 12 40  1  0
 13 14  1  0
 13 15  2  0
 14 41  1  0
 15 26  1  0
 15 16  1  0
 16 17  1  0
 17 23  1  0
 17 18  1  6
 18 19  1  0
 18 42  1  0
 18 43  1  0
 19 20  1  0
 19 44  1  0
 19 45  1  0
 20 21  1  0
 20 22  1  0
 20 54  1  1
 21 46  1  0
 21 47  1  0
 21 48  1  0
 22 23  1  0
 22 49  1  1
 23 24  1  0
 23 50  1  1
 24 25  2  0
 24 26  1  0
 26 51  1  0
 26 52  1  0
M  CHG  2   4   1  20   1
M  END
>  <i_m_ct_stereo_status>  (131) 
1

>  <s_m_source_file>  (131) 
/var/tmp/pbs.5076255.sched01/tmphf7gnms3/50i7j3xhgh.sdf

>  <i_m_source_file_index>  (131) 
8

>  <i_lp_mmshare_version>  (131) 
48012

>  <i_f3d_flags>  (131) 
0

>  <s_epik_input>  (131) 
W0NIMl09W0NIXVtDSDJdTihbQ0gyXVtDSDJdMSlbQ0gyXVtDQEhdMmMoYzNbQ0BAXTQ1W0NAQF0xMjYpW2NIXVtjSF1jKFtPSF0pYzNbQ0gyXUMoPU8pW0NIXTVbQ0BASF02TihbQ0gzXSlbQ0gyXVtDSDJdNA==

>  <s_epik_cmdline>  (131) 
J2VwaWtfcHl0aG9uJywgJy1waHQnLCAnMi4wJywgJy1waCcsICc3LjAnLCAnLXRuJywgJzgnLCAnLW1hJywgJzIwMCcsICctaW1hZScsICc8aW5maWxlLm1hZT4nLCAnLW9tYWUnLCAnPG91dGZpbGUubWFlPic=

>  <r_lp_tautomer_probability>  (131) 
1

>  <r_epik_Ionization_Penalty>  (131) 
0.388164

>  <r_epik_Ionization_Penalty_Charging>  (131) 
0.38699

>  <r_epik_Ionization_Penalty_Neutral>  (131) 
0.00117358

>  <r_epik_State_Penalty>  (131) 
0.32386

>  <r_epik_Charging_Adjusted_Penalty>  (131) 
0.710851

>  <i_epik_Tot_Q>  (131) 
2

>  <i_epik_Tot_abs_Q>  (131) 
2

>  <s_lp_Force_Field>  (131) 
OPLS3e

>  <r_lp_Energy>  (131) 
160.644

>  <b_lp_Chiralities_Consistent>  (131) 
1

>  <s_lp_Variant>  (131) 
37:0-1

>  <s_i_glide_gridfile>  (131) 
pfpi4k_grid

>  <i_i_glide_lignum>  (131) 
8

>  <i_i_glide_rotatable_bonds>  (131) 
3

>  <r_i_docking_score>  (131) 
-3.14236

>  <r_i_glide_ligand_efficiency>  (131) 
-0.12086

>  <r_i_glide_ligand_efficiency_sa>  (131) 
-0.358047

>  <r_i_glide_ligand_efficiency_ln>  (131) 
-0.737972

>  <r_i_glide_gscore>  (131) 
-3.14236

>  <r_i_glide_lipo>  (131) 
-0.275676

>  <r_i_glide_hbond>  (131) 
-0.085503

>  <r_i_glide_metal>  (131) 
-0

>  <r_i_glide_rewards>  (131) 
-1.00589

>  <r_i_glide_evdw>  (131) 
-17.2725

>  <r_i_glide_ecoul>  (131) 
-8.01981

>  <r_i_glide_erotb>  (131) 
0.307245

>  <r_i_glide_esite>  (131) 
-0.0159405

>  <r_i_glide_emodel>  (131) 
-33.5677

>  <r_i_glide_energy>  (131) 
-25.2923

>  <r_i_glide_einternal>  (131) 
1.56809

>  <r_i_glide_intrahb_reward>  (131) 
-0

>  <i_i_glide_confnum>  (131) 
6

>  <i_i_glide_posenum>  (131) 
14

>  <r_i_glide_eff_state_penalty>  (131) 
0

>  <ligand_id>  (131) 
37

>  <original_smiles>  (131) 
C=CCN1CCC23C(C1)c1ccc(O)c4c1C21CCN(C)C3C1C(=O)C4

>  <smiles>  (131) 
[H]Oc1c([H])c([H])c2c3c1C([H])([H])C(=O)C1([H])C34C([H])([H])C([H])([H])[N+]([H])(C([H])([H])[H])C1([H])C41C([H])([H])C([H])([H])[N+]([H])(C([H])([H])C([H])=C([H])[H])C([H])([H])C21[H]

$$$$
37:0:2
     RDKit          3D

 54 59  0  0  1  0  0  0  0  0999 V2000
    8.1725   -5.9447    2.1776 C   0  0  0  0  0  0  0  0  0  0  0  0
    6.8588   -5.6912    2.0318 C   0  0  0  0  0  0  0  0  0  0  0  0
    5.8870   -6.6006    1.2954 C   0  0  0  0  0  0  0  0  0  0  0  0
    4.7659   -7.0875    2.1477 N   0  0  1  0  0  0  0  0  0  0  0  0
    3.7401   -7.7960    1.3526 C   0  0  0  0  0  0  0  0  0  0  0  0
    2.5019   -8.1137    2.2099 C   0  0  0  0  0  0  0  0  0  0  0  0
    2.7850   -9.0673    3.4201 C   0  0  1  0  0  0  0  0  0  0  0  0
    4.0361   -8.4242    4.1617 C   0  0  1  0  0  0  0  0  0  0  0  0
    5.2049   -7.9513    3.2661 C   0  0  0  0  0  0  0  0  0  0  0  0
    3.3307   -7.2973    4.9720 C   0  0  0  0  0  0  0  0  0  0  0  0
    3.5930   -5.9455    5.2664 C   0  0  0  0  0  0  0  0  0  0  0  0
    2.4902   -5.1036    5.5935 C   0  0  0  0  0  0  0  0  0  0  0  0
    1.1460   -5.5604    5.4942 C   0  0  0  0  0  0  0  0  0  0  0  0
    0.1148   -4.6823    5.6414 O   0  0  0  0  0  0  0  0  0  0  0  0
    0.8780   -6.9176    5.1982 C   0  0  0  0  0  0  0  0  0  0  0  0
    2.0139   -7.7217    5.0972 C   0  0  0  0  0  0  0  0  0  0  0  0
    1.9439   -9.1457    4.7459 C   0  0  2  0  0  0  0  0  0  0  0  0
    2.4353  -10.0726    5.8969 C   0  0  0  0  0  0  0  0  0  0  0  0
    3.0667  -11.3549    5.2967 C   0  0  0  0  0  0  0  0  0  0  0  0
    2.5308  -11.6342    3.9358 N   0  0  2  0  0  0  0  0  0  0  0  0
    3.4841  -12.3779    3.0820 C   0  0  0  0  0  0  0  0  0  0  0  0
    1.9716  -10.4159    3.2575 C   0  0  1  0  0  0  0  0  0  0  0  0
    0.7802   -9.7771    4.0672 C   0  0  2  0  0  0  0  0  0  0  0  0
   -0.2159   -8.7181    3.6277 C   0  0  0  0  0  0  0  0  0  0  0  0
   -0.8343   -8.6499    2.5655 O   0  0  0  0  0  0  0  0  0  0  0  0
   -0.4160   -7.6092    4.7131 C   0  0  0  0  0  0  0  0  0  0  0  0
    8.6326   -6.8423    1.7787 H   0  0  0  0  0  0  0  0  0  0  0  0
    8.8199   -5.2524    2.7039 H   0  0  0  0  0  0  0  0  0  0  0  0
    6.4615   -4.7769    2.4509 H   0  0  0  0  0  0  0  0  0  0  0  0
    5.4933   -6.0257    0.4568 H   0  0  0  0  0  0  0  0  0  0  0  0
    6.4283   -7.4481    0.8786 H   0  0  0  0  0  0  0  0  0  0  0  0
    3.4340   -7.1555    0.5260 H   0  0  0  0  0  0  0  0  0  0  0  0
    4.1588   -8.7036    0.9126 H   0  0  0  0  0  0  0  0  0  0  0  0
    2.0516   -7.1757    2.5337 H   0  0  0  0  0  0  0  0  0  0  0  0
    1.7686   -8.5601    1.5344 H   0  0  0  0  0  0  0  0  0  0  0  0
    4.5111   -9.0992    4.8661 H   0  0  0  0  0  0  0  0  0  0  0  0
    5.7307   -8.8154    2.8590 H   0  0  0  0  0  0  0  0  0  0  0  0
    5.9246   -7.4161    3.8844 H   0  0  0  0  0  0  0  0  0  0  0  0
    4.5924   -5.5473    5.2020 H   0  0  0  0  0  0  0  0  0  0  0  0
    2.6830   -4.0687    5.8262 H   0  0  0  0  0  0  0  0  0  0  0  0
    0.3981   -3.8005    5.8264 H   0  0  0  0  0  0  0  0  0  0  0  0
    3.1614   -9.5895    6.5518 H   0  0  0  0  0  0  0  0  0  0  0  0
    1.5953  -10.3260    6.5451 H   0  0  0  0  0  0  0  0  0  0  0  0
    4.1460  -11.2282    5.2241 H   0  0  0  0  0  0  0  0  0  0  0  0
    2.9315  -12.2205    5.9459 H   0  0  0  0  0  0  0  0  0  0  0  0
    4.3532  -11.7712    2.8316 H   0  0  0  0  0  0  0  0  0  0  0  0
    3.0012  -12.6902    2.1570 H   0  0  0  0  0  0  0  0  0  0  0  0
    3.8290  -13.2844    3.5821 H   0  0  0  0  0  0  0  0  0  0  0  0
    1.6564  -10.6412    2.2370 H   0  0  0  0  0  0  0  0  0  0  0  0
    0.2935  -10.5117    4.7134 H   0  0  0  0  0  0  0  0  0  0  0  0
   -0.9490   -8.0214    5.5678 H   0  0  0  0  0  0  0  0  0  0  0  0
   -1.0617   -6.8429    4.2872 H   0  0  0  0  0  0  0  0  0  0  0  0
    4.3209   -6.2730    2.5515 H   0  0  0  0  0  0  0  0  0  0  0  0
    1.7580  -12.2748    4.0708 H   0  0  0  0  0  0  0  0  0  0  0  0
  1  2  2  0
  1 27  1  0
  1 28  1  0
  2  3  1  0
  2 29  1  0
  3  4  1  0
  3 30  1  0
  3 31  1  0
  4  9  1  0
  4  5  1  0
  4 53  1  1
  5  6  1  0
  5 32  1  0
  5 33  1  0
  7  6  1  6
  6 34  1  0
  6 35  1  0
  7 17  1  0
  7 22  1  0
  7  8  1  0
  8  9  1  0
  8 10  1  0
  8 36  1  1
  9 37  1  0
  9 38  1  0
 10 16  2  0
 10 11  1  0
 11 12  2  0
 11 39  1  0
 12 13  1  0
 12 40  1  0
 13 14  1  0
 13 15  2  0
 14 41  1  0
 15 26  1  0
 15 16  1  0
 16 17  1  0
 17 23  1  0
 17 18  1  1
 18 19  1  0
 18 42  1  0
 18 43  1  0
 19 20  1  0
 19 44  1  0
 19 45  1  0
 20 21  1  0
 20 22  1  0
 20 54  1  1
 21 46  1  0
 21 47  1  0
 21 48  1  0
 22 23  1  0
 22 49  1  6
 23 24  1  0
 23 50  1  1
 24 25  2  0
 24 26  1  0
 26 51  1  0
 26 52  1  0
M  CHG  2   4   1  20   1
M  END
>  <i_m_ct_stereo_status>  (132) 
1

>  <s_m_source_file>  (132) 
/var/tmp/pbs.5076255.sched01/tmphf7gnms3/50i7j3xhgh.sdf

>  <i_m_source_file_index>  (132) 
8

>  <i_lp_mmshare_version>  (132) 
48012

>  <i_f3d_flags>  (132) 
0

>  <s_epik_input>  (132) 
W0NIMl09W0NIXVtDSDJdTihbQ0gyXVtDSDJdMSlbQ0gyXVtDQEhdMmMoYzNbQ0BAXTQ1W0NAQF0xMjYpW2NIXVtjSF1jKFtPSF0pYzNbQ0gyXUMoPU8pW0NIXTVbQ0BASF02TihbQ0gzXSlbQ0gyXVtDSDJdNA==

>  <s_epik_cmdline>  (132) 
J2VwaWtfcHl0aG9uJywgJy1waHQnLCAnMi4wJywgJy1waCcsICc3LjAnLCAnLXRuJywgJzgnLCAnLW1hJywgJzIwMCcsICctaW1hZScsICc8aW5maWxlLm1hZT4nLCAnLW9tYWUnLCAnPG91dGZpbGUubWFlPic=

>  <r_lp_tautomer_probability>  (132) 
1

>  <r_epik_Ionization_Penalty>  (132) 
0.388164

>  <r_epik_Ionization_Penalty_Charging>  (132) 
0.38699

>  <r_epik_Ionization_Penalty_Neutral>  (132) 
0.00117358

>  <r_epik_State_Penalty>  (132) 
0.32386

>  <r_epik_Charging_Adjusted_Penalty>  (132) 
0.710851

>  <i_epik_Tot_Q>  (132) 
2

>  <i_epik_Tot_abs_Q>  (132) 
2

>  <s_lp_Force_Field>  (132) 
OPLS3e

>  <r_lp_Energy>  (132) 
160.644

>  <b_lp_Chiralities_Consistent>  (132) 
1

>  <s_lp_Variant>  (132) 
37:0-1

>  <s_i_glide_gridfile>  (132) 
pfpi4k_grid

>  <i_i_glide_lignum>  (132) 
8

>  <i_i_glide_rotatable_bonds>  (132) 
3

>  <r_i_docking_score>  (132) 
-2.92965

>  <r_i_glide_ligand_efficiency>  (132) 
-0.112679

>  <r_i_glide_ligand_efficiency_sa>  (132) 
-0.333811

>  <r_i_glide_ligand_efficiency_ln>  (132) 
-0.688019

>  <r_i_glide_gscore>  (132) 
-2.92965

>  <r_i_glide_lipo>  (132) 
-0.231893

>  <r_i_glide_hbond>  (132) 
0

>  <r_i_glide_metal>  (132) 
-0

>  <r_i_glide_rewards>  (132) 
-1.00589

>  <r_i_glide_evdw>  (132) 
-17.8172

>  <r_i_glide_ecoul>  (132) 
-6.93201

>  <r_i_glide_erotb>  (132) 
0.307245

>  <r_i_glide_esite>  (132) 
-0.0684554

>  <r_i_glide_emodel>  (132) 
-33.2247

>  <r_i_glide_energy>  (132) 
-24.7492

>  <r_i_glide_einternal>  (132) 
0.00779646

>  <r_i_glide_intrahb_reward>  (132) 
-0

>  <i_i_glide_confnum>  (132) 
6

>  <i_i_glide_posenum>  (132) 
18

>  <r_i_glide_eff_state_penalty>  (132) 
0

>  <ligand_id>  (132) 
37

>  <original_smiles>  (132) 
C=CCN1CCC23C(C1)c1ccc(O)c4c1C21CCN(C)C3C1C(=O)C4

>  <smiles>  (132) 
[H]Oc1c([H])c([H])c2c3c1C([H])([H])C(=O)C1([H])C34C([H])([H])C([H])([H])[N+]([H])(C([H])([H])[H])C1([H])C41C([H])([H])C([H])([H])[N+]([H])(C([H])([H])C([H])=C([H])[H])C([H])([H])C21[H]

$$$$
37:1:0
     RDKit          3D

 54 59  0  0  1  0  0  0  0  0999 V2000
    2.0672  -10.8221    3.0122 C   0  0  0  0  0  0  0  0  0  0  0  0
    1.8411   -9.7209    2.2790 C   0  0  0  0  0  0  0  0  0  0  0  0
    1.5303   -8.3511    2.8609 C   0  0  0  0  0  0  0  0  0  0  0  0
    2.4573   -7.2900    2.3600 N   0  0  1  0  0  0  0  0  0  0  0  0
    1.8523   -6.4665    1.2901 C   0  0  0  0  0  0  0  0  0  0  0  0
    2.8809   -5.4914    0.6867 C   0  0  0  0  0  0  0  0  0  0  0  0
    3.4536   -4.4274    1.6819 C   0  0  2  0  0  0  0  0  0  0  0  0
    3.9169   -5.3052    2.9464 C   0  0  1  0  0  0  0  0  0  0  0  0
    2.9308   -6.3930    3.4366 C   0  0  0  0  0  0  0  0  0  0  0  0
    5.3202   -5.8585    2.5516 C   0  0  0  0  0  0  0  0  0  0  0  0
    6.1563   -6.9567    2.8231 C   0  0  0  0  0  0  0  0  0  0  0  0
    7.4033   -7.0365    2.1322 C   0  0  0  0  0  0  0  0  0  0  0  0
    7.8214   -6.0519    1.1720 C   0  0  0  0  0  0  0  0  0  0  0  0
    9.0108   -6.1996    0.5176 O   0  0  0  0  0  0  0  0  0  0  0  0
    6.9995   -4.9254    0.9194 C   0  0  0  0  0  0  0  0  0  0  0  0
    5.8173   -4.9398    1.6608 C   0  0  0  0  0  0  0  0  0  0  0  0
    4.8962   -3.8502    1.6054 C   0  0  2  0  0  0  0  0  0  0  0  0
    5.3690   -2.8311    2.7306 C   0  0  0  0  0  0  0  0  0  0  0  0
    4.2075   -1.9274    3.1193 C   0  0  0  0  0  0  0  0  0  0  0  0
    3.4152   -1.6888    1.9036 N   0  0  2  0  0  0  0  0  0  0  0  0
    2.0852   -1.1013    2.1983 C   0  0  0  0  0  0  0  0  0  0  0  0
    3.3590   -2.9182    1.0422 C   0  0  1  0  0  0  0  0  0  0  0  0
    4.6553   -3.3262    0.2403 C   0  0  1  0  0  0  0  0  0  0  0  0
    5.9615   -2.6490   -0.1098 C   0  0  0  0  0  0  0  0  0  0  0  0
    6.1782   -1.4635   -0.3617 O   0  0  0  0  0  0  0  0  0  0  0  0
    7.1549   -3.6818   -0.0283 C   0  0  0  0  0  0  0  0  0  0  0  0
    2.0578  -10.8125    4.0958 H   0  0  0  0  0  0  0  0  0  0  0  0
    2.2668  -11.7747    2.5364 H   0  0  0  0  0  0  0  0  0  0  0  0
    1.8610   -9.8097    1.2019 H   0  0  0  0  0  0  0  0  0  0  0  0
    0.4944   -8.1165    2.6207 H   0  0  0  0  0  0  0  0  0  0  0  0
    1.5687   -8.4302    3.9488 H   0  0  0  0  0  0  0  0  0  0  0  0
    1.4644   -7.1199    0.5098 H   0  0  0  0  0  0  0  0  0  0  0  0
    0.9942   -5.9250    1.6910 H   0  0  0  0  0  0  0  0  0  0  0  0
    3.6866   -6.0749    0.2365 H   0  0  0  0  0  0  0  0  0  0  0  0
    2.3794   -4.9986   -0.1499 H   0  0  0  0  0  0  0  0  0  0  0  0
    4.0430   -4.6906    3.8314 H   0  0  0  0  0  0  0  0  0  0  0  0
    2.0661   -5.9208    3.9075 H   0  0  0  0  0  0  0  0  0  0  0  0
    3.4116   -6.9852    4.2150 H   0  0  0  0  0  0  0  0  0  0  0  0
    5.8731   -7.7180    3.5374 H   0  0  0  0  0  0  0  0  0  0  0  0
    8.0663   -7.8639    2.3296 H   0  0  0  0  0  0  0  0  0  0  0  0
    9.5764   -6.9031    0.8615 H   0  0  0  0  0  0  0  0  0  0  0  0
    5.7195   -3.3362    3.6310 H   0  0  0  0  0  0  0  0  0  0  0  0
    6.2199   -2.2196    2.4240 H   0  0  0  0  0  0  0  0  0  0  0  0
    3.5770   -2.4206    3.8603 H   0  0  0  0  0  0  0  0  0  0  0  0
    4.5509   -0.9888    3.5554 H   0  0  0  0  0  0  0  0  0  0  0  0
    1.4546   -1.8016    2.7482 H   0  0  0  0  0  0  0  0  0  0  0  0
    1.5683   -0.8144    1.2800 H   0  0  0  0  0  0  0  0  0  0  0  0
    2.1968   -0.1992    2.8033 H   0  0  0  0  0  0  0  0  0  0  0  0
    2.5307   -2.8156    0.3358 H   0  0  0  0  0  0  0  0  0  0  0  0
    4.4312   -4.0988   -0.4909 H   0  0  0  0  0  0  0  0  0  0  0  0
    8.0562   -3.1542    0.2770 H   0  0  0  0  0  0  0  0  0  0  0  0
    7.3527   -4.0277   -1.0403 H   0  0  0  0  0  0  0  0  0  0  0  0
    3.2741   -7.7563    1.9850 H   0  0  0  0  0  0  0  0  0  0  0  0
    3.9062   -0.9892    1.3608 H   0  0  0  0  0  0  0  0  0  0  0  0
  1  2  2  0
  1 27  1  0
  1 28  1  0
  2  3  1  0
  2 29  1  0
  3  4  1  0
  3 30  1  0
  3 31  1  0
  4  9  1  0
  4  5  1  0
  4 53  1  6
  5  6  1  0
  5 32  1  0
  5 33  1  0
  7  6  1  6
  6 34  1  0
  6 35  1  0
  7 17  1  0
  7 22  1  0
  7  8  1  0
  8  9  1  0
  8 10  1  0
  8 36  1  1
  9 37  1  0
  9 38  1  0
 10 16  2  0
 10 11  1  0
 11 12  2  0
 11 39  1  0
 12 13  1  0
 12 40  1  0
 13 14  1  0
 13 15  2  0
 14 41  1  0
 15 26  1  0
 15 16  1  0
 16 17  1  0
 17 23  1  0
 17 18  1  1
 18 19  1  0
 18 42  1  0
 18 43  1  0
 19 20  1  0
 19 44  1  0
 19 45  1  0
 20 21  1  0
 20 22  1  0
 20 54  1  6
 21 46  1  0
 21 47  1  0
 21 48  1  0
 22 23  1  0
 22 49  1  6
 23 24  1  0
 23 50  1  6
 24 25  2  0
 24 26  1  0
 26 51  1  0
 26 52  1  0
M  CHG  2   4   1  20   1
M  END
>  <i_m_ct_stereo_status>  (133) 
1

>  <s_m_source_file>  (133) 
/var/tmp/pbs.5076255.sched01/tmphf7gnms3/50i7j3xhgh.sdf

>  <i_m_source_file_index>  (133) 
9

>  <i_lp_mmshare_version>  (133) 
48012

>  <i_f3d_flags>  (133) 
0

>  <s_epik_input>  (133) 
W0NIMl09W0NIXVtDSDJdTihbQ0gyXVtDSDJdMSlbQ0gyXVtDQEhdMmMoYzNbQ0BAXTQ1W0NAQF0xMjYpW2NIXVtjSF1jKFtPSF0pYzNbQ0gyXUMoPU8pW0NIXTVbQ0BASF02TihbQ0gzXSlbQ0gyXVtDSDJdNA==

>  <s_epik_cmdline>  (133) 
J2VwaWtfcHl0aG9uJywgJy1waHQnLCAnMi4wJywgJy1waCcsICc3LjAnLCAnLXRuJywgJzgnLCAnLW1hJywgJzIwMCcsICctaW1hZScsICc8aW5maWxlLm1hZT4nLCAnLW9tYWUnLCAnPG91dGZpbGUubWFlPic=

>  <r_lp_tautomer_probability>  (133) 
1

>  <r_epik_Ionization_Penalty>  (133) 
0.388164

>  <r_epik_Ionization_Penalty_Charging>  (133) 
0.38699

>  <r_epik_Ionization_Penalty_Neutral>  (133) 
0.00117358

>  <r_epik_State_Penalty>  (133) 
0.32386

>  <r_epik_Charging_Adjusted_Penalty>  (133) 
0.710851

>  <i_epik_Tot_Q>  (133) 
2

>  <i_epik_Tot_abs_Q>  (133) 
2

>  <s_lp_Force_Field>  (133) 
OPLS3e

>  <r_lp_Energy>  (133) 
178.928

>  <b_lp_Chiralities_Consistent>  (133) 
1

>  <s_lp_Variant>  (133) 
37:0-2

>  <s_i_glide_gridfile>  (133) 
pfpi4k_grid

>  <i_i_glide_lignum>  (133) 
9

>  <i_i_glide_rotatable_bonds>  (133) 
3

>  <r_i_docking_score>  (133) 
-4.25531

>  <r_i_glide_ligand_efficiency>  (133) 
-0.163666

>  <r_i_glide_ligand_efficiency_sa>  (133) 
-0.484859

>  <r_i_glide_ligand_efficiency_ln>  (133) 
-0.999345

>  <r_i_glide_gscore>  (133) 
-4.25531

>  <r_i_glide_lipo>  (133) 
-0.591143

>  <r_i_glide_hbond>  (133) 
-0.226907

>  <r_i_glide_metal>  (133) 
-0

>  <r_i_glide_rewards>  (133) 
-1.02697

>  <r_i_glide_evdw>  (133) 
-19.3771

>  <r_i_glide_ecoul>  (133) 
-10.9214

>  <r_i_glide_erotb>  (133) 
0.215071

>  <r_i_glide_esite>  (133) 
-0.0182926

>  <r_i_glide_emodel>  (133) 
-38.4525

>  <r_i_glide_energy>  (133) 
-30.2985

>  <r_i_glide_einternal>  (133) 
2.19549

>  <r_i_glide_intrahb_reward>  (133) 
-0

>  <i_i_glide_confnum>  (133) 
3

>  <i_i_glide_posenum>  (133) 
21

>  <r_i_glide_eff_state_penalty>  (133) 
0

>  <ligand_id>  (133) 
37

>  <original_smiles>  (133) 
C=CCN1CCC23C(C1)c1ccc(O)c4c1C21CCN(C)C3C1C(=O)C4

>  <smiles>  (133) 
[H]Oc1c([H])c([H])c2c3c1C([H])([H])C(=O)C1([H])C34C([H])([H])C([H])([H])[N+]([H])(C([H])([H])[H])C1([H])C41C([H])([H])C([H])([H])[N+]([H])(C([H])([H])C([H])=C([H])[H])C([H])([H])C21[H]

$$$$
37:1:1
     RDKit          3D

 54 59  0  0  1  0  0  0  0  0999 V2000
    2.8301  -10.7086    2.6804 C   0  0  0  0  0  0  0  0  0  0  0  0
    3.6336   -9.6370    2.5606 C   0  0  0  0  0  0  0  0  0  0  0  0
    3.4469   -8.3487    3.3440 C   0  0  0  0  0  0  0  0  0  0  0  0
    3.8539   -7.1391    2.5758 N   0  0  1  0  0  0  0  0  0  0  0  0
    2.8248   -6.6998    1.6127 C   0  0  0  0  0  0  0  0  0  0  0  0
    3.3518   -5.5486    0.7344 C   0  0  0  0  0  0  0  0  0  0  0  0
    3.7174   -4.2337    1.5048 C   0  0  2  0  0  0  0  0  0  0  0  0
    4.6711   -4.7487    2.6929 C   0  0  1  0  0  0  0  0  0  0  0  0
    4.2029   -6.0087    3.4602 C   0  0  0  0  0  0  0  0  0  0  0  0
    6.0813   -4.8962    2.0324 C   0  0  0  0  0  0  0  0  0  0  0  0
    7.2701   -5.6377    2.1769 C   0  0  0  0  0  0  0  0  0  0  0  0
    8.3244   -5.4043    1.2352 C   0  0  0  0  0  0  0  0  0  0  0  0
    8.2079   -4.4514    0.1707 C   0  0  0  0  0  0  0  0  0  0  0  0
    9.2263   -4.2552   -0.7140 O   0  0  0  0  0  0  0  0  0  0  0  0
    7.0199   -3.7075    0.0198 C   0  0  0  0  0  0  0  0  0  0  0  0
    6.0728   -3.9972    0.9953 C   0  0  0  0  0  0  0  0  0  0  0  0
    4.8532   -3.2604    1.0734 C   0  0  2  0  0  0  0  0  0  0  0  0
    5.1677   -1.9978    1.9901 C   0  0  0  0  0  0  0  0  0  0  0  0
    3.8676   -1.4457    2.5595 C   0  0  0  0  0  0  0  0  0  0  0  0
    2.8295   -1.6314    1.5356 N   0  0  2  0  0  0  0  0  0  0  0  0
    1.4654   -1.4464    2.0837 C   0  0  0  0  0  0  0  0  0  0  0  0
    3.0191   -2.9263    0.7979 C   0  0  1  0  0  0  0  0  0  0  0  0
    4.2023   -3.0324   -0.2379 C   0  0  1  0  0  0  0  0  0  0  0  0
    5.1217   -2.0518   -0.9189 C   0  0  0  0  0  0  0  0  0  0  0  0
    4.8925   -0.9028   -1.2926 O   0  0  0  0  0  0  0  0  0  0  0  0
    6.5763   -2.6476   -1.0395 C   0  0  0  0  0  0  0  0  0  0  0  0
    1.9816  -10.7281    3.3528 H   0  0  0  0  0  0  0  0  0  0  0  0
    3.0153  -11.6041    2.1022 H   0  0  0  0  0  0  0  0  0  0  0  0
    4.4706   -9.7096    1.8779 H   0  0  0  0  0  0  0  0  0  0  0  0
    2.4095   -8.2703    3.6749 H   0  0  0  0  0  0  0  0  0  0  0  0
    4.0507   -8.4502    4.2463 H   0  0  0  0  0  0  0  0  0  0  0  0
    2.5512   -7.5413    0.9774 H   0  0  0  0  0  0  0  0  0  0  0  0
    1.9220   -6.3998    2.1490 H   0  0  0  0  0  0  0  0  0  0  0  0
    4.2079   -5.9125    0.1605 H   0  0  0  0  0  0  0  0  0  0  0  0
    2.5735   -5.3489   -0.0059 H   0  0  0  0  0  0  0  0  0  0  0  0
    4.7566   -4.0072    3.4834 H   0  0  0  0  0  0  0  0  0  0  0  0
    3.3368   -5.7611    4.0778 H   0  0  0  0  0  0  0  0  0  0  0  0
    4.9917   -6.3125    4.1504 H   0  0  0  0  0  0  0  0  0  0  0  0
    7.3911   -6.3417    2.9860 H   0  0  0  0  0  0  0  0  0  0  0  0
    9.2395   -5.9657    1.3449 H   0  0  0  0  0  0  0  0  0  0  0  0
    9.1180   -3.5574   -1.3530 H   0  0  0  0  0  0  0  0  0  0  0  0
    5.8250   -2.2428    2.8257 H   0  0  0  0  0  0  0  0  0  0  0  0
    5.7001   -1.2042    1.4603 H   0  0  0  0  0  0  0  0  0  0  0  0
    3.5867   -2.0057    3.4535 H   0  0  0  0  0  0  0  0  0  0  0  0
    3.9611   -0.3970    2.8445 H   0  0  0  0  0  0  0  0  0  0  0  0
    1.2129   -2.2278    2.8045 H   0  0  0  0  0  0  0  0  0  0  0  0
    0.7224   -1.4533    1.2854 H   0  0  0  0  0  0  0  0  0  0  0  0
    1.3852   -0.4778    2.5827 H   0  0  0  0  0  0  0  0  0  0  0  0
    2.0930   -3.1784    0.2789 H   0  0  0  0  0  0  0  0  0  0  0  0
    4.1102   -3.9286   -0.8512 H   0  0  0  0  0  0  0  0  0  0  0  0
    7.2994   -1.8422   -0.9630 H   0  0  0  0  0  0  0  0  0  0  0  0
    6.6970   -3.0730   -2.0383 H   0  0  0  0  0  0  0  0  0  0  0  0
    4.6921   -7.3771    2.0615 H   0  0  0  0  0  0  0  0  0  0  0  0
    2.9386   -0.9004    0.8430 H   0  0  0  0  0  0  0  0  0  0  0  0
  1  2  2  0
  1 27  1  0
  1 28  1  0
  2  3  1  0
  2 29  1  0
  3  4  1  0
  3 30  1  0
  3 31  1  0
  4  9  1  0
  4  5  1  0
  4 53  1  6
  5  6  1  0
  5 32  1  0
  5 33  1  0
  7  6  1  6
  6 34  1  0
  6 35  1  0
  7 17  1  0
  7 22  1  0
  7  8  1  0
  8  9  1  0
  8 10  1  0
  8 36  1  1
  9 37  1  0
  9 38  1  0
 10 16  2  0
 10 11  1  0
 11 12  2  0
 11 39  1  0
 12 13  1  0
 12 40  1  0
 13 14  1  0
 13 15  2  0
 14 41  1  0
 15 26  1  0
 15 16  1  0
 16 17  1  0
 17 23  1  0
 17 18  1  1
 18 19  1  0
 18 42  1  0
 18 43  1  0
 19 20  1  0
 19 44  1  0
 19 45  1  0
 20 21  1  0
 20 22  1  0
 20 54  1  6
 21 46  1  0
 21 47  1  0
 21 48  1  0
 22 23  1  0
 22 49  1  6
 23 24  1  0
 23 50  1  6
 24 25  2  0
 24 26  1  0
 26 51  1  0
 26 52  1  0
M  CHG  2   4   1  20   1
M  END
>  <i_m_ct_stereo_status>  (134) 
1

>  <s_m_source_file>  (134) 
/var/tmp/pbs.5076255.sched01/tmphf7gnms3/50i7j3xhgh.sdf

>  <i_m_source_file_index>  (134) 
9

>  <i_lp_mmshare_version>  (134) 
48012

>  <i_f3d_flags>  (134) 
0

>  <s_epik_input>  (134) 
W0NIMl09W0NIXVtDSDJdTihbQ0gyXVtDSDJdMSlbQ0gyXVtDQEhdMmMoYzNbQ0BAXTQ1W0NAQF0xMjYpW2NIXVtjSF1jKFtPSF0pYzNbQ0gyXUMoPU8pW0NIXTVbQ0BASF02TihbQ0gzXSlbQ0gyXVtDSDJdNA==

>  <s_epik_cmdline>  (134) 
J2VwaWtfcHl0aG9uJywgJy1waHQnLCAnMi4wJywgJy1waCcsICc3LjAnLCAnLXRuJywgJzgnLCAnLW1hJywgJzIwMCcsICctaW1hZScsICc8aW5maWxlLm1hZT4nLCAnLW9tYWUnLCAnPG91dGZpbGUubWFlPic=

>  <r_lp_tautomer_probability>  (134) 
1

>  <r_epik_Ionization_Penalty>  (134) 
0.388164

>  <r_epik_Ionization_Penalty_Charging>  (134) 
0.38699

>  <r_epik_Ionization_Penalty_Neutral>  (134) 
0.00117358

>  <r_epik_State_Penalty>  (134) 
0.32386

>  <r_epik_Charging_Adjusted_Penalty>  (134) 
0.710851

>  <i_epik_Tot_Q>  (134) 
2

>  <i_epik_Tot_abs_Q>  (134) 
2

>  <s_lp_Force_Field>  (134) 
OPLS3e

>  <r_lp_Energy>  (134) 
178.928

>  <b_lp_Chiralities_Consistent>  (134) 
1

>  <s_lp_Variant>  (134) 
37:0-2

>  <s_i_glide_gridfile>  (134) 
pfpi4k_grid

>  <i_i_glide_lignum>  (134) 
9

>  <i_i_glide_rotatable_bonds>  (134) 
3

>  <r_i_docking_score>  (134) 
-3.84505

>  <r_i_glide_ligand_efficiency>  (134) 
-0.147887

>  <r_i_glide_ligand_efficiency_sa>  (134) 
-0.438114

>  <r_i_glide_ligand_efficiency_ln>  (134) 
-0.902998

>  <r_i_glide_gscore>  (134) 
-3.84505

>  <r_i_glide_lipo>  (134) 
-0.588654

>  <r_i_glide_hbond>  (134) 
-0.142993

>  <r_i_glide_metal>  (134) 
-0

>  <r_i_glide_rewards>  (134) 
-1.00589

>  <r_i_glide_evdw>  (134) 
-18.8106

>  <r_i_glide_ecoul>  (134) 
-8.80141

>  <r_i_glide_erotb>  (134) 
0.215071

>  <r_i_glide_esite>  (134) 
-0.0618481

>  <r_i_glide_emodel>  (134) 
-34.9585

>  <r_i_glide_energy>  (134) 
-27.612

>  <r_i_glide_einternal>  (134) 
1.96471

>  <r_i_glide_intrahb_reward>  (134) 
-0

>  <i_i_glide_confnum>  (134) 
3

>  <i_i_glide_posenum>  (134) 
15

>  <r_i_glide_eff_state_penalty>  (134) 
0

>  <ligand_id>  (134) 
37

>  <original_smiles>  (134) 
C=CCN1CCC23C(C1)c1ccc(O)c4c1C21CCN(C)C3C1C(=O)C4

>  <smiles>  (134) 
[H]Oc1c([H])c([H])c2c3c1C([H])([H])C(=O)C1([H])C34C([H])([H])C([H])([H])[N+]([H])(C([H])([H])[H])C1([H])C41C([H])([H])C([H])([H])[N+]([H])(C([H])([H])C([H])=C([H])[H])C([H])([H])C21[H]

$$$$
37:1:2
     RDKit          3D

 54 59  0  0  1  0  0  0  0  0999 V2000
   -1.8555    3.1643    4.9769 C   0  0  0  0  0  0  0  0  0  0  0  0
   -1.5430    2.3529    3.9507 C   0  0  0  0  0  0  0  0  0  0  0  0
   -0.3991    2.5805    2.9733 C   0  0  0  0  0  0  0  0  0  0  0  0
    0.6202    1.4965    2.9882 N   0  0  1  0  0  0  0  0  0  0  0  0
    0.1383    0.2503    2.3614 C   0  0  0  0  0  0  0  0  0  0  0  0
    1.1511   -0.8911    2.5580 C   0  0  0  0  0  0  0  0  0  0  0  0
    2.5410   -0.6684    1.8792 C   0  0  2  0  0  0  0  0  0  0  0  0
    2.9681    0.7980    2.3760 C   0  0  1  0  0  0  0  0  0  0  0  0
    1.8771    1.8996    2.3274 C   0  0  0  0  0  0  0  0  0  0  0  0
    3.5761    0.5659    3.8003 C   0  0  0  0  0  0  0  0  0  0  0  0
    3.7621    1.2516    5.0162 C   0  0  0  0  0  0  0  0  0  0  0  0
    4.3733    0.5426    6.0992 C   0  0  0  0  0  0  0  0  0  0  0  0
    4.7907   -0.8206    5.9859 C   0  0  0  0  0  0  0  0  0  0  0  0
    5.3572   -1.4551    7.0498 O   0  0  0  0  0  0  0  0  0  0  0  0
    4.6273   -1.5144    4.7646 C   0  0  0  0  0  0  0  0  0  0  0  0
    4.0430   -0.7265    3.7787 C   0  0  0  0  0  0  0  0  0  0  0  0
    3.8846   -1.2105    2.4454 C   0  0  2  0  0  0  0  0  0  0  0  0
    5.2316   -0.8393    1.6844 C   0  0  0  0  0  0  0  0  0  0  0  0
    4.9793   -0.8241    0.1818 C   0  0  0  0  0  0  0  0  0  0  0  0
    3.9988   -1.8788   -0.1060 N   0  0  2  0  0  0  0  0  0  0  0  0
    3.4262   -1.7652   -1.4698 C   0  0  0  0  0  0  0  0  0  0  0  0
    2.9683   -1.9721    0.9814 C   0  0  1  0  0  0  0  0  0  0  0  0
    3.3933   -2.6050    2.3631 C   0  0  1  0  0  0  0  0  0  0  0  0
    4.5675   -3.4137    2.8547 C   0  0  0  0  0  0  0  0  0  0  0  0
    5.2333   -4.2472    2.2413 O   0  0  0  0  0  0  0  0  0  0  0  0
    4.9675   -2.9801    4.3208 C   0  0  0  0  0  0  0  0  0  0  0  0
   -1.2829    4.0568    5.1961 H   0  0  0  0  0  0  0  0  0  0  0  0
   -2.6985    2.9394    5.6184 H   0  0  0  0  0  0  0  0  0  0  0  0
   -2.1611    1.4799    3.7887 H   0  0  0  0  0  0  0  0  0  0  0  0
   -0.8403    2.6524    1.9844 H   0  0  0  0  0  0  0  0  0  0  0  0
    0.0637    3.5450    3.1938 H   0  0  0  0  0  0  0  0  0  0  0  0
   -0.7963   -0.0371    2.8371 H   0  0  0  0  0  0  0  0  0  0  0  0
   -0.0736    0.4181    1.3020 H   0  0  0  0  0  0  0  0  0  0  0  0
    1.2677   -1.0713    3.6288 H   0  0  0  0  0  0  0  0  0  0  0  0
    0.6783   -1.7919    2.1626 H   0  0  0  0  0  0  0  0  0  0  0  0
    3.7458    1.2108    1.7423 H   0  0  0  0  0  0  0  0  0  0  0  0
    1.6624    2.1664    1.2915 H   0  0  0  0  0  0  0  0  0  0  0  0
    2.2657    2.8046    2.7982 H   0  0  0  0  0  0  0  0  0  0  0  0
    3.4631    2.2823    5.1227 H   0  0  0  0  0  0  0  0  0  0  0  0
    4.5305    1.0557    7.0355 H   0  0  0  0  0  0  0  0  0  0  0  0
    5.5799   -2.3571    6.8824 H   0  0  0  0  0  0  0  0  0  0  0  0
    5.6178    0.1387    1.9729 H   0  0  0  0  0  0  0  0  0  0  0  0
    6.0534   -1.5208    1.9129 H   0  0  0  0  0  0  0  0  0  0  0  0
    4.5645    0.1379   -0.1197 H   0  0  0  0  0  0  0  0  0  0  0  0
    5.8987   -0.9807   -0.3821 H   0  0  0  0  0  0  0  0  0  0  0  0
    2.8415   -0.8526   -1.5836 H   0  0  0  0  0  0  0  0  0  0  0  0
    2.7856   -2.6195   -1.7053 H   0  0  0  0  0  0  0  0  0  0  0  0
    4.2246   -1.7360   -2.2139 H   0  0  0  0  0  0  0  0  0  0  0  0
    2.1041   -2.5180    0.6005 H   0  0  0  0  0  0  0  0  0  0  0  0
    2.5255   -2.8066    2.9901 H   0  0  0  0  0  0  0  0  0  0  0  0
    6.0398   -3.1087    4.4482 H   0  0  0  0  0  0  0  0  0  0  0  0
    4.5025   -3.6699    5.0266 H   0  0  0  0  0  0  0  0  0  0  0  0
    0.8391    1.3065    3.9557 H   0  0  0  0  0  0  0  0  0  0  0  0
    4.4951   -2.7598   -0.0903 H   0  0  0  0  0  0  0  0  0  0  0  0
  1  2  2  0
  1 27  1  0
  1 28  1  0
  2  3  1  0
  2 29  1  0
  3  4  1  0
  3 30  1  0
  3 31  1  0
  4  9  1  0
  4  5  1  0
  4 53  1  1
  5  6  1  0
  5 32  1  0
  5 33  1  0
  7  6  1  1
  6 34  1  0
  6 35  1  0
  7 17  1  0
  7 22  1  0
  7  8  1  0
  8  9  1  0
  8 10  1  0
  8 36  1  6
  9 37  1  0
  9 38  1  0
 10 16  2  0
 10 11  1  0
 11 12  2  0
 11 39  1  0
 12 13  1  0
 12 40  1  0
 13 14  1  0
 13 15  2  0
 14 41  1  0
 15 26  1  0
 15 16  1  0
 16 17  1  0
 17 23  1  0
 17 18  1  6
 18 19  1  0
 18 42  1  0
 18 43  1  0
 19 20  1  0
 19 44  1  0
 19 45  1  0
 20 21  1  0
 20 22  1  0
 20 54  1  6
 21 46  1  0
 21 47  1  0
 21 48  1  0
 22 23  1  0
 22 49  1  6
 23 24  1  0
 23 50  1  1
 24 25  2  0
 24 26  1  0
 26 51  1  0
 26 52  1  0
M  CHG  2   4   1  20   1
M  END
>  <i_m_ct_stereo_status>  (135) 
1

>  <s_m_source_file>  (135) 
/var/tmp/pbs.5076255.sched01/tmphf7gnms3/50i7j3xhgh.sdf

>  <i_m_source_file_index>  (135) 
9

>  <i_lp_mmshare_version>  (135) 
48012

>  <i_f3d_flags>  (135) 
0

>  <s_epik_input>  (135) 
W0NIMl09W0NIXVtDSDJdTihbQ0gyXVtDSDJdMSlbQ0gyXVtDQEhdMmMoYzNbQ0BAXTQ1W0NAQF0xMjYpW2NIXVtjSF1jKFtPSF0pYzNbQ0gyXUMoPU8pW0NIXTVbQ0BASF02TihbQ0gzXSlbQ0gyXVtDSDJdNA==

>  <s_epik_cmdline>  (135) 
J2VwaWtfcHl0aG9uJywgJy1waHQnLCAnMi4wJywgJy1waCcsICc3LjAnLCAnLXRuJywgJzgnLCAnLW1hJywgJzIwMCcsICctaW1hZScsICc8aW5maWxlLm1hZT4nLCAnLW9tYWUnLCAnPG91dGZpbGUubWFlPic=

>  <r_lp_tautomer_probability>  (135) 
1

>  <r_epik_Ionization_Penalty>  (135) 
0.388164

>  <r_epik_Ionization_Penalty_Charging>  (135) 
0.38699

>  <r_epik_Ionization_Penalty_Neutral>  (135) 
0.00117358

>  <r_epik_State_Penalty>  (135) 
0.32386

>  <r_epik_Charging_Adjusted_Penalty>  (135) 
0.710851

>  <i_epik_Tot_Q>  (135) 
2

>  <i_epik_Tot_abs_Q>  (135) 
2

>  <s_lp_Force_Field>  (135) 
OPLS3e

>  <r_lp_Energy>  (135) 
178.928

>  <b_lp_Chiralities_Consistent>  (135) 
1

>  <s_lp_Variant>  (135) 
37:0-2

>  <s_i_glide_gridfile>  (135) 
pfpi4k_grid

>  <i_i_glide_lignum>  (135) 
9

>  <i_i_glide_rotatable_bonds>  (135) 
3

>  <r_i_docking_score>  (135) 
-3.1545

>  <r_i_glide_ligand_efficiency>  (135) 
-0.121327

>  <r_i_glide_ligand_efficiency_sa>  (135) 
-0.359431

>  <r_i_glide_ligand_efficiency_ln>  (135) 
-0.740824

>  <r_i_glide_gscore>  (135) 
-3.1545

>  <r_i_glide_lipo>  (135) 
-0.339507

>  <r_i_glide_hbond>  (135) 
0

>  <r_i_glide_metal>  (135) 
-0

>  <r_i_glide_rewards>  (135) 
-1.03596

>  <r_i_glide_evdw>  (135) 
-18.7952

>  <r_i_glide_ecoul>  (135) 
-7.16913

>  <r_i_glide_erotb>  (135) 
0.307245

>  <r_i_glide_esite>  (135) 
-0.0711539

>  <r_i_glide_emodel>  (135) 
-32.7494

>  <r_i_glide_energy>  (135) 
-25.9643

>  <r_i_glide_einternal>  (135) 
0.327074

>  <r_i_glide_intrahb_reward>  (135) 
-0

>  <i_i_glide_confnum>  (135) 
3

>  <i_i_glide_posenum>  (135) 
3

>  <r_i_glide_eff_state_penalty>  (135) 
0

>  <ligand_id>  (135) 
37

>  <original_smiles>  (135) 
C=CCN1CCC23C(C1)c1ccc(O)c4c1C21CCN(C)C3C1C(=O)C4

>  <smiles>  (135) 
[H]Oc1c([H])c([H])c2c3c1C([H])([H])C(=O)C1([H])C34C([H])([H])C([H])([H])[N+]([H])(C([H])([H])[H])C1([H])C41C([H])([H])C([H])([H])[N+]([H])(C([H])([H])C([H])=C([H])[H])C([H])([H])C21[H]

$$$$
37:2:0
     RDKit          3D

 53 58  0  0  1  0  0  0  0  0999 V2000
    2.9736   -4.1600   -0.1029 C   0  0  0  0  0  0  0  0  0  0  0  0
    3.0193   -5.3250    0.5595 C   0  0  0  0  0  0  0  0  0  0  0  0
    3.1608   -5.4447    2.0712 C   0  0  0  0  0  0  0  0  0  0  0  0
    2.0677   -6.1956    2.6942 N   0  0  0  0  0  0  0  0  0  0  0  0
    2.0919   -6.1520    4.1520 C   0  0  0  0  0  0  0  0  0  0  0  0
    3.1811   -7.0603    4.7592 C   0  0  0  0  0  0  0  0  0  0  0  0
    2.9790   -8.5774    4.4402 C   0  0  1  0  0  0  0  0  0  0  0  0
    2.8346   -8.6320    2.8597 C   0  0  1  0  0  0  0  0  0  0  0  0
    1.8802   -7.5747    2.2419 C   0  0  0  0  0  0  0  0  0  0  0  0
    4.3375   -8.6204    2.4122 C   0  0  0  0  0  0  0  0  0  0  0  0
    5.1153   -8.0110    1.4047 C   0  0  0  0  0  0  0  0  0  0  0  0
    6.5042   -7.7966    1.6517 C   0  0  0  0  0  0  0  0  0  0  0  0
    7.0945   -8.0716    2.9137 C   0  0  0  0  0  0  0  0  0  0  0  0
    8.3938   -7.7316    3.1546 O   0  0  0  0  0  0  0  0  0  0  0  0
    6.3233   -8.6838    3.9295 C   0  0  0  0  0  0  0  0  0  0  0  0
    5.0295   -9.0377    3.5415 C   0  0  0  0  0  0  0  0  0  0  0  0
    4.0842   -9.6910    4.4534 C   0  0  2  0  0  0  0  0  0  0  0  0
    3.7088  -11.1290    3.9863 C   0  0  0  0  0  0  0  0  0  0  0  0
    2.2586  -11.4521    4.4272 C   0  0  0  0  0  0  0  0  0  0  0  0
    1.8584  -10.6461    5.6120 N   0  0  2  0  0  0  0  0  0  0  0  0
    0.4017  -10.4004    5.6716 C   0  0  0  0  0  0  0  0  0  0  0  0
    2.6571   -9.3836    5.7630 C   0  0  1  0  0  0  0  0  0  0  0  0
    4.2003   -9.6648    5.9337 C   0  0  2  0  0  0  0  0  0  0  0  0
    5.3048   -8.7152    6.3565 C   0  0  0  0  0  0  0  0  0  0  0  0
    5.2872   -7.9158    7.2957 O   0  0  0  0  0  0  0  0  0  0  0  0
    6.5761   -8.8317    5.4499 C   0  0  0  0  0  0  0  0  0  0  0  0
    3.0273   -3.2158    0.4205 H   0  0  0  0  0  0  0  0  0  0  0  0
    2.8829   -4.1351   -1.1824 H   0  0  0  0  0  0  0  0  0  0  0  0
    2.9666   -6.2312   -0.0259 H   0  0  0  0  0  0  0  0  0  0  0  0
    4.1160   -5.9029    2.3040 H   0  0  0  0  0  0  0  0  0  0  0  0
    3.2179   -4.4431    2.4956 H   0  0  0  0  0  0  0  0  0  0  0  0
    2.2473   -5.1235    4.4716 H   0  0  0  0  0  0  0  0  0  0  0  0
    1.1111   -6.4428    4.5297 H   0  0  0  0  0  0  0  0  0  0  0  0
    4.1665   -6.7028    4.4629 H   0  0  0  0  0  0  0  0  0  0  0  0
    3.1386   -6.8932    5.8384 H   0  0  0  0  0  0  0  0  0  0  0  0
    2.4150   -9.5702    2.5058 H   0  0  0  0  0  0  0  0  0  0  0  0
    0.8592   -7.8466    2.5153 H   0  0  0  0  0  0  0  0  0  0  0  0
    1.8984   -7.6458    1.1598 H   0  0  0  0  0  0  0  0  0  0  0  0
    4.6579   -7.6548    0.4993 H   0  0  0  0  0  0  0  0  0  0  0  0
    7.0980   -7.3195    0.8890 H   0  0  0  0  0  0  0  0  0  0  0  0
    8.9199   -7.5571    2.3843 H   0  0  0  0  0  0  0  0  0  0  0  0
    3.7904  -11.2528    2.9032 H   0  0  0  0  0  0  0  0  0  0  0  0
    4.4029  -11.8608    4.4059 H   0  0  0  0  0  0  0  0  0  0  0  0
    1.5745  -11.2415    3.6048 H   0  0  0  0  0  0  0  0  0  0  0  0
    2.1439  -12.5152    4.6455 H   0  0  0  0  0  0  0  0  0  0  0  0
    0.0647   -9.7668    4.8473 H   0  0  0  0  0  0  0  0  0  0  0  0
    0.1258   -9.9177    6.6123 H   0  0  0  0  0  0  0  0  0  0  0  0
   -0.1319  -11.3532    5.6298 H   0  0  0  0  0  0  0  0  0  0  0  0
    2.2814   -8.7841    6.5954 H   0  0  0  0  0  0  0  0  0  0  0  0
    4.3792  -10.6648    6.3369 H   0  0  0  0  0  0  0  0  0  0  0  0
    7.0817   -9.7803    5.6328 H   0  0  0  0  0  0  0  0  0  0  0  0
    7.2715   -8.0490    5.7493 H   0  0  0  0  0  0  0  0  0  0  0  0
    2.0197  -11.2449    6.4209 H   0  0  0  0  0  0  0  0  0  0  0  0
  1  2  2  0
  1 27  1  0
  1 28  1  0
  2  3  1  0
  2 29  1  0
  3  4  1  0
  3 30  1  0
  3 31  1  0
  4  9  1  0
  4  5  1  0
  5  6  1  0
  5 32  1  0
  5 33  1  0
  7  6  1  1
  6 34  1  0
  6 35  1  0
  7 17  1  0
  7 22  1  0
  7  8  1  0
  8  9  1  0
  8 10  1  0
  8 36  1  1
  9 37  1  0
  9 38  1  0
 10 16  2  0
 10 11  1  0
 11 12  2  0
 11 39  1  0
 12 13  1  0
 12 40  1  0
 13 14  1  0
 13 15  2  0
 14 41  1  0
 15 26  1  0
 15 16  1  0
 16 17  1  0
 17 23  1  0
 17 18  1  6
 18 19  1  0
 18 42  1  0
 18 43  1  0
 19 20  1  0
 19 44  1  0
 19 45  1  0
 20 21  1  0
 20 22  1  0
 20 53  1  1
 21 46  1  0
 21 47  1  0
 21 48  1  0
 22 23  1  0
 22 49  1  1
 23 24  1  0
 23 50  1  1
 24 25  2  0
 24 26  1  0
 26 51  1  0
 26 52  1  0
M  CHG  1  20   1
M  END
>  <i_m_ct_stereo_status>  (136) 
1

>  <s_m_source_file>  (136) 
/var/tmp/pbs.5076255.sched01/tmphf7gnms3/50i7j3xhgh.sdf

>  <i_m_source_file_index>  (136) 
10

>  <i_lp_mmshare_version>  (136) 
48012

>  <i_f3d_flags>  (136) 
0

>  <s_epik_input>  (136) 
W0NIMl09W0NIXVtDSDJdTihbQ0gyXVtDSDJdMSlbQ0gyXVtDQEhdMmMoYzNbQ0BAXTQ1W0NAQF0xMjYpW2NIXVtjSF1jKFtPSF0pYzNbQ0gyXUMoPU8pW0NIXTVbQ0BASF02TihbQ0gzXSlbQ0gyXVtDSDJdNA==

>  <s_epik_cmdline>  (136) 
J2VwaWtfcHl0aG9uJywgJy1waHQnLCAnMi4wJywgJy1waCcsICc3LjAnLCAnLXRuJywgJzgnLCAnLW1hJywgJzIwMCcsICctaW1hZScsICc8aW5maWxlLm1hZT4nLCAnLW9tYWUnLCAnPG91dGZpbGUubWFlPic=

>  <r_epik_Ionization_Penalty>  (136) 
0.733496

>  <r_epik_Ionization_Penalty_Charging>  (136) 
0.0328766

>  <r_epik_Ionization_Penalty_Neutral>  (136) 
0.700619

>  <r_epik_State_Penalty>  (136) 
0.8397

>  <r_epik_Charging_Adjusted_Penalty>  (136) 
0.872577

>  <i_epik_Tot_Q>  (136) 
1

>  <i_epik_Tot_abs_Q>  (136) 
1

>  <s_lp_Force_Field>  (136) 
OPLS3e

>  <r_lp_Energy>  (136) 
151.178

>  <b_lp_Chiralities_Consistent>  (136) 
1

>  <s_lp_Variant>  (136) 
37:0-3

>  <s_i_glide_gridfile>  (136) 
pfpi4k_grid

>  <i_i_glide_lignum>  (136) 
10

>  <i_i_glide_rotatable_bonds>  (136) 
3

>  <r_i_docking_score>  (136) 
-3.37718

>  <r_i_glide_ligand_efficiency>  (136) 
-0.129891

>  <r_i_glide_ligand_efficiency_sa>  (136) 
-0.384803

>  <r_i_glide_ligand_efficiency_ln>  (136) 
-0.793119

>  <r_i_glide_gscore>  (136) 
-3.37718

>  <r_i_glide_lipo>  (136) 
-0.226703

>  <r_i_glide_hbond>  (136) 
-0.260528

>  <r_i_glide_metal>  (136) 
-0

>  <r_i_glide_rewards>  (136) 
-1.01276

>  <r_i_glide_evdw>  (136) 
-15.3298

>  <r_i_glide_ecoul>  (136) 
-8.9033

>  <r_i_glide_erotb>  (136) 
0.308814

>  <r_i_glide_esite>  (136) 
-0.0840156

>  <r_i_glide_emodel>  (136) 
-32.6362

>  <r_i_glide_energy>  (136) 
-24.2331

>  <r_i_glide_einternal>  (136) 
0.567299

>  <r_i_glide_intrahb_reward>  (136) 
-0

>  <i_i_glide_confnum>  (136) 
1

>  <i_i_glide_posenum>  (136) 
11

>  <r_i_glide_eff_state_penalty>  (136) 
0

>  <ligand_id>  (136) 
37

>  <original_smiles>  (136) 
C=CCN1CCC23C(C1)c1ccc(O)c4c1C21CCN(C)C3C1C(=O)C4

>  <smiles>  (136) 
[H]Oc1c([H])c([H])c2c3c1C([H])([H])C(=O)C1([H])C34C([H])([H])C([H])([H])[N+]([H])(C([H])([H])[H])C1([H])C41C([H])([H])C([H])([H])N(C([H])([H])C([H])=C([H])[H])C([H])([H])C21[H]

$$$$
37:2:1
     RDKit          3D

 53 58  0  0  1  0  0  0  0  0999 V2000
    2.0255   -4.1769   -0.4668 C   0  0  0  0  0  0  0  0  0  0  0  0
    1.8222   -5.3099    0.2211 C   0  0  0  0  0  0  0  0  0  0  0  0
    1.8491   -5.4230    1.7451 C   0  0  0  0  0  0  0  0  0  0  0  0
    1.0117   -6.5032    2.2796 N   0  0  0  0  0  0  0  0  0  0  0  0
    1.0181   -6.5705    3.7411 C   0  0  0  0  0  0  0  0  0  0  0  0
    2.3269   -7.1621    4.3142 C   0  0  0  0  0  0  0  0  0  0  0  0
    2.5952   -8.6384    3.8736 C   0  0  1  0  0  0  0  0  0  0  0  0
    2.4811   -8.6015    2.2928 C   0  0  1  0  0  0  0  0  0  0  0  0
    1.2429   -7.8484    1.7416 C   0  0  0  0  0  0  0  0  0  0  0  0
    3.9103   -8.0921    1.8949 C   0  0  0  0  0  0  0  0  0  0  0  0
    4.4752   -7.1943    0.9616 C   0  0  0  0  0  0  0  0  0  0  0  0
    5.7322   -6.5934    1.2672 C   0  0  0  0  0  0  0  0  0  0  0  0
    6.3699   -6.7886    2.5215 C   0  0  0  0  0  0  0  0  0  0  0  0
    7.4945   -6.0858    2.8321 O   0  0  0  0  0  0  0  0  0  0  0  0
    5.8228   -7.6966    3.4562 C   0  0  0  0  0  0  0  0  0  0  0  0
    4.6950   -8.3837    3.0036 C   0  0  0  0  0  0  0  0  0  0  0  0
    3.9856   -9.3646    3.8325 C   0  0  2  0  0  0  0  0  0  0  0  0
    4.0672  -10.7999    3.2409 C   0  0  0  0  0  0  0  0  0  0  0  0
    2.7815  -11.5862    3.6100 C   0  0  0  0  0  0  0  0  0  0  0  0
    2.1415  -11.0404    4.8416 N   0  0  2  0  0  0  0  0  0  0  0  0
    0.6751  -11.2560    4.8714 C   0  0  0  0  0  0  0  0  0  0  0  0
    2.5226   -9.6124    5.1169 C   0  0  1  0  0  0  0  0  0  0  0  0
    4.0815   -9.4320    5.3121 C   0  0  2  0  0  0  0  0  0  0  0  0
    4.8477   -8.2344    5.8403 C   0  0  0  0  0  0  0  0  0  0  0  0
    4.5847   -7.5593    6.8375 O   0  0  0  0  0  0  0  0  0  0  0  0
    6.1004   -7.8874    4.9673 C   0  0  0  0  0  0  0  0  0  0  0  0
    2.2204   -3.2330    0.0268 H   0  0  0  0  0  0  0  0  0  0  0  0
    1.9981   -4.1876   -1.5497 H   0  0  0  0  0  0  0  0  0  0  0  0
    1.6512   -6.1935   -0.3714 H   0  0  0  0  0  0  0  0  0  0  0  0
    2.8768   -5.5508    2.0693 H   0  0  0  0  0  0  0  0  0  0  0  0
    1.5396   -4.4691    2.1720 H   0  0  0  0  0  0  0  0  0  0  0  0
    0.8553   -5.5753    4.1509 H   0  0  0  0  0  0  0  0  0  0  0  0
    0.1714   -7.1749    4.0696 H   0  0  0  0  0  0  0  0  0  0  0  0
    3.1639   -6.5047    4.0826 H   0  0  0  0  0  0  0  0  0  0  0  0
    2.2306   -7.1087    5.4023 H   0  0  0  0  0  0  0  0  0  0  0  0
    2.3719   -9.5892    1.8511 H   0  0  0  0  0  0  0  0  0  0  0  0
    0.3538   -8.4336    1.9897 H   0  0  0  0  0  0  0  0  0  0  0  0
    1.2709   -7.8657    0.6609 H   0  0  0  0  0  0  0  0  0  0  0  0
    3.9431   -6.9159    0.0710 H   0  0  0  0  0  0  0  0  0  0  0  0
    6.1632   -5.8982    0.5629 H   0  0  0  0  0  0  0  0  0  0  0  0
    7.8966   -6.3413    3.6457 H   0  0  0  0  0  0  0  0  0  0  0  0
    4.1867  -10.7920    2.1558 H   0  0  0  0  0  0  0  0  0  0  0  0
    4.9491  -11.3233    3.6170 H   0  0  0  0  0  0  0  0  0  0  0  0
    2.0688  -11.5193    2.7874 H   0  0  0  0  0  0  0  0  0  0  0  0
    3.0053  -12.6477    3.7283 H   0  0  0  0  0  0  0  0  0  0  0  0
    0.1770  -10.6736    4.0930 H   0  0  0  0  0  0  0  0  0  0  0  0
    0.2596  -10.9578    5.8373 H   0  0  0  0  0  0  0  0  0  0  0  0
    0.4364  -12.3129    4.7227 H   0  0  0  0  0  0  0  0  0  0  0  0
    1.9786   -9.2291    5.9833 H   0  0  0  0  0  0  0  0  0  0  0  0
    4.5555  -10.3623    5.6381 H   0  0  0  0  0  0  0  0  0  0  0  0
    6.8675   -8.6527    5.0925 H   0  0  0  0  0  0  0  0  0  0  0  0
    6.5204   -6.9589    5.3526 H   0  0  0  0  0  0  0  0  0  0  0  0
    2.4925  -11.5921    5.6143 H   0  0  0  0  0  0  0  0  0  0  0  0
  1  2  2  0
  1 27  1  0
  1 28  1  0
  2  3  1  0
  2 29  1  0
  3  4  1  0
  3 30  1  0
  3 31  1  0
  4  9  1  0
  4  5  1  0
  5  6  1  0
  5 32  1  0
  5 33  1  0
  7  6  1  1
  6 34  1  0
  6 35  1  0
  7 17  1  0
  7 22  1  0
  7  8  1  0
  8  9  1  0
  8 10  1  0
  8 36  1  6
  9 37  1  0
  9 38  1  0
 10 16  2  0
 10 11  1  0
 11 12  2  0
 11 39  1  0
 12 13  1  0
 12 40  1  0
 13 14  1  0
 13 15  2  0
 14 41  1  0
 15 26  1  0
 15 16  1  0
 16 17  1  0
 17 23  1  0
 17 18  1  6
 18 19  1  0
 18 42  1  0
 18 43  1  0
 19 20  1  0
 19 44  1  0
 19 45  1  0
 20 21  1  0
 20 22  1  0
 20 53  1  1
 21 46  1  0
 21 47  1  0
 21 48  1  0
 22 23  1  0
 22 49  1  1
 23 24  1  0
 23 50  1  6
 24 25  2  0
 24 26  1  0
 26 51  1  0
 26 52  1  0
M  CHG  1  20   1
M  END
>  <i_m_ct_stereo_status>  (137) 
1

>  <s_m_source_file>  (137) 
/var/tmp/pbs.5076255.sched01/tmphf7gnms3/50i7j3xhgh.sdf

>  <i_m_source_file_index>  (137) 
10

>  <i_lp_mmshare_version>  (137) 
48012

>  <i_f3d_flags>  (137) 
0

>  <s_epik_input>  (137) 
W0NIMl09W0NIXVtDSDJdTihbQ0gyXVtDSDJdMSlbQ0gyXVtDQEhdMmMoYzNbQ0BAXTQ1W0NAQF0xMjYpW2NIXVtjSF1jKFtPSF0pYzNbQ0gyXUMoPU8pW0NIXTVbQ0BASF02TihbQ0gzXSlbQ0gyXVtDSDJdNA==

>  <s_epik_cmdline>  (137) 
J2VwaWtfcHl0aG9uJywgJy1waHQnLCAnMi4wJywgJy1waCcsICc3LjAnLCAnLXRuJywgJzgnLCAnLW1hJywgJzIwMCcsICctaW1hZScsICc8aW5maWxlLm1hZT4nLCAnLW9tYWUnLCAnPG91dGZpbGUubWFlPic=

>  <r_epik_Ionization_Penalty>  (137) 
0.733496

>  <r_epik_Ionization_Penalty_Charging>  (137) 
0.0328766

>  <r_epik_Ionization_Penalty_Neutral>  (137) 
0.700619

>  <r_epik_State_Penalty>  (137) 
0.8397

>  <r_epik_Charging_Adjusted_Penalty>  (137) 
0.872577

>  <i_epik_Tot_Q>  (137) 
1

>  <i_epik_Tot_abs_Q>  (137) 
1

>  <s_lp_Force_Field>  (137) 
OPLS3e

>  <r_lp_Energy>  (137) 
151.178

>  <b_lp_Chiralities_Consistent>  (137) 
1

>  <s_lp_Variant>  (137) 
37:0-3

>  <s_i_glide_gridfile>  (137) 
pfpi4k_grid

>  <i_i_glide_lignum>  (137) 
10

>  <i_i_glide_rotatable_bonds>  (137) 
3

>  <r_i_docking_score>  (137) 
-3.08555

>  <r_i_glide_ligand_efficiency>  (137) 
-0.118675

>  <r_i_glide_ligand_efficiency_sa>  (137) 
-0.351575

>  <r_i_glide_ligand_efficiency_ln>  (137) 
-0.724632

>  <r_i_glide_gscore>  (137) 
-3.08555

>  <r_i_glide_lipo>  (137) 
-0.215333

>  <r_i_glide_hbond>  (137) 
0

>  <r_i_glide_metal>  (137) 
-0

>  <r_i_glide_rewards>  (137) 
-1.01276

>  <r_i_glide_evdw>  (137) 
-18.9464

>  <r_i_glide_ecoul>  (137) 
-7.72637

>  <r_i_glide_erotb>  (137) 
0.308814

>  <r_i_glide_esite>  (137) 
-0.0600004

>  <r_i_glide_emodel>  (137) 
-34.2309

>  <r_i_glide_energy>  (137) 
-26.6728

>  <r_i_glide_einternal>  (137) 
0.640265

>  <r_i_glide_intrahb_reward>  (137) 
-0

>  <i_i_glide_confnum>  (137) 
1

>  <i_i_glide_posenum>  (137) 
15

>  <r_i_glide_eff_state_penalty>  (137) 
0

>  <ligand_id>  (137) 
37

>  <original_smiles>  (137) 
C=CCN1CCC23C(C1)c1ccc(O)c4c1C21CCN(C)C3C1C(=O)C4

>  <smiles>  (137) 
[H]Oc1c([H])c([H])c2c3c1C([H])([H])C(=O)C1([H])C34C([H])([H])C([H])([H])[N+]([H])(C([H])([H])[H])C1([H])C41C([H])([H])C([H])([H])N(C([H])([H])C([H])=C([H])[H])C([H])([H])C21[H]

$$$$
37:2:2
     RDKit          3D

 53 58  0  0  1  0  0  0  0  0999 V2000
    2.2158   -4.2230   -0.3701 C   0  0  0  0  0  0  0  0  0  0  0  0
    1.9106   -5.3568    0.2798 C   0  0  0  0  0  0  0  0  0  0  0  0
    1.9301   -5.5135    1.7973 C   0  0  0  0  0  0  0  0  0  0  0  0
    1.0810   -6.6032    2.2904 N   0  0  0  0  0  0  0  0  0  0  0  0
    1.0323   -6.6849    3.7486 C   0  0  0  0  0  0  0  0  0  0  0  0
    2.3222   -7.2714    4.3646 C   0  0  0  0  0  0  0  0  0  0  0  0
    2.6159   -8.7415    3.9237 C   0  0  1  0  0  0  0  0  0  0  0  0
    2.5614   -8.6949    2.3395 C   0  0  1  0  0  0  0  0  0  0  0  0
    1.3427   -7.9404    1.7478 C   0  0  0  0  0  0  0  0  0  0  0  0
    4.0024   -8.1783    1.9968 C   0  0  0  0  0  0  0  0  0  0  0  0
    4.5959   -7.2725    1.0904 C   0  0  0  0  0  0  0  0  0  0  0  0
    5.8392   -6.6697    1.4436 C   0  0  0  0  0  0  0  0  0  0  0  0
    6.4273   -6.8670    2.7228 C   0  0  0  0  0  0  0  0  0  0  0  0
    7.5389   -6.1687    3.0851 O   0  0  0  0  0  0  0  0  0  0  0  0
    5.8466   -7.7775    3.6350 C   0  0  0  0  0  0  0  0  0  0  0  0
    4.7434   -8.4697    3.1352 C   0  0  0  0  0  0  0  0  0  0  0  0
    4.0107   -9.4592    3.9313 C   0  0  2  0  0  0  0  0  0  0  0  0
    4.1233  -10.8900    3.3349 C   0  0  0  0  0  0  0  0  0  0  0  0
    2.8255  -11.6761    3.6462 C   0  0  0  0  0  0  0  0  0  0  0  0
    2.1384  -11.1495    4.8586 N   0  0  2  0  0  0  0  0  0  0  0  0
    0.6737  -11.3758    4.8306 C   0  0  0  0  0  0  0  0  0  0  0  0
    2.5004   -9.7232    5.1577 C   0  0  1  0  0  0  0  0  0  0  0  0
    4.0495   -9.5369    5.4136 C   0  0  2  0  0  0  0  0  0  0  0  0
    4.7875   -8.3395    5.9791 C   0  0  0  0  0  0  0  0  0  0  0  0
    4.4821   -7.6741    6.9712 O   0  0  0  0  0  0  0  0  0  0  0  0
    6.0691   -7.9781    5.1552 C   0  0  0  0  0  0  0  0  0  0  0  0
    2.4972   -3.3206    0.1554 H   0  0  0  0  0  0  0  0  0  0  0  0
    2.1889   -4.1937   -1.4536 H   0  0  0  0  0  0  0  0  0  0  0  0
    1.6559   -6.2028   -0.3370 H   0  0  0  0  0  0  0  0  0  0  0  0
    2.9538   -5.6576    2.1256 H   0  0  0  0  0  0  0  0  0  0  0  0
    1.6245   -4.5678    2.2446 H   0  0  0  0  0  0  0  0  0  0  0  0
    0.8481   -5.6935    4.1583 H   0  0  0  0  0  0  0  0  0  0  0  0
    0.1769   -7.2971    4.0378 H   0  0  0  0  0  0  0  0  0  0  0  0
    3.1628   -6.6076    4.1683 H   0  0  0  0  0  0  0  0  0  0  0  0
    2.1839   -7.2275    5.4483 H   0  0  0  0  0  0  0  0  0  0  0  0
    2.4732   -9.6802    1.8878 H   0  0  0  0  0  0  0  0  0  0  0  0
    0.4481   -8.5335    1.9490 H   0  0  0  0  0  0  0  0  0  0  0  0
    1.4108   -7.9417    0.6696 H   0  0  0  0  0  0  0  0  0  0  0  0
    4.0906   -6.9885    0.1851 H   0  0  0  0  0  0  0  0  0  0  0  0
    6.2868   -5.9675    0.7582 H   0  0  0  0  0  0  0  0  0  0  0  0
    7.9455   -5.6932    2.3787 H   0  0  0  0  0  0  0  0  0  0  0  0
    4.2875  -10.8795    2.2556 H   0  0  0  0  0  0  0  0  0  0  0  0
    4.9905  -11.4136    3.7448 H   0  0  0  0  0  0  0  0  0  0  0  0
    2.1459  -11.6174    2.7968 H   0  0  0  0  0  0  0  0  0  0  0  0
    3.0552  -12.7311    3.7766 H   0  0  0  0  0  0  0  0  0  0  0  0
    0.2022  -10.7929    4.0375 H   0  0  0  0  0  0  0  0  0  0  0  0
    0.2210  -11.0816    5.7812 H   0  0  0  0  0  0  0  0  0  0  0  0
    0.4467  -12.4330    4.6677 H   0  0  0  0  0  0  0  0  0  0  0  0
    1.9208   -9.3504    6.0054 H   0  0  0  0  0  0  0  0  0  0  0  0
    4.5137  -10.4674    5.7517 H   0  0  0  0  0  0  0  0  0  0  0  0
    6.8362   -8.7391    5.3033 H   0  0  0  0  0  0  0  0  0  0  0  0
    6.4739   -7.0510    5.5597 H   0  0  0  0  0  0  0  0  0  0  0  0
    2.4615  -11.7068    5.6396 H   0  0  0  0  0  0  0  0  0  0  0  0
  1  2  2  0
  1 27  1  0
  1 28  1  0
  2  3  1  0
  2 29  1  0
  3  4  1  0
  3 30  1  0
  3 31  1  0
  4  9  1  0
  4  5  1  0
  5  6  1  0
  5 32  1  0
  5 33  1  0
  7  6  1  1
  6 34  1  0
  6 35  1  0
  7 17  1  0
  7 22  1  0
  7  8  1  0
  8  9  1  0
  8 10  1  0
  8 36  1  6
  9 37  1  0
  9 38  1  0
 10 16  2  0
 10 11  1  0
 11 12  2  0
 11 39  1  0
 12 13  1  0
 12 40  1  0
 13 14  1  0
 13 15  2  0
 14 41  1  0
 15 26  1  0
 15 16  1  0
 16 17  1  0
 17 23  1  0
 17 18  1  6
 18 19  1  0
 18 42  1  0
 18 43  1  0
 19 20  1  0
 19 44  1  0
 19 45  1  0
 20 21  1  0
 20 22  1  0
 20 53  1  1
 21 46  1  0
 21 47  1  0
 21 48  1  0
 22 23  1  0
 22 49  1  1
 23 24  1  0
 23 50  1  6
 24 25  2  0
 24 26  1  0
 26 51  1  0
 26 52  1  0
M  CHG  1  20   1
M  END
>  <i_m_ct_stereo_status>  (138) 
1

>  <s_m_source_file>  (138) 
/var/tmp/pbs.5076255.sched01/tmphf7gnms3/50i7j3xhgh.sdf

>  <i_m_source_file_index>  (138) 
10

>  <i_lp_mmshare_version>  (138) 
48012

>  <i_f3d_flags>  (138) 
0

>  <s_epik_input>  (138) 
W0NIMl09W0NIXVtDSDJdTihbQ0gyXVtDSDJdMSlbQ0gyXVtDQEhdMmMoYzNbQ0BAXTQ1W0NAQF0xMjYpW2NIXVtjSF1jKFtPSF0pYzNbQ0gyXUMoPU8pW0NIXTVbQ0BASF02TihbQ0gzXSlbQ0gyXVtDSDJdNA==

>  <s_epik_cmdline>  (138) 
J2VwaWtfcHl0aG9uJywgJy1waHQnLCAnMi4wJywgJy1waCcsICc3LjAnLCAnLXRuJywgJzgnLCAnLW1hJywgJzIwMCcsICctaW1hZScsICc8aW5maWxlLm1hZT4nLCAnLW9tYWUnLCAnPG91dGZpbGUubWFlPic=

>  <r_epik_Ionization_Penalty>  (138) 
0.733496

>  <r_epik_Ionization_Penalty_Charging>  (138) 
0.0328766

>  <r_epik_Ionization_Penalty_Neutral>  (138) 
0.700619

>  <r_epik_State_Penalty>  (138) 
0.8397

>  <r_epik_Charging_Adjusted_Penalty>  (138) 
0.872577

>  <i_epik_Tot_Q>  (138) 
1

>  <i_epik_Tot_abs_Q>  (138) 
1

>  <s_lp_Force_Field>  (138) 
OPLS3e

>  <r_lp_Energy>  (138) 
151.178

>  <b_lp_Chiralities_Consistent>  (138) 
1

>  <s_lp_Variant>  (138) 
37:0-3

>  <s_i_glide_gridfile>  (138) 
pfpi4k_grid

>  <i_i_glide_lignum>  (138) 
10

>  <i_i_glide_rotatable_bonds>  (138) 
3

>  <r_i_docking_score>  (138) 
-3.04745

>  <r_i_glide_ligand_efficiency>  (138) 
-0.11721

>  <r_i_glide_ligand_efficiency_sa>  (138) 
-0.347233

>  <r_i_glide_ligand_efficiency_ln>  (138) 
-0.715685

>  <r_i_glide_gscore>  (138) 
-3.04745

>  <r_i_glide_lipo>  (138) 
-0.202941

>  <r_i_glide_hbond>  (138) 
-0.0142672

>  <r_i_glide_metal>  (138) 
-0

>  <r_i_glide_rewards>  (138) 
-1.01276

>  <r_i_glide_evdw>  (138) 
-18.8777

>  <r_i_glide_ecoul>  (138) 
-7.45164

>  <r_i_glide_erotb>  (138) 
0.308814

>  <r_i_glide_esite>  (138) 
-0.0646683

>  <r_i_glide_emodel>  (138) 
-33.7285

>  <r_i_glide_energy>  (138) 
-26.3294

>  <r_i_glide_einternal>  (138) 
0.858342

>  <r_i_glide_intrahb_reward>  (138) 
-0

>  <i_i_glide_confnum>  (138) 
1

>  <i_i_glide_posenum>  (138) 
20

>  <r_i_glide_eff_state_penalty>  (138) 
0

>  <ligand_id>  (138) 
37

>  <original_smiles>  (138) 
C=CCN1CCC23C(C1)c1ccc(O)c4c1C21CCN(C)C3C1C(=O)C4

>  <smiles>  (138) 
[H]Oc1c([H])c([H])c2c3c1C([H])([H])C(=O)C1([H])C34C([H])([H])C([H])([H])[N+]([H])(C([H])([H])[H])C1([H])C41C([H])([H])C([H])([H])N(C([H])([H])C([H])=C([H])[H])C([H])([H])C21[H]

$$$$
37:3:0
     RDKit          3D

 53 58  0  0  1  0  0  0  0  0999 V2000
    3.3772  -10.3836    2.9231 C   0  0  0  0  0  0  0  0  0  0  0  0
    2.9305   -9.1533    2.6290 C   0  0  0  0  0  0  0  0  0  0  0  0
    3.2001   -7.8997    3.4531 C   0  0  0  0  0  0  0  0  0  0  0  0
    3.6547   -6.7572    2.6488 N   0  0  0  0  0  0  0  0  0  0  0  0
    2.6258   -6.3182    1.7143 C   0  0  0  0  0  0  0  0  0  0  0  0
    3.1282   -5.1825    0.8153 C   0  0  0  0  0  0  0  0  0  0  0  0
    3.5670   -3.8772    1.5477 C   0  0  2  0  0  0  0  0  0  0  0  0
    4.5009   -4.4125    2.7361 C   0  0  1  0  0  0  0  0  0  0  0  0
    3.9682   -5.6315    3.5209 C   0  0  0  0  0  0  0  0  0  0  0  0
    5.8978   -4.6529    2.0724 C   0  0  0  0  0  0  0  0  0  0  0  0
    7.0372   -5.4698    2.2127 C   0  0  0  0  0  0  0  0  0  0  0  0
    8.0913   -5.3207    1.2557 C   0  0  0  0  0  0  0  0  0  0  0  0
    8.0168   -4.3844    0.1765 C   0  0  0  0  0  0  0  0  0  0  0  0
    9.0380   -4.2689   -0.7136 O   0  0  0  0  0  0  0  0  0  0  0  0
    6.8722   -3.5731    0.0163 C   0  0  0  0  0  0  0  0  0  0  0  0
    5.9272   -3.7830    1.0112 C   0  0  0  0  0  0  0  0  0  0  0  0
    4.7483   -2.9807    1.0828 C   0  0  2  0  0  0  0  0  0  0  0  0
    5.1375   -1.7141    1.9665 C   0  0  0  0  0  0  0  0  0  0  0  0
    3.8717   -1.0868    2.5365 C   0  0  0  0  0  0  0  0  0  0  0  0
    2.8152   -1.2427    1.5252 N   0  0  2  0  0  0  0  0  0  0  0  0
    1.4663   -0.9801    2.0816 C   0  0  0  0  0  0  0  0  0  0  0  0
    2.9286   -2.5593    0.8168 C   0  0  1  0  0  0  0  0  0  0  0  0
    4.0933   -2.7509   -0.2265 C   0  0  1  0  0  0  0  0  0  0  0  0
    5.0540   -1.8364   -0.9408 C   0  0  0  0  0  0  0  0  0  0  0  0
    4.8804   -0.6859   -1.3416 O   0  0  0  0  0  0  0  0  0  0  0  0
    6.4741   -2.5138   -1.0642 C   0  0  0  0  0  0  0  0  0  0  0  0
    3.9870  -10.5916    3.7910 H   0  0  0  0  0  0  0  0  0  0  0  0
    3.1276  -11.2091    2.2707 H   0  0  0  0  0  0  0  0  0  0  0  0
    2.3227   -9.0611    1.7418 H   0  0  0  0  0  0  0  0  0  0  0  0
    2.2860   -7.6360    3.9851 H   0  0  0  0  0  0  0  0  0  0  0  0
    3.9398   -8.1378    4.2202 H   0  0  0  0  0  0  0  0  0  0  0  0
    2.3759   -7.1280    1.0381 H   0  0  0  0  0  0  0  0  0  0  0  0
    1.7205   -6.0473    2.2554 H   0  0  0  0  0  0  0  0  0  0  0  0
    3.9377   -5.5771    0.1972 H   0  0  0  0  0  0  0  0  0  0  0  0
    2.3123   -4.9724    0.1205 H   0  0  0  0  0  0  0  0  0  0  0  0
    4.6310   -3.6582    3.5093 H   0  0  0  0  0  0  0  0  0  0  0  0
    3.0831   -5.3456    4.0894 H   0  0  0  0  0  0  0  0  0  0  0  0
    4.7166   -5.9305    4.2546 H   0  0  0  0  0  0  0  0  0  0  0  0
    7.1102   -6.1772    3.0213 H   0  0  0  0  0  0  0  0  0  0  0  0
    8.9702   -5.9404    1.3564 H   0  0  0  0  0  0  0  0  0  0  0  0
    8.9402   -3.6045   -1.3819 H   0  0  0  0  0  0  0  0  0  0  0  0
    5.7926   -1.9791    2.7995 H   0  0  0  0  0  0  0  0  0  0  0  0
    5.7096   -0.9635    1.4133 H   0  0  0  0  0  0  0  0  0  0  0  0
    3.5741   -1.6162    3.4430 H   0  0  0  0  0  0  0  0  0  0  0  0
    4.0228   -0.0390    2.7951 H   0  0  0  0  0  0  0  0  0  0  0  0
    1.1837   -1.7370    2.8220 H   0  0  0  0  0  0  0  0  0  0  0  0
    0.7121   -0.9636    1.2952 H   0  0  0  0  0  0  0  0  0  0  0  0
    1.4444    0.0006    2.5702 H   0  0  0  0  0  0  0  0  0  0  0  0
    1.9842   -2.7771    0.3144 H   0  0  0  0  0  0  0  0  0  0  0  0
    3.9474   -3.6535   -0.8196 H   0  0  0  0  0  0  0  0  0  0  0  0
    7.2370   -1.7433   -1.0067 H   0  0  0  0  0  0  0  0  0  0  0  0
    6.5566   -2.9692   -2.0554 H   0  0  0  0  0  0  0  0  0  0  0  0
    2.9522   -0.5375    0.8146 H   0  0  0  0  0  0  0  0  0  0  0  0
  1  2  2  0
  1 27  1  0
  1 28  1  0
  2  3  1  0
  2 29  1  0
  3  4  1  0
  3 30  1  0
  3 31  1  0
  4  9  1  0
  4  5  1  0
  5  6  1  0
  5 32  1  0
  5 33  1  0
  7  6  1  6
  6 34  1  0
  6 35  1  0
  7 17  1  0
  7 22  1  0
  7  8  1  0
  8  9  1  0
  8 10  1  0
  8 36  1  1
  9 37  1  0
  9 38  1  0
 10 16  2  0
 10 11  1  0
 11 12  2  0
 11 39  1  0
 12 13  1  0
 12 40  1  0
 13 14  1  0
 13 15  2  0
 14 41  1  0
 15 26  1  0
 15 16  1  0
 16 17  1  0
 17 23  1  0
 17 18  1  1
 18 19  1  0
 18 42  1  0
 18 43  1  0
 19 20  1  0
 19 44  1  0
 19 45  1  0
 20 21  1  0
 20 22  1  0
 20 53  1  6
 21 46  1  0
 21 47  1  0
 21 48  1  0
 22 23  1  0
 22 49  1  6
 23 24  1  0
 23 50  1  6
 24 25  2  0
 24 26  1  0
 26 51  1  0
 26 52  1  0
M  CHG  1  20   1
M  END
>  <i_m_ct_stereo_status>  (139) 
1

>  <s_m_source_file>  (139) 
/var/tmp/pbs.5076255.sched01/tmphf7gnms3/50i7j3xhgh.sdf

>  <i_m_source_file_index>  (139) 
11

>  <i_lp_mmshare_version>  (139) 
48012

>  <i_f3d_flags>  (139) 
0

>  <s_epik_input>  (139) 
W0NIMl09W0NIXVtDSDJdTihbQ0gyXVtDSDJdMSlbQ0gyXVtDQEhdMmMoYzNbQ0BAXTQ1W0NAQF0xMjYpW2NIXVtjSF1jKFtPSF0pYzNbQ0gyXUMoPU8pW0NIXTVbQ0BASF02TihbQ0gzXSlbQ0gyXVtDSDJdNA==

>  <s_epik_cmdline>  (139) 
J2VwaWtfcHl0aG9uJywgJy1waHQnLCAnMi4wJywgJy1waCcsICc3LjAnLCAnLXRuJywgJzgnLCAnLW1hJywgJzIwMCcsICctaW1hZScsICc8aW5maWxlLm1hZT4nLCAnLW9tYWUnLCAnPG91dGZpbGUubWFlPic=

>  <r_epik_Ionization_Penalty>  (139) 
0.733496

>  <r_epik_Ionization_Penalty_Charging>  (139) 
0.0328766

>  <r_epik_Ionization_Penalty_Neutral>  (139) 
0.700619

>  <r_epik_State_Penalty>  (139) 
0.8397

>  <r_epik_Charging_Adjusted_Penalty>  (139) 
0.872577

>  <i_epik_Tot_Q>  (139) 
1

>  <i_epik_Tot_abs_Q>  (139) 
1

>  <s_lp_Force_Field>  (139) 
OPLS3e

>  <r_lp_Energy>  (139) 
162.155

>  <b_lp_Chiralities_Consistent>  (139) 
1

>  <s_lp_Variant>  (139) 
37:0-4

>  <s_i_glide_gridfile>  (139) 
pfpi4k_grid

>  <i_i_glide_lignum>  (139) 
11

>  <i_i_glide_rotatable_bonds>  (139) 
3

>  <r_i_docking_score>  (139) 
-3.56171

>  <r_i_glide_ligand_efficiency>  (139) 
-0.136989

>  <r_i_glide_ligand_efficiency_sa>  (139) 
-0.405829

>  <r_i_glide_ligand_efficiency_ln>  (139) 
-0.836457

>  <r_i_glide_gscore>  (139) 
-3.56171

>  <r_i_glide_lipo>  (139) 
-0.678169

>  <r_i_glide_hbond>  (139) 
-0.121278

>  <r_i_glide_metal>  (139) 
-0

>  <r_i_glide_rewards>  (139) 
-1.01276

>  <r_i_glide_evdw>  (139) 
-20.569

>  <r_i_glide_ecoul>  (139) 
-5.74336

>  <r_i_glide_erotb>  (139) 
0.21617

>  <r_i_glide_esite>  (139) 
-0.0757254

>  <r_i_glide_emodel>  (139) 
-34.2216

>  <r_i_glide_energy>  (139) 
-26.3123

>  <r_i_glide_einternal>  (139) 
0.888145

>  <r_i_glide_intrahb_reward>  (139) 
-0

>  <i_i_glide_confnum>  (139) 
4

>  <i_i_glide_posenum>  (139) 
4

>  <r_i_glide_eff_state_penalty>  (139) 
0

>  <ligand_id>  (139) 
37

>  <original_smiles>  (139) 
C=CCN1CCC23C(C1)c1ccc(O)c4c1C21CCN(C)C3C1C(=O)C4

>  <smiles>  (139) 
[H]Oc1c([H])c([H])c2c3c1C([H])([H])C(=O)C1([H])C34C([H])([H])C([H])([H])[N+]([H])(C([H])([H])[H])C1([H])C41C([H])([H])C([H])([H])N(C([H])([H])C([H])=C([H])[H])C([H])([H])C21[H]

$$$$
37:3:1
     RDKit          3D

 53 58  0  0  1  0  0  0  0  0999 V2000
    2.7043   -1.8857    1.1420 C   0  0  0  0  0  0  0  0  0  0  0  0
    1.9804   -1.8740    2.2734 C   0  0  0  0  0  0  0  0  0  0  0  0
    2.0312   -2.8908    3.4199 C   0  0  0  0  0  0  0  0  0  0  0  0
    2.8439   -4.0963    3.1914 N   0  0  0  0  0  0  0  0  0  0  0  0
    2.8621   -4.9370    4.3872 C   0  0  0  0  0  0  0  0  0  0  0  0
    3.8823   -6.0911    4.2350 C   0  0  0  0  0  0  0  0  0  0  0  0
    3.6606   -7.0561    3.0133 C   0  0  1  0  0  0  0  0  0  0  0  0
    3.3802   -6.0642    1.8032 C   0  0  1  0  0  0  0  0  0  0  0  0
    2.3618   -4.9503    2.1011 C   0  0  0  0  0  0  0  0  0  0  0  0
    4.8142   -5.5934    1.3282 C   0  0  0  0  0  0  0  0  0  0  0  0
    5.4851   -4.5120    0.7070 C   0  0  0  0  0  0  0  0  0  0  0  0
    6.9033   -4.5714    0.5588 C   0  0  0  0  0  0  0  0  0  0  0  0
    7.6634   -5.7030    0.9913 C   0  0  0  0  0  0  0  0  0  0  0  0
    9.0101   -5.7373    0.7990 O   0  0  0  0  0  0  0  0  0  0  0  0
    7.0144   -6.8008    1.5909 C   0  0  0  0  0  0  0  0  0  0  0  0
    5.6341   -6.6307    1.6784 C   0  0  0  0  0  0  0  0  0  0  0  0
    4.8014   -7.6815    2.1725 C   0  0  2  0  0  0  0  0  0  0  0  0
    4.4076   -8.5683    0.9026 C   0  0  0  0  0  0  0  0  0  0  0  0
    3.1322   -9.3457    1.2074 C   0  0  0  0  0  0  0  0  0  0  0  0
    3.1899   -9.7262    2.6299 N   0  0  2  0  0  0  0  0  0  0  0  0
    1.8710  -10.1981    3.1350 C   0  0  0  0  0  0  0  0  0  0  0  0
    3.7839   -8.6174    3.4648 C   0  0  1  0  0  0  0  0  0  0  0  0
    5.3331   -8.3691    3.3715 C   0  0  1  0  0  0  0  0  0  0  0  0
    6.5122   -9.1375    2.8308 C   0  0  0  0  0  0  0  0  0  0  0  0
    6.6875  -10.3505    2.7909 O   0  0  0  0  0  0  0  0  0  0  0  0
    7.5515   -8.1552    2.1609 C   0  0  0  0  0  0  0  0  0  0  0  0
    3.4104   -2.6653    0.9639 H   0  0  0  0  0  0  0  0  0  0  0  0
    2.6186   -1.1360    0.3628 H   0  0  0  0  0  0  0  0  0  0  0  0
    1.2936   -1.0531    2.4130 H   0  0  0  0  0  0  0  0  0  0  0  0
    2.3925   -2.3679    4.3098 H   0  0  0  0  0  0  0  0  0  0  0  0
    1.0142   -3.1874    3.6537 H   0  0  0  0  0  0  0  0  0  0  0  0
    3.1592   -4.3350    5.2437 H   0  0  0  0  0  0  0  0  0  0  0  0
    1.8657   -5.3176    4.6135 H   0  0  0  0  0  0  0  0  0  0  0  0
    4.8789   -5.6480    4.1951 H   0  0  0  0  0  0  0  0  0  0  0  0
    3.8537   -6.6571    5.1715 H   0  0  0  0  0  0  0  0  0  0  0  0
    2.9144   -6.5671    0.9647 H   0  0  0  0  0  0  0  0  0  0  0  0
    1.3774   -5.3609    2.3612 H   0  0  0  0  0  0  0  0  0  0  0  0
    2.2170   -4.4256    1.1551 H   0  0  0  0  0  0  0  0  0  0  0  0
    4.9771   -3.6518    0.3244 H   0  0  0  0  0  0  0  0  0  0  0  0
    7.4039   -3.7390    0.0852 H   0  0  0  0  0  0  0  0  0  0  0  0
    9.4283   -6.5490    1.0782 H   0  0  0  0  0  0  0  0  0  0  0  0
    4.2277   -7.9564    0.0181 H   0  0  0  0  0  0  0  0  0  0  0  0
    5.2029   -9.2490    0.5923 H   0  0  0  0  0  0  0  0  0  0  0  0
    2.2576   -8.7250    1.0388 H   0  0  0  0  0  0  0  0  0  0  0  0
    3.0216  -10.2255    0.5844 H   0  0  0  0  0  0  0  0  0  0  0  0
    1.1329   -9.3992    3.1280 H   0  0  0  0  0  0  0  0  0  0  0  0
    1.9636  -10.5811    4.1516 H   0  0  0  0  0  0  0  0  0  0  0  0
    1.5067  -11.0089    2.5071 H   0  0  0  0  0  0  0  0  0  0  0  0
    3.5158   -8.7681    4.5083 H   0  0  0  0  0  0  0  0  0  0  0  0
    5.6659   -7.6877    4.1522 H   0  0  0  0  0  0  0  0  0  0  0  0
    8.0134   -8.6641    1.3181 H   0  0  0  0  0  0  0  0  0  0  0  0
    8.3433   -7.9331    2.8797 H   0  0  0  0  0  0  0  0  0  0  0  0
    3.8150  -10.5125    2.6888 H   0  0  0  0  0  0  0  0  0  0  0  0
  1  2  2  0
  1 27  1  0
  1 28  1  0
  2  3  1  0
  2 29  1  0
  3  4  1  0
  3 30  1  0
  3 31  1  0
  4  9  1  0
  4  5  1  0
  5  6  1  0
  5 32  1  0
  5 33  1  0
  7  6  1  1
  6 34  1  0
  6 35  1  0
  7 17  1  0
  7 22  1  0
  7  8  1  0
  8  9  1  0
  8 10  1  0
  8 36  1  6
  9 37  1  0
  9 38  1  0
 10 16  2  0
 10 11  1  0
 11 12  2  0
 11 39  1  0
 12 13  1  0
 12 40  1  0
 13 14  1  0
 13 15  2  0
 14 41  1  0
 15 26  1  0
 15 16  1  0
 16 17  1  0
 17 23  1  0
 17 18  1  6
 18 19  1  0
 18 42  1  0
 18 43  1  0
 19 20  1  0
 19 44  1  0
 19 45  1  0
 20 21  1  0
 20 22  1  0
 20 53  1  6
 21 46  1  0
 21 47  1  0
 21 48  1  0
 22 23  1  0
 22 49  1  1
 23 24  1  0
 23 50  1  1
 24 25  2  0
 24 26  1  0
 26 51  1  0
 26 52  1  0
M  CHG  1  20   1
M  END
>  <i_m_ct_stereo_status>  (140) 
1

>  <s_m_source_file>  (140) 
/var/tmp/pbs.5076255.sched01/tmphf7gnms3/50i7j3xhgh.sdf

>  <i_m_source_file_index>  (140) 
11

>  <i_lp_mmshare_version>  (140) 
48012

>  <i_f3d_flags>  (140) 
0

>  <s_epik_input>  (140) 
W0NIMl09W0NIXVtDSDJdTihbQ0gyXVtDSDJdMSlbQ0gyXVtDQEhdMmMoYzNbQ0BAXTQ1W0NAQF0xMjYpW2NIXVtjSF1jKFtPSF0pYzNbQ0gyXUMoPU8pW0NIXTVbQ0BASF02TihbQ0gzXSlbQ0gyXVtDSDJdNA==

>  <s_epik_cmdline>  (140) 
J2VwaWtfcHl0aG9uJywgJy1waHQnLCAnMi4wJywgJy1waCcsICc3LjAnLCAnLXRuJywgJzgnLCAnLW1hJywgJzIwMCcsICctaW1hZScsICc8aW5maWxlLm1hZT4nLCAnLW9tYWUnLCAnPG91dGZpbGUubWFlPic=

>  <r_epik_Ionization_Penalty>  (140) 
0.733496

>  <r_epik_Ionization_Penalty_Charging>  (140) 
0.0328766

>  <r_epik_Ionization_Penalty_Neutral>  (140) 
0.700619

>  <r_epik_State_Penalty>  (140) 
0.8397

>  <r_epik_Charging_Adjusted_Penalty>  (140) 
0.872577

>  <i_epik_Tot_Q>  (140) 
1

>  <i_epik_Tot_abs_Q>  (140) 
1

>  <s_lp_Force_Field>  (140) 
OPLS3e

>  <r_lp_Energy>  (140) 
162.155

>  <b_lp_Chiralities_Consistent>  (140) 
1

>  <s_lp_Variant>  (140) 
37:0-4

>  <s_i_glide_gridfile>  (140) 
pfpi4k_grid

>  <i_i_glide_lignum>  (140) 
11

>  <i_i_glide_rotatable_bonds>  (140) 
3

>  <r_i_docking_score>  (140) 
-3.4832

>  <r_i_glide_ligand_efficiency>  (140) 
-0.133969

>  <r_i_glide_ligand_efficiency_sa>  (140) 
-0.396883

>  <r_i_glide_ligand_efficiency_ln>  (140) 
-0.818018

>  <r_i_glide_gscore>  (140) 
-3.4832

>  <r_i_glide_lipo>  (140) 
-0.565097

>  <r_i_glide_hbond>  (140) 
-0.176781

>  <r_i_glide_metal>  (140) 
-0

>  <r_i_glide_rewards>  (140) 
-1.04694

>  <r_i_glide_evdw>  (140) 
-19.1208

>  <r_i_glide_ecoul>  (140) 
-6.13726

>  <r_i_glide_erotb>  (140) 
0.21617

>  <r_i_glide_esite>  (140) 
-0.0339208

>  <r_i_glide_emodel>  (140) 
-31.8814

>  <r_i_glide_energy>  (140) 
-25.2581

>  <r_i_glide_einternal>  (140) 
1.74913

>  <r_i_glide_intrahb_reward>  (140) 
-0

>  <i_i_glide_confnum>  (140) 
4

>  <i_i_glide_posenum>  (140) 
26

>  <r_i_glide_eff_state_penalty>  (140) 
0

>  <ligand_id>  (140) 
37

>  <original_smiles>  (140) 
C=CCN1CCC23C(C1)c1ccc(O)c4c1C21CCN(C)C3C1C(=O)C4

>  <smiles>  (140) 
[H]Oc1c([H])c([H])c2c3c1C([H])([H])C(=O)C1([H])C34C([H])([H])C([H])([H])[N+]([H])(C([H])([H])[H])C1([H])C41C([H])([H])C([H])([H])N(C([H])([H])C([H])=C([H])[H])C([H])([H])C21[H]

$$$$
37:3:2
     RDKit          3D

 53 58  0  0  1  0  0  0  0  0999 V2000
    2.5199   -0.4766    4.1555 C   0  0  0  0  0  0  0  0  0  0  0  0
    2.4101   -1.8042    4.3133 C   0  0  0  0  0  0  0  0  0  0  0  0
    1.9555   -2.7823    3.2370 C   0  0  0  0  0  0  0  0  0  0  0  0
    2.8570   -3.9319    3.0868 N   0  0  0  0  0  0  0  0  0  0  0  0
    2.8378   -4.7838    4.2706 C   0  0  0  0  0  0  0  0  0  0  0  0
    3.8404   -5.9399    4.1504 C   0  0  0  0  0  0  0  0  0  0  0  0
    3.6156   -6.9260    2.9614 C   0  0  2  0  0  0  0  0  0  0  0  0
    3.3827   -5.9498    1.7093 C   0  0  1  0  0  0  0  0  0  0  0  0
    2.4411   -4.7487    1.9530 C   0  0  0  0  0  0  0  0  0  0  0  0
    4.8198   -5.5422    1.2453 C   0  0  0  0  0  0  0  0  0  0  0  0
    5.4946   -4.4741    0.6195 C   0  0  0  0  0  0  0  0  0  0  0  0
    6.9158   -4.5646    0.4802 C   0  0  0  0  0  0  0  0  0  0  0  0
    7.6606   -5.6969    0.9545 C   0  0  0  0  0  0  0  0  0  0  0  0
    9.0150   -5.7589    0.7792 O   0  0  0  0  0  0  0  0  0  0  0  0
    6.9957   -6.7683    1.5861 C   0  0  0  0  0  0  0  0  0  0  0  0
    5.6186   -6.5836    1.6467 C   0  0  0  0  0  0  0  0  0  0  0  0
    4.7619   -7.6008    2.1642 C   0  0  2  0  0  0  0  0  0  0  0  0
    4.3789   -8.5262    0.9243 C   0  0  0  0  0  0  0  0  0  0  0  0
    3.0972   -9.2864    1.2392 C   0  0  0  0  0  0  0  0  0  0  0  0
    3.1192   -9.6075    2.6700 N   0  0  2  0  0  0  0  0  0  0  0  0
    1.7947  -10.0529    3.1709 C   0  0  0  0  0  0  0  0  0  0  0  0
    3.7158   -8.4801    3.4684 C   0  0  1  0  0  0  0  0  0  0  0  0
    5.2713   -8.2511    3.3961 C   0  0  1  0  0  0  0  0  0  0  0  0
    6.4481   -9.0554    2.9000 C   0  0  0  0  0  0  0  0  0  0  0  0
    6.6110  -10.2731    2.9102 O   0  0  0  0  0  0  0  0  0  0  0  0
    7.5104   -8.1110    2.2128 C   0  0  0  0  0  0  0  0  0  0  0  0
    2.2921    0.0155    3.2199 H   0  0  0  0  0  0  0  0  0  0  0  0
    2.8497    0.1378    4.9820 H   0  0  0  0  0  0  0  0  0  0  0  0
    2.6568   -2.2024    5.2858 H   0  0  0  0  0  0  0  0  0  0  0  0
    0.9517   -3.1280    3.4891 H   0  0  0  0  0  0  0  0  0  0  0  0
    1.8646   -2.2432    2.2926 H   0  0  0  0  0  0  0  0  0  0  0  0
    3.1531   -4.2107    5.1362 H   0  0  0  0  0  0  0  0  0  0  0  0
    1.8262   -5.1374    4.4676 H   0  0  0  0  0  0  0  0  0  0  0  0
    4.8437   -5.5105    4.1161 H   0  0  0  0  0  0  0  0  0  0  0  0
    3.7851   -6.4745    5.1024 H   0  0  0  0  0  0  0  0  0  0  0  0
    2.9057   -6.4702    0.8842 H   0  0  0  0  0  0  0  0  0  0  0  0
    1.4252   -5.1054    2.1140 H   0  0  0  0  0  0  0  0  0  0  0  0
    2.4134   -4.1352    1.0522 H   0  0  0  0  0  0  0  0  0  0  0  0
    4.9457   -3.6176    0.2591 H   0  0  0  0  0  0  0  0  0  0  0  0
    7.4428   -3.7615   -0.0106 H   0  0  0  0  0  0  0  0  0  0  0  0
    9.4088   -6.5775    1.0653 H   0  0  0  0  0  0  0  0  0  0  0  0
    4.2200   -7.9459    0.0157 H   0  0  0  0  0  0  0  0  0  0  0  0
    5.1717   -9.2281    0.6541 H   0  0  0  0  0  0  0  0  0  0  0  0
    2.2257   -8.6668    1.0290 H   0  0  0  0  0  0  0  0  0  0  0  0
    3.0082  -10.1902    0.6435 H   0  0  0  0  0  0  0  0  0  0  0  0
    1.0620   -9.2438    3.1251 H   0  0  0  0  0  0  0  0  0  0  0  0
    1.8615  -10.4023    4.2034 H   0  0  0  0  0  0  0  0  0  0  0  0
    1.4246  -10.8821    2.5648 H   0  0  0  0  0  0  0  0  0  0  0  0
    3.4294   -8.5919    4.5144 H   0  0  0  0  0  0  0  0  0  0  0  0
    5.6037   -7.5550    4.1616 H   0  0  0  0  0  0  0  0  0  0  0  0
    7.9857   -8.6590    1.4021 H   0  0  0  0  0  0  0  0  0  0  0  0
    8.2935   -7.8751    2.9375 H   0  0  0  0  0  0  0  0  0  0  0  0
    3.7418  -10.4018    2.7746 H   0  0  0  0  0  0  0  0  0  0  0  0
  1  2  2  0
  1 27  1  0
  1 28  1  0
  2  3  1  0
  2 29  1  0
  3  4  1  0
  3 30  1  0
  3 31  1  0
  4  9  1  0
  4  5  1  0
  5  6  1  0
  5 32  1  0
  5 33  1  0
  7  6  1  1
  6 34  1  0
  6 35  1  0
  7 17  1  0
  7 22  1  0
  7  8  1  0
  8  9  1  0
  8 10  1  0
  8 36  1  6
  9 37  1  0
  9 38  1  0
 10 16  2  0
 10 11  1  0
 11 12  2  0
 11 39  1  0
 12 13  1  0
 12 40  1  0
 13 14  1  0
 13 15  2  0
 14 41  1  0
 15 26  1  0
 15 16  1  0
 16 17  1  0
 17 23  1  0
 17 18  1  6
 18 19  1  0
 18 42  1  0
 18 43  1  0
 19 20  1  0
 19 44  1  0
 19 45  1  0
 20 21  1  0
 20 22  1  0
 20 53  1  6
 21 46  1  0
 21 47  1  0
 21 48  1  0
 22 23  1  0
 22 49  1  1
 23 24  1  0
 23 50  1  1
 24 25  2  0
 24 26  1  0
 26 51  1  0
 26 52  1  0
M  CHG  1  20   1
M  END
>  <i_m_ct_stereo_status>  (141) 
1

>  <s_m_source_file>  (141) 
/var/tmp/pbs.5076255.sched01/tmphf7gnms3/50i7j3xhgh.sdf

>  <i_m_source_file_index>  (141) 
11

>  <i_lp_mmshare_version>  (141) 
48012

>  <i_f3d_flags>  (141) 
0

>  <s_epik_input>  (141) 
W0NIMl09W0NIXVtDSDJdTihbQ0gyXVtDSDJdMSlbQ0gyXVtDQEhdMmMoYzNbQ0BAXTQ1W0NAQF0xMjYpW2NIXVtjSF1jKFtPSF0pYzNbQ0gyXUMoPU8pW0NIXTVbQ0BASF02TihbQ0gzXSlbQ0gyXVtDSDJdNA==

>  <s_epik_cmdline>  (141) 
J2VwaWtfcHl0aG9uJywgJy1waHQnLCAnMi4wJywgJy1waCcsICc3LjAnLCAnLXRuJywgJzgnLCAnLW1hJywgJzIwMCcsICctaW1hZScsICc8aW5maWxlLm1hZT4nLCAnLW9tYWUnLCAnPG91dGZpbGUubWFlPic=

>  <r_epik_Ionization_Penalty>  (141) 
0.733496

>  <r_epik_Ionization_Penalty_Charging>  (141) 
0.0328766

>  <r_epik_Ionization_Penalty_Neutral>  (141) 
0.700619

>  <r_epik_State_Penalty>  (141) 
0.8397

>  <r_epik_Charging_Adjusted_Penalty>  (141) 
0.872577

>  <i_epik_Tot_Q>  (141) 
1

>  <i_epik_Tot_abs_Q>  (141) 
1

>  <s_lp_Force_Field>  (141) 
OPLS3e

>  <r_lp_Energy>  (141) 
162.155

>  <b_lp_Chiralities_Consistent>  (141) 
1

>  <s_lp_Variant>  (141) 
37:0-4

>  <s_i_glide_gridfile>  (141) 
pfpi4k_grid

>  <i_i_glide_lignum>  (141) 
11

>  <i_i_glide_rotatable_bonds>  (141) 
3

>  <r_i_docking_score>  (141) 
-3.43803

>  <r_i_glide_ligand_efficiency>  (141) 
-0.132232

>  <r_i_glide_ligand_efficiency_sa>  (141) 
-0.391737

>  <r_i_glide_ligand_efficiency_ln>  (141) 
-0.807411

>  <r_i_glide_gscore>  (141) 
-3.43803

>  <r_i_glide_lipo>  (141) 
-0.566012

>  <r_i_glide_hbond>  (141) 
-0.177882

>  <r_i_glide_metal>  (141) 
-0

>  <r_i_glide_rewards>  (141) 
-1.04058

>  <r_i_glide_evdw>  (141) 
-18.5393

>  <r_i_glide_ecoul>  (141) 
-6.09514

>  <r_i_glide_erotb>  (141) 
0.21617

>  <r_i_glide_esite>  (141) 
-0.0284949

>  <r_i_glide_emodel>  (141) 
-32.2955

>  <r_i_glide_energy>  (141) 
-24.6344

>  <r_i_glide_einternal>  (141) 
0.877526

>  <r_i_glide_intrahb_reward>  (141) 
-0

>  <i_i_glide_confnum>  (141) 
4

>  <i_i_glide_posenum>  (141) 
1

>  <r_i_glide_eff_state_penalty>  (141) 
0

>  <ligand_id>  (141) 
37

>  <original_smiles>  (141) 
C=CCN1CCC23C(C1)c1ccc(O)c4c1C21CCN(C)C3C1C(=O)C4

>  <smiles>  (141) 
[H]Oc1c([H])c([H])c2c3c1C([H])([H])C(=O)C1([H])C34C([H])([H])C([H])([H])[N+]([H])(C([H])([H])[H])C1([H])C41C([H])([H])C([H])([H])N(C([H])([H])C([H])=C([H])[H])C([H])([H])C21[H]

$$$$
37:4:0
     RDKit          3D

 53 58  0  0  1  0  0  0  0  0999 V2000
   -1.7769   -8.9034    2.3593 C   0  0  0  0  0  0  0  0  0  0  0  0
   -0.9705   -9.4575    3.2855 C   0  0  0  0  0  0  0  0  0  0  0  0
    0.0446  -10.5634    3.0173 C   0  0  0  0  0  0  0  0  0  0  0  0
    1.4481  -10.1277    3.2257 N   0  0  1  0  0  0  0  0  0  0  0  0
    1.7992   -8.8895    2.4987 C   0  0  0  0  0  0  0  0  0  0  0  0
    3.3079   -8.6325    2.5723 C   0  0  0  0  0  0  0  0  0  0  0  0
    3.8441   -8.4270    4.0338 C   0  0  1  0  0  0  0  0  0  0  0  0
    3.2848   -9.6467    4.8690 C   0  0  1  0  0  0  0  0  0  0  0  0
    1.8042  -10.0169    4.6528 C   0  0  0  0  0  0  0  0  0  0  0  0
    4.3213  -10.7370    4.4728 C   0  0  0  0  0  0  0  0  0  0  0  0
    4.2570  -12.0942    4.1010 C   0  0  0  0  0  0  0  0  0  0  0  0
    5.2974  -12.6124    3.2795 C   0  0  0  0  0  0  0  0  0  0  0  0
    6.2978  -11.7662    2.7213 C   0  0  0  0  0  0  0  0  0  0  0  0
    7.1585  -12.2579    1.7879 O   0  0  0  0  0  0  0  0  0  0  0  0
    6.3665  -10.4036    3.0942 C   0  0  0  0  0  0  0  0  0  0  0  0
    5.4466  -10.0237    4.0681 C   0  0  0  0  0  0  0  0  0  0  0  0
    5.3235   -8.6321    4.5196 C   0  0  2  0  0  0  0  0  0  0  0  0
    5.6714   -8.4522    6.0296 C   0  0  0  0  0  0  0  0  0  0  0  0
    5.2058   -7.0521    6.5274 C   0  0  0  0  0  0  0  0  0  0  0  0
    4.2211   -6.4239    5.6338 N   0  0  0  0  0  0  0  0  0  0  0  0
    4.3373   -4.9681    5.6891 C   0  0  0  0  0  0  0  0  0  0  0  0
    4.3650   -6.9707    4.2610 C   0  0  1  0  0  0  0  0  0  0  0  0
    5.7959   -7.4455    3.7644 C   0  0  2  0  0  0  0  0  0  0  0  0
    6.2741   -7.8694    2.3864 C   0  0  0  0  0  0  0  0  0  0  0  0
    6.1189   -7.2765    1.3146 O   0  0  0  0  0  0  0  0  0  0  0  0
    7.0809   -9.2065    2.4209 C   0  0  0  0  0  0  0  0  0  0  0  0
   -1.7564   -9.2140    1.3243 H   0  0  0  0  0  0  0  0  0  0  0  0
   -2.4642   -8.1149    2.6387 H   0  0  0  0  0  0  0  0  0  0  0  0
   -1.0371   -9.1045    4.3053 H   0  0  0  0  0  0  0  0  0  0  0  0
   -0.1690  -11.4034    3.6807 H   0  0  0  0  0  0  0  0  0  0  0  0
   -0.0798  -10.9264    1.9975 H   0  0  0  0  0  0  0  0  0  0  0  0
    1.5004   -8.9998    1.4588 H   0  0  0  0  0  0  0  0  0  0  0  0
    1.2544   -8.0386    2.9077 H   0  0  0  0  0  0  0  0  0  0  0  0
    3.8293   -9.4406    2.0587 H   0  0  0  0  0  0  0  0  0  0  0  0
    3.4814   -7.7368    1.9743 H   0  0  0  0  0  0  0  0  0  0  0  0
    3.3356   -9.4607    5.9379 H   0  0  0  0  0  0  0  0  0  0  0  0
    1.1727   -9.2668    5.1275 H   0  0  0  0  0  0  0  0  0  0  0  0
    1.5943  -10.9592    5.1605 H   0  0  0  0  0  0  0  0  0  0  0  0
    3.4124  -12.7045    4.3835 H   0  0  0  0  0  0  0  0  0  0  0  0
    5.2523  -13.6480    2.9855 H   0  0  0  0  0  0  0  0  0  0  0  0
    6.9624  -13.1539    1.5621 H   0  0  0  0  0  0  0  0  0  0  0  0
    5.2501   -9.2326    6.6575 H   0  0  0  0  0  0  0  0  0  0  0  0
    6.7484   -8.5476    6.1801 H   0  0  0  0  0  0  0  0  0  0  0  0
    4.7822   -7.1121    7.5299 H   0  0  0  0  0  0  0  0  0  0  0  0
    6.0884   -6.4130    6.5958 H   0  0  0  0  0  0  0  0  0  0  0  0
    3.5872   -4.4832    5.0636 H   0  0  0  0  0  0  0  0  0  0  0  0
    5.3188   -4.6126    5.3697 H   0  0  0  0  0  0  0  0  0  0  0  0
    4.1749   -4.6197    6.7106 H   0  0  0  0  0  0  0  0  0  0  0  0
    3.9424   -6.2501    3.5624 H   0  0  0  0  0  0  0  0  0  0  0  0
    6.6031   -6.9417    4.2985 H   0  0  0  0  0  0  0  0  0  0  0  0
    8.0446   -9.0524    2.9068 H   0  0  0  0  0  0  0  0  0  0  0  0
    7.2893   -9.4816    1.3902 H   0  0  0  0  0  0  0  0  0  0  0  0
    2.0187  -10.8698    2.8505 H   0  0  0  0  0  0  0  0  0  0  0  0
  1  2  2  0
  1 27  1  0
  1 28  1  0
  2  3  1  0
  2 29  1  0
  3  4  1  0
  3 30  1  0
  3 31  1  0
  4  9  1  0
  4  5  1  0
  4 53  1  6
  5  6  1  0
  5 32  1  0
  5 33  1  0
  7  6  1  6
  6 34  1  0
  6 35  1  0
  7 17  1  0
  7 22  1  0
  7  8  1  0
  8  9  1  0
  8 10  1  0
  8 36  1  1
  9 37  1  0
  9 38  1  0
 10 16  2  0
 10 11  1  0
 11 12  2  0
 11 39  1  0
 12 13  1  0
 12 40  1  0
 13 14  1  0
 13 15  2  0
 14 41  1  0
 15 26  1  0
 15 16  1  0
 16 17  1  0
 17 23  1  0
 17 18  1  1
 18 19  1  0
 18 42  1  0
 18 43  1  0
 19 20  1  0
 19 44  1  0
 19 45  1  0
 20 21  1  0
 20 22  1  0
 21 46  1  0
 21 47  1  0
 21 48  1  0
 22 23  1  0
 22 49  1  6
 23 24  1  0
 23 50  1  1
 24 25  2  0
 24 26  1  0
 26 51  1  0
 26 52  1  0
M  CHG  1   4   1
M  END
>  <i_m_ct_stereo_status>  (142) 
1

>  <s_m_source_file>  (142) 
/var/tmp/pbs.5076255.sched01/tmphf7gnms3/50i7j3xhgh.sdf

>  <i_m_source_file_index>  (142) 
12

>  <i_lp_mmshare_version>  (142) 
48012

>  <i_f3d_flags>  (142) 
0

>  <s_epik_input>  (142) 
W0NIMl09W0NIXVtDSDJdTihbQ0gyXVtDSDJdMSlbQ0gyXVtDQEhdMmMoYzNbQ0BAXTQ1W0NAQF0xMjYpW2NIXVtjSF1jKFtPSF0pYzNbQ0gyXUMoPU8pW0NIXTVbQ0BASF02TihbQ0gzXSlbQ0gyXVtDSDJdNA==

>  <s_epik_cmdline>  (142) 
J2VwaWtfcHl0aG9uJywgJy1waHQnLCAnMi4wJywgJy1waCcsICc3LjAnLCAnLXRuJywgJzgnLCAnLW1hJywgJzIwMCcsICctaW1hZScsICc8aW5maWxlLm1hZT4nLCAnLW9tYWUnLCAnPG91dGZpbGUubWFlPic=

>  <r_lp_tautomer_probability>  (142) 
1

>  <r_epik_Ionization_Penalty>  (142) 
0.847421

>  <r_epik_Ionization_Penalty_Charging>  (142) 
0.0245211

>  <r_epik_Ionization_Penalty_Neutral>  (142) 
0.8229

>  <r_epik_State_Penalty>  (142) 
1.02025

>  <r_epik_Charging_Adjusted_Penalty>  (142) 
1.04477

>  <i_epik_Tot_Q>  (142) 
1

>  <i_epik_Tot_abs_Q>  (142) 
1

>  <s_lp_Force_Field>  (142) 
OPLS3e

>  <r_lp_Energy>  (142) 
148.801

>  <b_lp_Chiralities_Consistent>  (142) 
1

>  <s_lp_Variant>  (142) 
37:0-5

>  <s_i_glide_gridfile>  (142) 
pfpi4k_grid

>  <i_i_glide_lignum>  (142) 
12

>  <i_i_glide_rotatable_bonds>  (142) 
3

>  <r_i_docking_score>  (142) 
-2.745

>  <r_i_glide_ligand_efficiency>  (142) 
-0.105577

>  <r_i_glide_ligand_efficiency_sa>  (142) 
-0.312771

>  <r_i_glide_ligand_efficiency_ln>  (142) 
-0.644654

>  <r_i_glide_gscore>  (142) 
-2.745

>  <r_i_glide_lipo>  (142) 
-0.369532

>  <r_i_glide_hbond>  (142) 
0

>  <r_i_glide_metal>  (142) 
-0

>  <r_i_glide_rewards>  (142) 
-1.05747

>  <r_i_glide_evdw>  (142) 
-19.25

>  <r_i_glide_ecoul>  (142) 
-4.42875

>  <r_i_glide_erotb>  (142) 
0.308814

>  <r_i_glide_esite>  (142) 
0

>  <r_i_glide_emodel>  (142) 
-28.6063

>  <r_i_glide_energy>  (142) 
-23.6787

>  <r_i_glide_einternal>  (142) 
1.17024

>  <r_i_glide_intrahb_reward>  (142) 
-0

>  <i_i_glide_confnum>  (142) 
1

>  <i_i_glide_posenum>  (142) 
32

>  <r_i_glide_eff_state_penalty>  (142) 
0

>  <ligand_id>  (142) 
37

>  <original_smiles>  (142) 
C=CCN1CCC23C(C1)c1ccc(O)c4c1C21CCN(C)C3C1C(=O)C4

>  <smiles>  (142) 
[H]Oc1c([H])c([H])c2c3c1C([H])([H])C(=O)C1([H])C4([H])N(C([H])([H])[H])C([H])([H])C([H])([H])C31C41C([H])([H])C([H])([H])[N+]([H])(C([H])([H])C([H])=C([H])[H])C([H])([H])C21[H]

$$$$
37:4:1
     RDKit          3D

 53 58  0  0  1  0  0  0  0  0999 V2000
    4.9380   -4.4130   -0.8391 C   0  0  0  0  0  0  0  0  0  0  0  0
    5.3103   -4.9673    0.3299 C   0  0  0  0  0  0  0  0  0  0  0  0
    4.6087   -4.7115    1.6547 C   0  0  0  0  0  0  0  0  0  0  0  0
    4.0274   -5.9405    2.2702 N   0  0  1  0  0  0  0  0  0  0  0  0
    3.2994   -5.6306    3.5231 C   0  0  0  0  0  0  0  0  0  0  0  0
    2.8984   -6.9197    4.2591 C   0  0  0  0  0  0  0  0  0  0  0  0
    1.9272   -7.8419    3.4441 C   0  0  1  0  0  0  0  0  0  0  0  0
    2.5838   -7.9927    2.0159 C   0  0  1  0  0  0  0  0  0  0  0  0
    3.1424   -6.7094    1.3656 C   0  0  0  0  0  0  0  0  0  0  0  0
    3.6344   -9.0996    2.3250 C   0  0  0  0  0  0  0  0  0  0  0  0
    4.9896   -9.3160    2.0055 C   0  0  0  0  0  0  0  0  0  0  0  0
    5.7647  -10.1185    2.8920 C   0  0  0  0  0  0  0  0  0  0  0  0
    5.2432  -10.5727    4.1362 C   0  0  0  0  0  0  0  0  0  0  0  0
    6.0657  -11.1743    5.0411 O   0  0  0  0  0  0  0  0  0  0  0  0
    3.8807  -10.3581    4.4604 C   0  0  0  0  0  0  0  0  0  0  0  0
    3.1371   -9.7551    3.4483 C   0  0  0  0  0  0  0  0  0  0  0  0
    1.7258   -9.3901    3.6374 C   0  0  2  0  0  0  0  0  0  0  0  0
    0.7669  -10.1656    2.6906 C   0  0  0  0  0  0  0  0  0  0  0  0
   -0.6389   -9.4961    2.6771 C   0  0  0  0  0  0  0  0  0  0  0  0
   -0.6293   -8.1196    3.2012 N   0  0  0  0  0  0  0  0  0  0  0  0
   -1.9090   -7.8257    3.8360 C   0  0  0  0  0  0  0  0  0  0  0  0
    0.5219   -7.9518    4.1204 C   0  0  1  0  0  0  0  0  0  0  0  0
    1.0542   -9.2047    4.9452 C   0  0  2  0  0  0  0  0  0  0  0  0
    2.0830   -9.2919    6.0600 C   0  0  0  0  0  0  0  0  0  0  0  0
    2.1460   -8.5962    7.0774 O   0  0  0  0  0  0  0  0  0  0  0  0
    3.1416  -10.4217    5.8210 C   0  0  0  0  0  0  0  0  0  0  0  0
    4.0953   -3.7335   -0.9095 H   0  0  0  0  0  0  0  0  0  0  0  0
    5.4665   -4.6335   -1.7586 H   0  0  0  0  0  0  0  0  0  0  0  0
    6.1601   -5.6380    0.3379 H   0  0  0  0  0  0  0  0  0  0  0  0
    5.3430   -4.2776    2.3328 H   0  0  0  0  0  0  0  0  0  0  0  0
    3.8322   -3.9608    1.5047 H   0  0  0  0  0  0  0  0  0  0  0  0
    3.9455   -5.0440    4.1727 H   0  0  0  0  0  0  0  0  0  0  0  0
    2.4241   -5.0164    3.3041 H   0  0  0  0  0  0  0  0  0  0  0  0
    3.8031   -7.4524    4.5560 H   0  0  0  0  0  0  0  0  0  0  0  0
    2.4269   -6.6035    5.1910 H   0  0  0  0  0  0  0  0  0  0  0  0
    1.8692   -8.3530    1.2830 H   0  0  0  0  0  0  0  0  0  0  0  0
    2.3244   -6.0654    1.0407 H   0  0  0  0  0  0  0  0  0  0  0  0
    3.6861   -7.0034    0.4708 H   0  0  0  0  0  0  0  0  0  0  0  0
    5.4391   -8.8464    1.1435 H   0  0  0  0  0  0  0  0  0  0  0  0
    6.8051  -10.2974    2.6634 H   0  0  0  0  0  0  0  0  0  0  0  0
    5.6177  -11.4502    5.8259 H   0  0  0  0  0  0  0  0  0  0  0  0
    1.1616  -10.2381    1.6823 H   0  0  0  0  0  0  0  0  0  0  0  0
    0.6740  -11.2080    3.0038 H   0  0  0  0  0  0  0  0  0  0  0  0
   -1.0728   -9.4918    1.6813 H   0  0  0  0  0  0  0  0  0  0  0  0
   -1.2974  -10.1106    3.2829 H   0  0  0  0  0  0  0  0  0  0  0  0
   -1.9466   -6.8035    4.2151 H   0  0  0  0  0  0  0  0  0  0  0  0
   -2.1257   -8.5020    4.6656 H   0  0  0  0  0  0  0  0  0  0  0  0
   -2.7143   -7.9280    3.1089 H   0  0  0  0  0  0  0  0  0  0  0  0
    0.3035   -7.1218    4.7929 H   0  0  0  0  0  0  0  0  0  0  0  0
    0.2775   -9.9594    5.0950 H   0  0  0  0  0  0  0  0  0  0  0  0
    2.6779  -11.4023    5.9350 H   0  0  0  0  0  0  0  0  0  0  0  0
    3.8851  -10.3371    6.6107 H   0  0  0  0  0  0  0  0  0  0  0  0
    4.7994   -6.5500    2.5115 H   0  0  0  0  0  0  0  0  0  0  0  0
  1  2  2  0
  1 27  1  0
  1 28  1  0
  2  3  1  0
  2 29  1  0
  3  4  1  0
  3 30  1  0
  3 31  1  0
  4  9  1  0
  4  5  1  0
  4 53  1  1
  5  6  1  0
  5 32  1  0
  5 33  1  0
  7  6  1  1
  6 34  1  0
  6 35  1  0
  7 17  1  0
  7 22  1  0
  7  8  1  0
  8  9  1  0
  8 10  1  0
  8 36  1  6
  9 37  1  0
  9 38  1  0
 10 16  2  0
 10 11  1  0
 11 12  2  0
 11 39  1  0
 12 13  1  0
 12 40  1  0
 13 14  1  0
 13 15  2  0
 14 41  1  0
 15 26  1  0
 15 16  1  0
 16 17  1  0
 17 23  1  0
 17 18  1  6
 18 19  1  0
 18 42  1  0
 18 43  1  0
 19 20  1  0
 19 44  1  0
 19 45  1  0
 20 21  1  0
 20 22  1  0
 21 46  1  0
 21 47  1  0
 21 48  1  0
 22 23  1  0
 22 49  1  1
 23 24  1  0
 23 50  1  1
 24 25  2  0
 24 26  1  0
 26 51  1  0
 26 52  1  0
M  CHG  1   4   1
M  END
>  <i_m_ct_stereo_status>  (143) 
1

>  <s_m_source_file>  (143) 
/var/tmp/pbs.5076255.sched01/tmphf7gnms3/50i7j3xhgh.sdf

>  <i_m_source_file_index>  (143) 
12

>  <i_lp_mmshare_version>  (143) 
48012

>  <i_f3d_flags>  (143) 
0

>  <s_epik_input>  (143) 
W0NIMl09W0NIXVtDSDJdTihbQ0gyXVtDSDJdMSlbQ0gyXVtDQEhdMmMoYzNbQ0BAXTQ1W0NAQF0xMjYpW2NIXVtjSF1jKFtPSF0pYzNbQ0gyXUMoPU8pW0NIXTVbQ0BASF02TihbQ0gzXSlbQ0gyXVtDSDJdNA==

>  <s_epik_cmdline>  (143) 
J2VwaWtfcHl0aG9uJywgJy1waHQnLCAnMi4wJywgJy1waCcsICc3LjAnLCAnLXRuJywgJzgnLCAnLW1hJywgJzIwMCcsICctaW1hZScsICc8aW5maWxlLm1hZT4nLCAnLW9tYWUnLCAnPG91dGZpbGUubWFlPic=

>  <r_lp_tautomer_probability>  (143) 
1

>  <r_epik_Ionization_Penalty>  (143) 
0.847421

>  <r_epik_Ionization_Penalty_Charging>  (143) 
0.0245211

>  <r_epik_Ionization_Penalty_Neutral>  (143) 
0.8229

>  <r_epik_State_Penalty>  (143) 
1.02025

>  <r_epik_Charging_Adjusted_Penalty>  (143) 
1.04477

>  <i_epik_Tot_Q>  (143) 
1

>  <i_epik_Tot_abs_Q>  (143) 
1

>  <s_lp_Force_Field>  (143) 
OPLS3e

>  <r_lp_Energy>  (143) 
148.801

>  <b_lp_Chiralities_Consistent>  (143) 
1

>  <s_lp_Variant>  (143) 
37:0-5

>  <s_i_glide_gridfile>  (143) 
pfpi4k_grid

>  <i_i_glide_lignum>  (143) 
12

>  <i_i_glide_rotatable_bonds>  (143) 
3

>  <r_i_docking_score>  (143) 
-2.64004

>  <r_i_glide_ligand_efficiency>  (143) 
-0.10154

>  <r_i_glide_ligand_efficiency_sa>  (143) 
-0.300812

>  <r_i_glide_ligand_efficiency_ln>  (143) 
-0.620005

>  <r_i_glide_gscore>  (143) 
-2.64004

>  <r_i_glide_lipo>  (143) 
-0.344469

>  <r_i_glide_hbond>  (143) 
0

>  <r_i_glide_metal>  (143) 
-0

>  <r_i_glide_rewards>  (143) 
-1.01276

>  <r_i_glide_evdw>  (143) 
-21.2113

>  <r_i_glide_ecoul>  (143) 
-3.26116

>  <r_i_glide_erotb>  (143) 
0.308814

>  <r_i_glide_esite>  (143) 
-0.0418917

>  <r_i_glide_emodel>  (143) 
-29.5311

>  <r_i_glide_energy>  (143) 
-24.4724

>  <r_i_glide_einternal>  (143) 
0.423588

>  <r_i_glide_intrahb_reward>  (143) 
-0

>  <i_i_glide_confnum>  (143) 
1

>  <i_i_glide_posenum>  (143) 
33

>  <r_i_glide_eff_state_penalty>  (143) 
0

>  <ligand_id>  (143) 
37

>  <original_smiles>  (143) 
C=CCN1CCC23C(C1)c1ccc(O)c4c1C21CCN(C)C3C1C(=O)C4

>  <smiles>  (143) 
[H]Oc1c([H])c([H])c2c3c1C([H])([H])C(=O)C1([H])C4([H])N(C([H])([H])[H])C([H])([H])C([H])([H])C31C41C([H])([H])C([H])([H])[N+]([H])(C([H])([H])C([H])=C([H])[H])C([H])([H])C21[H]

$$$$
37:4:2
     RDKit          3D

 53 58  0  0  1  0  0  0  0  0999 V2000
    3.5332   -2.6204    1.0832 C   0  0  0  0  0  0  0  0  0  0  0  0
    3.7164   -3.9076    0.7399 C   0  0  0  0  0  0  0  0  0  0  0  0
    4.7171   -4.8544    1.3864 C   0  0  0  0  0  0  0  0  0  0  0  0
    4.0673   -5.9973    2.0916 N   0  0  1  0  0  0  0  0  0  0  0  0
    3.3574   -5.6000    3.3277 C   0  0  0  0  0  0  0  0  0  0  0  0
    2.9290   -6.8439    4.1250 C   0  0  0  0  0  0  0  0  0  0  0  0
    1.9327   -7.7799    3.3572 C   0  0  1  0  0  0  0  0  0  0  0  0
    2.5873   -8.0359    1.9412 C   0  0  1  0  0  0  0  0  0  0  0  0
    3.1855   -6.8088    1.2266 C   0  0  0  0  0  0  0  0  0  0  0  0
    3.5981   -9.1557    2.3118 C   0  0  0  0  0  0  0  0  0  0  0  0
    4.9445   -9.4309    2.0058 C   0  0  0  0  0  0  0  0  0  0  0  0
    5.6936  -10.2071    2.9353 C   0  0  0  0  0  0  0  0  0  0  0  0
    5.1575  -10.5775    4.2011 C   0  0  0  0  0  0  0  0  0  0  0  0
    5.9589  -11.1651    5.1334 O   0  0  0  0  0  0  0  0  0  0  0  0
    3.8041  -10.2988    4.5133 C   0  0  0  0  0  0  0  0  0  0  0  0
    3.0795   -9.7302    3.4679 C   0  0  0  0  0  0  0  0  0  0  0  0
    1.6813   -9.3083    3.6306 C   0  0  2  0  0  0  0  0  0  0  0  0
    0.6970  -10.0989    2.7158 C   0  0  0  0  0  0  0  0  0  0  0  0
   -0.6868   -9.3858    2.6726 C   0  0  0  0  0  0  0  0  0  0  0  0
   -0.6337   -7.9866    3.1308 N   0  0  0  0  0  0  0  0  0  0  0  0
   -1.9023   -7.6207    3.7506 C   0  0  0  0  0  0  0  0  0  0  0  0
    0.5252   -7.8091    4.0384 C   0  0  1  0  0  0  0  0  0  0  0  0
    1.0181   -9.0321    4.9282 C   0  0  2  0  0  0  0  0  0  0  0  0
    2.0444   -9.0894    6.0489 C   0  0  0  0  0  0  0  0  0  0  0  0
    2.1291   -8.3413    7.0264 O   0  0  0  0  0  0  0  0  0  0  0  0
    3.0678  -10.2627    5.8752 C   0  0  0  0  0  0  0  0  0  0  0  0
    4.1115   -2.1451    1.8664 H   0  0  0  0  0  0  0  0  0  0  0  0
    2.7834   -2.0227    0.5733 H   0  0  0  0  0  0  0  0  0  0  0  0
    3.1057   -4.3084   -0.0601 H   0  0  0  0  0  0  0  0  0  0  0  0
    5.3801   -5.2300    0.6073 H   0  0  0  0  0  0  0  0  0  0  0  0
    5.3512   -4.3065    2.0818 H   0  0  0  0  0  0  0  0  0  0  0  0
    4.0308   -5.0056    3.9411 H   0  0  0  0  0  0  0  0  0  0  0  0
    2.4998   -4.9730    3.0821 H   0  0  0  0  0  0  0  0  0  0  0  0
    3.8202   -7.3861    4.4454 H   0  0  0  0  0  0  0  0  0  0  0  0
    2.4716   -6.4686    5.0417 H   0  0  0  0  0  0  0  0  0  0  0  0
    1.8608   -8.4086    1.2266 H   0  0  0  0  0  0  0  0  0  0  0  0
    2.3526   -6.2047    0.8690 H   0  0  0  0  0  0  0  0  0  0  0  0
    3.7554   -7.1234    0.3528 H   0  0  0  0  0  0  0  0  0  0  0  0
    5.4047   -9.0253    1.1177 H   0  0  0  0  0  0  0  0  0  0  0  0
    6.7263  -10.4326    2.7150 H   0  0  0  0  0  0  0  0  0  0  0  0
    5.4912  -11.4330    5.9094 H   0  0  0  0  0  0  0  0  0  0  0  0
    1.0743  -10.2421    1.7073 H   0  0  0  0  0  0  0  0  0  0  0  0
    0.5695  -11.1166    3.0919 H   0  0  0  0  0  0  0  0  0  0  0  0
   -1.1202   -9.4164    1.6785 H   0  0  0  0  0  0  0  0  0  0  0  0
   -1.3723   -9.9495    3.3009 H   0  0  0  0  0  0  0  0  0  0  0  0
   -1.9025   -6.5808    4.0768 H   0  0  0  0  0  0  0  0  0  0  0  0
   -2.1382   -8.2402    4.6168 H   0  0  0  0  0  0  0  0  0  0  0  0
   -2.7126   -7.7363    3.0307 H   0  0  0  0  0  0  0  0  0  0  0  0
    0.3354   -6.9366    4.6654 H   0  0  0  0  0  0  0  0  0  0  0  0
    0.2175   -9.7513    5.1214 H   0  0  0  0  0  0  0  0  0  0  0  0
    2.5763  -11.2209    6.0441 H   0  0  0  0  0  0  0  0  0  0  0  0
    3.8161  -10.1592    6.6586 H   0  0  0  0  0  0  0  0  0  0  0  0
    4.8209   -6.6092    2.3798 H   0  0  0  0  0  0  0  0  0  0  0  0
  1  2  2  0
  1 27  1  0
  1 28  1  0
  2  3  1  0
  2 29  1  0
  3  4  1  0
  3 30  1  0
  3 31  1  0
  4  9  1  0
  4  5  1  0
  4 53  1  1
  5  6  1  0
  5 32  1  0
  5 33  1  0
  7  6  1  1
  6 34  1  0
  6 35  1  0
  7 17  1  0
  7 22  1  0
  7  8  1  0
  8  9  1  0
  8 10  1  0
  8 36  1  6
  9 37  1  0
  9 38  1  0
 10 16  2  0
 10 11  1  0
 11 12  2  0
 11 39  1  0
 12 13  1  0
 12 40  1  0
 13 14  1  0
 13 15  2  0
 14 41  1  0
 15 26  1  0
 15 16  1  0
 16 17  1  0
 17 23  1  0
 17 18  1  6
 18 19  1  0
 18 42  1  0
 18 43  1  0
 19 20  1  0
 19 44  1  0
 19 45  1  0
 20 21  1  0
 20 22  1  0
 21 46  1  0
 21 47  1  0
 21 48  1  0
 22 23  1  0
 22 49  1  1
 23 24  1  0
 23 50  1  1
 24 25  2  0
 24 26  1  0
 26 51  1  0
 26 52  1  0
M  CHG  1   4   1
M  END
>  <i_m_ct_stereo_status>  (144) 
1

>  <s_m_source_file>  (144) 
/var/tmp/pbs.5076255.sched01/tmphf7gnms3/50i7j3xhgh.sdf

>  <i_m_source_file_index>  (144) 
12

>  <i_lp_mmshare_version>  (144) 
48012

>  <i_f3d_flags>  (144) 
0

>  <s_epik_input>  (144) 
W0NIMl09W0NIXVtDSDJdTihbQ0gyXVtDSDJdMSlbQ0gyXVtDQEhdMmMoYzNbQ0BAXTQ1W0NAQF0xMjYpW2NIXVtjSF1jKFtPSF0pYzNbQ0gyXUMoPU8pW0NIXTVbQ0BASF02TihbQ0gzXSlbQ0gyXVtDSDJdNA==

>  <s_epik_cmdline>  (144) 
J2VwaWtfcHl0aG9uJywgJy1waHQnLCAnMi4wJywgJy1waCcsICc3LjAnLCAnLXRuJywgJzgnLCAnLW1hJywgJzIwMCcsICctaW1hZScsICc8aW5maWxlLm1hZT4nLCAnLW9tYWUnLCAnPG91dGZpbGUubWFlPic=

>  <r_lp_tautomer_probability>  (144) 
1

>  <r_epik_Ionization_Penalty>  (144) 
0.847421

>  <r_epik_Ionization_Penalty_Charging>  (144) 
0.0245211

>  <r_epik_Ionization_Penalty_Neutral>  (144) 
0.8229

>  <r_epik_State_Penalty>  (144) 
1.02025

>  <r_epik_Charging_Adjusted_Penalty>  (144) 
1.04477

>  <i_epik_Tot_Q>  (144) 
1

>  <i_epik_Tot_abs_Q>  (144) 
1

>  <s_lp_Force_Field>  (144) 
OPLS3e

>  <r_lp_Energy>  (144) 
148.801

>  <b_lp_Chiralities_Consistent>  (144) 
1

>  <s_lp_Variant>  (144) 
37:0-5

>  <s_i_glide_gridfile>  (144) 
pfpi4k_grid

>  <i_i_glide_lignum>  (144) 
12

>  <i_i_glide_rotatable_bonds>  (144) 
3

>  <r_i_docking_score>  (144) 
-2.5685

>  <r_i_glide_ligand_efficiency>  (144) 
-0.0987885

>  <r_i_glide_ligand_efficiency_sa>  (144) 
-0.29266

>  <r_i_glide_ligand_efficiency_ln>  (144) 
-0.603204

>  <r_i_glide_gscore>  (144) 
-2.5685

>  <r_i_glide_lipo>  (144) 
-0.26533

>  <r_i_glide_hbond>  (144) 
0

>  <r_i_glide_metal>  (144) 
-0

>  <r_i_glide_rewards>  (144) 
-1.01276

>  <r_i_glide_evdw>  (144) 
-20.5354

>  <r_i_glide_ecoul>  (144) 
-3.57699

>  <r_i_glide_erotb>  (144) 
0.308814

>  <r_i_glide_esite>  (144) 
-0.0359045

>  <r_i_glide_emodel>  (144) 
-28.884

>  <r_i_glide_energy>  (144) 
-24.1124

>  <r_i_glide_einternal>  (144) 
0.77828

>  <r_i_glide_intrahb_reward>  (144) 
-0

>  <i_i_glide_confnum>  (144) 
1

>  <i_i_glide_posenum>  (144) 
19

>  <r_i_glide_eff_state_penalty>  (144) 
0

>  <ligand_id>  (144) 
37

>  <original_smiles>  (144) 
C=CCN1CCC23C(C1)c1ccc(O)c4c1C21CCN(C)C3C1C(=O)C4

>  <smiles>  (144) 
[H]Oc1c([H])c([H])c2c3c1C([H])([H])C(=O)C1([H])C4([H])N(C([H])([H])[H])C([H])([H])C([H])([H])C31C41C([H])([H])C([H])([H])[N+]([H])(C([H])([H])C([H])=C([H])[H])C([H])([H])C21[H]

$$$$
37:5:0
     RDKit          3D

 53 58  0  0  1  0  0  0  0  0999 V2000
    6.0348   -2.5812   -1.7477 C   0  0  0  0  0  0  0  0  0  0  0  0
    5.1187   -1.5957   -1.6946 C   0  0  0  0  0  0  0  0  0  0  0  0
    3.9470   -1.4558   -0.7249 C   0  0  0  0  0  0  0  0  0  0  0  0
    3.7611   -2.5997    0.2169 N   0  0  1  0  0  0  0  0  0  0  0  0
    2.8306   -2.2685    1.3218 C   0  0  0  0  0  0  0  0  0  0  0  0
    2.8445   -3.3705    2.3936 C   0  0  0  0  0  0  0  0  0  0  0  0
    2.3796   -4.7812    1.8925 C   0  0  1  0  0  0  0  0  0  0  0  0
    3.2192   -5.0319    0.5613 C   0  0  1  0  0  0  0  0  0  0  0  0
    3.2982   -3.8540   -0.4309 C   0  0  0  0  0  0  0  0  0  0  0  0
    4.5967   -5.5646    1.0844 C   0  0  0  0  0  0  0  0  0  0  0  0
    5.9579   -5.6100    0.7235 C   0  0  0  0  0  0  0  0  0  0  0  0
    6.8886   -6.1985    1.6327 C   0  0  0  0  0  0  0  0  0  0  0  0
    6.4824   -6.7512    2.8910 C   0  0  0  0  0  0  0  0  0  0  0  0
    7.4066   -7.2906    3.7283 O   0  0  0  0  0  0  0  0  0  0  0  0
    5.1114   -6.7446    3.2566 C   0  0  0  0  0  0  0  0  0  0  0  0
    4.3020   -6.1670    2.2935 C   0  0  0  0  0  0  0  0  0  0  0  0
    2.8832   -6.1385    2.4457 C   0  0  2  0  0  0  0  0  0  0  0  0
    2.3222   -7.4827    1.7979 C   0  0  0  0  0  0  0  0  0  0  0  0
    0.8457   -7.3129    1.3975 C   0  0  0  0  0  0  0  0  0  0  0  0
    0.2007   -6.3563    2.2808 N   0  0  0  0  0  0  0  0  0  0  0  0
   -0.5891   -7.0069    3.3223 C   0  0  0  0  0  0  0  0  0  0  0  0
    1.2139   -5.4219    2.8217 C   0  0  1  0  0  0  0  0  0  0  0  0
    2.4077   -5.7768    3.7936 C   0  0  1  0  0  0  0  0  0  0  0  0
    2.8020   -6.9771    4.6218 C   0  0  0  0  0  0  0  0  0  0  0  0
    2.0880   -7.7347    5.2757 O   0  0  0  0  0  0  0  0  0  0  0  0
    4.3556   -7.2425    4.5358 C   0  0  0  0  0  0  0  0  0  0  0  0
    6.0274   -3.3953   -1.0399 H   0  0  0  0  0  0  0  0  0  0  0  0
    6.8178   -2.6103   -2.5019 H   0  0  0  0  0  0  0  0  0  0  0  0
    5.1921   -0.7934   -2.4054 H   0  0  0  0  0  0  0  0  0  0  0  0
    4.1203   -0.5357   -0.1673 H   0  0  0  0  0  0  0  0  0  0  0  0
    3.0343   -1.2956   -1.2950 H   0  0  0  0  0  0  0  0  0  0  0  0
    3.1366   -1.3325    1.7827 H   0  0  0  0  0  0  0  0  0  0  0  0
    1.8293   -2.1138    0.9236 H   0  0  0  0  0  0  0  0  0  0  0  0
    3.8418   -3.4299    2.8343 H   0  0  0  0  0  0  0  0  0  0  0  0
    2.1881   -3.0218    3.1916 H   0  0  0  0  0  0  0  0  0  0  0  0
    2.7749   -5.8118   -0.0428 H   0  0  0  0  0  0  0  0  0  0  0  0
    2.3252   -3.6717   -0.8899 H   0  0  0  0  0  0  0  0  0  0  0  0
    3.9441   -4.1704   -1.2474 H   0  0  0  0  0  0  0  0  0  0  0  0
    6.2963   -5.2360   -0.2273 H   0  0  0  0  0  0  0  0  0  0  0  0
    7.9356   -6.2433    1.3598 H   0  0  0  0  0  0  0  0  0  0  0  0
    7.0303   -7.6665    4.5080 H   0  0  0  0  0  0  0  0  0  0  0  0
    2.8799   -7.7573    0.9046 H   0  0  0  0  0  0  0  0  0  0  0  0
    2.4324   -8.3541    2.4508 H   0  0  0  0  0  0  0  0  0  0  0  0
    0.7901   -6.8871    0.3981 H   0  0  0  0  0  0  0  0  0  0  0  0
    0.3196   -8.2648    1.3644 H   0  0  0  0  0  0  0  0  0  0  0  0
   -1.0373   -6.2800    4.0043 H   0  0  0  0  0  0  0  0  0  0  0  0
    0.0020   -7.7016    3.9173 H   0  0  0  0  0  0  0  0  0  0  0  0
   -1.4074   -7.5773    2.8763 H   0  0  0  0  0  0  0  0  0  0  0  0
    0.6428   -4.6242    3.3002 H   0  0  0  0  0  0  0  0  0  0  0  0
    2.8694   -4.8854    4.2104 H   0  0  0  0  0  0  0  0  0  0  0  0
    4.5264   -8.3146    4.6114 H   0  0  0  0  0  0  0  0  0  0  0  0
    4.8209   -6.7806    5.4072 H   0  0  0  0  0  0  0  0  0  0  0  0
    4.6677   -2.7726    0.6395 H   0  0  0  0  0  0  0  0  0  0  0  0
  1  2  2  0
  1 27  1  0
  1 28  1  0
  2  3  1  0
  2 29  1  0
  3  4  1  0
  3 30  1  0
  3 31  1  0
  4  9  1  0
  4  5  1  0
  4 53  1  1
  5  6  1  0
  5 32  1  0
  5 33  1  0
  7  6  1  1
  6 34  1  0
  6 35  1  0
  7 17  1  0
  7 22  1  0
  7  8  1  0
  8  9  1  0
  8 10  1  0
  8 36  1  6
  9 37  1  0
  9 38  1  0
 10 16  2  0
 10 11  1  0
 11 12  2  0
 11 39  1  0
 12 13  1  0
 12 40  1  0
 13 14  1  0
 13 15  2  0
 14 41  1  0
 15 26  1  0
 15 16  1  0
 16 17  1  0
 17 23  1  0
 17 18  1  6
 18 19  1  0
 18 42  1  0
 18 43  1  0
 19 20  1  0
 19 44  1  0
 19 45  1  0
 20 21  1  0
 20 22  1  0
 21 46  1  0
 21 47  1  0
 21 48  1  0
 22 23  1  0
 22 49  1  1
 23 24  1  0
 23 50  1  1
 24 25  2  0
 24 26  1  0
 26 51  1  0
 26 52  1  0
M  CHG  1   4   1
M  END
>  <i_m_ct_stereo_status>  (145) 
1

>  <s_m_source_file>  (145) 
/var/tmp/pbs.5076255.sched01/tmphf7gnms3/50i7j3xhgh.sdf

>  <i_m_source_file_index>  (145) 
13

>  <i_lp_mmshare_version>  (145) 
48012

>  <i_f3d_flags>  (145) 
0

>  <s_epik_input>  (145) 
W0NIMl09W0NIXVtDSDJdTihbQ0gyXVtDSDJdMSlbQ0gyXVtDQEhdMmMoYzNbQ0BAXTQ1W0NAQF0xMjYpW2NIXVtjSF1jKFtPSF0pYzNbQ0gyXUMoPU8pW0NIXTVbQ0BASF02TihbQ0gzXSlbQ0gyXVtDSDJdNA==

>  <s_epik_cmdline>  (145) 
J2VwaWtfcHl0aG9uJywgJy1waHQnLCAnMi4wJywgJy1waCcsICc3LjAnLCAnLXRuJywgJzgnLCAnLW1hJywgJzIwMCcsICctaW1hZScsICc8aW5maWxlLm1hZT4nLCAnLW9tYWUnLCAnPG91dGZpbGUubWFlPic=

>  <r_lp_tautomer_probability>  (145) 
1

>  <r_epik_Ionization_Penalty>  (145) 
0.847421

>  <r_epik_Ionization_Penalty_Charging>  (145) 
0.0245211

>  <r_epik_Ionization_Penalty_Neutral>  (145) 
0.8229

>  <r_epik_State_Penalty>  (145) 
1.02025

>  <r_epik_Charging_Adjusted_Penalty>  (145) 
1.04477

>  <i_epik_Tot_Q>  (145) 
1

>  <i_epik_Tot_abs_Q>  (145) 
1

>  <s_lp_Force_Field>  (145) 
OPLS3e

>  <r_lp_Energy>  (145) 
165.458

>  <b_lp_Chiralities_Consistent>  (145) 
1

>  <s_lp_Variant>  (145) 
37:0-6

>  <s_i_glide_gridfile>  (145) 
pfpi4k_grid

>  <i_i_glide_lignum>  (145) 
13

>  <i_i_glide_rotatable_bonds>  (145) 
3

>  <r_i_docking_score>  (145) 
-3.16012

>  <r_i_glide_ligand_efficiency>  (145) 
-0.121543

>  <r_i_glide_ligand_efficiency_sa>  (145) 
-0.360071

>  <r_i_glide_ligand_efficiency_ln>  (145) 
-0.742145

>  <r_i_glide_gscore>  (145) 
-3.16012

>  <r_i_glide_lipo>  (145) 
-0.246533

>  <r_i_glide_hbond>  (145) 
-0.185415

>  <r_i_glide_metal>  (145) 
-0

>  <r_i_glide_rewards>  (145) 
-1.01276

>  <r_i_glide_evdw>  (145) 
-19.8599

>  <r_i_glide_ecoul>  (145) 
-6.74498

>  <r_i_glide_erotb>  (145) 
0.308814

>  <r_i_glide_esite>  (145) 
-0.0194884

>  <r_i_glide_emodel>  (145) 
-31.8863

>  <r_i_glide_energy>  (145) 
-26.6049

>  <r_i_glide_einternal>  (145) 
2.6621

>  <r_i_glide_intrahb_reward>  (145) 
-0

>  <i_i_glide_confnum>  (145) 
2

>  <i_i_glide_posenum>  (145) 
15

>  <r_i_glide_eff_state_penalty>  (145) 
0

>  <ligand_id>  (145) 
37

>  <original_smiles>  (145) 
C=CCN1CCC23C(C1)c1ccc(O)c4c1C21CCN(C)C3C1C(=O)C4

>  <smiles>  (145) 
[H]Oc1c([H])c([H])c2c3c1C([H])([H])C(=O)C1([H])C4([H])N(C([H])([H])[H])C([H])([H])C([H])([H])C31C41C([H])([H])C([H])([H])[N+]([H])(C([H])([H])C([H])=C([H])[H])C([H])([H])C21[H]

$$$$
37:5:1
     RDKit          3D

 53 58  0  0  1  0  0  0  0  0999 V2000
    5.9233   -2.9217    1.6776 C   0  0  0  0  0  0  0  0  0  0  0  0
    5.4419   -2.1865    2.6947 C   0  0  0  0  0  0  0  0  0  0  0  0
    4.4686   -2.6387    3.7735 C   0  0  0  0  0  0  0  0  0  0  0  0
    3.9330   -4.0298    3.6226 N   0  0  1  0  0  0  0  0  0  0  0  0
    3.1378   -4.4629    4.8074 C   0  0  0  0  0  0  0  0  0  0  0  0
    2.8073   -5.9596    4.7268 C   0  0  0  0  0  0  0  0  0  0  0  0
    1.9501   -6.3651    3.4844 C   0  0  1  0  0  0  0  0  0  0  0  0
    2.6935   -5.7134    2.2230 C   0  0  1  0  0  0  0  0  0  0  0  0
    3.1250   -4.2414    2.3860 C   0  0  0  0  0  0  0  0  0  0  0  0
    3.8485   -6.7291    1.9103 C   0  0  0  0  0  0  0  0  0  0  0  0
    5.1374   -6.7546    1.3397 C   0  0  0  0  0  0  0  0  0  0  0  0
    5.8462   -7.9924    1.3261 C   0  0  0  0  0  0  0  0  0  0  0  0
    5.2789   -9.1984    1.8319 C   0  0  0  0  0  0  0  0  0  0  0  0
    5.9869  -10.3635    1.7532 O   0  0  0  0  0  0  0  0  0  0  0  0
    3.9779   -9.2000    2.3845 C   0  0  0  0  0  0  0  0  0  0  0  0
    3.3801   -7.9352    2.3527 C   0  0  0  0  0  0  0  0  0  0  0  0
    2.0346   -7.7470    2.7834 C   0  0  2  0  0  0  0  0  0  0  0  0
    1.1140   -7.9989    1.5148 C   0  0  0  0  0  0  0  0  0  0  0  0
   -0.2520   -7.3220    1.6808 C   0  0  0  0  0  0  0  0  0  0  0  0
   -0.5990   -7.2308    3.0937 N   0  0  0  0  0  0  0  0  0  0  0  0
   -1.5549   -8.2616    3.4859 C   0  0  0  0  0  0  0  0  0  0  0  0
    0.6387   -7.2423    3.9068 C   0  0  1  0  0  0  0  0  0  0  0  0
    1.6679   -8.4504    4.0346 C   0  0  1  0  0  0  0  0  0  0  0  0
    1.6969   -9.9198    3.6139 C   0  0  0  0  0  0  0  0  0  0  0  0
    0.7765  -10.7315    3.6379 O   0  0  0  0  0  0  0  0  0  0  0  0
    3.1112  -10.3239    3.0359 C   0  0  0  0  0  0  0  0  0  0  0  0
    5.6257   -3.9510    1.5569 H   0  0  0  0  0  0  0  0  0  0  0  0
    6.6190   -2.4955    0.9594 H   0  0  0  0  0  0  0  0  0  0  0  0
    5.7661   -1.1672    2.7833 H   0  0  0  0  0  0  0  0  0  0  0  0
    4.9738   -2.5516    4.7351 H   0  0  0  0  0  0  0  0  0  0  0  0
    3.6319   -1.9436    3.8005 H   0  0  0  0  0  0  0  0  0  0  0  0
    3.7117   -4.2709    5.7129 H   0  0  0  0  0  0  0  0  0  0  0  0
    2.2312   -3.8569    4.8655 H   0  0  0  0  0  0  0  0  0  0  0  0
    3.7419   -6.5297    4.7535 H   0  0  0  0  0  0  0  0  0  0  0  0
    2.2831   -6.2102    5.6503 H   0  0  0  0  0  0  0  0  0  0  0  0
    2.0381   -5.6667    1.3683 H   0  0  0  0  0  0  0  0  0  0  0  0
    2.2362   -3.5987    2.4587 H   0  0  0  0  0  0  0  0  0  0  0  0
    3.6942   -3.9582    1.5034 H   0  0  0  0  0  0  0  0  0  0  0  0
    5.5875   -5.8798    0.9058 H   0  0  0  0  0  0  0  0  0  0  0  0
    6.8362   -8.0220    0.8924 H   0  0  0  0  0  0  0  0  0  0  0  0
    5.4212  -11.1239    1.6732 H   0  0  0  0  0  0  0  0  0  0  0  0
    1.5375   -7.5873    0.6042 H   0  0  0  0  0  0  0  0  0  0  0  0
    1.0166   -9.0606    1.2932 H   0  0  0  0  0  0  0  0  0  0  0  0
   -0.1751   -6.2926    1.3295 H   0  0  0  0  0  0  0  0  0  0  0  0
   -1.0163   -7.8081    1.0797 H   0  0  0  0  0  0  0  0  0  0  0  0
   -1.7711   -8.2168    4.5541 H   0  0  0  0  0  0  0  0  0  0  0  0
   -1.1946   -9.2631    3.2584 H   0  0  0  0  0  0  0  0  0  0  0  0
   -2.4996   -8.1267    2.9574 H   0  0  0  0  0  0  0  0  0  0  0  0
    0.3143   -6.9785    4.9192 H   0  0  0  0  0  0  0  0  0  0  0  0
    2.3706   -8.3023    4.8456 H   0  0  0  0  0  0  0  0  0  0  0  0
    2.9596  -11.0989    2.2843 H   0  0  0  0  0  0  0  0  0  0  0  0
    3.6826  -10.7769    3.8490 H   0  0  0  0  0  0  0  0  0  0  0  0
    4.7492   -4.6520    3.5723 H   0  0  0  0  0  0  0  0  0  0  0  0
  1  2  2  0
  1 27  1  0
  1 28  1  0
  2  3  1  0
  2 29  1  0
  3  4  1  0
  3 30  1  0
  3 31  1  0
  4  9  1  0
  4  5  1  0
  4 53  1  6
  5  6  1  0
  5 32  1  0
  5 33  1  0
  7  6  1  1
  6 34  1  0
  6 35  1  0
  7 17  1  0
  7 22  1  0
  7  8  1  0
  8  9  1  0
  8 10  1  0
  8 36  1  6
  9 37  1  0
  9 38  1  0
 10 16  2  0
 10 11  1  0
 11 12  2  0
 11 39  1  0
 12 13  1  0
 12 40  1  0
 13 14  1  0
 13 15  2  0
 14 41  1  0
 15 26  1  0
 15 16  1  0
 16 17  1  0
 17 23  1  0
 17 18  1  6
 18 19  1  0
 18 42  1  0
 18 43  1  0
 19 20  1  0
 19 44  1  0
 19 45  1  0
 20 21  1  0
 20 22  1  0
 21 46  1  0
 21 47  1  0
 21 48  1  0
 22 23  1  0
 22 49  1  1
 23 24  1  0
 23 50  1  1
 24 25  2  0
 24 26  1  0
 26 51  1  0
 26 52  1  0
M  CHG  1   4   1
M  END
>  <i_m_ct_stereo_status>  (146) 
1

>  <s_m_source_file>  (146) 
/var/tmp/pbs.5076255.sched01/tmphf7gnms3/50i7j3xhgh.sdf

>  <i_m_source_file_index>  (146) 
13

>  <i_lp_mmshare_version>  (146) 
48012

>  <i_f3d_flags>  (146) 
0

>  <s_epik_input>  (146) 
W0NIMl09W0NIXVtDSDJdTihbQ0gyXVtDSDJdMSlbQ0gyXVtDQEhdMmMoYzNbQ0BAXTQ1W0NAQF0xMjYpW2NIXVtjSF1jKFtPSF0pYzNbQ0gyXUMoPU8pW0NIXTVbQ0BASF02TihbQ0gzXSlbQ0gyXVtDSDJdNA==

>  <s_epik_cmdline>  (146) 
J2VwaWtfcHl0aG9uJywgJy1waHQnLCAnMi4wJywgJy1waCcsICc3LjAnLCAnLXRuJywgJzgnLCAnLW1hJywgJzIwMCcsICctaW1hZScsICc8aW5maWxlLm1hZT4nLCAnLW9tYWUnLCAnPG91dGZpbGUubWFlPic=

>  <r_lp_tautomer_probability>  (146) 
1

>  <r_epik_Ionization_Penalty>  (146) 
0.847421

>  <r_epik_Ionization_Penalty_Charging>  (146) 
0.0245211

>  <r_epik_Ionization_Penalty_Neutral>  (146) 
0.8229

>  <r_epik_State_Penalty>  (146) 
1.02025

>  <r_epik_Charging_Adjusted_Penalty>  (146) 
1.04477

>  <i_epik_Tot_Q>  (146) 
1

>  <i_epik_Tot_abs_Q>  (146) 
1

>  <s_lp_Force_Field>  (146) 
OPLS3e

>  <r_lp_Energy>  (146) 
165.458

>  <b_lp_Chiralities_Consistent>  (146) 
1

>  <s_lp_Variant>  (146) 
37:0-6

>  <s_i_glide_gridfile>  (146) 
pfpi4k_grid

>  <i_i_glide_lignum>  (146) 
13

>  <i_i_glide_rotatable_bonds>  (146) 
3

>  <r_i_docking_score>  (146) 
-3.01268

>  <r_i_glide_ligand_efficiency>  (146) 
-0.115872

>  <r_i_glide_ligand_efficiency_sa>  (146) 
-0.343272

>  <r_i_glide_ligand_efficiency_ln>  (146) 
-0.707519

>  <r_i_glide_gscore>  (146) 
-3.01268

>  <r_i_glide_lipo>  (146) 
-0.367726

>  <r_i_glide_hbond>  (146) 
-0.140086

>  <r_i_glide_metal>  (146) 
-0

>  <r_i_glide_rewards>  (146) 
-1.02262

>  <r_i_glide_evdw>  (146) 
-20.8762

>  <r_i_glide_ecoul>  (146) 
-4.98168

>  <r_i_glide_erotb>  (146) 
0.308814

>  <r_i_glide_esite>  (146) 
0

>  <r_i_glide_emodel>  (146) 
-29.6805

>  <r_i_glide_energy>  (146) 
-25.8579

>  <r_i_glide_einternal>  (146) 
3.66146

>  <r_i_glide_intrahb_reward>  (146) 
-0

>  <i_i_glide_confnum>  (146) 
2

>  <i_i_glide_posenum>  (146) 
4

>  <r_i_glide_eff_state_penalty>  (146) 
0

>  <ligand_id>  (146) 
37

>  <original_smiles>  (146) 
C=CCN1CCC23C(C1)c1ccc(O)c4c1C21CCN(C)C3C1C(=O)C4

>  <smiles>  (146) 
[H]Oc1c([H])c([H])c2c3c1C([H])([H])C(=O)C1([H])C4([H])N(C([H])([H])[H])C([H])([H])C([H])([H])C31C41C([H])([H])C([H])([H])[N+]([H])(C([H])([H])C([H])=C([H])[H])C([H])([H])C21[H]

$$$$
37:5:2
     RDKit          3D

 53 58  0  0  1  0  0  0  0  0999 V2000
    5.6581   -2.5983    6.6538 C   0  0  0  0  0  0  0  0  0  0  0  0
    4.6625   -2.9025    5.8049 C   0  0  0  0  0  0  0  0  0  0  0  0
    3.3267   -3.4977    6.2279 C   0  0  0  0  0  0  0  0  0  0  0  0
    3.0295   -4.8096    5.5824 N   0  0  1  0  0  0  0  0  0  0  0  0
    1.9747   -5.5530    6.3089 C   0  0  0  0  0  0  0  0  0  0  0  0
    1.8219   -6.9791    5.7546 C   0  0  0  0  0  0  0  0  0  0  0  0
    1.3735   -7.0517    4.2597 C   0  0  1  0  0  0  0  0  0  0  0  0
    2.3697   -6.0599    3.4940 C   0  0  1  0  0  0  0  0  0  0  0  0
    2.6375   -4.6900    4.1598 C   0  0  0  0  0  0  0  0  0  0  0  0
    3.6476   -6.9250    3.2494 C   0  0  0  0  0  0  0  0  0  0  0  0
    5.0398   -6.7599    3.0951 C   0  0  0  0  0  0  0  0  0  0  0  0
    5.8367   -7.9360    2.9482 C   0  0  0  0  0  0  0  0  0  0  0  0
    5.2682   -9.2529    2.9521 C   0  0  0  0  0  0  0  0  0  0  0  0
    6.0704  -10.3448    2.8007 O   0  0  0  0  0  0  0  0  0  0  0  0
    3.8725   -9.4276    3.0933 C   0  0  0  0  0  0  0  0  0  0  0  0
    3.1914   -8.2194    3.2087 C   0  0  0  0  0  0  0  0  0  0  0  0
    1.7642   -8.1826    3.2741 C   0  0  2  0  0  0  0  0  0  0  0  0
    1.2433   -8.0969    1.7731 C   0  0  0  0  0  0  0  0  0  0  0  0
   -0.1734   -7.5023    1.7253 C   0  0  0  0  0  0  0  0  0  0  0  0
   -0.8924   -7.8078    2.9514 N   0  0  0  0  0  0  0  0  0  0  0  0
   -1.8089   -8.9318    2.7824 C   0  0  0  0  0  0  0  0  0  0  0  0
    0.0853   -8.0228    4.0488 C   0  0  1  0  0  0  0  0  0  0  0  0
    1.1470   -9.1940    4.1537 C   0  0  1  0  0  0  0  0  0  0  0  0
    1.4188  -10.4862    3.4147 C   0  0  0  0  0  0  0  0  0  0  0  0
    0.6173  -11.3048    2.9640 O   0  0  0  0  0  0  0  0  0  0  0  0
    2.9599  -10.6996    3.1676 C   0  0  0  0  0  0  0  0  0  0  0  0
    5.5805   -2.7802    7.7207 H   0  0  0  0  0  0  0  0  0  0  0  0
    6.5816   -2.1564    6.2947 H   0  0  0  0  0  0  0  0  0  0  0  0
    4.8073   -2.6940    4.7522 H   0  0  0  0  0  0  0  0  0  0  0  0
    3.3508   -3.6116    7.3128 H   0  0  0  0  0  0  0  0  0  0  0  0
    2.5401   -2.7741    6.0106 H   0  0  0  0  0  0  0  0  0  0  0  0
    2.2486   -5.6209    7.3599 H   0  0  0  0  0  0  0  0  0  0  0  0
    1.0309   -5.0042    6.2596 H   0  0  0  0  0  0  0  0  0  0  0  0
    2.7606   -7.5185    5.9030 H   0  0  0  0  0  0  0  0  0  0  0  0
    1.0903   -7.4776    6.3940 H   0  0  0  0  0  0  0  0  0  0  0  0
    1.9664   -5.7802    2.5266 H   0  0  0  0  0  0  0  0  0  0  0  0
    1.7428   -4.0688    4.0888 H   0  0  0  0  0  0  0  0  0  0  0  0
    3.4136   -4.1727    3.5992 H   0  0  0  0  0  0  0  0  0  0  0  0
    5.4834   -5.7743    3.0810 H   0  0  0  0  0  0  0  0  0  0  0  0
    6.9020   -7.8320    2.8174 H   0  0  0  0  0  0  0  0  0  0  0  0
    5.5794  -11.1404    2.6469 H   0  0  0  0  0  0  0  0  0  0  0  0
    1.8844   -7.4672    1.1613 H   0  0  0  0  0  0  0  0  0  0  0  0
    1.2795   -9.0594    1.2735 H   0  0  0  0  0  0  0  0  0  0  0  0
   -0.1031   -6.4160    1.6967 H   0  0  0  0  0  0  0  0  0  0  0  0
   -0.7183   -7.8153    0.8355 H   0  0  0  0  0  0  0  0  0  0  0  0
   -2.3127   -9.1787    3.7168 H   0  0  0  0  0  0  0  0  0  0  0  0
   -1.3093   -9.8292    2.4203 H   0  0  0  0  0  0  0  0  0  0  0  0
   -2.5859   -8.6778    2.0610 H   0  0  0  0  0  0  0  0  0  0  0  0
   -0.5165   -8.0617    4.9560 H   0  0  0  0  0  0  0  0  0  0  0  0
    1.5855   -9.2585    5.1467 H   0  0  0  0  0  0  0  0  0  0  0  0
    3.0895  -11.2415    2.2296 H   0  0  0  0  0  0  0  0  0  0  0  0
    3.3405  -11.3535    3.9553 H   0  0  0  0  0  0  0  0  0  0  0  0
    3.8748   -5.3664    5.6236 H   0  0  0  0  0  0  0  0  0  0  0  0
  1  2  2  0
  1 27  1  0
  1 28  1  0
  2  3  1  0
  2 29  1  0
  3  4  1  0
  3 30  1  0
  3 31  1  0
  4  9  1  0
  4  5  1  0
  4 53  1  6
  5  6  1  0
  5 32  1  0
  5 33  1  0
  7  6  1  1
  6 34  1  0
  6 35  1  0
  7 17  1  0
  7 22  1  0
  7  8  1  0
  8  9  1  0
  8 10  1  0
  8 36  1  6
  9 37  1  0
  9 38  1  0
 10 16  2  0
 10 11  1  0
 11 12  2  0
 11 39  1  0
 12 13  1  0
 12 40  1  0
 13 14  1  0
 13 15  2  0
 14 41  1  0
 15 26  1  0
 15 16  1  0
 16 17  1  0
 17 23  1  0
 17 18  1  6
 18 19  1  0
 18 42  1  0
 18 43  1  0
 19 20  1  0
 19 44  1  0
 19 45  1  0
 20 21  1  0
 20 22  1  0
 21 46  1  0
 21 47  1  0
 21 48  1  0
 22 23  1  0
 22 49  1  1
 23 24  1  0
 23 50  1  1
 24 25  2  0
 24 26  1  0
 26 51  1  0
 26 52  1  0
M  CHG  1   4   1
M  END
>  <i_m_ct_stereo_status>  (147) 
1

>  <s_m_source_file>  (147) 
/var/tmp/pbs.5076255.sched01/tmphf7gnms3/50i7j3xhgh.sdf

>  <i_m_source_file_index>  (147) 
13

>  <i_lp_mmshare_version>  (147) 
48012

>  <i_f3d_flags>  (147) 
0

>  <s_epik_input>  (147) 
W0NIMl09W0NIXVtDSDJdTihbQ0gyXVtDSDJdMSlbQ0gyXVtDQEhdMmMoYzNbQ0BAXTQ1W0NAQF0xMjYpW2NIXVtjSF1jKFtPSF0pYzNbQ0gyXUMoPU8pW0NIXTVbQ0BASF02TihbQ0gzXSlbQ0gyXVtDSDJdNA==

>  <s_epik_cmdline>  (147) 
J2VwaWtfcHl0aG9uJywgJy1waHQnLCAnMi4wJywgJy1waCcsICc3LjAnLCAnLXRuJywgJzgnLCAnLW1hJywgJzIwMCcsICctaW1hZScsICc8aW5maWxlLm1hZT4nLCAnLW9tYWUnLCAnPG91dGZpbGUubWFlPic=

>  <r_lp_tautomer_probability>  (147) 
1

>  <r_epik_Ionization_Penalty>  (147) 
0.847421

>  <r_epik_Ionization_Penalty_Charging>  (147) 
0.0245211

>  <r_epik_Ionization_Penalty_Neutral>  (147) 
0.8229

>  <r_epik_State_Penalty>  (147) 
1.02025

>  <r_epik_Charging_Adjusted_Penalty>  (147) 
1.04477

>  <i_epik_Tot_Q>  (147) 
1

>  <i_epik_Tot_abs_Q>  (147) 
1

>  <s_lp_Force_Field>  (147) 
OPLS3e

>  <r_lp_Energy>  (147) 
165.458

>  <b_lp_Chiralities_Consistent>  (147) 
1

>  <s_lp_Variant>  (147) 
37:0-6

>  <s_i_glide_gridfile>  (147) 
pfpi4k_grid

>  <i_i_glide_lignum>  (147) 
13

>  <i_i_glide_rotatable_bonds>  (147) 
3

>  <r_i_docking_score>  (147) 
-2.40939

>  <r_i_glide_ligand_efficiency>  (147) 
-0.0926687

>  <r_i_glide_ligand_efficiency_sa>  (147) 
-0.274531

>  <r_i_glide_ligand_efficiency_ln>  (147) 
-0.565837

>  <r_i_glide_gscore>  (147) 
-2.40939

>  <r_i_glide_lipo>  (147) 
-0.0548564

>  <r_i_glide_hbond>  (147) 
0

>  <r_i_glide_metal>  (147) 
-0

>  <r_i_glide_rewards>  (147) 
-1.17639

>  <r_i_glide_evdw>  (147) 
-20.2973

>  <r_i_glide_ecoul>  (147) 
-3.14725

>  <r_i_glide_erotb>  (147) 
0.308814

>  <r_i_glide_esite>  (147) 
0

>  <r_i_glide_emodel>  (147) 
-28.3833

>  <r_i_glide_energy>  (147) 
-23.4445

>  <r_i_glide_einternal>  (147) 
0.448912

>  <r_i_glide_intrahb_reward>  (147) 
-0

>  <i_i_glide_confnum>  (147) 
3

>  <i_i_glide_posenum>  (147) 
24

>  <r_i_glide_eff_state_penalty>  (147) 
0

>  <ligand_id>  (147) 
37

>  <original_smiles>  (147) 
C=CCN1CCC23C(C1)c1ccc(O)c4c1C21CCN(C)C3C1C(=O)C4

>  <smiles>  (147) 
[H]Oc1c([H])c([H])c2c3c1C([H])([H])C(=O)C1([H])C4([H])N(C([H])([H])[H])C([H])([H])C([H])([H])C31C41C([H])([H])C([H])([H])[N+]([H])(C([H])([H])C([H])=C([H])[H])C([H])([H])C21[H]

$$$$
38:0:0
     RDKit          3D

 22 24  0  0  1  0  0  0  0  0999 V2000
    3.0118   -5.2520    0.5143 Cl  0  0  0  0  0  0  0  0  0  0  0  0
    1.9216   -6.2592    1.4009 C   0  0  0  0  0  0  0  0  0  0  0  0
    0.5764   -6.3183    1.1166 N   0  0  0  0  0  0  0  0  0  0  0  0
    0.1230   -7.1757    1.9978 C   0  0  0  0  0  0  0  0  0  0  0  0
   -1.3476   -7.9869    2.5579 S   0  0  0  0  0  0  0  0  0  0  0  0
   -0.3908   -8.7880    3.8305 C   0  0  0  0  0  0  0  0  0  0  0  0
    0.9799   -8.4439    3.7532 C   0  0  0  0  0  0  0  0  0  0  0  0
    1.9783   -9.0416    4.7349 C   0  0  0  0  0  0  0  0  0  0  0  0
    2.6318  -10.2583    4.2425 N   0  0  0  0  0  0  0  0  0  0  0  0
    2.9168  -11.3939    4.9616 C   0  0  0  0  0  0  0  0  0  0  0  0
    3.5629  -12.2486    4.0925 C   0  0  0  0  0  0  0  0  0  0  0  0
    3.6413  -11.5991    2.8799 N   0  0  0  0  0  0  0  0  0  0  0  0
    3.1112  -10.3826    2.9949 C   0  0  0  0  0  0  0  0  0  0  0  0
    1.1839   -7.5643    2.7515 N   0  0  0  0  0  0  0  0  0  0  0  0
    2.3493   -7.0118    2.4135 N   0  0  0  0  0  0  0  0  0  0  0  0
   -0.8583   -9.4605    4.5382 H   0  0  0  0  0  0  0  0  0  0  0  0
    2.7637   -8.3166    4.9450 H   0  0  0  0  0  0  0  0  0  0  0  0
    1.4917   -9.2628    5.6846 H   0  0  0  0  0  0  0  0  0  0  0  0
    2.6337  -11.5181    6.0011 H   0  0  0  0  0  0  0  0  0  0  0  0
    3.9201  -13.2543    4.2854 H   0  0  0  0  0  0  0  0  0  0  0  0
    3.0606   -9.6695    2.1999 H   0  0  0  0  0  0  0  0  0  0  0  0
    3.9561  -11.9386    1.9441 H   0  0  0  0  0  0  0  0  0  0  0  0
  1  2  1  0
  2 15  2  0
  2  3  1  0
  3  4  2  0
  4 14  1  0
  4  5  1  0
  5  6  1  0
  6  7  2  0
  6 16  1  0
  7  8  1  0
  7 14  1  0
  8  9  1  0
  8 17  1  0
  8 18  1  0
  9 13  1  0
  9 10  1  0
 10 11  2  0
 10 19  1  0
 11 12  1  0
 11 20  1  0
 12 13  2  0
 12 22  1  0
 13 21  1  0
 14 15  1  0
M  CHG  1  12   1
M  END
>  <i_m_ct_stereo_status>  (148) 
1

>  <s_m_source_file>  (148) 
/var/tmp/pbs.5076255.sched01/tmphf7gnms3/50i7j3xhgh.sdf

>  <i_m_source_file_index>  (148) 
14

>  <i_lp_mmshare_version>  (148) 
48012

>  <i_f3d_flags>  (148) 
0

>  <s_epik_input>  (148) 
Q2xjKG4xKW5uKGMxMiljKFtjSF1zMilbQ0gyXW4zW2NIXVtjSF1uW2NIXTM=

>  <s_epik_cmdline>  (148) 
J2VwaWtfcHl0aG9uJywgJy1waHQnLCAnMi4wJywgJy1waCcsICc3LjAnLCAnLXRuJywgJzgnLCAnLW1hJywgJzIwMCcsICctaW1hZScsICc8aW5maWxlLm1hZT4nLCAnLW9tYWUnLCAnPG91dGZpbGUubWFlPic=

>  <r_lp_tautomer_probability>  (148) 
1

>  <r_epik_Ionization_Penalty>  (148) 
0.347695

>  <r_epik_Ionization_Penalty_Charging>  (148) 
0

>  <r_epik_Ionization_Penalty_Neutral>  (148) 
0.347695

>  <r_epik_State_Penalty>  (148) 
0.343734

>  <r_epik_Charging_Adjusted_Penalty>  (148) 
0.343734

>  <i_epik_Tot_Q>  (148) 
1

>  <i_epik_Tot_abs_Q>  (148) 
1

>  <s_lp_Force_Field>  (148) 
OPLS3e

>  <r_lp_Energy>  (148) 
11.7522

>  <b_lp_Chiralities_Consistent>  (148) 
1

>  <s_lp_Variant>  (148) 
38:0-1

>  <s_i_glide_gridfile>  (148) 
pfpi4k_grid

>  <i_i_glide_lignum>  (148) 
14

>  <i_i_glide_rotatable_bonds>  (148) 
2

>  <r_i_docking_score>  (148) 
-4.54482

>  <r_i_glide_ligand_efficiency>  (148) 
-0.302988

>  <r_i_glide_ligand_efficiency_sa>  (148) 
-0.747232

>  <r_i_glide_ligand_efficiency_ln>  (148) 
-1.22566

>  <r_i_glide_gscore>  (148) 
-4.54482

>  <r_i_glide_lipo>  (148) 
0

>  <r_i_glide_hbond>  (148) 
-0.36

>  <r_i_glide_metal>  (148) 
-0

>  <r_i_glide_rewards>  (148) 
-1.768

>  <r_i_glide_evdw>  (148) 
-18.2997

>  <r_i_glide_ecoul>  (148) 
-12.0799

>  <r_i_glide_erotb>  (148) 
0.597542

>  <r_i_glide_esite>  (148) 
-0.287396

>  <r_i_glide_emodel>  (148) 
-42.4434

>  <r_i_glide_energy>  (148) 
-30.3795

>  <r_i_glide_einternal>  (148) 
0.355977

>  <r_i_glide_intrahb_reward>  (148) 
-0

>  <i_i_glide_confnum>  (148) 
4

>  <i_i_glide_posenum>  (148) 
26

>  <r_i_glide_eff_state_penalty>  (148) 
0

>  <ligand_id>  (148) 
38

>  <original_smiles>  (148) 
Clc1nc2scc(Cn3ccnc3)n2n1

>  <smiles>  (148) 
[H]c1sc2nc(Cl)nn2c1C([H])([H])n1c([H])c([H])[n+]([H])c1[H]

$$$$
38:0:1
     RDKit          3D

 22 24  0  0  1  0  0  0  0  0999 V2000
    3.7285   -2.8805   -3.5333 Cl  0  0  0  0  0  0  0  0  0  0  0  0
    4.2979   -2.4036   -1.9755 C   0  0  0  0  0  0  0  0  0  0  0  0
    5.6326   -2.2475   -1.6768 N   0  0  0  0  0  0  0  0  0  0  0  0
    5.6077   -1.8840   -0.4255 C   0  0  0  0  0  0  0  0  0  0  0  0
    6.6483   -1.4820    0.9403 S   0  0  0  0  0  0  0  0  0  0  0  0
    5.2006   -1.1589    1.9280 C   0  0  0  0  0  0  0  0  0  0  0  0
    3.9988   -1.3768    1.1926 C   0  0  0  0  0  0  0  0  0  0  0  0
    2.6438   -1.1863    1.8766 C   0  0  0  0  0  0  0  0  0  0  0  0
    2.3119    0.2109    2.1817 N   0  0  0  0  0  0  0  0  0  0  0  0
    2.9548    1.0489    3.0622 C   0  0  0  0  0  0  0  0  0  0  0  0
    2.3042    2.2608    3.0020 C   0  0  0  0  0  0  0  0  0  0  0  0
    1.2780    2.1089    2.1063 N   0  0  0  0  0  0  0  0  0  0  0  0
    1.2701    0.8586    1.6406 C   0  0  0  0  0  0  0  0  0  0  0  0
    4.3055   -1.7840   -0.0509 N   0  0  0  0  0  0  0  0  0  0  0  0
    3.4253   -2.1347   -0.9984 N   0  0  0  0  0  0  0  0  0  0  0  0
    5.2847   -0.8549    2.9638 H   0  0  0  0  0  0  0  0  0  0  0  0
    1.8437   -1.6003    1.2599 H   0  0  0  0  0  0  0  0  0  0  0  0
    2.6097   -1.7303    2.8177 H   0  0  0  0  0  0  0  0  0  0  0  0
    3.8149    0.7577    3.6380 H   0  0  0  0  0  0  0  0  0  0  0  0
    2.5137    3.1933    3.5082 H   0  0  0  0  0  0  0  0  0  0  0  0
    0.5876    0.4917    0.8905 H   0  0  0  0  0  0  0  0  0  0  0  0
    0.6552    2.8505    1.7731 H   0  0  0  0  0  0  0  0  0  0  0  0
  1  2  1  0
  2 15  2  0
  2  3  1  0
  3  4  2  0
  4 14  1  0
  4  5  1  0
  5  6  1  0
  6  7  2  0
  6 16  1  0
  7  8  1  0
  7 14  1  0
  8  9  1  0
  8 17  1  0
  8 18  1  0
  9 13  1  0
  9 10  1  0
 10 11  2  0
 10 19  1  0
 11 12  1  0
 11 20  1  0
 12 13  2  0
 12 22  1  0
 13 21  1  0
 14 15  1  0
M  CHG  1  12   1
M  END
>  <i_m_ct_stereo_status>  (149) 
1

>  <s_m_source_file>  (149) 
/var/tmp/pbs.5076255.sched01/tmphf7gnms3/50i7j3xhgh.sdf

>  <i_m_source_file_index>  (149) 
14

>  <i_lp_mmshare_version>  (149) 
48012

>  <i_f3d_flags>  (149) 
0

>  <s_epik_input>  (149) 
Q2xjKG4xKW5uKGMxMiljKFtjSF1zMilbQ0gyXW4zW2NIXVtjSF1uW2NIXTM=

>  <s_epik_cmdline>  (149) 
J2VwaWtfcHl0aG9uJywgJy1waHQnLCAnMi4wJywgJy1waCcsICc3LjAnLCAnLXRuJywgJzgnLCAnLW1hJywgJzIwMCcsICctaW1hZScsICc8aW5maWxlLm1hZT4nLCAnLW9tYWUnLCAnPG91dGZpbGUubWFlPic=

>  <r_lp_tautomer_probability>  (149) 
1

>  <r_epik_Ionization_Penalty>  (149) 
0.347695

>  <r_epik_Ionization_Penalty_Charging>  (149) 
0

>  <r_epik_Ionization_Penalty_Neutral>  (149) 
0.347695

>  <r_epik_State_Penalty>  (149) 
0.343734

>  <r_epik_Charging_Adjusted_Penalty>  (149) 
0.343734

>  <i_epik_Tot_Q>  (149) 
1

>  <i_epik_Tot_abs_Q>  (149) 
1

>  <s_lp_Force_Field>  (149) 
OPLS3e

>  <r_lp_Energy>  (149) 
11.7522

>  <b_lp_Chiralities_Consistent>  (149) 
1

>  <s_lp_Variant>  (149) 
38:0-1

>  <s_i_glide_gridfile>  (149) 
pfpi4k_grid

>  <i_i_glide_lignum>  (149) 
14

>  <i_i_glide_rotatable_bonds>  (149) 
2

>  <r_i_docking_score>  (149) 
-4.06447

>  <r_i_glide_ligand_efficiency>  (149) 
-0.270965

>  <r_i_glide_ligand_efficiency_sa>  (149) 
-0.668257

>  <r_i_glide_ligand_efficiency_ln>  (149) 
-1.09612

>  <r_i_glide_gscore>  (149) 
-4.06447

>  <r_i_glide_lipo>  (149) 
-0.346728

>  <r_i_glide_hbond>  (149) 
-0.2

>  <r_i_glide_metal>  (149) 
-0

>  <r_i_glide_rewards>  (149) 
-1.768

>  <r_i_glide_evdw>  (149) 
-22.4644

>  <r_i_glide_ecoul>  (149) 
-6.74941

>  <r_i_glide_erotb>  (149) 
0.597542

>  <r_i_glide_esite>  (149) 
-0.211653

>  <r_i_glide_emodel>  (149) 
-39.8968

>  <r_i_glide_energy>  (149) 
-29.2138

>  <r_i_glide_einternal>  (149) 
0.681117

>  <r_i_glide_intrahb_reward>  (149) 
-0

>  <i_i_glide_confnum>  (149) 
6

>  <i_i_glide_posenum>  (149) 
20

>  <r_i_glide_eff_state_penalty>  (149) 
0

>  <ligand_id>  (149) 
38

>  <original_smiles>  (149) 
Clc1nc2scc(Cn3ccnc3)n2n1

>  <smiles>  (149) 
[H]c1sc2nc(Cl)nn2c1C([H])([H])n1c([H])c([H])[n+]([H])c1[H]

$$$$
38:0:2
     RDKit          3D

 22 24  0  0  1  0  0  0  0  0999 V2000
    2.7752    0.0885    2.0723 Cl  0  0  0  0  0  0  0  0  0  0  0  0
    4.0967   -0.7509    1.3324 C   0  0  0  0  0  0  0  0  0  0  0  0
    5.4190   -0.5335    1.6621 N   0  0  0  0  0  0  0  0  0  0  0  0
    6.0627   -1.3642    0.8912 C   0  0  0  0  0  0  0  0  0  0  0  0
    7.6793   -1.9200    0.4410 S   0  0  0  0  0  0  0  0  0  0  0  0
    6.9502   -3.0296   -0.7521 C   0  0  0  0  0  0  0  0  0  0  0  0
    5.5328   -2.9337   -0.7457 C   0  0  0  0  0  0  0  0  0  0  0  0
    4.7207   -3.7668   -1.7204 C   0  0  0  0  0  0  0  0  0  0  0  0
    3.9229   -2.9271   -2.6213 N   0  0  0  0  0  0  0  0  0  0  0  0
    4.2310   -1.6581   -3.0556 C   0  0  0  0  0  0  0  0  0  0  0  0
    3.1980   -1.2474   -3.8590 C   0  0  0  0  0  0  0  0  0  0  0  0
    2.3260   -2.2992   -3.9180 N   0  0  0  0  0  0  0  0  0  0  0  0
    2.7539   -3.3051   -3.1558 C   0  0  0  0  0  0  0  0  0  0  0  0
    5.1328   -2.0304    0.1604 N   0  0  0  0  0  0  0  0  0  0  0  0
    3.8696   -1.6760    0.4014 N   0  0  0  0  0  0  0  0  0  0  0  0
    7.5604   -3.6640   -1.3871 H   0  0  0  0  0  0  0  0  0  0  0  0
    5.3579   -4.4005   -2.3387 H   0  0  0  0  0  0  0  0  0  0  0  0
    4.0411   -4.4121   -1.1630 H   0  0  0  0  0  0  0  0  0  0  0  0
    5.1107   -1.1244   -2.7463 H   0  0  0  0  0  0  0  0  0  0  0  0
    3.0285   -0.3037   -4.3586 H   0  0  0  0  0  0  0  0  0  0  0  0
    2.2183   -4.2312   -3.0138 H   0  0  0  0  0  0  0  0  0  0  0  0
    1.4592   -2.3031   -4.4423 H   0  0  0  0  0  0  0  0  0  0  0  0
  1  2  1  0
  2 15  2  0
  2  3  1  0
  3  4  2  0
  4 14  1  0
  4  5  1  0
  5  6  1  0
  6  7  2  0
  6 16  1  0
  7  8  1  0
  7 14  1  0
  8  9  1  0
  8 17  1  0
  8 18  1  0
  9 13  1  0
  9 10  1  0
 10 11  2  0
 10 19  1  0
 11 12  1  0
 11 20  1  0
 12 13  2  0
 12 22  1  0
 13 21  1  0
 14 15  1  0
M  CHG  1  12   1
M  END
>  <i_m_ct_stereo_status>  (150) 
1

>  <s_m_source_file>  (150) 
/var/tmp/pbs.5076255.sched01/tmphf7gnms3/50i7j3xhgh.sdf

>  <i_m_source_file_index>  (150) 
14

>  <i_lp_mmshare_version>  (150) 
48012

>  <i_f3d_flags>  (150) 
0

>  <s_epik_input>  (150) 
Q2xjKG4xKW5uKGMxMiljKFtjSF1zMilbQ0gyXW4zW2NIXVtjSF1uW2NIXTM=

>  <s_epik_cmdline>  (150) 
J2VwaWtfcHl0aG9uJywgJy1waHQnLCAnMi4wJywgJy1waCcsICc3LjAnLCAnLXRuJywgJzgnLCAnLW1hJywgJzIwMCcsICctaW1hZScsICc8aW5maWxlLm1hZT4nLCAnLW9tYWUnLCAnPG91dGZpbGUubWFlPic=

>  <r_lp_tautomer_probability>  (150) 
1

>  <r_epik_Ionization_Penalty>  (150) 
0.347695

>  <r_epik_Ionization_Penalty_Charging>  (150) 
0

>  <r_epik_Ionization_Penalty_Neutral>  (150) 
0.347695

>  <r_epik_State_Penalty>  (150) 
0.343734

>  <r_epik_Charging_Adjusted_Penalty>  (150) 
0.343734

>  <i_epik_Tot_Q>  (150) 
1

>  <i_epik_Tot_abs_Q>  (150) 
1

>  <s_lp_Force_Field>  (150) 
OPLS3e

>  <r_lp_Energy>  (150) 
11.7522

>  <b_lp_Chiralities_Consistent>  (150) 
1

>  <s_lp_Variant>  (150) 
38:0-1

>  <s_i_glide_gridfile>  (150) 
pfpi4k_grid

>  <i_i_glide_lignum>  (150) 
14

>  <i_i_glide_rotatable_bonds>  (150) 
2

>  <r_i_docking_score>  (150) 
-4.0443

>  <r_i_glide_ligand_efficiency>  (150) 
-0.26962

>  <r_i_glide_ligand_efficiency_sa>  (150) 
-0.664939

>  <r_i_glide_ligand_efficiency_ln>  (150) 
-1.09068

>  <r_i_glide_gscore>  (150) 
-4.0443

>  <r_i_glide_lipo>  (150) 
-0.307173

>  <r_i_glide_hbond>  (150) 
-0.0394837

>  <r_i_glide_metal>  (150) 
-0

>  <r_i_glide_rewards>  (150) 
-2.25659

>  <r_i_glide_evdw>  (150) 
-22.7258

>  <r_i_glide_ecoul>  (150) 
-5.91765

>  <r_i_glide_erotb>  (150) 
0.597542

>  <r_i_glide_esite>  (150) 
-0.0146548

>  <r_i_glide_emodel>  (150) 
-39.0822

>  <r_i_glide_energy>  (150) 
-28.6434

>  <r_i_glide_einternal>  (150) 
1.0312

>  <r_i_glide_intrahb_reward>  (150) 
-0

>  <i_i_glide_confnum>  (150) 
3

>  <i_i_glide_posenum>  (150) 
7

>  <r_i_glide_eff_state_penalty>  (150) 
0

>  <ligand_id>  (150) 
38

>  <original_smiles>  (150) 
Clc1nc2scc(Cn3ccnc3)n2n1

>  <smiles>  (150) 
[H]c1sc2nc(Cl)nn2c1C([H])([H])n1c([H])c([H])[n+]([H])c1[H]

$$$$
38:1:0
     RDKit          3D

 21 23  0  0  1  0  0  0  0  0999 V2000
    3.3735    0.3750   -5.2620 Cl  0  0  0  0  0  0  0  0  0  0  0  0
    3.8244   -0.7091   -3.9906 C   0  0  0  0  0  0  0  0  0  0  0  0
    4.1690   -2.0219   -4.1998 N   0  0  0  0  0  0  0  0  0  0  0  0
    4.4620   -2.4368   -3.0003 C   0  0  0  0  0  0  0  0  0  0  0  0
    5.0158   -3.8493   -2.1002 S   0  0  0  0  0  0  0  0  0  0  0  0
    4.9538   -2.9034   -0.5945 C   0  0  0  0  0  0  0  0  0  0  0  0
    4.5096   -1.5638   -0.8290 C   0  0  0  0  0  0  0  0  0  0  0  0
    4.3836   -0.6087    0.3560 C   0  0  0  0  0  0  0  0  0  0  0  0
    3.2715   -0.9010    1.2481 N   0  0  0  0  0  0  0  0  0  0  0  0
    2.9808   -2.0947    1.9012 C   0  0  0  0  0  0  0  0  0  0  0  0
    1.8495   -1.8779    2.6522 C   0  0  0  0  0  0  0  0  0  0  0  0
    1.4446   -0.5548    2.5062 N   0  0  0  0  0  0  0  0  0  0  0  0
    2.3320   -0.0341    1.6667 C   0  0  0  0  0  0  0  0  0  0  0  0
    4.2927   -1.3953   -2.1407 N   0  0  0  0  0  0  0  0  0  0  0  0
    3.9246   -0.2659   -2.7427 N   0  0  0  0  0  0  0  0  0  0  0  0
    5.2341   -3.3507    0.3603 H   0  0  0  0  0  0  0  0  0  0  0  0
    5.3103   -0.5883    0.9320 H   0  0  0  0  0  0  0  0  0  0  0  0
    4.2320    0.3946   -0.0267 H   0  0  0  0  0  0  0  0  0  0  0  0
    3.5734   -2.9833    1.7875 H   0  0  0  0  0  0  0  0  0  0  0  0
    1.3084   -2.5676    3.2904 H   0  0  0  0  0  0  0  0  0  0  0  0
    2.2819    0.9986    1.3440 H   0  0  0  0  0  0  0  0  0  0  0  0
  1  2  1  0
  2 15  2  0
  2  3  1  0
  3  4  2  0
  4 14  1  0
  4  5  1  0
  5  6  1  0
  6  7  2  0
  6 16  1  0
  7  8  1  0
  7 14  1  0
  8  9  1  0
  8 17  1  0
  8 18  1  0
  9 13  1  0
  9 10  1  0
 10 11  2  0
 10 19  1  0
 11 12  1  0
 11 20  1  0
 12 13  2  0
 13 21  1  0
 14 15  1  0
M  END
>  <i_m_ct_stereo_status>  (151) 
1

>  <s_m_source_file>  (151) 
/var/tmp/pbs.5076255.sched01/tmphf7gnms3/50i7j3xhgh.sdf

>  <i_m_source_file_index>  (151) 
15

>  <i_lp_mmshare_version>  (151) 
48012

>  <i_f3d_flags>  (151) 
0

>  <s_epik_input>  (151) 
Q2xjKG4xKW5uKGMxMiljKFtjSF1zMilbQ0gyXW4zW2NIXVtjSF1uW2NIXTM=

>  <s_epik_cmdline>  (151) 
J2VwaWtfcHl0aG9uJywgJy1waHQnLCAnMi4wJywgJy1waCcsICc3LjAnLCAnLXRuJywgJzgnLCAnLW1hJywgJzIwMCcsICctaW1hZScsICc8aW5maWxlLm1hZT4nLCAnLW9tYWUnLCAnPG91dGZpbGUubWFlPic=

>  <r_lp_tautomer_probability>  (151) 
1

>  <r_epik_Ionization_Penalty>  (151) 
0.481173

>  <r_epik_Ionization_Penalty_Charging>  (151) 
0.48117

>  <r_epik_Ionization_Penalty_Neutral>  (151) 
3.44356e-06

>  <r_epik_State_Penalty>  (151) 
0.486166

>  <r_epik_Charging_Adjusted_Penalty>  (151) 
0.967335

>  <i_epik_Tot_Q>  (151) 
0

>  <i_epik_Tot_abs_Q>  (151) 
0

>  <s_lp_Force_Field>  (151) 
OPLS3e

>  <r_lp_Energy>  (151) 
5.6333

>  <b_lp_Chiralities_Consistent>  (151) 
1

>  <s_lp_Variant>  (151) 
38:0-2

>  <s_i_glide_gridfile>  (151) 
pfpi4k_grid

>  <i_i_glide_lignum>  (151) 
15

>  <i_i_glide_rotatable_bonds>  (151) 
2

>  <r_i_docking_score>  (151) 
-3.93566

>  <r_i_glide_ligand_efficiency>  (151) 
-0.262377

>  <r_i_glide_ligand_efficiency_sa>  (151) 
-0.647078

>  <r_i_glide_ligand_efficiency_ln>  (151) 
-1.06138

>  <r_i_glide_gscore>  (151) 
-3.93566

>  <r_i_glide_lipo>  (151) 
-0.259833

>  <r_i_glide_hbond>  (151) 
-0.32

>  <r_i_glide_metal>  (151) 
-0

>  <r_i_glide_rewards>  (151) 
-2.22659

>  <r_i_glide_evdw>  (151) 
-26.207

>  <r_i_glide_ecoul>  (151) 
-1.92183

>  <r_i_glide_erotb>  (151) 
0.601835

>  <r_i_glide_esite>  (151) 
-0.132439

>  <r_i_glide_emodel>  (151) 
-34.7068

>  <r_i_glide_energy>  (151) 
-28.1289

>  <r_i_glide_einternal>  (151) 
0.365597

>  <r_i_glide_intrahb_reward>  (151) 
-0

>  <i_i_glide_confnum>  (151) 
3

>  <i_i_glide_posenum>  (151) 
5

>  <r_i_glide_eff_state_penalty>  (151) 
0

>  <ligand_id>  (151) 
38

>  <original_smiles>  (151) 
Clc1nc2scc(Cn3ccnc3)n2n1

>  <smiles>  (151) 
[H]c1nc([H])n(C([H])([H])c2c([H])sc3nc(Cl)nn23)c1[H]

$$$$
38:1:1
     RDKit          3D

 21 23  0  0  1  0  0  0  0  0999 V2000
    3.7031   -1.7022   -3.9344 Cl  0  0  0  0  0  0  0  0  0  0  0  0
    4.5629   -2.2172   -2.5280 C   0  0  0  0  0  0  0  0  0  0  0  0
    5.4185   -1.3922   -1.8405 N   0  0  0  0  0  0  0  0  0  0  0  0
    5.8605   -2.1530   -0.8823 C   0  0  0  0  0  0  0  0  0  0  0  0
    6.9472   -2.1714    0.5086 S   0  0  0  0  0  0  0  0  0  0  0  0
    6.4930   -3.8763    0.8119 C   0  0  0  0  0  0  0  0  0  0  0  0
    5.5654   -4.3483   -0.1601 C   0  0  0  0  0  0  0  0  0  0  0  0
    5.0742   -5.7822   -0.0897 C   0  0  0  0  0  0  0  0  0  0  0  0
    3.8742   -5.9071    0.7100 N   0  0  0  0  0  0  0  0  0  0  0  0
    3.6949   -6.6743    1.8584 C   0  0  0  0  0  0  0  0  0  0  0  0
    2.3839   -6.5078    2.2447 C   0  0  0  0  0  0  0  0  0  0  0  0
    1.7352   -5.6829    1.3299 N   0  0  0  0  0  0  0  0  0  0  0  0
    2.6808   -5.3535    0.4579 C   0  0  0  0  0  0  0  0  0  0  0  0
    5.2779   -3.3702   -1.0318 N   0  0  0  0  0  0  0  0  0  0  0  0
    4.4510   -3.4612   -2.0779 N   0  0  0  0  0  0  0  0  0  0  0  0
    6.9073   -4.4395    1.6452 H   0  0  0  0  0  0  0  0  0  0  0  0
    4.8458   -6.1279   -1.0979 H   0  0  0  0  0  0  0  0  0  0  0  0
    5.8465   -6.4393    0.3106 H   0  0  0  0  0  0  0  0  0  0  0  0
    4.4829   -7.2663    2.2983 H   0  0  0  0  0  0  0  0  0  0  0  0
    1.8565   -6.9222    3.0977 H   0  0  0  0  0  0  0  0  0  0  0  0
    2.4959   -4.7214   -0.4011 H   0  0  0  0  0  0  0  0  0  0  0  0
  1  2  1  0
  2 15  2  0
  2  3  1  0
  3  4  2  0
  4 14  1  0
  4  5  1  0
  5  6  1  0
  6  7  2  0
  6 16  1  0
  7  8  1  0
  7 14  1  0
  8  9  1  0
  8 17  1  0
  8 18  1  0
  9 13  1  0
  9 10  1  0
 10 11  2  0
 10 19  1  0
 11 12  1  0
 11 20  1  0
 12 13  2  0
 13 21  1  0
 14 15  1  0
M  END
>  <i_m_ct_stereo_status>  (152) 
1

>  <s_m_source_file>  (152) 
/var/tmp/pbs.5076255.sched01/tmphf7gnms3/50i7j3xhgh.sdf

>  <i_m_source_file_index>  (152) 
15

>  <i_lp_mmshare_version>  (152) 
48012

>  <i_f3d_flags>  (152) 
0

>  <s_epik_input>  (152) 
Q2xjKG4xKW5uKGMxMiljKFtjSF1zMilbQ0gyXW4zW2NIXVtjSF1uW2NIXTM=

>  <s_epik_cmdline>  (152) 
J2VwaWtfcHl0aG9uJywgJy1waHQnLCAnMi4wJywgJy1waCcsICc3LjAnLCAnLXRuJywgJzgnLCAnLW1hJywgJzIwMCcsICctaW1hZScsICc8aW5maWxlLm1hZT4nLCAnLW9tYWUnLCAnPG91dGZpbGUubWFlPic=

>  <r_lp_tautomer_probability>  (152) 
1

>  <r_epik_Ionization_Penalty>  (152) 
0.481173

>  <r_epik_Ionization_Penalty_Charging>  (152) 
0.48117

>  <r_epik_Ionization_Penalty_Neutral>  (152) 
3.44356e-06

>  <r_epik_State_Penalty>  (152) 
0.486166

>  <r_epik_Charging_Adjusted_Penalty>  (152) 
0.967335

>  <i_epik_Tot_Q>  (152) 
0

>  <i_epik_Tot_abs_Q>  (152) 
0

>  <s_lp_Force_Field>  (152) 
OPLS3e

>  <r_lp_Energy>  (152) 
5.6333

>  <b_lp_Chiralities_Consistent>  (152) 
1

>  <s_lp_Variant>  (152) 
38:0-2

>  <s_i_glide_gridfile>  (152) 
pfpi4k_grid

>  <i_i_glide_lignum>  (152) 
15

>  <i_i_glide_rotatable_bonds>  (152) 
2

>  <r_i_docking_score>  (152) 
-3.44185

>  <r_i_glide_ligand_efficiency>  (152) 
-0.229457

>  <r_i_glide_ligand_efficiency_sa>  (152) 
-0.565889

>  <r_i_glide_ligand_efficiency_ln>  (152) 
-0.92821

>  <r_i_glide_gscore>  (152) 
-3.44185

>  <r_i_glide_lipo>  (152) 
-0.366482

>  <r_i_glide_hbond>  (152) 
-0.0783306

>  <r_i_glide_metal>  (152) 
-0

>  <r_i_glide_rewards>  (152) 
-2.07498

>  <r_i_glide_evdw>  (152) 
-23.2673

>  <r_i_glide_ecoul>  (152) 
-1.88122

>  <r_i_glide_erotb>  (152) 
0.601835

>  <r_i_glide_esite>  (152) 
-0.078341

>  <r_i_glide_emodel>  (152) 
-31.1198

>  <r_i_glide_energy>  (152) 
-25.1486

>  <r_i_glide_einternal>  (152) 
0.121323

>  <r_i_glide_intrahb_reward>  (152) 
-0

>  <i_i_glide_confnum>  (152) 
2

>  <i_i_glide_posenum>  (152) 
25

>  <r_i_glide_eff_state_penalty>  (152) 
0

>  <ligand_id>  (152) 
38

>  <original_smiles>  (152) 
Clc1nc2scc(Cn3ccnc3)n2n1

>  <smiles>  (152) 
[H]c1nc([H])n(C([H])([H])c2c([H])sc3nc(Cl)nn23)c1[H]

$$$$
38:1:2
     RDKit          3D

 21 23  0  0  1  0  0  0  0  0999 V2000
    3.7930   -6.4725    0.8850 Cl  0  0  0  0  0  0  0  0  0  0  0  0
    3.4853   -4.7958    1.1565 C   0  0  0  0  0  0  0  0  0  0  0  0
    2.5338   -4.3180    2.0266 N   0  0  0  0  0  0  0  0  0  0  0  0
    2.6156   -3.0216    1.8764 C   0  0  0  0  0  0  0  0  0  0  0  0
    1.9364   -1.4908    2.4566 S   0  0  0  0  0  0  0  0  0  0  0  0
    2.9577   -0.6215    1.2690 C   0  0  0  0  0  0  0  0  0  0  0  0
    3.7412   -1.5342    0.4849 C   0  0  0  0  0  0  0  0  0  0  0  0
    4.6232   -0.9685   -0.6432 C   0  0  0  0  0  0  0  0  0  0  0  0
    4.2162   -1.4490   -1.9752 N   0  0  0  0  0  0  0  0  0  0  0  0
    4.2166   -2.7613   -2.4655 C   0  0  0  0  0  0  0  0  0  0  0  0
    3.7098   -2.7202   -3.7317 C   0  0  0  0  0  0  0  0  0  0  0  0
    3.5183   -1.3843   -4.1224 N   0  0  0  0  0  0  0  0  0  0  0  0
    3.8273   -0.6913   -3.0187 C   0  0  0  0  0  0  0  0  0  0  0  0
    3.5385   -2.7871    0.9218 N   0  0  0  0  0  0  0  0  0  0  0  0
    4.1585   -3.8797    0.4750 N   0  0  0  0  0  0  0  0  0  0  0  0
    2.9106    0.4613    1.1811 H   0  0  0  0  0  0  0  0  0  0  0  0
    4.5968    0.1210   -0.6114 H   0  0  0  0  0  0  0  0  0  0  0  0
    5.6565   -1.2897   -0.4630 H   0  0  0  0  0  0  0  0  0  0  0  0
    4.5307   -3.6222   -1.9134 H   0  0  0  0  0  0  0  0  0  0  0  0
    3.5139   -3.5632   -4.3747 H   0  0  0  0  0  0  0  0  0  0  0  0
    3.7822    0.3882   -3.0024 H   0  0  0  0  0  0  0  0  0  0  0  0
  1  2  1  0
  2 15  2  0
  2  3  1  0
  3  4  2  0
  4 14  1  0
  4  5  1  0
  5  6  1  0
  6  7  2  0
  6 16  1  0
  7  8  1  0
  7 14  1  0
  8  9  1  0
  8 17  1  0
  8 18  1  0
  9 13  1  0
  9 10  1  0
 10 11  2  0
 10 19  1  0
 11 12  1  0
 11 20  1  0
 12 13  2  0
 13 21  1  0
 14 15  1  0
M  END
>  <i_m_ct_stereo_status>  (153) 
1

>  <s_m_source_file>  (153) 
/var/tmp/pbs.5076255.sched01/tmphf7gnms3/50i7j3xhgh.sdf

>  <i_m_source_file_index>  (153) 
15

>  <i_lp_mmshare_version>  (153) 
48012

>  <i_f3d_flags>  (153) 
0

>  <s_epik_input>  (153) 
Q2xjKG4xKW5uKGMxMiljKFtjSF1zMilbQ0gyXW4zW2NIXVtjSF1uW2NIXTM=

>  <s_epik_cmdline>  (153) 
J2VwaWtfcHl0aG9uJywgJy1waHQnLCAnMi4wJywgJy1waCcsICc3LjAnLCAnLXRuJywgJzgnLCAnLW1hJywgJzIwMCcsICctaW1hZScsICc8aW5maWxlLm1hZT4nLCAnLW9tYWUnLCAnPG91dGZpbGUubWFlPic=

>  <r_lp_tautomer_probability>  (153) 
1

>  <r_epik_Ionization_Penalty>  (153) 
0.481173

>  <r_epik_Ionization_Penalty_Charging>  (153) 
0.48117

>  <r_epik_Ionization_Penalty_Neutral>  (153) 
3.44356e-06

>  <r_epik_State_Penalty>  (153) 
0.486166

>  <r_epik_Charging_Adjusted_Penalty>  (153) 
0.967335

>  <i_epik_Tot_Q>  (153) 
0

>  <i_epik_Tot_abs_Q>  (153) 
0

>  <s_lp_Force_Field>  (153) 
OPLS3e

>  <r_lp_Energy>  (153) 
5.6333

>  <b_lp_Chiralities_Consistent>  (153) 
1

>  <s_lp_Variant>  (153) 
38:0-2

>  <s_i_glide_gridfile>  (153) 
pfpi4k_grid

>  <i_i_glide_lignum>  (153) 
15

>  <i_i_glide_rotatable_bonds>  (153) 
2

>  <r_i_docking_score>  (153) 
-3.21394

>  <r_i_glide_ligand_efficiency>  (153) 
-0.214263

>  <r_i_glide_ligand_efficiency_sa>  (153) 
-0.528417

>  <r_i_glide_ligand_efficiency_ln>  (153) 
-0.866747

>  <r_i_glide_gscore>  (153) 
-3.21394

>  <r_i_glide_lipo>  (153) 
-0.261305

>  <r_i_glide_hbond>  (153) 
-0.0535381

>  <r_i_glide_metal>  (153) 
-0

>  <r_i_glide_rewards>  (153) 
-1.92632

>  <r_i_glide_evdw>  (153) 
-23.8005

>  <r_i_glide_ecoul>  (153) 
-2.13724

>  <r_i_glide_erotb>  (153) 
0.601835

>  <r_i_glide_esite>  (153) 
-0.0639956

>  <r_i_glide_emodel>  (153) 
-30.4723

>  <r_i_glide_energy>  (153) 
-25.9378

>  <r_i_glide_einternal>  (153) 
0.610169

>  <r_i_glide_intrahb_reward>  (153) 
-0

>  <i_i_glide_confnum>  (153) 
1

>  <i_i_glide_posenum>  (153) 
8

>  <r_i_glide_eff_state_penalty>  (153) 
0

>  <ligand_id>  (153) 
38

>  <original_smiles>  (153) 
Clc1nc2scc(Cn3ccnc3)n2n1

>  <smiles>  (153) 
[H]c1nc([H])n(C([H])([H])c2c([H])sc3nc(Cl)nn23)c1[H]

$$$$
39:0:0
     RDKit          3D

 80 86  0  0  1  0  0  0  0  0999 V2000
    5.3958   -3.3845    5.2756 C   0  0  0  0  0  0  0  0  0  0  0  0
    3.9506   -3.0745    4.9234 C   0  0  0  0  0  0  0  0  0  0  0  0
    3.2471   -2.0146    5.3920 C   0  0  0  0  0  0  0  0  0  0  0  0
    3.9013   -1.0129    6.2562 C   0  0  0  0  0  0  0  0  0  0  0  0
    3.5385    0.2897    6.2106 C   0  0  0  0  0  0  0  0  0  0  0  0
    2.4802    0.6782    5.2008 C   0  0  2  0  0  0  0  0  0  0  0  0
    3.1755    0.4725    3.9817 O   0  0  0  0  0  0  0  0  0  0  0  0
    1.8346    2.1571    5.0940 C   0  0  2  0  0  0  0  0  0  0  0  0
    1.7970    2.4731    3.7095 O   0  0  0  0  0  0  0  0  0  0  0  0
    2.5037    3.4546    5.6626 C   0  0  1  0  0  0  0  0  0  0  0  0
    3.9622    3.6631    5.2234 C   0  0  0  0  0  0  0  0  0  0  0  0
    1.5925    4.7214    5.4117 C   0  0  1  0  0  0  0  0  0  0  0  0
    1.8673    5.3057    4.1437 O   0  0  0  0  0  0  0  0  0  0  0  0
    0.0271    4.5276    5.5180 C   0  0  2  0  0  0  0  0  0  0  0  0
   -0.5031    5.7114    4.9583 O   0  0  0  0  0  0  0  0  0  0  0  0
   -0.4203    4.4517    6.9613 C   0  0  1  0  0  0  0  0  0  0  0  0
   -1.7200    3.9758    6.9740 O   0  0  0  0  0  0  0  0  0  0  0  0
   -1.9739    3.2746    5.7646 C   0  0  0  0  0  0  0  0  0  0  0  0
   -0.6197    3.2293    4.9778 C   0  0  1  0  0  0  0  0  0  0  0  0
   -0.8275    3.3547    3.4089 C   0  0  0  0  0  0  0  0  0  0  0  0
   -2.1307    3.9775    2.8982 C   0  0  0  0  0  0  0  0  0  0  0  0
   -2.1494    5.3163    2.4756 C   0  0  0  0  0  0  0  0  0  0  0  0
   -3.3378    5.9049    1.9948 C   0  0  0  0  0  0  0  0  0  0  0  0
   -4.5041    5.1312    1.8432 C   0  0  0  0  0  0  0  0  0  0  0  0
   -4.4719    3.7702    2.1887 C   0  0  0  0  0  0  0  0  0  0  0  0
   -3.3006    3.2102    2.7442 C   0  0  0  0  0  0  0  0  0  0  0  0
    0.3368    2.0243    5.5462 C   0  0  2  0  0  0  0  0  0  0  0  0
    0.2945    2.2181    7.1834 C   0  0  1  0  0  0  0  0  0  0  0  0
    1.2851    1.5559    7.9140 O   0  0  0  0  0  0  0  0  0  0  0  0
    0.4229    3.5622    7.5900 O   0  0  0  0  0  0  0  0  0  0  0  0
    0.0060    0.4747    5.1448 C   0  0  1  0  0  0  0  0  0  0  0  0
   -1.3325   -0.1104    5.7010 C   0  0  0  0  0  0  0  0  0  0  0  0
   -0.1372    0.3672    3.7617 O   0  0  0  0  0  0  0  0  0  0  0  0
    1.3134   -0.3690    5.4309 C   0  0  2  0  0  0  0  0  0  0  0  0
    1.0825   -0.6606    6.8013 O   0  0  0  0  0  0  0  0  0  0  0  0
    1.7458   -1.8501    4.9698 C   0  0  2  0  0  0  0  0  0  0  0  0
    0.9373   -2.9688    5.7255 C   0  0  0  0  0  0  0  0  0  0  0  0
    1.5236   -2.2429    3.4645 C   0  0  1  0  0  0  0  0  0  0  0  0
    1.6323   -1.2256    2.4991 O   0  0  0  0  0  0  0  0  0  0  0  0
    2.3652   -3.4509    2.9886 C   0  0  0  0  0  0  0  0  0  0  0  0
    2.2476   -3.9204    1.8671 O   0  0  0  0  0  0  0  0  0  0  0  0
    3.3537   -4.0874    3.9697 C   0  0  0  0  0  0  0  0  0  0  0  0
    5.4389   -4.3217    5.8433 H   0  0  0  0  0  0  0  0  0  0  0  0
    5.9051   -2.6109    5.8571 H   0  0  0  0  0  0  0  0  0  0  0  0
    5.9598   -3.5313    4.3495 H   0  0  0  0  0  0  0  0  0  0  0  0
    4.6254   -1.3332    6.9838 H   0  0  0  0  0  0  0  0  0  0  0  0
    3.9809    1.0359    6.8444 H   0  0  0  0  0  0  0  0  0  0  0  0
    3.5707    1.3049    3.7648 H   0  0  0  0  0  0  0  0  0  0  0  0
    1.3712    1.7442    3.2675 H   0  0  0  0  0  0  0  0  0  0  0  0
    2.6108    3.3654    6.7405 H   0  0  0  0  0  0  0  0  0  0  0  0
    4.0621    3.7815    4.1431 H   0  0  0  0  0  0  0  0  0  0  0  0
    4.5959    2.8290    5.5265 H   0  0  0  0  0  0  0  0  0  0  0  0
    4.3664    4.5566    5.6912 H   0  0  0  0  0  0  0  0  0  0  0  0
    1.8859    5.4787    6.1426 H   0  0  0  0  0  0  0  0  0  0  0  0
    1.6995    4.6428    3.4818 H   0  0  0  0  0  0  0  0  0  0  0  0
    0.0512    5.8828    4.1980 H   0  0  0  0  0  0  0  0  0  0  0  0
   -0.3679    5.4170    7.4683 H   0  0  0  0  0  0  0  0  0  0  0  0
   -2.4096    2.3066    5.9928 H   0  0  0  0  0  0  0  0  0  0  0  0
   -2.7582    3.8370    5.2743 H   0  0  0  0  0  0  0  0  0  0  0  0
   -0.0157    3.9218    2.9466 H   0  0  0  0  0  0  0  0  0  0  0  0
   -0.8180    2.4116    2.8888 H   0  0  0  0  0  0  0  0  0  0  0  0
   -1.2124    5.8804    2.4487 H   0  0  0  0  0  0  0  0  0  0  0  0
   -3.2992    6.9384    1.6883 H   0  0  0  0  0  0  0  0  0  0  0  0
   -5.3940    5.5744    1.4214 H   0  0  0  0  0  0  0  0  0  0  0  0
   -5.3434    3.1482    2.0271 H   0  0  0  0  0  0  0  0  0  0  0  0
   -3.2648    2.1801    3.0545 H   0  0  0  0  0  0  0  0  0  0  0  0
   -0.6519    1.8442    7.5926 H   0  0  0  0  0  0  0  0  0  0  0  0
    2.1005    1.9966    7.7248 H   0  0  0  0  0  0  0  0  0  0  0  0
   -1.4106   -0.0364    6.7805 H   0  0  0  0  0  0  0  0  0  0  0  0
   -1.4340   -1.1551    5.4533 H   0  0  0  0  0  0  0  0  0  0  0  0
   -2.1963    0.3698    5.2664 H   0  0  0  0  0  0  0  0  0  0  0  0
   -0.9227    0.8299    3.5119 H   0  0  0  0  0  0  0  0  0  0  0  0
    1.1511    0.1686    7.2756 H   0  0  0  0  0  0  0  0  0  0  0  0
   -0.1460   -2.8213    5.6720 H   0  0  0  0  0  0  0  0  0  0  0  0
    1.2115   -3.0474    6.7840 H   0  0  0  0  0  0  0  0  0  0  0  0
    1.1063   -3.9625    5.3271 H   0  0  0  0  0  0  0  0  0  0  0  0
    0.4856   -2.5662    3.3570 H   0  0  0  0  0  0  0  0  0  0  0  0
    1.0599   -0.5102    2.7727 H   0  0  0  0  0  0  0  0  0  0  0  0
    4.1643   -4.5208    3.3737 H   0  0  0  0  0  0  0  0  0  0  0  0
    2.9052   -4.9234    4.5087 H   0  0  0  0  0  0  0  0  0  0  0  0
  1  2  1  0
  1 43  1  0
  1 44  1  0
  1 45  1  0
  2 42  1  0
  2  3  2  0
  3 36  1  0
  3  4  1  0
  4  5  2  0
  4 46  1  0
  5  6  1  0
  5 47  1  0
  6 34  1  0
  6  7  1  6
  6  8  1  0
  7 48  1  0
  8 27  1  0
  8  9  1  6
  8 10  1  0
  9 49  1  0
 10 11  1  0
 10 12  1  0
 10 50  1  1
 11 51  1  0
 11 52  1  0
 11 53  1  0
 12 13  1  0
 12 14  1  0
 12 54  1  1
 13 55  1  0
 14 19  1  0
 14 15  1  6
 14 16  1  0
 15 56  1  0
 16 30  1  0
 16 17  1  0
 16 57  1  1
 17 18  1  0
 18 19  1  0
 18 58  1  0
 18 59  1  0
 19 20  1  6
 19 27  1  0
 20 21  1  0
 20 60  1  0
 20 61  1  0
 21 26  1  0
 21 22  2  0
 22 23  1  0
 22 62  1  0
 23 24  2  0
 23 63  1  0
 24 25  1  0
 24 64  1  0
 25 26  2  0
 25 65  1  0
 26 66  1  0
 27 28  1  0
 27 31  1  1
 28 29  1  0
 28 30  1  0
 28 67  1  1
 29 68  1  0
 31 32  1  0
 31 33  1  6
 31 34  1  0
 32 69  1  0
 32 70  1  0
 32 71  1  0
 33 72  1  0
 34 35  1  1
 34 36  1  0
 35 73  1  0
 36 37  1  1
 36 38  1  0
 37 74  1  0
 37 75  1  0
 37 76  1  0
 38 39  1  0
 38 40  1  0
 38 77  1  1
 39 78  1  0
 40 41  2  0
 40 42  1  0
 42 79  1  0
 42 80  1  0
M  END
>  <i_m_ct_stereo_status>  (154) 
1

>  <s_m_source_file>  (154) 
/var/tmp/pbs.5076255.sched01/tmphf7gnms3/50i7j3xhgh.sdf

>  <i_m_source_file_index>  (154) 
16

>  <i_lp_mmshare_version>  (154) 
48012

>  <i_f3d_flags>  (154) 
0

>  <s_epik_input>  (154) 
W09IXVtDQEhdMUMoPU8pW0NIMl1DKFtDSDNdKT1DKFtDSF09W0NIXTIpW0NAQF0xKFtDSDNdKVtDQF0oW09IXSkoW0NAXTMoW0NIM10pW09IXSlbQ0BAXTIoW09IXSlbQ0BdKFtDQF0zNDUpKFtPSF0pW0NAQEhdKFtDSDNdKVtDQEBIXShbT0hdKVtDQF02KFtPSF0pW0NASF0oT1tDQEBIXTVbT0hdKU9bQ0gyXVtDQF00NltDSDJdYzdbY0hdW2NIXVtjSF1bY0hdW2NIXTc=

>  <s_epik_cmdline>  (154) 
J2VwaWtfcHl0aG9uJywgJy1waHQnLCAnMi4wJywgJy1waCcsICc3LjAnLCAnLXRuJywgJzgnLCAnLW1hJywgJzIwMCcsICctaW1hZScsICc8aW5maWxlLm1hZT4nLCAnLW9tYWUnLCAnPG91dGZpbGUubWFlPic=

>  <r_lp_tautomer_probability>  (154) 
1

>  <r_epik_Ionization_Penalty>  (154) 
5.52182e-06

>  <r_epik_Ionization_Penalty_Charging>  (154) 
0

>  <r_epik_Ionization_Penalty_Neutral>  (154) 
5.52182e-06

>  <r_epik_State_Penalty>  (154) 
-0

>  <r_epik_Charging_Adjusted_Penalty>  (154) 
0

>  <i_epik_Tot_Q>  (154) 
0

>  <i_epik_Tot_abs_Q>  (154) 
0

>  <s_epik_Chemistry_Notes>  (154) 
This compound contains an acetal/aminal-like group ( X-CH(R)-Y where X, Y are N, S, or O) that may be acid/base labile, releasing an aldehyde.

>  <s_lp_Force_Field>  (154) 
OPLS3e

>  <r_lp_Energy>  (154) 
161.957

>  <b_lp_Chiralities_Consistent>  (154) 
1

>  <s_lp_Variant>  (154) 
39:0-1

>  <s_i_glide_gridfile>  (154) 
pfpi4k_grid

>  <i_i_glide_lignum>  (154) 
16

>  <i_i_glide_rotatable_bonds>  (154) 
10

>  <r_i_docking_score>  (154) 
-3.75858

>  <r_i_glide_ligand_efficiency>  (154) 
-0.08949

>  <r_i_glide_ligand_efficiency_sa>  (154) 
-0.31107

>  <r_i_glide_ligand_efficiency_ln>  (154) 
-0.793339

>  <r_i_glide_gscore>  (154) 
-3.75858

>  <r_i_glide_lipo>  (154) 
-0.347294

>  <r_i_glide_hbond>  (154) 
0

>  <r_i_glide_metal>  (154) 
-0

>  <r_i_glide_rewards>  (154) 
-2

>  <r_i_glide_evdw>  (154) 
-14.7289

>  <r_i_glide_ecoul>  (154) 
-4.5788

>  <r_i_glide_erotb>  (154) 
0.0162685

>  <r_i_glide_esite>  (154) 
-0.00428766

>  <r_i_glide_emodel>  (154) 
-46.7051

>  <r_i_glide_energy>  (154) 
-19.3077

>  <r_i_glide_einternal>  (154) 
2.12218

>  <r_i_glide_intrahb_reward>  (154) 
-2

>  <i_i_glide_confnum>  (154) 
6

>  <i_i_glide_posenum>  (154) 
28

>  <r_i_glide_eff_state_penalty>  (154) 
0

>  <ligand_id>  (154) 
39

>  <original_smiles>  (154) 
CC1=C2C=CC3(O)C4(O)C(C)C(O)C5(O)C6OCC5(Cc5ccccc5)C4(C(O)O6)C(C)(O)C3(O)C2(C)C(O)C(=O)C1

>  <smiles>  (154) 
[H]OC1([H])OC2([H])OC([H])([H])C3(C([H])([H])c4c([H])c([H])c([H])c([H])c4[H])C2(O[H])C([H])(O[H])C([H])(C([H])([H])[H])C2(O[H])C4(O[H])C([H])=C([H])C5=C(C([H])([H])[H])C([H])([H])C(=O)C([H])(O[H])C5(C([H])([H])[H])C4(O[H])C(O[H])(C([H])([H])[H])C123

$$$$
39:0:1
     RDKit          3D

 80 86  0  0  1  0  0  0  0  0999 V2000
   -2.9134    2.4557    7.3258 C   0  0  0  0  0  0  0  0  0  0  0  0
   -2.1127    2.5822    6.0350 C   0  0  0  0  0  0  0  0  0  0  0  0
   -0.8943    2.0376    5.8204 C   0  0  0  0  0  0  0  0  0  0  0  0
   -0.2915    1.1520    6.8408 C   0  0  0  0  0  0  0  0  0  0  0  0
    0.4919    0.1073    6.4833 C   0  0  0  0  0  0  0  0  0  0  0  0
    0.6713   -0.1519    5.0059 C   0  0  2  0  0  0  0  0  0  0  0  0
   -0.6415   -0.5746    4.6337 O   0  0  0  0  0  0  0  0  0  0  0  0
    1.6912   -1.2415    4.3945 C   0  0  2  0  0  0  0  0  0  0  0  0
    0.9882   -1.8760    3.3318 O   0  0  0  0  0  0  0  0  0  0  0  0
    2.2245   -2.4875    5.1751 C   0  0  1  0  0  0  0  0  0  0  0  0
    1.1321   -3.3261    5.8683 C   0  0  0  0  0  0  0  0  0  0  0  0
    3.2121   -3.3502    4.2916 C   0  0  1  0  0  0  0  0  0  0  0  0
    2.4832   -4.3197    3.5560 O   0  0  0  0  0  0  0  0  0  0  0  0
    4.1570   -2.5801    3.2790 C   0  0  2  0  0  0  0  0  0  0  0  0
    4.7208   -3.5528    2.4071 O   0  0  0  0  0  0  0  0  0  0  0  0
    5.3101   -1.9412    4.0229 C   0  0  1  0  0  0  0  0  0  0  0  0
    5.8951   -1.0153    3.1764 O   0  0  0  0  0  0  0  0  0  0  0  0
    4.9868   -0.6560    2.1695 C   0  0  0  0  0  0  0  0  0  0  0  0
    3.6289   -1.3166    2.5514 C   0  0  1  0  0  0  0  0  0  0  0  0
    2.8142   -1.7728    1.2678 C   0  0  0  0  0  0  0  0  0  0  0  0
    3.5570   -2.0680   -0.0257 C   0  0  0  0  0  0  0  0  0  0  0  0
    4.1447   -1.0300   -0.7782 C   0  0  0  0  0  0  0  0  0  0  0  0
    4.8144   -1.2940   -1.9838 C   0  0  0  0  0  0  0  0  0  0  0  0
    4.8935   -2.6054   -2.4663 C   0  0  0  0  0  0  0  0  0  0  0  0
    4.2989   -3.6465   -1.7217 C   0  0  0  0  0  0  0  0  0  0  0  0
    3.6102   -3.3746   -0.5275 C   0  0  0  0  0  0  0  0  0  0  0  0
    2.8526   -0.4454    3.7020 C   0  0  2  0  0  0  0  0  0  0  0  0
    4.0224   -0.1635    4.8281 C   0  0  1  0  0  0  0  0  0  0  0  0
    3.5868    0.2139    6.1013 O   0  0  0  0  0  0  0  0  0  0  0  0
    4.8054   -1.2895    5.1132 O   0  0  0  0  0  0  0  0  0  0  0  0
    2.0815    0.9263    3.2733 C   0  0  1  0  0  0  0  0  0  0  0  0
    2.9809    2.0687    2.7658 C   0  0  0  0  0  0  0  0  0  0  0  0
    1.2480    0.7483    2.1602 O   0  0  0  0  0  0  0  0  0  0  0  0
    1.0766    1.2733    4.4299 C   0  0  2  0  0  0  0  0  0  0  0  0
    1.9593    1.9993    5.2803 O   0  0  0  0  0  0  0  0  0  0  0  0
   -0.1501    2.3225    4.4702 C   0  0  2  0  0  0  0  0  0  0  0  0
    0.3262    3.8305    4.5111 C   0  0  0  0  0  0  0  0  0  0  0  0
   -1.1475    2.3155    3.2437 C   0  0  1  0  0  0  0  0  0  0  0  0
   -1.3682    1.0762    2.6063 O   0  0  0  0  0  0  0  0  0  0  0  0
   -2.5230    2.9416    3.5537 C   0  0  0  0  0  0  0  0  0  0  0  0
   -3.3563    3.1382    2.6762 O   0  0  0  0  0  0  0  0  0  0  0  0
   -2.8055    3.4215    4.9821 C   0  0  0  0  0  0  0  0  0  0  0  0
   -2.9927    3.4297    7.8126 H   0  0  0  0  0  0  0  0  0  0  0  0
   -2.5072    1.7455    8.0457 H   0  0  0  0  0  0  0  0  0  0  0  0
   -3.9264    2.1403    7.0991 H   0  0  0  0  0  0  0  0  0  0  0  0
   -0.4151    1.3709    7.8866 H   0  0  0  0  0  0  0  0  0  0  0  0
    0.9881   -0.5363    7.1892 H   0  0  0  0  0  0  0  0  0  0  0  0
   -0.7682   -0.3129    3.7291 H   0  0  0  0  0  0  0  0  0  0  0  0
    0.8451   -1.2247    2.6535 H   0  0  0  0  0  0  0  0  0  0  0  0
    2.8031   -2.1277    6.0255 H   0  0  0  0  0  0  0  0  0  0  0  0
    0.4308   -3.7682    5.1646 H   0  0  0  0  0  0  0  0  0  0  0  0
    0.5575   -2.7272    6.5706 H   0  0  0  0  0  0  0  0  0  0  0  0
    1.5896   -4.1353    6.4326 H   0  0  0  0  0  0  0  0  0  0  0  0
    3.8394   -3.9252    4.9748 H   0  0  0  0  0  0  0  0  0  0  0  0
    1.8984   -3.8435    2.9817 H   0  0  0  0  0  0  0  0  0  0  0  0
    4.0273   -3.9421    1.8920 H   0  0  0  0  0  0  0  0  0  0  0  0
    6.0149   -2.6948    4.3620 H   0  0  0  0  0  0  0  0  0  0  0  0
    4.9497    0.4229    2.0671 H   0  0  0  0  0  0  0  0  0  0  0  0
    5.4789   -1.0663    1.2924 H   0  0  0  0  0  0  0  0  0  0  0  0
    2.2357   -2.6742    1.4721 H   0  0  0  0  0  0  0  0  0  0  0  0
    2.1042   -1.0203    0.9649 H   0  0  0  0  0  0  0  0  0  0  0  0
    4.1140   -0.0231   -0.4049 H   0  0  0  0  0  0  0  0  0  0  0  0
    5.2733   -0.4771   -2.5243 H   0  0  0  0  0  0  0  0  0  0  0  0
    5.4164   -2.8384   -3.3789 H   0  0  0  0  0  0  0  0  0  0  0  0
    4.3613   -4.6596   -2.0811 H   0  0  0  0  0  0  0  0  0  0  0  0
    3.1390   -4.1901    0.0058 H   0  0  0  0  0  0  0  0  0  0  0  0
    4.6861    0.6389    4.4974 H   0  0  0  0  0  0  0  0  0  0  0  0
    4.3507    0.5107    6.5734 H   0  0  0  0  0  0  0  0  0  0  0  0
    3.7858    2.3342    3.4485 H   0  0  0  0  0  0  0  0  0  0  0  0
    2.4330    2.9949    2.5655 H   0  0  0  0  0  0  0  0  0  0  0  0
    3.3884    1.7554    1.8117 H   0  0  0  0  0  0  0  0  0  0  0  0
    1.0939    1.6084    1.7833 H   0  0  0  0  0  0  0  0  0  0  0  0
    2.1817    2.8059    4.8399 H   0  0  0  0  0  0  0  0  0  0  0  0
    1.0205    4.0804    3.7120 H   0  0  0  0  0  0  0  0  0  0  0  0
    0.7848    4.1049    5.4620 H   0  0  0  0  0  0  0  0  0  0  0  0
   -0.4883    4.5401    4.3931 H   0  0  0  0  0  0  0  0  0  0  0  0
   -0.7161    2.9466    2.4671 H   0  0  0  0  0  0  0  0  0  0  0  0
   -0.6079    0.8904    2.0583 H   0  0  0  0  0  0  0  0  0  0  0  0
   -3.8814    3.3453    5.1435 H   0  0  0  0  0  0  0  0  0  0  0  0
   -2.5431    4.4709    5.0973 H   0  0  0  0  0  0  0  0  0  0  0  0
  1  2  1  0
  1 43  1  0
  1 44  1  0
  1 45  1  0
  2 42  1  0
  2  3  2  0
  3 36  1  0
  3  4  1  0
  4  5  2  0
  4 46  1  0
  5  6  1  0
  5 47  1  0
  6 34  1  0
  6  7  1  6
  6  8  1  0
  7 48  1  0
  8 27  1  0
  8  9  1  6
  8 10  1  0
  9 49  1  0
 10 11  1  0
 10 12  1  0
 10 50  1  1
 11 51  1  0
 11 52  1  0
 11 53  1  0
 12 13  1  0
 12 14  1  0
 12 54  1  1
 13 55  1  0
 14 19  1  0
 14 15  1  6
 14 16  1  0
 15 56  1  0
 16 30  1  0
 16 17  1  0
 16 57  1  1
 17 18  1  0
 18 19  1  0
 18 58  1  0
 18 59  1  0
 19 20  1  6
 19 27  1  0
 20 21  1  0
 20 60  1  0
 20 61  1  0
 21 26  1  0
 21 22  2  0
 22 23  1  0
 22 62  1  0
 23 24  2  0
 23 63  1  0
 24 25  1  0
 24 64  1  0
 25 26  2  0
 25 65  1  0
 26 66  1  0
 27 28  1  0
 27 31  1  6
 28 29  1  0
 28 30  1  0
 28 67  1  6
 29 68  1  0
 31 32  1  0
 31 33  1  6
 31 34  1  0
 32 69  1  0
 32 70  1  0
 32 71  1  0
 33 72  1  0
 34 35  1  1
 34 36  1  0
 35 73  1  0
 36 37  1  1
 36 38  1  0
 37 74  1  0
 37 75  1  0
 37 76  1  0
 38 39  1  0
 38 40  1  0
 38 77  1  6
 39 78  1  0
 40 41  2  0
 40 42  1  0
 42 79  1  0
 42 80  1  0
M  END
>  <i_m_ct_stereo_status>  (155) 
1

>  <s_m_source_file>  (155) 
/var/tmp/pbs.5076255.sched01/tmphf7gnms3/50i7j3xhgh.sdf

>  <i_m_source_file_index>  (155) 
16

>  <i_lp_mmshare_version>  (155) 
48012

>  <i_f3d_flags>  (155) 
0

>  <s_epik_input>  (155) 
W09IXVtDQEhdMUMoPU8pW0NIMl1DKFtDSDNdKT1DKFtDSF09W0NIXTIpW0NAQF0xKFtDSDNdKVtDQF0oW09IXSkoW0NAXTMoW0NIM10pW09IXSlbQ0BAXTIoW09IXSlbQ0BdKFtDQF0zNDUpKFtPSF0pW0NAQEhdKFtDSDNdKVtDQEBIXShbT0hdKVtDQF02KFtPSF0pW0NASF0oT1tDQEBIXTVbT0hdKU9bQ0gyXVtDQF00NltDSDJdYzdbY0hdW2NIXVtjSF1bY0hdW2NIXTc=

>  <s_epik_cmdline>  (155) 
J2VwaWtfcHl0aG9uJywgJy1waHQnLCAnMi4wJywgJy1waCcsICc3LjAnLCAnLXRuJywgJzgnLCAnLW1hJywgJzIwMCcsICctaW1hZScsICc8aW5maWxlLm1hZT4nLCAnLW9tYWUnLCAnPG91dGZpbGUubWFlPic=

>  <r_lp_tautomer_probability>  (155) 
1

>  <r_epik_Ionization_Penalty>  (155) 
5.52182e-06

>  <r_epik_Ionization_Penalty_Charging>  (155) 
0

>  <r_epik_Ionization_Penalty_Neutral>  (155) 
5.52182e-06

>  <r_epik_State_Penalty>  (155) 
-0

>  <r_epik_Charging_Adjusted_Penalty>  (155) 
0

>  <i_epik_Tot_Q>  (155) 
0

>  <i_epik_Tot_abs_Q>  (155) 
0

>  <s_epik_Chemistry_Notes>  (155) 
This compound contains an acetal/aminal-like group ( X-CH(R)-Y where X, Y are N, S, or O) that may be acid/base labile, releasing an aldehyde.

>  <s_lp_Force_Field>  (155) 
OPLS3e

>  <r_lp_Energy>  (155) 
161.957

>  <b_lp_Chiralities_Consistent>  (155) 
1

>  <s_lp_Variant>  (155) 
39:0-1

>  <s_i_glide_gridfile>  (155) 
pfpi4k_grid

>  <i_i_glide_lignum>  (155) 
16

>  <i_i_glide_rotatable_bonds>  (155) 
10

>  <r_i_docking_score>  (155) 
-3.21326

>  <r_i_glide_ligand_efficiency>  (155) 
-0.0765061

>  <r_i_glide_ligand_efficiency_sa>  (155) 
-0.265937

>  <r_i_glide_ligand_efficiency_ln>  (155) 
-0.678236

>  <r_i_glide_gscore>  (155) 
-3.21326

>  <r_i_glide_lipo>  (155) 
-0.522312

>  <r_i_glide_hbond>  (155) 
0

>  <r_i_glide_metal>  (155) 
-0

>  <r_i_glide_rewards>  (155) 
-1.06551

>  <r_i_glide_evdw>  (155) 
-29.2281

>  <r_i_glide_ecoul>  (155) 
-0.883616

>  <r_i_glide_erotb>  (155) 
0.0162685

>  <r_i_glide_esite>  (155) 
-0.0477512

>  <r_i_glide_emodel>  (155) 
-45.5978

>  <r_i_glide_energy>  (155) 
-30.1118

>  <r_i_glide_einternal>  (155) 
3.27779

>  <r_i_glide_intrahb_reward>  (155) 
-1

>  <i_i_glide_confnum>  (155) 
5

>  <i_i_glide_posenum>  (155) 
6

>  <r_i_glide_eff_state_penalty>  (155) 
0

>  <ligand_id>  (155) 
39

>  <original_smiles>  (155) 
CC1=C2C=CC3(O)C4(O)C(C)C(O)C5(O)C6OCC5(Cc5ccccc5)C4(C(O)O6)C(C)(O)C3(O)C2(C)C(O)C(=O)C1

>  <smiles>  (155) 
[H]OC1([H])OC2([H])OC([H])([H])C3(C([H])([H])c4c([H])c([H])c([H])c([H])c4[H])C2(O[H])C([H])(O[H])C([H])(C([H])([H])[H])C2(O[H])C4(O[H])C([H])=C([H])C5=C(C([H])([H])[H])C([H])([H])C(=O)C([H])(O[H])C5(C([H])([H])[H])C4(O[H])C(O[H])(C([H])([H])[H])C123

$$$$
39:0:2
     RDKit          3D

 80 86  0  0  1  0  0  0  0  0999 V2000
   -2.9378    2.5185    7.2363 C   0  0  0  0  0  0  0  0  0  0  0  0
   -2.1278    2.6024    5.9474 C   0  0  0  0  0  0  0  0  0  0  0  0
   -0.9144    2.0471    5.7582 C   0  0  0  0  0  0  0  0  0  0  0  0
   -0.3297    1.1856    6.8054 C   0  0  0  0  0  0  0  0  0  0  0  0
    0.4419    0.1228    6.4880 C   0  0  0  0  0  0  0  0  0  0  0  0
    0.6417   -0.1819    5.0162 C   0  0  2  0  0  0  0  0  0  0  0  0
   -0.6598   -0.6124    4.6260 O   0  0  0  0  0  0  0  0  0  0  0  0
    1.6726   -1.2855    4.4678 C   0  0  2  0  0  0  0  0  0  0  0  0
    0.9646   -1.9929    3.4636 O   0  0  0  0  0  0  0  0  0  0  0  0
    2.1859   -2.5122    5.2941 C   0  0  1  0  0  0  0  0  0  0  0  0
    1.0775   -3.3184    6.0026 C   0  0  0  0  0  0  0  0  0  0  0  0
    3.1717   -3.4096    4.4432 C   0  0  1  0  0  0  0  0  0  0  0  0
    2.4237   -4.3894    3.7459 O   0  0  0  0  0  0  0  0  0  0  0  0
    4.1139   -2.6798    3.4099 C   0  0  2  0  0  0  0  0  0  0  0  0
    4.6806   -3.6873    2.5947 O   0  0  0  0  0  0  0  0  0  0  0  0
    5.2617   -2.0096    4.1324 C   0  0  1  0  0  0  0  0  0  0  0  0
    5.8367   -1.1074    3.2514 O   0  0  0  0  0  0  0  0  0  0  0  0
    4.9449   -0.7907    2.2172 C   0  0  0  0  0  0  0  0  0  0  0  0
    3.5978   -1.4420    2.6247 C   0  0  1  0  0  0  0  0  0  0  0  0
    2.7868   -1.9517    1.3572 C   0  0  0  0  0  0  0  0  0  0  0  0
    3.5433   -2.2552    0.0796 C   0  0  0  0  0  0  0  0  0  0  0  0
    3.9881   -1.2111   -0.7576 C   0  0  0  0  0  0  0  0  0  0  0  0
    4.6556   -1.4732   -1.9629 C   0  0  0  0  0  0  0  0  0  0  0  0
    4.9064   -2.8088   -2.3484 C   0  0  0  0  0  0  0  0  0  0  0  0
    4.4725   -3.8602   -1.5053 C   0  0  0  0  0  0  0  0  0  0  0  0
    3.7703   -3.5785   -0.3281 C   0  0  0  0  0  0  0  0  0  0  0  0
    2.8328   -0.5165    3.7454 C   0  0  2  0  0  0  0  0  0  0  0  0
    3.9973   -0.2068    4.8746 C   0  0  1  0  0  0  0  0  0  0  0  0
    3.5807    0.2400    6.1379 O   0  0  0  0  0  0  0  0  0  0  0  0
    4.7499   -1.3368    5.2032 O   0  0  0  0  0  0  0  0  0  0  0  0
    2.0805    0.8467    3.2614 C   0  0  1  0  0  0  0  0  0  0  0  0
    2.9881    1.9773    2.7473 C   0  0  0  0  0  0  0  0  0  0  0  0
    1.2854    0.6659    2.1264 O   0  0  0  0  0  0  0  0  0  0  0  0
    1.0577    1.2205    4.3937 C   0  0  2  0  0  0  0  0  0  0  0  0
    1.9286    1.9566    5.2440 O   0  0  0  0  0  0  0  0  0  0  0  0
   -0.1573    2.2857    4.4044 C   0  0  2  0  0  0  0  0  0  0  0  0
    0.3321    3.7881    4.4032 C   0  0  0  0  0  0  0  0  0  0  0  0
   -1.1507    2.2556    3.1721 C   0  0  1  0  0  0  0  0  0  0  0  0
   -1.3834    0.9886    2.5932 O   0  0  0  0  0  0  0  0  0  0  0  0
   -2.5108    2.9104    3.4537 C   0  0  0  0  0  0  0  0  0  0  0  0
   -3.3457    3.0676    2.5594 O   0  0  0  0  0  0  0  0  0  0  0  0
   -2.8095    3.4204    4.8661 C   0  0  0  0  0  0  0  0  0  0  0  0
   -3.0212    3.5117    7.6832 H   0  0  0  0  0  0  0  0  0  0  0  0
   -2.5334    1.8404    7.9855 H   0  0  0  0  0  0  0  0  0  0  0  0
   -3.9446    2.1734    7.0198 H   0  0  0  0  0  0  0  0  0  0  0  0
   -0.4516    1.4553    7.8416 H   0  0  0  0  0  0  0  0  0  0  0  0
    0.9334   -0.4885    7.2316 H   0  0  0  0  0  0  0  0  0  0  0  0
   -0.8085   -0.2291    3.7614 H   0  0  0  0  0  0  0  0  0  0  0  0
    0.1920   -2.3250    3.8989 H   0  0  0  0  0  0  0  0  0  0  0  0
    2.7620   -2.1397    6.1422 H   0  0  0  0  0  0  0  0  0  0  0  0
    0.3818   -3.7874    5.3120 H   0  0  0  0  0  0  0  0  0  0  0  0
    0.5022   -2.6916    6.6798 H   0  0  0  0  0  0  0  0  0  0  0  0
    1.5303   -4.1076    6.5963 H   0  0  0  0  0  0  0  0  0  0  0  0
    3.7946   -3.9614    5.1489 H   0  0  0  0  0  0  0  0  0  0  0  0
    1.8756   -3.9134    3.1303 H   0  0  0  0  0  0  0  0  0  0  0  0
    3.9843   -4.1169    2.1159 H   0  0  0  0  0  0  0  0  0  0  0  0
    5.9718   -2.7490    4.4951 H   0  0  0  0  0  0  0  0  0  0  0  0
    4.9095    0.2837    2.0809 H   0  0  0  0  0  0  0  0  0  0  0  0
    5.4218   -1.2227    1.3434 H   0  0  0  0  0  0  0  0  0  0  0  0
    2.2249   -2.8516    1.5875 H   0  0  0  0  0  0  0  0  0  0  0  0
    2.0490   -1.2295    1.0537 H   0  0  0  0  0  0  0  0  0  0  0  0
    3.8336   -0.2061   -0.4235 H   0  0  0  0  0  0  0  0  0  0  0  0
    4.9824   -0.6520   -2.5959 H   0  0  0  0  0  0  0  0  0  0  0  0
    5.4267   -3.0340   -3.2653 H   0  0  0  0  0  0  0  0  0  0  0  0
    4.6524   -4.8915   -1.7910 H   0  0  0  0  0  0  0  0  0  0  0  0
    3.4195   -4.3995    0.2781 H   0  0  0  0  0  0  0  0  0  0  0  0
    4.6730    0.5662    4.5154 H   0  0  0  0  0  0  0  0  0  0  0  0
    3.0143   -0.4223    6.4998 H   0  0  0  0  0  0  0  0  0  0  0  0
    3.7828    2.2606    3.4297 H   0  0  0  0  0  0  0  0  0  0  0  0
    2.4355    2.9002    2.5117 H   0  0  0  0  0  0  0  0  0  0  0  0
    3.3999    1.6804    1.7853 H   0  0  0  0  0  0  0  0  0  0  0  0
    1.0681    1.5236    1.7817 H   0  0  0  0  0  0  0  0  0  0  0  0
    2.1944    2.7321    4.7721 H   0  0  0  0  0  0  0  0  0  0  0  0
    1.0262    4.0050    3.6007 H   0  0  0  0  0  0  0  0  0  0  0  0
    0.7871    4.0827    5.3456 H   0  0  0  0  0  0  0  0  0  0  0  0
   -0.4766    4.4977    4.2577 H   0  0  0  0  0  0  0  0  0  0  0  0
   -0.7048    2.8517    2.3774 H   0  0  0  0  0  0  0  0  0  0  0  0
   -0.7915    0.8820    1.8561 H   0  0  0  0  0  0  0  0  0  0  0  0
   -3.8852    3.3169    5.0210 H   0  0  0  0  0  0  0  0  0  0  0  0
   -2.5445    4.4680    4.9541 H   0  0  0  0  0  0  0  0  0  0  0  0
  1  2  1  0
  1 43  1  0
  1 44  1  0
  1 45  1  0
  2 42  1  0
  2  3  2  0
  3 36  1  0
  3  4  1  0
  4  5  2  0
  4 46  1  0
  5  6  1  0
  5 47  1  0
  6 34  1  0
  6  7  1  6
  6  8  1  0
  7 48  1  0
  8 27  1  0
  8  9  1  6
  8 10  1  0
  9 49  1  0
 10 11  1  0
 10 12  1  0
 10 50  1  1
 11 51  1  0
 11 52  1  0
 11 53  1  0
 12 13  1  0
 12 14  1  0
 12 54  1  1
 13 55  1  0
 14 19  1  0
 14 15  1  6
 14 16  1  0
 15 56  1  0
 16 30  1  0
 16 17  1  0
 16 57  1  1
 17 18  1  0
 18 19  1  0
 18 58  1  0
 18 59  1  0
 19 20  1  6
 19 27  1  0
 20 21  1  0
 20 60  1  0
 20 61  1  0
 21 26  1  0
 21 22  2  0
 22 23  1  0
 22 62  1  0
 23 24  2  0
 23 63  1  0
 24 25  1  0
 24 64  1  0
 25 26  2  0
 25 65  1  0
 26 66  1  0
 27 28  1  0
 27 31  1  6
 28 29  1  0
 28 30  1  0
 28 67  1  6
 29 68  1  0
 31 32  1  0
 31 33  1  6
 31 34  1  0
 32 69  1  0
 32 70  1  0
 32 71  1  0
 33 72  1  0
 34 35  1  1
 34 36  1  0
 35 73  1  0
 36 37  1  1
 36 38  1  0
 37 74  1  0
 37 75  1  0
 37 76  1  0
 38 39  1  0
 38 40  1  0
 38 77  1  6
 39 78  1  0
 40 41  2  0
 40 42  1  0
 42 79  1  0
 42 80  1  0
M  END
>  <i_m_ct_stereo_status>  (156) 
1

>  <s_m_source_file>  (156) 
/var/tmp/pbs.5076255.sched01/tmphf7gnms3/50i7j3xhgh.sdf

>  <i_m_source_file_index>  (156) 
16

>  <i_lp_mmshare_version>  (156) 
48012

>  <i_f3d_flags>  (156) 
0

>  <s_epik_input>  (156) 
W09IXVtDQEhdMUMoPU8pW0NIMl1DKFtDSDNdKT1DKFtDSF09W0NIXTIpW0NAQF0xKFtDSDNdKVtDQF0oW09IXSkoW0NAXTMoW0NIM10pW09IXSlbQ0BAXTIoW09IXSlbQ0BdKFtDQF0zNDUpKFtPSF0pW0NAQEhdKFtDSDNdKVtDQEBIXShbT0hdKVtDQF02KFtPSF0pW0NASF0oT1tDQEBIXTVbT0hdKU9bQ0gyXVtDQF00NltDSDJdYzdbY0hdW2NIXVtjSF1bY0hdW2NIXTc=

>  <s_epik_cmdline>  (156) 
J2VwaWtfcHl0aG9uJywgJy1waHQnLCAnMi4wJywgJy1waCcsICc3LjAnLCAnLXRuJywgJzgnLCAnLW1hJywgJzIwMCcsICctaW1hZScsICc8aW5maWxlLm1hZT4nLCAnLW9tYWUnLCAnPG91dGZpbGUubWFlPic=

>  <r_lp_tautomer_probability>  (156) 
1

>  <r_epik_Ionization_Penalty>  (156) 
5.52182e-06

>  <r_epik_Ionization_Penalty_Charging>  (156) 
0

>  <r_epik_Ionization_Penalty_Neutral>  (156) 
5.52182e-06

>  <r_epik_State_Penalty>  (156) 
-0

>  <r_epik_Charging_Adjusted_Penalty>  (156) 
0

>  <i_epik_Tot_Q>  (156) 
0

>  <i_epik_Tot_abs_Q>  (156) 
0

>  <s_epik_Chemistry_Notes>  (156) 
This compound contains an acetal/aminal-like group ( X-CH(R)-Y where X, Y are N, S, or O) that may be acid/base labile, releasing an aldehyde.

>  <s_lp_Force_Field>  (156) 
OPLS3e

>  <r_lp_Energy>  (156) 
161.957

>  <b_lp_Chiralities_Consistent>  (156) 
1

>  <s_lp_Variant>  (156) 
39:0-1

>  <s_i_glide_gridfile>  (156) 
pfpi4k_grid

>  <i_i_glide_lignum>  (156) 
16

>  <i_i_glide_rotatable_bonds>  (156) 
10

>  <r_i_docking_score>  (156) 
-3.15555

>  <r_i_glide_ligand_efficiency>  (156) 
-0.0751321

>  <r_i_glide_ligand_efficiency_sa>  (156) 
-0.261161

>  <r_i_glide_ligand_efficiency_ln>  (156) 
-0.666055

>  <r_i_glide_gscore>  (156) 
-3.15555

>  <r_i_glide_lipo>  (156) 
-0.468337

>  <r_i_glide_hbond>  (156) 
0

>  <r_i_glide_metal>  (156) 
-0

>  <r_i_glide_rewards>  (156) 
-1.06457

>  <r_i_glide_evdw>  (156) 
-30.3112

>  <r_i_glide_ecoul>  (156) 
-0.496485

>  <r_i_glide_erotb>  (156) 
0.0162685

>  <r_i_glide_esite>  (156) 
-0.0488766

>  <r_i_glide_emodel>  (156) 
-45.5207

>  <r_i_glide_energy>  (156) 
-30.8077

>  <r_i_glide_einternal>  (156) 
3.45963

>  <r_i_glide_intrahb_reward>  (156) 
-1

>  <i_i_glide_confnum>  (156) 
5

>  <i_i_glide_posenum>  (156) 
9

>  <r_i_glide_eff_state_penalty>  (156) 
0

>  <ligand_id>  (156) 
39

>  <original_smiles>  (156) 
CC1=C2C=CC3(O)C4(O)C(C)C(O)C5(O)C6OCC5(Cc5ccccc5)C4(C(O)O6)C(C)(O)C3(O)C2(C)C(O)C(=O)C1

>  <smiles>  (156) 
[H]OC1([H])OC2([H])OC([H])([H])C3(C([H])([H])c4c([H])c([H])c([H])c([H])c4[H])C2(O[H])C([H])(O[H])C([H])(C([H])([H])[H])C2(O[H])C4(O[H])C([H])=C([H])C5=C(C([H])([H])[H])C([H])([H])C(=O)C([H])(O[H])C5(C([H])([H])[H])C4(O[H])C(O[H])(C([H])([H])[H])C123

$$$$
40:0:0
     RDKit          3D

 55 60  0  0  1  0  0  0  0  0999 V2000
   -1.8870   -9.1924    2.8312 C   0  0  0  0  0  0  0  0  0  0  0  0
   -0.5411   -8.8424    3.4743 C   0  0  2  0  0  0  0  0  0  0  0  0
   -0.7451   -7.9978    4.6140 O   0  0  0  0  0  0  0  0  0  0  0  0
    0.3023   -7.4445    5.2908 C   0  0  0  0  0  0  0  0  0  0  0  0
    0.1507   -6.7832    6.3220 O   0  0  0  0  0  0  0  0  0  0  0  0
    1.6733   -7.5905    4.6912 C   0  0  1  0  0  0  0  0  0  0  0  0
    2.0933   -8.8814    4.2166 O   0  0  0  0  0  0  0  0  0  0  0  0
    1.7542   -7.9120    3.2315 C   0  0  1  0  0  0  0  0  0  0  0  0
    0.4672   -8.2234    2.4845 C   0  0  2  0  0  0  0  0  0  0  0  0
   -0.0440   -6.9438    1.8172 C   0  0  0  0  0  0  0  0  0  0  0  0
    1.0135   -6.3777    0.8707 C   0  0  0  0  0  0  0  0  0  0  0  0
    2.3425   -6.0686    1.5844 C   0  0  2  0  0  0  0  0  0  0  0  0
    3.4083   -5.3923    0.6667 C   0  0  1  0  0  0  0  0  0  0  0  0
    2.9186   -4.1038   -0.0383 C   0  0  0  0  0  0  0  0  0  0  0  0
    3.9425   -3.5935   -1.0560 C   0  0  0  0  0  0  0  0  0  0  0  0
    5.3752   -3.6192   -0.5588 C   0  0  0  0  0  0  0  0  0  0  0  0
    6.3448   -2.9407   -1.3183 C   0  0  0  0  0  0  0  0  0  0  0  0
    7.6860   -2.9618   -0.9320 C   0  0  0  0  0  0  0  0  0  0  0  0
    8.5950   -2.2544   -1.6631 O   0  0  0  0  0  0  0  0  0  0  0  0
    8.0750   -3.6705    0.2149 C   0  0  0  0  0  0  0  0  0  0  0  0
    7.1252   -4.3546    0.9777 C   0  0  0  0  0  0  0  0  0  0  0  0
    5.7559   -4.3402    0.6090 C   0  0  0  0  0  0  0  0  0  0  0  0
    4.6890   -5.0310    1.4720 C   0  0  2  0  0  0  0  0  0  0  0  0
    5.2168   -6.2270    2.2975 C   0  0  0  0  0  0  0  0  0  0  0  0
    4.1055   -6.8802    3.1418 C   0  0  0  0  0  0  0  0  0  0  0  0
    2.8818   -7.3448    2.3189 C   0  0  1  0  0  0  0  0  0  0  0  0
    3.3500   -8.4614    1.3444 C   0  0  0  0  0  0  0  0  0  0  0  0
   -1.7655   -9.8541    1.9731 H   0  0  0  0  0  0  0  0  0  0  0  0
   -2.4913   -8.3291    2.5532 H   0  0  0  0  0  0  0  0  0  0  0  0
   -2.5011   -9.7356    3.5354 H   0  0  0  0  0  0  0  0  0  0  0  0
   -0.1201   -9.7800    3.8496 H   0  0  0  0  0  0  0  0  0  0  0  0
    2.4598   -7.0469    5.2032 H   0  0  0  0  0  0  0  0  0  0  0  0
    0.6726   -8.9715    1.7192 H   0  0  0  0  0  0  0  0  0  0  0  0
   -0.9587   -7.1548    1.2590 H   0  0  0  0  0  0  0  0  0  0  0  0
   -0.2731   -6.2114    2.5910 H   0  0  0  0  0  0  0  0  0  0  0  0
    1.1343   -7.1059    0.0828 H   0  0  0  0  0  0  0  0  0  0  0  0
    0.6297   -5.5056    0.3593 H   0  0  0  0  0  0  0  0  0  0  0  0
    2.0949   -5.3317    2.3503 H   0  0  0  0  0  0  0  0  0  0  0  0
    3.6748   -6.0922   -0.1222 H   0  0  0  0  0  0  0  0  0  0  0  0
    1.9781   -4.2361   -0.5759 H   0  0  0  0  0  0  0  0  0  0  0  0
    2.7630   -3.3254    0.7103 H   0  0  0  0  0  0  0  0  0  0  0  0
    3.9259   -4.2326   -1.9401 H   0  0  0  0  0  0  0  0  0  0  0  0
    3.6608   -2.6037   -1.4269 H   0  0  0  0  0  0  0  0  0  0  0  0
    6.0370   -2.3931   -2.2036 H   0  0  0  0  0  0  0  0  0  0  0  0
    9.5344   -2.5404   -1.6561 H   0  0  0  0  0  0  0  0  0  0  0  0
    9.1096   -3.6611    0.5230 H   0  0  0  0  0  0  0  0  0  0  0  0
    7.4621   -4.8733    1.8684 H   0  0  0  0  0  0  0  0  0  0  0  0
    4.4019   -4.2671    2.1965 H   0  0  0  0  0  0  0  0  0  0  0  0
    5.7145   -6.9575    1.6593 H   0  0  0  0  0  0  0  0  0  0  0  0
    5.9761   -5.8813    2.9930 H   0  0  0  0  0  0  0  0  0  0  0  0
    4.5141   -7.7190    3.7072 H   0  0  0  0  0  0  0  0  0  0  0  0
    3.7943   -6.1308    3.8667 H   0  0  0  0  0  0  0  0  0  0  0  0
    4.1231   -8.1239    0.6567 H   0  0  0  0  0  0  0  0  0  0  0  0
    2.5429   -8.8679    0.7424 H   0  0  0  0  0  0  0  0  0  0  0  0
    3.7604   -9.3113    1.8841 H   0  0  0  0  0  0  0  0  0  0  0  0
  1  2  1  0
  1 28  1  0
  1 29  1  0
  1 30  1  0
  2  9  1  0
  2  3  1  0
  2 31  1  1
  3  4  1  0
  4  5  2  0
  4  6  1  0
  6  8  1  0
  6  7  1  0
  6 32  1  6
  8  7  1  1
  8 26  1  0
  8  9  1  0
  9 10  1  0
  9 33  1  6
 10 11  1  0
 10 34  1  0
 10 35  1  0
 11 12  1  0
 11 36  1  0
 11 37  1  0
 12 26  1  0
 12 13  1  0
 12 38  1  1
 13 23  1  0
 13 14  1  0
 13 39  1  6
 14 15  1  0
 14 40  1  0
 14 41  1  0
 15 16  1  0
 15 42  1  0
 15 43  1  0
 16 22  2  0
 16 17  1  0
 17 18  2  0
 17 44  1  0
 18 19  1  0
 18 20  1  0
 19 45  1  0
 20 21  2  0
 20 46  1  0
 21 22  1  0
 21 47  1  0
 22 23  1  0
 23 24  1  0
 23 48  1  1
 24 25  1  0
 24 49  1  0
 24 50  1  0
 25 26  1  0
 25 51  1  0
 25 52  1  0
 26 27  1  6
 27 53  1  0
 27 54  1  0
 27 55  1  0
M  END
>  <i_m_ct_stereo_status>  (157) 
1

>  <s_m_source_file>  (157) 
/var/tmp/pbs.5076255.sched01/tmphf7gnms3/50i7j3xhgh.sdf

>  <i_m_source_file_index>  (157) 
17

>  <i_lp_mmshare_version>  (157) 
48012

>  <i_f3d_flags>  (157) 
0

>  <s_epik_input>  (157) 
TzFbQ0BASF0oW0NAQF0xMjMpQyg9TylPW0NAQEhdKFtDSDNdKVtDQEhdMltDSDJdW0NIMl1bQ0BASF00W0NAQEhdNVtDQEBIXShbQ0gyXVtDSDJdW0NAQF0zNFtDSDNdKWM2YyhbQ0gyXVtDSDJdNSlbY0hdYyhbT0hdKVtjSF1bY0hdNg==

>  <s_epik_cmdline>  (157) 
J2VwaWtfcHl0aG9uJywgJy1waHQnLCAnMi4wJywgJy1waCcsICc3LjAnLCAnLXRuJywgJzgnLCAnLW1hJywgJzIwMCcsICctaW1hZScsICc8aW5maWxlLm1hZT4nLCAnLW9tYWUnLCAnPG91dGZpbGUubWFlPic=

>  <r_lp_tautomer_probability>  (157) 
1

>  <r_epik_Ionization_Penalty>  (157) 
0.000120909

>  <r_epik_Ionization_Penalty_Charging>  (157) 
0

>  <r_epik_Ionization_Penalty_Neutral>  (157) 
0.000120909

>  <r_epik_State_Penalty>  (157) 
-0

>  <r_epik_Charging_Adjusted_Penalty>  (157) 
0

>  <i_epik_Tot_Q>  (157) 
0

>  <i_epik_Tot_abs_Q>  (157) 
0

>  <s_epik_Chemistry_Notes>  (157) 
This compound has an ester and may undergo hydrolysis at high or low pH.

>  <s_lp_Force_Field>  (157) 
OPLS3e

>  <r_lp_Energy>  (157) 
55.1249

>  <b_lp_Chiralities_Consistent>  (157) 
1

>  <s_lp_Variant>  (157) 
40:0-1

>  <s_i_glide_gridfile>  (157) 
pfpi4k_grid

>  <i_i_glide_lignum>  (157) 
17

>  <i_i_glide_rotatable_bonds>  (157) 
1

>  <r_i_docking_score>  (157) 
-3.7731

>  <r_i_glide_ligand_efficiency>  (157) 
-0.139744

>  <r_i_glide_ligand_efficiency_sa>  (157) 
-0.419233

>  <r_i_glide_ligand_efficiency_ln>  (157) 
-0.878315

>  <r_i_glide_gscore>  (157) 
-3.7731

>  <r_i_glide_lipo>  (157) 
-0.54391

>  <r_i_glide_hbond>  (157) 
-0.281146

>  <r_i_glide_metal>  (157) 
-0

>  <r_i_glide_rewards>  (157) 
-0.896823

>  <r_i_glide_evdw>  (157) 
-22.5386

>  <r_i_glide_ecoul>  (157) 
-6.03476

>  <r_i_glide_erotb>  (157) 
0

>  <r_i_glide_esite>  (157) 
-0.0190755

>  <r_i_glide_emodel>  (157) 
-35.8619

>  <r_i_glide_energy>  (157) 
-28.5734

>  <r_i_glide_einternal>  (157) 
0.686106

>  <r_i_glide_intrahb_reward>  (157) 
-0

>  <i_i_glide_confnum>  (157) 
2

>  <i_i_glide_posenum>  (157) 
3

>  <r_i_glide_eff_state_penalty>  (157) 
0

>  <ligand_id>  (157) 
40

>  <original_smiles>  (157) 
CC1OC(=O)C2OC23C1CCC1C2CCc4cc(O)ccc4C2CCC13C

>  <smiles>  (157) 
[H]Oc1c([H])c([H])c2c(c1[H])C([H])([H])C([H])([H])C1([H])C2([H])C([H])([H])C([H])([H])C2(C([H])([H])[H])C1([H])C([H])([H])C([H])([H])C1([H])C([H])(C([H])([H])[H])OC(=O)C3([H])OC312

$$$$
40:0:1
     RDKit          3D

 55 60  0  0  1  0  0  0  0  0999 V2000
    4.5864   -0.7968   -2.3297 C   0  0  0  0  0  0  0  0  0  0  0  0
    4.9788   -1.2307   -0.9122 C   0  0  2  0  0  0  0  0  0  0  0  0
    6.2640   -1.8548   -0.9332 O   0  0  0  0  0  0  0  0  0  0  0  0
    6.8196   -2.4071    0.1767 C   0  0  0  0  0  0  0  0  0  0  0  0
    7.9675   -2.8437    0.1956 O   0  0  0  0  0  0  0  0  0  0  0  0
    5.9412   -2.5210    1.3997 C   0  0  1  0  0  0  0  0  0  0  0  0
    5.1656   -1.3631    1.8137 O   0  0  0  0  0  0  0  0  0  0  0  0
    4.4554   -2.4407    1.1987 C   0  0  1  0  0  0  0  0  0  0  0  0
    3.9351   -2.1110   -0.1917 C   0  0  2  0  0  0  0  0  0  0  0  0
    3.6308   -3.4236   -0.9329 C   0  0  0  0  0  0  0  0  0  0  0  0
    2.6155   -4.2540   -0.1514 C   0  0  0  0  0  0  0  0  0  0  0  0
    3.0855   -4.5774    1.2897 C   0  0  2  0  0  0  0  0  0  0  0  0
    2.1188   -5.4967    2.1062 C   0  0  1  0  0  0  0  0  0  0  0  0
    1.7462   -6.8083    1.3895 C   0  0  0  0  0  0  0  0  0  0  0  0
    0.6362   -7.5542    2.1361 C   0  0  0  0  0  0  0  0  0  0  0  0
    0.8447   -7.6294    3.6390 C   0  0  0  0  0  0  0  0  0  0  0  0
    0.0571   -8.5489    4.3682 C   0  0  0  0  0  0  0  0  0  0  0  0
    0.1778   -8.6278    5.7693 C   0  0  0  0  0  0  0  0  0  0  0  0
   -0.5897   -9.4947    6.4831 O   0  0  0  0  0  0  0  0  0  0  0  0
    1.0803   -7.7880    6.4377 C   0  0  0  0  0  0  0  0  0  0  0  0
    1.8785   -6.8766    5.7159 C   0  0  0  0  0  0  0  0  0  0  0  0
    1.7767   -6.7921    4.3033 C   0  0  0  0  0  0  0  0  0  0  0  0
    2.7040   -5.8639    3.4988 C   0  0  2  0  0  0  0  0  0  0  0  0
    3.1877   -4.6147    4.2692 C   0  0  0  0  0  0  0  0  0  0  0  0
    4.0989   -3.7153    3.4044 C   0  0  0  0  0  0  0  0  0  0  0  0
    3.4594   -3.2656    2.0597 C   0  0  1  0  0  0  0  0  0  0  0  0
    2.2207   -2.3843    2.3987 C   0  0  0  0  0  0  0  0  0  0  0  0
    3.5999   -0.3308   -2.3489 H   0  0  0  0  0  0  0  0  0  0  0  0
    4.5968   -1.6226   -3.0430 H   0  0  0  0  0  0  0  0  0  0  0  0
    5.2870   -0.0478   -2.6832 H   0  0  0  0  0  0  0  0  0  0  0  0
    5.0827   -0.3086   -0.3367 H   0  0  0  0  0  0  0  0  0  0  0  0
    6.3711   -3.0555    2.2425 H   0  0  0  0  0  0  0  0  0  0  0  0
    3.0172   -1.5286   -0.0996 H   0  0  0  0  0  0  0  0  0  0  0  0
    3.2290   -3.2228   -1.9296 H   0  0  0  0  0  0  0  0  0  0  0  0
    4.5367   -4.0175   -1.0659 H   0  0  0  0  0  0  0  0  0  0  0  0
    1.6954   -3.6828   -0.1567 H   0  0  0  0  0  0  0  0  0  0  0  0
    2.4232   -5.1572   -0.7143 H   0  0  0  0  0  0  0  0  0  0  0  0
    4.0073   -5.1481    1.1664 H   0  0  0  0  0  0  0  0  0  0  0  0
    1.1870   -4.9604    2.2646 H   0  0  0  0  0  0  0  0  0  0  0  0
    1.4083   -6.6536    0.3649 H   0  0  0  0  0  0  0  0  0  0  0  0
    2.6302   -7.4484    1.3397 H   0  0  0  0  0  0  0  0  0  0  0  0
   -0.3034   -7.0272    1.9707 H   0  0  0  0  0  0  0  0  0  0  0  0
    0.5097   -8.5552    1.7187 H   0  0  0  0  0  0  0  0  0  0  0  0
   -0.6361   -9.1970    3.8565 H   0  0  0  0  0  0  0  0  0  0  0  0
   -1.1366  -10.0782    5.9354 H   0  0  0  0  0  0  0  0  0  0  0  0
    1.1686   -7.8481    7.5132 H   0  0  0  0  0  0  0  0  0  0  0  0
    2.5708   -6.2657    6.2722 H   0  0  0  0  0  0  0  0  0  0  0  0
    3.5967   -6.4654    3.3167 H   0  0  0  0  0  0  0  0  0  0  0  0
    2.3477   -4.0497    4.6768 H   0  0  0  0  0  0  0  0  0  0  0  0
    3.7779   -4.9213    5.1328 H   0  0  0  0  0  0  0  0  0  0  0  0
    4.4187   -2.8465    3.9863 H   0  0  0  0  0  0  0  0  0  0  0  0
    4.9957   -4.3012    3.2042 H   0  0  0  0  0  0  0  0  0  0  0  0
    1.4863   -2.9035    3.0092 H   0  0  0  0  0  0  0  0  0  0  0  0
    1.6813   -2.0473    1.5150 H   0  0  0  0  0  0  0  0  0  0  0  0
    2.5120   -1.4957    2.9597 H   0  0  0  0  0  0  0  0  0  0  0  0
  1  2  1  0
  1 28  1  0
  1 29  1  0
  1 30  1  0
  2  9  1  0
  2  3  1  0
  2 31  1  1
  3  4  1  0
  4  5  2  0
  4  6  1  0
  6  8  1  0
  6  7  1  0
  6 32  1  1
  8  7  1  1
  8 26  1  0
  8  9  1  0
  9 10  1  0
  9 33  1  1
 10 11  1  0
 10 34  1  0
 10 35  1  0
 11 12  1  0
 11 36  1  0
 11 37  1  0
 12 26  1  0
 12 13  1  0
 12 38  1  6
 13 23  1  0
 13 14  1  0
 13 39  1  1
 14 15  1  0
 14 40  1  0
 14 41  1  0
 15 16  1  0
 15 42  1  0
 15 43  1  0
 16 22  2  0
 16 17  1  0
 17 18  2  0
 17 44  1  0
 18 19  1  0
 18 20  1  0
 19 45  1  0
 20 21  2  0
 20 46  1  0
 21 22  1  0
 21 47  1  0
 22 23  1  0
 23 24  1  0
 23 48  1  6
 24 25  1  0
 24 49  1  0
 24 50  1  0
 25 26  1  0
 25 51  1  0
 25 52  1  0
 26 27  1  1
 27 53  1  0
 27 54  1  0
 27 55  1  0
M  END
>  <i_m_ct_stereo_status>  (158) 
1

>  <s_m_source_file>  (158) 
/var/tmp/pbs.5076255.sched01/tmphf7gnms3/50i7j3xhgh.sdf

>  <i_m_source_file_index>  (158) 
17

>  <i_lp_mmshare_version>  (158) 
48012

>  <i_f3d_flags>  (158) 
0

>  <s_epik_input>  (158) 
TzFbQ0BASF0oW0NAQF0xMjMpQyg9TylPW0NAQEhdKFtDSDNdKVtDQEhdMltDSDJdW0NIMl1bQ0BASF00W0NAQEhdNVtDQEBIXShbQ0gyXVtDSDJdW0NAQF0zNFtDSDNdKWM2YyhbQ0gyXVtDSDJdNSlbY0hdYyhbT0hdKVtjSF1bY0hdNg==

>  <s_epik_cmdline>  (158) 
J2VwaWtfcHl0aG9uJywgJy1waHQnLCAnMi4wJywgJy1waCcsICc3LjAnLCAnLXRuJywgJzgnLCAnLW1hJywgJzIwMCcsICctaW1hZScsICc8aW5maWxlLm1hZT4nLCAnLW9tYWUnLCAnPG91dGZpbGUubWFlPic=

>  <r_lp_tautomer_probability>  (158) 
1

>  <r_epik_Ionization_Penalty>  (158) 
0.000120909

>  <r_epik_Ionization_Penalty_Charging>  (158) 
0

>  <r_epik_Ionization_Penalty_Neutral>  (158) 
0.000120909

>  <r_epik_State_Penalty>  (158) 
-0

>  <r_epik_Charging_Adjusted_Penalty>  (158) 
0

>  <i_epik_Tot_Q>  (158) 
0

>  <i_epik_Tot_abs_Q>  (158) 
0

>  <s_epik_Chemistry_Notes>  (158) 
This compound has an ester and may undergo hydrolysis at high or low pH.

>  <s_lp_Force_Field>  (158) 
OPLS3e

>  <r_lp_Energy>  (158) 
55.1249

>  <b_lp_Chiralities_Consistent>  (158) 
1

>  <s_lp_Variant>  (158) 
40:0-1

>  <s_i_glide_gridfile>  (158) 
pfpi4k_grid

>  <i_i_glide_lignum>  (158) 
17

>  <i_i_glide_rotatable_bonds>  (158) 
1

>  <r_i_docking_score>  (158) 
-3.73285

>  <r_i_glide_ligand_efficiency>  (158) 
-0.138254

>  <r_i_glide_ligand_efficiency_sa>  (158) 
-0.414761

>  <r_i_glide_ligand_efficiency_ln>  (158) 
-0.868945

>  <r_i_glide_gscore>  (158) 
-3.73285

>  <r_i_glide_lipo>  (158) 
-0.15458

>  <r_i_glide_hbond>  (158) 
-0.289494

>  <r_i_glide_metal>  (158) 
-0

>  <r_i_glide_rewards>  (158) 
-0.981392

>  <r_i_glide_evdw>  (158) 
-26.4067

>  <r_i_glide_ecoul>  (158) 
-6.58031

>  <r_i_glide_erotb>  (158) 
0

>  <r_i_glide_esite>  (158) 
0

>  <r_i_glide_emodel>  (158) 
-40.8419

>  <r_i_glide_energy>  (158) 
-32.987

>  <r_i_glide_einternal>  (158) 
0.00909526

>  <r_i_glide_intrahb_reward>  (158) 
-0

>  <i_i_glide_confnum>  (158) 
2

>  <i_i_glide_posenum>  (158) 
9

>  <r_i_glide_eff_state_penalty>  (158) 
0

>  <ligand_id>  (158) 
40

>  <original_smiles>  (158) 
CC1OC(=O)C2OC23C1CCC1C2CCc4cc(O)ccc4C2CCC13C

>  <smiles>  (158) 
[H]Oc1c([H])c([H])c2c(c1[H])C([H])([H])C([H])([H])C1([H])C2([H])C([H])([H])C([H])([H])C2(C([H])([H])[H])C1([H])C([H])([H])C([H])([H])C1([H])C([H])(C([H])([H])[H])OC(=O)C3([H])OC312

$$$$
40:0:2
     RDKit          3D

 55 60  0  0  1  0  0  0  0  0999 V2000
    3.8402   -1.2535   -2.3359 C   0  0  0  0  0  0  0  0  0  0  0  0
    4.3840   -1.3512   -0.9021 C   0  0  2  0  0  0  0  0  0  0  0  0
    5.7858   -1.6061   -0.9314 O   0  0  0  0  0  0  0  0  0  0  0  0
    6.5096   -1.8358    0.1999 C   0  0  0  0  0  0  0  0  0  0  0  0
    7.7313   -1.9613    0.1768 O   0  0  0  0  0  0  0  0  0  0  0  0
    5.7408   -1.9763    1.4963 C   0  0  1  0  0  0  0  0  0  0  0  0
    4.7077   -1.0073    1.8038 O   0  0  0  0  0  0  0  0  0  0  0  0
    4.2793   -2.3114    1.4039 C   0  0  1  0  0  0  0  0  0  0  0  0
    3.6400   -2.3448    0.0265 C   0  0  2  0  0  0  0  0  0  0  0  0
    3.6285   -3.7913   -0.4878 C   0  0  0  0  0  0  0  0  0  0  0  0
    2.8908   -4.7218    0.4868 C   0  0  0  0  0  0  0  0  0  0  0  0
    3.5069   -4.6798    1.9074 C   0  0  2  0  0  0  0  0  0  0  0  0
    2.8512   -5.6687    2.9260 C   0  0  1  0  0  0  0  0  0  0  0  0
    2.8121   -7.1311    2.4367 C   0  0  0  0  0  0  0  0  0  0  0  0
    1.9620   -7.9986    3.3686 C   0  0  0  0  0  0  0  0  0  0  0  0
    2.2462   -7.7802    4.8460 C   0  0  0  0  0  0  0  0  0  0  0  0
    1.7567   -8.7392    5.7605 C   0  0  0  0  0  0  0  0  0  0  0  0
    1.9486   -8.5676    7.1427 C   0  0  0  0  0  0  0  0  0  0  0  0
    1.4922   -9.4938    8.0348 O   0  0  0  0  0  0  0  0  0  0  0  0
    2.6194   -7.4246    7.6097 C   0  0  0  0  0  0  0  0  0  0  0  0
    3.1277   -6.4729    6.7007 C   0  0  0  0  0  0  0  0  0  0  0  0
    2.9550   -6.6417    5.3074 C   0  0  0  0  0  0  0  0  0  0  0  0
    3.5715   -5.6473    4.3016 C   0  0  2  0  0  0  0  0  0  0  0  0
    3.7481   -4.2101    4.8463 C   0  0  0  0  0  0  0  0  0  0  0  0
    4.3572   -3.2631    3.7878 C   0  0  0  0  0  0  0  0  0  0  0  0
    3.5647   -3.2112    2.4507 C   0  0  1  0  0  0  0  0  0  0  0  0
    2.1584   -2.6229    2.7598 C   0  0  0  0  0  0  0  0  0  0  0  0
    2.7636   -1.0591   -2.3357 H   0  0  0  0  0  0  0  0  0  0  0  0
    4.0249   -2.1598   -2.9135 H   0  0  0  0  0  0  0  0  0  0  0  0
    4.3155   -0.4233   -2.8628 H   0  0  0  0  0  0  0  0  0  0  0  0
    4.2580   -0.3555   -0.4730 H   0  0  0  0  0  0  0  0  0  0  0  0
    6.3296   -2.2454    2.3669 H   0  0  0  0  0  0  0  0  0  0  0  0
    2.6150   -1.9977    0.1095 H   0  0  0  0  0  0  0  0  0  0  0  0
    3.1625   -3.8520   -1.4727 H   0  0  0  0  0  0  0  0  0  0  0  0
    4.6535   -4.1555   -0.6054 H   0  0  0  0  0  0  0  0  0  0  0  0
    1.8366   -4.4508    0.5172 H   0  0  0  0  0  0  0  0  0  0  0  0
    2.9416   -5.7229    0.0626 H   0  0  0  0  0  0  0  0  0  0  0  0
    4.5401   -5.0125    1.7868 H   0  0  0  0  0  0  0  0  0  0  0  0
    1.8151   -5.3644    3.0688 H   0  0  0  0  0  0  0  0  0  0  0  0
    2.4089   -7.2374    1.4321 H   0  0  0  0  0  0  0  0  0  0  0  0
    3.8295   -7.5261    2.4072 H   0  0  0  0  0  0  0  0  0  0  0  0
    0.9113   -7.7520    3.2086 H   0  0  0  0  0  0  0  0  0  0  0  0
    2.0807   -9.0524    3.1143 H   0  0  0  0  0  0  0  0  0  0  0  0
    1.2297   -9.6088    5.3978 H   0  0  0  0  0  0  0  0  0  0  0  0
    1.4164  -10.3908    7.6983 H   0  0  0  0  0  0  0  0  0  0  0  0
    2.7667   -7.2887    8.6701 H   0  0  0  0  0  0  0  0  0  0  0  0
    3.6634   -5.6296    7.1083 H   0  0  0  0  0  0  0  0  0  0  0  0
    4.5805   -6.0282    4.1359 H   0  0  0  0  0  0  0  0  0  0  0  0
    2.8067   -3.8185    5.2325 H   0  0  0  0  0  0  0  0  0  0  0  0
    4.4347   -4.2203    5.6927 H   0  0  0  0  0  0  0  0  0  0  0  0
    4.4631   -2.2625    4.2120 H   0  0  0  0  0  0  0  0  0  0  0  0
    5.3668   -3.6290    3.6018 H   0  0  0  0  0  0  0  0  0  0  0  0
    1.6078   -3.2085    3.4983 H   0  0  0  0  0  0  0  0  0  0  0  0
    1.5126   -2.5745    1.8862 H   0  0  0  0  0  0  0  0  0  0  0  0
    2.2325   -1.6108    3.1634 H   0  0  0  0  0  0  0  0  0  0  0  0
  1  2  1  0
  1 28  1  0
  1 29  1  0
  1 30  1  0
  2  9  1  0
  2  3  1  0
  2 31  1  1
  3  4  1  0
  4  5  2  0
  4  6  1  0
  6  8  1  0
  6  7  1  0
  6 32  1  1
  8  7  1  1
  8 26  1  0
  8  9  1  0
  9 10  1  0
  9 33  1  1
 10 11  1  0
 10 34  1  0
 10 35  1  0
 11 12  1  0
 11 36  1  0
 11 37  1  0
 12 26  1  0
 12 13  1  0
 12 38  1  6
 13 23  1  0
 13 14  1  0
 13 39  1  1
 14 15  1  0
 14 40  1  0
 14 41  1  0
 15 16  1  0
 15 42  1  0
 15 43  1  0
 16 22  2  0
 16 17  1  0
 17 18  2  0
 17 44  1  0
 18 19  1  0
 18 20  1  0
 19 45  1  0
 20 21  2  0
 20 46  1  0
 21 22  1  0
 21 47  1  0
 22 23  1  0
 23 24  1  0
 23 48  1  6
 24 25  1  0
 24 49  1  0
 24 50  1  0
 25 26  1  0
 25 51  1  0
 25 52  1  0
 26 27  1  1
 27 53  1  0
 27 54  1  0
 27 55  1  0
M  END
>  <i_m_ct_stereo_status>  (159) 
1

>  <s_m_source_file>  (159) 
/var/tmp/pbs.5076255.sched01/tmphf7gnms3/50i7j3xhgh.sdf

>  <i_m_source_file_index>  (159) 
17

>  <i_lp_mmshare_version>  (159) 
48012

>  <i_f3d_flags>  (159) 
0

>  <s_epik_input>  (159) 
TzFbQ0BASF0oW0NAQF0xMjMpQyg9TylPW0NAQEhdKFtDSDNdKVtDQEhdMltDSDJdW0NIMl1bQ0BASF00W0NAQEhdNVtDQEBIXShbQ0gyXVtDSDJdW0NAQF0zNFtDSDNdKWM2YyhbQ0gyXVtDSDJdNSlbY0hdYyhbT0hdKVtjSF1bY0hdNg==

>  <s_epik_cmdline>  (159) 
J2VwaWtfcHl0aG9uJywgJy1waHQnLCAnMi4wJywgJy1waCcsICc3LjAnLCAnLXRuJywgJzgnLCAnLW1hJywgJzIwMCcsICctaW1hZScsICc8aW5maWxlLm1hZT4nLCAnLW9tYWUnLCAnPG91dGZpbGUubWFlPic=

>  <r_lp_tautomer_probability>  (159) 
1

>  <r_epik_Ionization_Penalty>  (159) 
0.000120909

>  <r_epik_Ionization_Penalty_Charging>  (159) 
0

>  <r_epik_Ionization_Penalty_Neutral>  (159) 
0.000120909

>  <r_epik_State_Penalty>  (159) 
-0

>  <r_epik_Charging_Adjusted_Penalty>  (159) 
0

>  <i_epik_Tot_Q>  (159) 
0

>  <i_epik_Tot_abs_Q>  (159) 
0

>  <s_epik_Chemistry_Notes>  (159) 
This compound has an ester and may undergo hydrolysis at high or low pH.

>  <s_lp_Force_Field>  (159) 
OPLS3e

>  <r_lp_Energy>  (159) 
55.1249

>  <b_lp_Chiralities_Consistent>  (159) 
1

>  <s_lp_Variant>  (159) 
40:0-1

>  <s_i_glide_gridfile>  (159) 
pfpi4k_grid

>  <i_i_glide_lignum>  (159) 
17

>  <i_i_glide_rotatable_bonds>  (159) 
1

>  <r_i_docking_score>  (159) 
-3.396

>  <r_i_glide_ligand_efficiency>  (159) 
-0.125778

>  <r_i_glide_ligand_efficiency_sa>  (159) 
-0.377334

>  <r_i_glide_ligand_efficiency_ln>  (159) 
-0.790534

>  <r_i_glide_gscore>  (159) 
-3.396

>  <r_i_glide_lipo>  (159) 
-0.138527

>  <r_i_glide_hbond>  (159) 
-0.233596

>  <r_i_glide_metal>  (159) 
-0

>  <r_i_glide_rewards>  (159) 
-0.896823

>  <r_i_glide_evdw>  (159) 
-24.4868

>  <r_i_glide_ecoul>  (159) 
-6.00368

>  <r_i_glide_erotb>  (159) 
0

>  <r_i_glide_esite>  (159) 
-0.00216699

>  <r_i_glide_emodel>  (159) 
-37.0863

>  <r_i_glide_energy>  (159) 
-30.4905

>  <r_i_glide_einternal>  (159) 
0.675285

>  <r_i_glide_intrahb_reward>  (159) 
-0

>  <i_i_glide_confnum>  (159) 
1

>  <i_i_glide_posenum>  (159) 
15

>  <r_i_glide_eff_state_penalty>  (159) 
0

>  <ligand_id>  (159) 
40

>  <original_smiles>  (159) 
CC1OC(=O)C2OC23C1CCC1C2CCc4cc(O)ccc4C2CCC13C

>  <smiles>  (159) 
[H]Oc1c([H])c([H])c2c(c1[H])C([H])([H])C([H])([H])C1([H])C2([H])C([H])([H])C([H])([H])C2(C([H])([H])[H])C1([H])C([H])([H])C([H])([H])C1([H])C([H])(C([H])([H])[H])OC(=O)C3([H])OC312

$$$$
41:0:0
     RDKit          3D

 79 84  0  0  1  0  0  0  0  0999 V2000
    3.6455   -8.9229    2.8596 C   0  0  0  0  0  0  0  0  0  0  0  0
    4.3807   -7.5910    2.5174 C   0  0  1  0  0  0  0  0  0  0  0  0
    5.8758   -8.0214    2.6082 C   0  0  0  0  0  0  0  0  0  0  0  0
    6.5246   -8.1651    1.5488 O   0  0  0  0  0  0  0  0  0  0  0  0
    6.3391   -8.2179    3.7540 O   0  0  0  0  0  0  0  0  0  0  0  0
    4.0580   -7.1581    1.0601 C   0  0  0  0  0  0  0  0  0  0  0  0
    2.6422   -6.5843    0.9017 C   0  0  0  0  0  0  0  0  0  0  0  0
    2.3778   -5.4067    1.8551 C   0  0  0  0  0  0  0  0  0  0  0  0
    2.6095   -5.7267    3.3571 C   0  0  1  0  0  0  0  0  0  0  0  0
    1.5403   -6.7832    3.7840 C   0  0  0  0  0  0  0  0  0  0  0  0
    4.0768   -6.3608    3.4974 C   0  0  2  0  0  0  0  0  0  0  0  0
    5.1859   -5.2648    3.3333 C   0  0  0  0  0  0  0  0  0  0  0  0
    5.3906   -4.4079    4.5494 C   0  0  0  0  0  0  0  0  0  0  0  0
    4.5331   -3.4488    4.8943 C   0  0  0  0  0  0  0  0  0  0  0  0
    3.2613   -3.2275    4.1757 C   0  0  2  0  0  0  0  0  0  0  0  0
    3.2157   -2.3545    2.9486 C   0  0  0  0  0  0  0  0  0  0  0  0
    2.7579   -1.7608    4.2602 C   0  0  2  0  0  0  0  0  0  0  0  0
    3.6342   -0.6013    4.7363 C   0  0  0  0  0  0  0  0  0  0  0  0
    3.1666    0.7378    4.1706 C   0  0  0  0  0  0  0  0  0  0  0  0
    1.6759    1.0815    4.4450 C   0  0  1  0  0  0  0  0  0  0  0  0
    0.9960    1.8814    3.2765 C   0  0  1  0  0  0  0  0  0  0  0  0
    1.9181    3.0684    2.8945 C   0  0  0  0  0  0  0  0  0  0  0  0
    0.6775    1.0214    1.9962 C   0  0  0  0  0  0  0  0  0  0  0  0
    1.7981    0.5470    1.2695 O   0  0  0  0  0  0  0  0  0  0  0  0
   -0.2980    2.5193    3.8713 C   0  0  1  0  0  0  0  0  0  0  0  0
   -1.1353    3.0999    2.8868 O   0  0  0  0  0  0  0  0  0  0  0  0
   -1.1488    1.6041    4.7766 C   0  0  0  0  0  0  0  0  0  0  0  0
   -0.6940    0.1373    4.8219 C   0  0  0  0  0  0  0  0  0  0  0  0
    0.8357   -0.0998    5.0629 C   0  0  2  0  0  0  0  0  0  0  0  0
    1.0272   -0.1175    6.6099 C   0  0  0  0  0  0  0  0  0  0  0  0
    1.2501   -1.4913    4.4316 C   0  0  2  0  0  0  0  0  0  0  0  0
    0.5874   -2.7029    5.1051 C   0  0  0  0  0  0  0  0  0  0  0  0
    0.8412   -3.9979    4.3269 C   0  0  0  0  0  0  0  0  0  0  0  0
    2.3258   -4.4533    4.3022 C   0  0  1  0  0  0  0  0  0  0  0  0
    2.7398   -9.0715    2.2751 H   0  0  0  0  0  0  0  0  0  0  0  0
    3.4036   -8.9903    3.9219 H   0  0  0  0  0  0  0  0  0  0  0  0
    4.2424   -9.8078    2.6232 H   0  0  0  0  0  0  0  0  0  0  0  0
    4.7766   -6.4028    0.7360 H   0  0  0  0  0  0  0  0  0  0  0  0
    4.1962   -8.0017    0.3835 H   0  0  0  0  0  0  0  0  0  0  0  0
    2.5225   -6.2383   -0.1240 H   0  0  0  0  0  0  0  0  0  0  0  0
    1.8937   -7.3649    1.0207 H   0  0  0  0  0  0  0  0  0  0  0  0
    3.0198   -4.5950    1.5269 H   0  0  0  0  0  0  0  0  0  0  0  0
    1.3616   -5.0619    1.6952 H   0  0  0  0  0  0  0  0  0  0  0  0
    1.6769   -7.1041    4.8210 H   0  0  0  0  0  0  0  0  0  0  0  0
    1.5325   -7.6728    3.1675 H   0  0  0  0  0  0  0  0  0  0  0  0
    0.5164   -6.4263    3.6605 H   0  0  0  0  0  0  0  0  0  0  0  0
    4.1648   -6.7498    4.5140 H   0  0  0  0  0  0  0  0  0  0  0  0
    6.1914   -5.6312    3.1502 H   0  0  0  0  0  0  0  0  0  0  0  0
    4.9854   -4.6161    2.4846 H   0  0  0  0  0  0  0  0  0  0  0  0
    6.2820   -4.5774    5.1404 H   0  0  0  0  0  0  0  0  0  0  0  0
    4.7223   -2.8383    5.7626 H   0  0  0  0  0  0  0  0  0  0  0  0
    4.1629   -2.0260    2.5399 H   0  0  0  0  0  0  0  0  0  0  0  0
    2.4591   -2.5306    2.1937 H   0  0  0  0  0  0  0  0  0  0  0  0
    3.7195   -0.5926    5.8169 H   0  0  0  0  0  0  0  0  0  0  0  0
    4.6545   -0.7429    4.3830 H   0  0  0  0  0  0  0  0  0  0  0  0
    3.7996    1.5425    4.5459 H   0  0  0  0  0  0  0  0  0  0  0  0
    3.3750    0.7073    3.1041 H   0  0  0  0  0  0  0  0  0  0  0  0
    1.7454    1.8200    5.2511 H   0  0  0  0  0  0  0  0  0  0  0  0
    1.4225    3.7741    2.2465 H   0  0  0  0  0  0  0  0  0  0  0  0
    2.8199    2.7511    2.3667 H   0  0  0  0  0  0  0  0  0  0  0  0
    2.2367    3.6282    3.7785 H   0  0  0  0  0  0  0  0  0  0  0  0
    0.0830    0.1452    2.2231 H   0  0  0  0  0  0  0  0  0  0  0  0
    0.0812    1.5929    1.2891 H   0  0  0  0  0  0  0  0  0  0  0  0
    1.4785   -0.0100    0.5537 H   0  0  0  0  0  0  0  0  0  0  0  0
    0.0006    3.3528    4.5089 H   0  0  0  0  0  0  0  0  0  0  0  0
   -0.5946    3.5736    2.2521 H   0  0  0  0  0  0  0  0  0  0  0  0
   -1.1589    2.0048    5.7880 H   0  0  0  0  0  0  0  0  0  0  0  0
   -2.1931    1.6277    4.4683 H   0  0  0  0  0  0  0  0  0  0  0  0
   -1.2670   -0.3532    5.6057 H   0  0  0  0  0  0  0  0  0  0  0  0
   -1.0406   -0.3643    3.9144 H   0  0  0  0  0  0  0  0  0  0  0  0
    0.3544   -0.8207    7.1002 H   0  0  0  0  0  0  0  0  0  0  0  0
    0.8396    0.8583    7.0597 H   0  0  0  0  0  0  0  0  0  0  0  0
    2.0190   -0.4127    6.9230 H   0  0  0  0  0  0  0  0  0  0  0  0
    0.8554   -1.4844    3.4208 H   0  0  0  0  0  0  0  0  0  0  0  0
    0.9411   -2.8332    6.1312 H   0  0  0  0  0  0  0  0  0  0  0  0
   -0.4912   -2.5433    5.1508 H   0  0  0  0  0  0  0  0  0  0  0  0
    0.2360   -4.7399    4.8422 H   0  0  0  0  0  0  0  0  0  0  0  0
    0.4503   -3.8961    3.3201 H   0  0  0  0  0  0  0  0  0  0  0  0
    2.4920   -4.8235    5.3222 H   0  0  0  0  0  0  0  0  0  0  0  0
  2  1  1  1
  1 35  1  0
  1 36  1  0
  1 37  1  0
  2 11  1  0
  2  3  1  0
  2  6  1  0
  3  4  2  0
  3  5  1  0
  6  7  1  0
  6 38  1  0
  6 39  1  0
  7  8  1  0
  7 40  1  0
  7 41  1  0
  8  9  1  0
  8 42  1  0
  8 43  1  0
  9 34  1  0
  9 10  1  1
  9 11  1  0
 10 44  1  0
 10 45  1  0
 10 46  1  0
 11 12  1  0
 11 47  1  1
 12 13  1  0
 12 48  1  0
 12 49  1  0
 13 14  2  0
 13 50  1  0
 14 15  1  0
 14 51  1  0
 15 17  1  0
 15 34  1  0
 15 16  1  6
 17 16  1  6
 16 52  1  0
 16 53  1  0
 17 31  1  0
 17 18  1  0
 18 19  1  0
 18 54  1  0
 18 55  1  0
 19 20  1  0
 19 56  1  0
 19 57  1  0
 20 29  1  0
 20 21  1  0
 20 58  1  1
 21 22  1  6
 21 23  1  0
 21 25  1  0
 22 59  1  0
 22 60  1  0
 22 61  1  0
 23 24  1  0
 23 62  1  0
 23 63  1  0
 24 64  1  0
 25 26  1  0
 25 27  1  0
 25 65  1  1
 26 66  1  0
 27 28  1  0
 27 67  1  0
 27 68  1  0
 28 29  1  0
 28 69  1  0
 28 70  1  0
 29 30  1  1
 29 31  1  0
 30 71  1  0
 30 72  1  0
 30 73  1  0
 31 32  1  0
 31 74  1  6
 32 33  1  0
 32 75  1  0
 32 76  1  0
 33 34  1  0
 33 77  1  0
 33 78  1  0
 34 79  1  1
M  CHG  1   5  -1
M  END
>  <i_m_ct_stereo_status>  (160) 
1

>  <s_m_source_file>  (160) 
/var/tmp/pbs.5076255.sched01/tmphf7gnms3/50i7j3xhgh.sdf

>  <i_m_source_file_index>  (160) 
18

>  <i_lp_mmshare_version>  (160) 
48012

>  <i_f3d_flags>  (160) 
0

>  <s_epik_input>  (160) 
W0NIMl0xW0NIMl1bQ0gyXVtDQEBdKFtDSDNdKShDKD1PKVtPSF0pW0NAQEhdKFtDSDJdW0NIXT1bQ0hdMilbQ0BAXTEoW0NIM10pW0NAQEhdM1tDSDJdW0NIMl1bQ0BIXShbQ0BAXTQoW0NAQF0yMzUpW0NIMl01KVtDQEBdNihbQ0gzXSlbQ0BASF0oW0NIMl1bQ0gyXTQpW0NAQF0oW0NIM10pKFtDSDJdW09IXSlbQ0BASF0oW09IXSlbQ0gyXVtDSDJdNg==

>  <s_epik_cmdline>  (160) 
J2VwaWtfcHl0aG9uJywgJy1waHQnLCAnMi4wJywgJy1waCcsICc3LjAnLCAnLXRuJywgJzgnLCAnLW1hJywgJzIwMCcsICctaW1hZScsICc8aW5maWxlLm1hZT4nLCAnLW9tYWUnLCAnPG91dGZpbGUubWFlPic=

>  <r_epik_Ionization_Penalty>  (160) 
0.00553593

>  <r_epik_Ionization_Penalty_Charging>  (160) 
0.00553401

>  <r_epik_Ionization_Penalty_Neutral>  (160) 
1.91761e-06

>  <r_epik_State_Penalty>  (160) 
0.00405109

>  <r_epik_Charging_Adjusted_Penalty>  (160) 
0.0095851

>  <i_epik_Tot_Q>  (160) 
-1

>  <i_epik_Tot_abs_Q>  (160) 
1

>  <s_lp_Force_Field>  (160) 
OPLS3e

>  <r_lp_Energy>  (160) 
119.651

>  <b_lp_Chiralities_Consistent>  (160) 
1

>  <s_lp_Variant>  (160) 
41:0-1

>  <s_i_glide_gridfile>  (160) 
pfpi4k_grid

>  <i_i_glide_lignum>  (160) 
18

>  <i_i_glide_rotatable_bonds>  (160) 
4

>  <r_i_docking_score>  (160) 
-2.51507

>  <r_i_glide_ligand_efficiency>  (160) 
-0.0739727

>  <r_i_glide_ligand_efficiency_sa>  (160) 
-0.239643

>  <r_i_glide_ligand_efficiency_ln>  (160) 
-0.55565

>  <r_i_glide_gscore>  (160) 
-2.51507

>  <r_i_glide_lipo>  (160) 
-0.134148

>  <r_i_glide_hbond>  (160) 
-0.304

>  <r_i_glide_metal>  (160) 
-0

>  <r_i_glide_rewards>  (160) 
-0.230203

>  <r_i_glide_evdw>  (160) 
-18.4582

>  <r_i_glide_ecoul>  (160) 
-6.76919

>  <r_i_glide_erotb>  (160) 
0.0915672

>  <r_i_glide_esite>  (160) 
0

>  <r_i_glide_emodel>  (160) 
-28.3849

>  <r_i_glide_energy>  (160) 
-25.2274

>  <r_i_glide_einternal>  (160) 
1.65907

>  <r_i_glide_intrahb_reward>  (160) 
-0

>  <i_i_glide_confnum>  (160) 
1

>  <i_i_glide_posenum>  (160) 
4

>  <r_i_glide_eff_state_penalty>  (160) 
0

>  <ligand_id>  (160) 
41

>  <original_smiles>  (160) 
CC1(C(=O)O)CCCC2(C)C1CC=CC13CC14CCC1C(C)(CO)C(O)CCC1(C)C4CCC23

>  <smiles>  (160) 
[H]OC([H])([H])C1(C([H])([H])[H])C([H])(O[H])C([H])([H])C([H])([H])C2(C([H])([H])[H])C1([H])C([H])([H])C([H])([H])C13C([H])([H])C14C([H])=C([H])C([H])([H])C1([H])C(C(=O)[O-])(C([H])([H])[H])C([H])([H])C([H])([H])C([H])([H])C1(C([H])([H])[H])C4([H])C([H])([H])C([H])([H])C23[H]

$$$$
41:0:1
     RDKit          3D

 79 84  0  0  1  0  0  0  0  0999 V2000
    2.4040   -9.1211    3.4601 C   0  0  0  0  0  0  0  0  0  0  0  0
    3.0393   -7.9235    2.6861 C   0  0  1  0  0  0  0  0  0  0  0  0
    4.3719   -8.5341    2.1600 C   0  0  0  0  0  0  0  0  0  0  0  0
    4.5519   -8.6274    0.9205 O   0  0  0  0  0  0  0  0  0  0  0  0
    5.2193   -8.8686    3.0213 O   0  0  0  0  0  0  0  0  0  0  0  0
    2.1412   -7.5297    1.4813 C   0  0  0  0  0  0  0  0  0  0  0  0
    0.8635   -6.7835    1.8865 C   0  0  0  0  0  0  0  0  0  0  0  0
    1.1682   -5.5277    2.7267 C   0  0  0  0  0  0  0  0  0  0  0  0
    2.0158   -5.7932    4.0026 C   0  0  1  0  0  0  0  0  0  0  0  0
    1.1507   -6.6677    4.9651 C   0  0  0  0  0  0  0  0  0  0  0  0
    3.3239   -6.6100    3.5595 C   0  0  2  0  0  0  0  0  0  0  0  0
    4.3541   -5.6848    2.8187 C   0  0  0  0  0  0  0  0  0  0  0  0
    5.1591   -4.7971    3.7217 C   0  0  0  0  0  0  0  0  0  0  0  0
    4.6420   -3.7124    4.2954 C   0  0  0  0  0  0  0  0  0  0  0  0
    3.2118   -3.3552    4.1778 C   0  0  2  0  0  0  0  0  0  0  0  0
    2.7127   -2.5566    3.0011 C   0  0  0  0  0  0  0  0  0  0  0  0
    2.9387   -1.8315    4.3079 C   0  0  2  0  0  0  0  0  0  0  0  0
    4.0364   -0.7730    4.2187 C   0  0  0  0  0  0  0  0  0  0  0  0
    3.4754    0.5735    3.7626 C   0  0  0  0  0  0  0  0  0  0  0  0
    2.3307    1.1484    4.6384 C   0  0  1  0  0  0  0  0  0  0  0  0
    1.2776    1.9843    3.8134 C   0  0  1  0  0  0  0  0  0  0  0  0
    2.0489    2.9975    2.9234 C   0  0  0  0  0  0  0  0  0  0  0  0
    0.4079    1.0649    2.8884 C   0  0  0  0  0  0  0  0  0  0  0  0
   -0.5281    1.7485    2.0757 O   0  0  0  0  0  0  0  0  0  0  0  0
    0.4559    2.8174    4.8513 C   0  0  1  0  0  0  0  0  0  0  0  0
   -0.6434    3.5213    4.3052 O   0  0  0  0  0  0  0  0  0  0  0  0
    0.0137    2.0583    6.1193 C   0  0  0  0  0  0  0  0  0  0  0  0
    0.3048    0.5462    6.1131 C   0  0  0  0  0  0  0  0  0  0  0  0
    1.7479    0.1202    5.6831 C   0  0  2  0  0  0  0  0  0  0  0  0
    2.6104    0.1552    6.9816 C   0  0  0  0  0  0  0  0  0  0  0  0
    1.6991   -1.3456    5.0857 C   0  0  2  0  0  0  0  0  0  0  0  0
    1.2836   -2.4206    6.1055 C   0  0  0  0  0  0  0  0  0  0  0  0
    1.0369   -3.7813    5.4451 C   0  0  0  0  0  0  0  0  0  0  0  0
    2.3058   -4.4373    4.8256 C   0  0  1  0  0  0  0  0  0  0  0  0
    1.3236   -9.1757    3.3504 H   0  0  0  0  0  0  0  0  0  0  0  0
    2.6549   -9.0971    4.5215 H   0  0  0  0  0  0  0  0  0  0  0  0
    2.7403  -10.0919    3.0873 H   0  0  0  0  0  0  0  0  0  0  0  0
    2.7065   -6.8853    0.8080 H   0  0  0  0  0  0  0  0  0  0  0  0
    1.8785   -8.4191    0.9067 H   0  0  0  0  0  0  0  0  0  0  0  0
    0.3328   -6.4988    0.9782 H   0  0  0  0  0  0  0  0  0  0  0  0
    0.1797   -7.4528    2.4086 H   0  0  0  0  0  0  0  0  0  0  0  0
    1.6784   -4.8271    2.0724 H   0  0  0  0  0  0  0  0  0  0  0  0
    0.2273   -5.0570    2.9991 H   0  0  0  0  0  0  0  0  0  0  0  0
    1.7003   -6.9432    5.8686 H   0  0  0  0  0  0  0  0  0  0  0  0
    0.7834   -7.5811    4.5211 H   0  0  0  0  0  0  0  0  0  0  0  0
    0.2196   -6.1845    5.2584 H   0  0  0  0  0  0  0  0  0  0  0  0
    3.8175   -6.9537    4.4738 H   0  0  0  0  0  0  0  0  0  0  0  0
    5.1317   -6.1981    2.2607 H   0  0  0  0  0  0  0  0  0  0  0  0
    3.8621   -5.0670    2.0718 H   0  0  0  0  0  0  0  0  0  0  0  0
    6.1993   -5.0512    3.8770 H   0  0  0  0  0  0  0  0  0  0  0  0
    5.2623   -3.0855    4.9179 H   0  0  0  0  0  0  0  0  0  0  0  0
    3.4101   -2.3819    2.1909 H   0  0  0  0  0  0  0  0  0  0  0  0
    1.6856   -2.6693    2.6733 H   0  0  0  0  0  0  0  0  0  0  0  0
    4.5955   -0.7075    5.1425 H   0  0  0  0  0  0  0  0  0  0  0  0
    4.7823   -1.0743    3.4827 H   0  0  0  0  0  0  0  0  0  0  0  0
    4.2854    1.3007    3.7150 H   0  0  0  0  0  0  0  0  0  0  0  0
    3.1460    0.4453    2.7342 H   0  0  0  0  0  0  0  0  0  0  0  0
    2.8319    1.9033    5.2446 H   0  0  0  0  0  0  0  0  0  0  0  0
    1.3904    3.7414    2.4782 H   0  0  0  0  0  0  0  0  0  0  0  0
    2.5744    2.5114    2.1006 H   0  0  0  0  0  0  0  0  0  0  0  0
    2.7927    3.5438    3.5078 H   0  0  0  0  0  0  0  0  0  0  0  0
    1.0302    0.4667    2.2246 H   0  0  0  0  0  0  0  0  0  0  0  0
   -0.1805    0.3536    3.4536 H   0  0  0  0  0  0  0  0  0  0  0  0
   -0.0976    2.4203    1.5630 H   0  0  0  0  0  0  0  0  0  0  0  0
    1.1102    3.6163    5.2034 H   0  0  0  0  0  0  0  0  0  0  0  0
   -0.4180    3.7648    3.4159 H   0  0  0  0  0  0  0  0  0  0  0  0
    0.4984    2.5131    6.9815 H   0  0  0  0  0  0  0  0  0  0  0  0
   -1.0542    2.2013    6.2933 H   0  0  0  0  0  0  0  0  0  0  0  0
    0.0978    0.1757    7.1152 H   0  0  0  0  0  0  0  0  0  0  0  0
   -0.4507    0.0510    5.5052 H   0  0  0  0  0  0  0  0  0  0  0  0
    2.1619   -0.4180    7.7901 H   0  0  0  0  0  0  0  0  0  0  0  0
    2.7423    1.1679    7.3597 H   0  0  0  0  0  0  0  0  0  0  0  0
    3.6025   -0.2602    6.8633 H   0  0  0  0  0  0  0  0  0  0  0  0
    0.9026   -1.3301    4.3476 H   0  0  0  0  0  0  0  0  0  0  0  0
    2.0434   -2.5401    6.8833 H   0  0  0  0  0  0  0  0  0  0  0  0
    0.3641   -2.1161    6.6050 H   0  0  0  0  0  0  0  0  0  0  0  0
    0.6629   -4.4082    6.2533 H   0  0  0  0  0  0  0  0  0  0  0  0
    0.2360   -3.6907    4.7166 H   0  0  0  0  0  0  0  0  0  0  0  0
    2.8696   -4.7680    5.7030 H   0  0  0  0  0  0  0  0  0  0  0  0
  2  1  1  1
  1 35  1  0
  1 36  1  0
  1 37  1  0
  2 11  1  0
  2  3  1  0
  2  6  1  0
  3  4  2  0
  3  5  1  0
  6  7  1  0
  6 38  1  0
  6 39  1  0
  7  8  1  0
  7 40  1  0
  7 41  1  0
  8  9  1  0
  8 42  1  0
  8 43  1  0
  9 34  1  0
  9 10  1  1
  9 11  1  0
 10 44  1  0
 10 45  1  0
 10 46  1  0
 11 12  1  0
 11 47  1  1
 12 13  1  0
 12 48  1  0
 12 49  1  0
 13 14  2  0
 13 50  1  0
 14 15  1  0
 14 51  1  0
 15 17  1  0
 15 34  1  0
 15 16  1  6
 17 16  1  6
 16 52  1  0
 16 53  1  0
 17 31  1  0
 17 18  1  0
 18 19  1  0
 18 54  1  0
 18 55  1  0
 19 20  1  0
 19 56  1  0
 19 57  1  0
 20 29  1  0
 20 21  1  0
 20 58  1  1
 21 22  1  6
 21 23  1  0
 21 25  1  0
 22 59  1  0
 22 60  1  0
 22 61  1  0
 23 24  1  0
 23 62  1  0
 23 63  1  0
 24 64  1  0
 25 26  1  0
 25 27  1  0
 25 65  1  1
 26 66  1  0
 27 28  1  0
 27 67  1  0
 27 68  1  0
 28 29  1  0
 28 69  1  0
 28 70  1  0
 29 30  1  1
 29 31  1  0
 30 71  1  0
 30 72  1  0
 30 73  1  0
 31 32  1  0
 31 74  1  6
 32 33  1  0
 32 75  1  0
 32 76  1  0
 33 34  1  0
 33 77  1  0
 33 78  1  0
 34 79  1  1
M  CHG  1   5  -1
M  END
>  <i_m_ct_stereo_status>  (161) 
1

>  <s_m_source_file>  (161) 
/var/tmp/pbs.5076255.sched01/tmphf7gnms3/50i7j3xhgh.sdf

>  <i_m_source_file_index>  (161) 
18

>  <i_lp_mmshare_version>  (161) 
48012

>  <i_f3d_flags>  (161) 
0

>  <s_epik_input>  (161) 
W0NIMl0xW0NIMl1bQ0gyXVtDQEBdKFtDSDNdKShDKD1PKVtPSF0pW0NAQEhdKFtDSDJdW0NIXT1bQ0hdMilbQ0BAXTEoW0NIM10pW0NAQEhdM1tDSDJdW0NIMl1bQ0BIXShbQ0BAXTQoW0NAQF0yMzUpW0NIMl01KVtDQEBdNihbQ0gzXSlbQ0BASF0oW0NIMl1bQ0gyXTQpW0NAQF0oW0NIM10pKFtDSDJdW09IXSlbQ0BASF0oW09IXSlbQ0gyXVtDSDJdNg==

>  <s_epik_cmdline>  (161) 
J2VwaWtfcHl0aG9uJywgJy1waHQnLCAnMi4wJywgJy1waCcsICc3LjAnLCAnLXRuJywgJzgnLCAnLW1hJywgJzIwMCcsICctaW1hZScsICc8aW5maWxlLm1hZT4nLCAnLW9tYWUnLCAnPG91dGZpbGUubWFlPic=

>  <r_epik_Ionization_Penalty>  (161) 
0.00553593

>  <r_epik_Ionization_Penalty_Charging>  (161) 
0.00553401

>  <r_epik_Ionization_Penalty_Neutral>  (161) 
1.91761e-06

>  <r_epik_State_Penalty>  (161) 
0.00405109

>  <r_epik_Charging_Adjusted_Penalty>  (161) 
0.0095851

>  <i_epik_Tot_Q>  (161) 
-1

>  <i_epik_Tot_abs_Q>  (161) 
1

>  <s_lp_Force_Field>  (161) 
OPLS3e

>  <r_lp_Energy>  (161) 
119.651

>  <b_lp_Chiralities_Consistent>  (161) 
1

>  <s_lp_Variant>  (161) 
41:0-1

>  <s_i_glide_gridfile>  (161) 
pfpi4k_grid

>  <i_i_glide_lignum>  (161) 
18

>  <i_i_glide_rotatable_bonds>  (161) 
4

>  <r_i_docking_score>  (161) 
-1.43133

>  <r_i_glide_ligand_efficiency>  (161) 
-0.0420978

>  <r_i_glide_ligand_efficiency_sa>  (161) 
-0.136381

>  <r_i_glide_ligand_efficiency_ln>  (161) 
-0.31622

>  <r_i_glide_gscore>  (161) 
-1.43133

>  <r_i_glide_lipo>  (161) 
-0.0210063

>  <r_i_glide_hbond>  (161) 
0

>  <r_i_glide_metal>  (161) 
-0

>  <r_i_glide_rewards>  (161) 
-0.206755

>  <r_i_glide_evdw>  (161) 
-19.1054

>  <r_i_glide_ecoul>  (161) 
-2.19448

>  <r_i_glide_erotb>  (161) 
0.0915672

>  <r_i_glide_esite>  (161) 
-0.0106901

>  <r_i_glide_emodel>  (161) 
-22.9114

>  <r_i_glide_energy>  (161) 
-21.2999

>  <r_i_glide_einternal>  (161) 
0.874566

>  <r_i_glide_intrahb_reward>  (161) 
-0

>  <i_i_glide_confnum>  (161) 
4

>  <i_i_glide_posenum>  (161) 
5

>  <r_i_glide_eff_state_penalty>  (161) 
0

>  <ligand_id>  (161) 
41

>  <original_smiles>  (161) 
CC1(C(=O)O)CCCC2(C)C1CC=CC13CC14CCC1C(C)(CO)C(O)CCC1(C)C4CCC23

>  <smiles>  (161) 
[H]OC([H])([H])C1(C([H])([H])[H])C([H])(O[H])C([H])([H])C([H])([H])C2(C([H])([H])[H])C1([H])C([H])([H])C([H])([H])C13C([H])([H])C14C([H])=C([H])C([H])([H])C1([H])C(C(=O)[O-])(C([H])([H])[H])C([H])([H])C([H])([H])C([H])([H])C1(C([H])([H])[H])C4([H])C([H])([H])C([H])([H])C23[H]

$$$$
42:0:0
     RDKit          3D

 41 44  0  0  1  0  0  0  0  0999 V2000
    2.9443   -1.5239    4.7970 C   0  0  0  0  0  0  0  0  0  0  0  0
    3.2068   -0.3528    3.9292 N   0  0  1  0  0  0  0  0  0  0  0  0
    2.4813   -0.3885    2.6361 C   0  0  0  0  0  0  0  0  0  0  0  0
    0.9989   -0.0440    2.8156 C   0  0  0  0  0  0  0  0  0  0  0  0
    0.8145    1.3420    3.4644 C   0  0  2  0  0  0  0  0  0  0  0  0
    1.6110    1.4428    4.7819 C   0  0  2  0  0  0  0  0  0  0  0  0
    3.0721    0.9531    4.6290 C   0  0  0  0  0  0  0  0  0  0  0  0
    0.9647    0.7292    5.8325 O   0  0  0  0  0  0  0  0  0  0  0  0
    0.0407    1.4066    6.6040 C   0  0  0  0  0  0  0  0  0  0  0  0
    0.0357    1.0694    7.9757 C   0  0  0  0  0  0  0  0  0  0  0  0
   -0.8372    1.7069    8.8750 C   0  0  0  0  0  0  0  0  0  0  0  0
   -1.7393    2.6747    8.4055 C   0  0  0  0  0  0  0  0  0  0  0  0
   -2.8197    3.4608    9.5011 Cl  0  0  0  0  0  0  0  0  0  0  0  0
   -1.7584    3.0074    7.0461 C   0  0  0  0  0  0  0  0  0  0  0  0
   -0.8835    2.3846    6.1216 C   0  0  0  0  0  0  0  0  0  0  0  0
   -0.9666    2.7934    4.6459 C   0  0  2  0  0  0  0  0  0  0  0  0
   -2.3509    3.2154    4.1669 C   0  0  0  0  0  0  0  0  0  0  0  0
   -2.3126    2.9624    2.6625 C   0  0  0  0  0  0  0  0  0  0  0  0
   -1.2149    2.0905    2.4413 O   0  0  0  0  0  0  0  0  0  0  0  0
   -0.6768    1.6543    3.6723 C   0  0  1  0  0  0  0  0  0  0  0  0
    1.9110   -1.5482    5.1365 H   0  0  0  0  0  0  0  0  0  0  0  0
    3.5907   -1.4967    5.6749 H   0  0  0  0  0  0  0  0  0  0  0  0
    3.1488   -2.4522    4.2610 H   0  0  0  0  0  0  0  0  0  0  0  0
    2.9410    0.3166    1.9379 H   0  0  0  0  0  0  0  0  0  0  0  0
    2.5815   -1.3762    2.1841 H   0  0  0  0  0  0  0  0  0  0  0  0
    0.5168   -0.0630    1.8384 H   0  0  0  0  0  0  0  0  0  0  0  0
    0.5147   -0.8078    3.4281 H   0  0  0  0  0  0  0  0  0  0  0  0
    1.2322    2.0865    2.7821 H   0  0  0  0  0  0  0  0  0  0  0  0
    1.6915    2.4904    5.0711 H   0  0  0  0  0  0  0  0  0  0  0  0
    3.5628    0.9096    5.6018 H   0  0  0  0  0  0  0  0  0  0  0  0
    3.6253    1.6908    4.0431 H   0  0  0  0  0  0  0  0  0  0  0  0
    0.7381    0.3357    8.3462 H   0  0  0  0  0  0  0  0  0  0  0  0
   -0.8114    1.4627    9.9258 H   0  0  0  0  0  0  0  0  0  0  0  0
   -2.4627    3.7545    6.7156 H   0  0  0  0  0  0  0  0  0  0  0  0
   -0.2795    3.6215    4.4615 H   0  0  0  0  0  0  0  0  0  0  0  0
   -3.1253    2.5800    4.5968 H   0  0  0  0  0  0  0  0  0  0  0  0
   -2.5836    4.2522    4.4026 H   0  0  0  0  0  0  0  0  0  0  0  0
   -3.2370    2.5169    2.3007 H   0  0  0  0  0  0  0  0  0  0  0  0
   -2.1688    3.8863    2.1039 H   0  0  0  0  0  0  0  0  0  0  0  0
   -1.2335    0.7627    3.9649 H   0  0  0  0  0  0  0  0  0  0  0  0
    4.1843   -0.4244    3.6810 H   0  0  0  0  0  0  0  0  0  0  0  0
  1  2  1  0
  1 21  1  0
  1 22  1  0
  1 23  1  0
  2  7  1  0
  2  3  1  0
  2 41  1  6
  3  4  1  0
  3 24  1  0
  3 25  1  0
  4  5  1  0
  4 26  1  0
  4 27  1  0
  5 20  1  0
  5  6  1  0
  5 28  1  6
  6  7  1  0
  6  8  1  0
  6 29  1  1
  7 30  1  0
  7 31  1  0
  8  9  1  0
  9 15  2  0
  9 10  1  0
 10 11  2  0
 10 32  1  0
 11 12  1  0
 11 33  1  0
 12 13  1  0
 12 14  2  0
 14 15  1  0
 14 34  1  0
 15 16  1  0
 16 20  1  0
 16 17  1  0
 16 35  1  1
 17 18  1  0
 17 36  1  0
 17 37  1  0
 18 19  1  0
 18 38  1  0
 18 39  1  0
 19 20  1  0
 20 40  1  1
M  CHG  1   2   1
M  END
>  <i_m_ct_stereo_status>  (162) 
1

>  <s_m_source_file>  (162) 
/var/tmp/pbs.5076255.sched01/tmphf7gnms3/50i7j3xhgh.sdf

>  <i_m_source_file_index>  (162) 
19

>  <i_lp_mmshare_version>  (162) 
48012

>  <i_f3d_flags>  (162) 
0

>  <s_epik_input>  (162) 
W0NIMl0xW0NIMl1OKFtDSDNdKVtDSDJdW0NAQEhdKFtDQEBIXTEyKU9jM2MoW2NIXWMoQ2wpW2NIXVtjSF0zKVtDQEhdNFtDQEhdMk9bQ0gyXVtDSDJdNA==

>  <s_epik_cmdline>  (162) 
J2VwaWtfcHl0aG9uJywgJy1waHQnLCAnMi4wJywgJy1waCcsICc3LjAnLCAnLXRuJywgJzgnLCAnLW1hJywgJzIwMCcsICctaW1hZScsICc8aW5maWxlLm1hZT4nLCAnLW9tYWUnLCAnPG91dGZpbGUubWFlPic=

>  <r_lp_tautomer_probability>  (162) 
1

>  <r_epik_Ionization_Penalty>  (162) 
0.0238247

>  <r_epik_Ionization_Penalty_Charging>  (162) 
0.0238247

>  <r_epik_Ionization_Penalty_Neutral>  (162) 
2.02416e-12

>  <r_epik_State_Penalty>  (162) 
0.0193046

>  <r_epik_Charging_Adjusted_Penalty>  (162) 
0.0431292

>  <i_epik_Tot_Q>  (162) 
1

>  <i_epik_Tot_abs_Q>  (162) 
1

>  <s_lp_Force_Field>  (162) 
OPLS3e

>  <r_lp_Energy>  (162) 
32.4718

>  <b_lp_Chiralities_Consistent>  (162) 
1

>  <s_lp_Variant>  (162) 
42:0-1

>  <s_i_glide_gridfile>  (162) 
pfpi4k_grid

>  <i_i_glide_lignum>  (162) 
19

>  <i_i_glide_rotatable_bonds>  (162) 
0

>  <r_i_docking_score>  (162) 
-2.47133

>  <r_i_glide_ligand_efficiency>  (162) 
-0.123567

>  <r_i_glide_ligand_efficiency_sa>  (162) 
-0.335411

>  <r_i_glide_ligand_efficiency_ln>  (162) 
-0.618493

>  <r_i_glide_gscore>  (162) 
-2.47133

>  <r_i_glide_lipo>  (162) 
-0.04513

>  <r_i_glide_hbond>  (162) 
0

>  <r_i_glide_metal>  (162) 
-0

>  <r_i_glide_rewards>  (162) 
-1.39912

>  <r_i_glide_evdw>  (162) 
-17.1663

>  <r_i_glide_ecoul>  (162) 
-1.12513

>  <r_i_glide_erotb>  (162) 
0

>  <r_i_glide_esite>  (162) 
0

>  <r_i_glide_emodel>  (162) 
-20.7739

>  <r_i_glide_energy>  (162) 
-18.2914

>  <r_i_glide_einternal>  (162) 
0

>  <r_i_glide_intrahb_reward>  (162) 
-0

>  <i_i_glide_confnum>  (162) 
1

>  <i_i_glide_posenum>  (162) 
24

>  <r_i_glide_eff_state_penalty>  (162) 
0

>  <ligand_id>  (162) 
42

>  <original_smiles>  (162) 
CN1CCC2C(C1)Oc1ccc(Cl)cc1C1CCOC12

>  <smiles>  (162) 
[H]c1c([H])c2c(c([H])c1Cl)C1([H])C([H])([H])C([H])([H])OC1([H])C1([H])C([H])([H])C([H])([H])[N+]([H])(C([H])([H])[H])C([H])([H])C1([H])O2

$$$$
42:0:1
     RDKit          3D

 41 44  0  0  1  0  0  0  0  0999 V2000
    3.9099    2.8324    8.0399 C   0  0  0  0  0  0  0  0  0  0  0  0
    3.1944    1.8740    8.9135 N   0  0  1  0  0  0  0  0  0  0  0  0
    2.6533    2.4841   10.1517 C   0  0  0  0  0  0  0  0  0  0  0  0
    1.3935    3.3102    9.8625 C   0  0  0  0  0  0  0  0  0  0  0  0
    0.2999    2.4589    9.1961 C   0  0  2  0  0  0  0  0  0  0  0  0
    0.8437    1.7601    7.9368 C   0  0  2  0  0  0  0  0  0  0  0  0
    2.1934    1.0440    8.1911 C   0  0  0  0  0  0  0  0  0  0  0  0
    0.9763    2.6681    6.8524 O   0  0  0  0  0  0  0  0  0  0  0  0
   -0.1057    2.8369    6.0150 C   0  0  0  0  0  0  0  0  0  0  0  0
    0.2101    3.0084    4.6487 C   0  0  0  0  0  0  0  0  0  0  0  0
   -0.7986    3.1606    3.6854 C   0  0  0  0  0  0  0  0  0  0  0  0
   -2.1449    3.1606    4.0768 C   0  0  0  0  0  0  0  0  0  0  0  0
   -3.3810    3.3403    2.8819 Cl  0  0  0  0  0  0  0  0  0  0  0  0
   -2.4788    3.0098    5.4310 C   0  0  0  0  0  0  0  0  0  0  0  0
   -1.4789    2.8521    6.4209 C   0  0  0  0  0  0  0  0  0  0  0  0
   -1.9134    2.6982    7.8865 C   0  0  2  0  0  0  0  0  0  0  0  0
   -3.1980    3.4267    8.2674 C   0  0  0  0  0  0  0  0  0  0  0  0
   -3.0720    3.6376    9.7753 C   0  0  0  0  0  0  0  0  0  0  0  0
   -1.7025    3.4237   10.0882 O   0  0  0  0  0  0  0  0  0  0  0  0
   -0.9438    3.3087    8.8965 C   0  0  1  0  0  0  0  0  0  0  0  0
    3.2337    3.5833    7.6291 H   0  0  0  0  0  0  0  0  0  0  0  0
    4.3823    2.3092    7.2055 H   0  0  0  0  0  0  0  0  0  0  0  0
    4.6946    3.3508    8.5961 H   0  0  0  0  0  0  0  0  0  0  0  0
    2.4252    1.6973   10.8740 H   0  0  0  0  0  0  0  0  0  0  0  0
    3.4160    3.1094   10.6165 H   0  0  0  0  0  0  0  0  0  0  0  0
    1.0232    3.7219   10.8012 H   0  0  0  0  0  0  0  0  0  0  0  0
    1.6507    4.1569    9.2256 H   0  0  0  0  0  0  0  0  0  0  0  0
    0.0151    1.6719    9.8968 H   0  0  0  0  0  0  0  0  0  0  0  0
    0.1573    0.9659    7.6402 H   0  0  0  0  0  0  0  0  0  0  0  0
    2.6176    0.6765    7.2562 H   0  0  0  0  0  0  0  0  0  0  0  0
    2.0100    0.1603    8.8044 H   0  0  0  0  0  0  0  0  0  0  0  0
    1.2434    2.9989    4.3283 H   0  0  0  0  0  0  0  0  0  0  0  0
   -0.5475    3.2719    2.6415 H   0  0  0  0  0  0  0  0  0  0  0  0
   -3.5260    3.0189    5.7006 H   0  0  0  0  0  0  0  0  0  0  0  0
   -2.0533    1.6389    8.1037 H   0  0  0  0  0  0  0  0  0  0  0  0
   -3.2334    4.4101    7.7958 H   0  0  0  0  0  0  0  0  0  0  0  0
   -4.1033    2.8790    8.0009 H   0  0  0  0  0  0  0  0  0  0  0  0
   -3.3688    4.6454   10.0593 H   0  0  0  0  0  0  0  0  0  0  0  0
   -3.6931    2.9426   10.3408 H   0  0  0  0  0  0  0  0  0  0  0  0
   -0.6678    4.3164    8.5791 H   0  0  0  0  0  0  0  0  0  0  0  0
    3.9084    1.2284    9.2253 H   0  0  0  0  0  0  0  0  0  0  0  0
  1  2  1  0
  1 21  1  0
  1 22  1  0
  1 23  1  0
  2  7  1  0
  2  3  1  0
  2 41  1  1
  3  4  1  0
  3 24  1  0
  3 25  1  0
  4  5  1  0
  4 26  1  0
  4 27  1  0
  5 20  1  0
  5  6  1  0
  5 28  1  1
  6  7  1  0
  6  8  1  0
  6 29  1  6
  7 30  1  0
  7 31  1  0
  8  9  1  0
  9 15  2  0
  9 10  1  0
 10 11  2  0
 10 32  1  0
 11 12  1  0
 11 33  1  0
 12 13  1  0
 12 14  2  0
 14 15  1  0
 14 34  1  0
 15 16  1  0
 16 20  1  0
 16 17  1  0
 16 35  1  1
 17 18  1  0
 17 36  1  0
 17 37  1  0
 18 19  1  0
 18 38  1  0
 18 39  1  0
 19 20  1  0
 20 40  1  6
M  CHG  1   2   1
M  END
>  <i_m_ct_stereo_status>  (163) 
1

>  <s_m_source_file>  (163) 
/var/tmp/pbs.5076255.sched01/tmphf7gnms3/50i7j3xhgh.sdf

>  <i_m_source_file_index>  (163) 
19

>  <i_lp_mmshare_version>  (163) 
48012

>  <i_f3d_flags>  (163) 
0

>  <s_epik_input>  (163) 
W0NIMl0xW0NIMl1OKFtDSDNdKVtDSDJdW0NAQEhdKFtDQEBIXTEyKU9jM2MoW2NIXWMoQ2wpW2NIXVtjSF0zKVtDQEhdNFtDQEhdMk9bQ0gyXVtDSDJdNA==

>  <s_epik_cmdline>  (163) 
J2VwaWtfcHl0aG9uJywgJy1waHQnLCAnMi4wJywgJy1waCcsICc3LjAnLCAnLXRuJywgJzgnLCAnLW1hJywgJzIwMCcsICctaW1hZScsICc8aW5maWxlLm1hZT4nLCAnLW9tYWUnLCAnPG91dGZpbGUubWFlPic=

>  <r_lp_tautomer_probability>  (163) 
1

>  <r_epik_Ionization_Penalty>  (163) 
0.0238247

>  <r_epik_Ionization_Penalty_Charging>  (163) 
0.0238247

>  <r_epik_Ionization_Penalty_Neutral>  (163) 
2.02416e-12

>  <r_epik_State_Penalty>  (163) 
0.0193046

>  <r_epik_Charging_Adjusted_Penalty>  (163) 
0.0431292

>  <i_epik_Tot_Q>  (163) 
1

>  <i_epik_Tot_abs_Q>  (163) 
1

>  <s_lp_Force_Field>  (163) 
OPLS3e

>  <r_lp_Energy>  (163) 
32.4718

>  <b_lp_Chiralities_Consistent>  (163) 
1

>  <s_lp_Variant>  (163) 
42:0-1

>  <s_i_glide_gridfile>  (163) 
pfpi4k_grid

>  <i_i_glide_lignum>  (163) 
19

>  <i_i_glide_rotatable_bonds>  (163) 
0

>  <r_i_docking_score>  (163) 
-2.26631

>  <r_i_glide_ligand_efficiency>  (163) 
-0.113316

>  <r_i_glide_ligand_efficiency_sa>  (163) 
-0.307586

>  <r_i_glide_ligand_efficiency_ln>  (163) 
-0.567184

>  <r_i_glide_gscore>  (163) 
-2.26631

>  <r_i_glide_lipo>  (163) 
-0.113655

>  <r_i_glide_hbond>  (163) 
0

>  <r_i_glide_metal>  (163) 
-0

>  <r_i_glide_rewards>  (163) 
-1.39912

>  <r_i_glide_evdw>  (163) 
-15.6458

>  <r_i_glide_ecoul>  (163) 
0.191669

>  <r_i_glide_erotb>  (163) 
0

>  <r_i_glide_esite>  (163) 
0

>  <r_i_glide_emodel>  (163) 
-17.7184

>  <r_i_glide_energy>  (163) 
-15.4542

>  <r_i_glide_einternal>  (163) 
0

>  <r_i_glide_intrahb_reward>  (163) 
-0

>  <i_i_glide_confnum>  (163) 
1

>  <i_i_glide_posenum>  (163) 
2

>  <r_i_glide_eff_state_penalty>  (163) 
0

>  <ligand_id>  (163) 
42

>  <original_smiles>  (163) 
CN1CCC2C(C1)Oc1ccc(Cl)cc1C1CCOC12

>  <smiles>  (163) 
[H]c1c([H])c2c(c([H])c1Cl)C1([H])C([H])([H])C([H])([H])OC1([H])C1([H])C([H])([H])C([H])([H])[N+]([H])(C([H])([H])[H])C([H])([H])C1([H])O2

$$$$
42:0:2
     RDKit          3D

 41 44  0  0  1  0  0  0  0  0999 V2000
    4.6028   -0.4060    4.3751 C   0  0  0  0  0  0  0  0  0  0  0  0
    4.3171   -0.2993    5.8254 N   0  0  1  0  0  0  0  0  0  0  0  0
    4.9862    0.8504    6.4798 C   0  0  0  0  0  0  0  0  0  0  0  0
    4.2840    2.1719    6.1438 C   0  0  0  0  0  0  0  0  0  0  0  0
    2.7997    2.1477    6.5538 C   0  0  2  0  0  0  0  0  0  0  0  0
    2.0842    0.9284    5.9398 C   0  0  2  0  0  0  0  0  0  0  0  0
    2.8704   -0.3889    6.1557 C   0  0  0  0  0  0  0  0  0  0  0  0
    1.8263    1.1147    4.5538 O   0  0  0  0  0  0  0  0  0  0  0  0
    0.6353    1.7127    4.1901 C   0  0  0  0  0  0  0  0  0  0  0  0
    0.0428    1.2035    3.0176 C   0  0  0  0  0  0  0  0  0  0  0  0
   -1.1871    1.7076    2.5503 C   0  0  0  0  0  0  0  0  0  0  0  0
   -1.8333    2.7390    3.2491 C   0  0  0  0  0  0  0  0  0  0  0  0
   -3.3591    3.3450    2.7059 Cl  0  0  0  0  0  0  0  0  0  0  0  0
   -1.2426    3.2682    4.4085 C   0  0  0  0  0  0  0  0  0  0  0  0
   -0.0063    2.7802    4.8950 C   0  0  0  0  0  0  0  0  0  0  0  0
    0.5847    3.4170    6.1615 C   0  0  2  0  0  0  0  0  0  0  0  0
    0.2558    4.8938    6.3605 C   0  0  0  0  0  0  0  0  0  0  0  0
    1.3885    5.4042    7.2528 C   0  0  0  0  0  0  0  0  0  0  0  0
    2.4155    4.4234    7.1960 O   0  0  0  0  0  0  0  0  0  0  0  0
    2.1110    3.4706    6.1895 C   0  0  1  0  0  0  0  0  0  0  0  0
    4.1832    0.4320    3.8198 H   0  0  0  0  0  0  0  0  0  0  0  0
    4.1800   -1.3288    3.9728 H   0  0  0  0  0  0  0  0  0  0  0  0
    5.6797   -0.4253    4.1936 H   0  0  0  0  0  0  0  0  0  0  0  0
    4.9919    0.6995    7.5612 H   0  0  0  0  0  0  0  0  0  0  0  0
    6.0328    0.8918    6.1754 H   0  0  0  0  0  0  0  0  0  0  0  0
    4.7955    2.9856    6.6589 H   0  0  0  0  0  0  0  0  0  0  0  0
    4.3724    2.3720    5.0730 H   0  0  0  0  0  0  0  0  0  0  0  0
    2.7549    2.0243    7.6380 H   0  0  0  0  0  0  0  0  0  0  0  0
    1.1316    0.7769    6.4494 H   0  0  0  0  0  0  0  0  0  0  0  0
    2.4099   -1.2050    5.5971 H   0  0  0  0  0  0  0  0  0  0  0  0
    2.7981   -0.6688    7.2080 H   0  0  0  0  0  0  0  0  0  0  0  0
    0.5203    0.4008    2.4749 H   0  0  0  0  0  0  0  0  0  0  0  0
   -1.6377    1.2942    1.6624 H   0  0  0  0  0  0  0  0  0  0  0  0
   -1.7609    4.0641    4.9230 H   0  0  0  0  0  0  0  0  0  0  0  0
    0.2199    2.8700    7.0322 H   0  0  0  0  0  0  0  0  0  0  0  0
    0.2929    5.4352    5.4122 H   0  0  0  0  0  0  0  0  0  0  0  0
   -0.7233    5.0526    6.8128 H   0  0  0  0  0  0  0  0  0  0  0  0
    1.7636    6.3686    6.9124 H   0  0  0  0  0  0  0  0  0  0  0  0
    1.0657    5.5306    8.2863 H   0  0  0  0  0  0  0  0  0  0  0  0
    2.4808    3.8598    5.2393 H   0  0  0  0  0  0  0  0  0  0  0  0
    4.7402   -1.1193    6.2330 H   0  0  0  0  0  0  0  0  0  0  0  0
  1  2  1  0
  1 21  1  0
  1 22  1  0
  1 23  1  0
  2  7  1  0
  2  3  1  0
  2 41  1  1
  3  4  1  0
  3 24  1  0
  3 25  1  0
  4  5  1  0
  4 26  1  0
  4 27  1  0
  5 20  1  0
  5  6  1  0
  5 28  1  1
  6  7  1  0
  6  8  1  0
  6 29  1  1
  7 30  1  0
  7 31  1  0
  8  9  1  0
  9 15  2  0
  9 10  1  0
 10 11  2  0
 10 32  1  0
 11 12  1  0
 11 33  1  0
 12 13  1  0
 12 14  2  0
 14 15  1  0
 14 34  1  0
 15 16  1  0
 16 20  1  0
 16 17  1  0
 16 35  1  1
 17 18  1  0
 17 36  1  0
 17 37  1  0
 18 19  1  0
 18 38  1  0
 18 39  1  0
 19 20  1  0
 20 40  1  6
M  CHG  1   2   1
M  END
>  <i_m_ct_stereo_status>  (164) 
1

>  <s_m_source_file>  (164) 
/var/tmp/pbs.5076255.sched01/tmphf7gnms3/50i7j3xhgh.sdf

>  <i_m_source_file_index>  (164) 
19

>  <i_lp_mmshare_version>  (164) 
48012

>  <i_f3d_flags>  (164) 
0

>  <s_epik_input>  (164) 
W0NIMl0xW0NIMl1OKFtDSDNdKVtDSDJdW0NAQEhdKFtDQEBIXTEyKU9jM2MoW2NIXWMoQ2wpW2NIXVtjSF0zKVtDQEhdNFtDQEhdMk9bQ0gyXVtDSDJdNA==

>  <s_epik_cmdline>  (164) 
J2VwaWtfcHl0aG9uJywgJy1waHQnLCAnMi4wJywgJy1waCcsICc3LjAnLCAnLXRuJywgJzgnLCAnLW1hJywgJzIwMCcsICctaW1hZScsICc8aW5maWxlLm1hZT4nLCAnLW9tYWUnLCAnPG91dGZpbGUubWFlPic=

>  <r_lp_tautomer_probability>  (164) 
1

>  <r_epik_Ionization_Penalty>  (164) 
0.0238247

>  <r_epik_Ionization_Penalty_Charging>  (164) 
0.0238247

>  <r_epik_Ionization_Penalty_Neutral>  (164) 
2.02416e-12

>  <r_epik_State_Penalty>  (164) 
0.0193046

>  <r_epik_Charging_Adjusted_Penalty>  (164) 
0.0431292

>  <i_epik_Tot_Q>  (164) 
1

>  <i_epik_Tot_abs_Q>  (164) 
1

>  <s_lp_Force_Field>  (164) 
OPLS3e

>  <r_lp_Energy>  (164) 
32.4718

>  <b_lp_Chiralities_Consistent>  (164) 
1

>  <s_lp_Variant>  (164) 
42:0-1

>  <s_i_glide_gridfile>  (164) 
pfpi4k_grid

>  <i_i_glide_lignum>  (164) 
19

>  <i_i_glide_rotatable_bonds>  (164) 
0

>  <r_i_docking_score>  (164) 
-2.25398

>  <r_i_glide_ligand_efficiency>  (164) 
-0.112699

>  <r_i_glide_ligand_efficiency_sa>  (164) 
-0.305912

>  <r_i_glide_ligand_efficiency_ln>  (164) 
-0.564097

>  <r_i_glide_gscore>  (164) 
-2.25398

>  <r_i_glide_lipo>  (164) 
-0.0442246

>  <r_i_glide_hbond>  (164) 
0

>  <r_i_glide_metal>  (164) 
-0

>  <r_i_glide_rewards>  (164) 
-1.39912

>  <r_i_glide_evdw>  (164) 
-14.6928

>  <r_i_glide_ecoul>  (164) 
-0.506647

>  <r_i_glide_erotb>  (164) 
0

>  <r_i_glide_esite>  (164) 
0

>  <r_i_glide_emodel>  (164) 
-17.467

>  <r_i_glide_energy>  (164) 
-15.1995

>  <r_i_glide_einternal>  (164) 
0

>  <r_i_glide_intrahb_reward>  (164) 
-0

>  <i_i_glide_confnum>  (164) 
2

>  <i_i_glide_posenum>  (164) 
8

>  <r_i_glide_eff_state_penalty>  (164) 
0

>  <ligand_id>  (164) 
42

>  <original_smiles>  (164) 
CN1CCC2C(C1)Oc1ccc(Cl)cc1C1CCOC12

>  <smiles>  (164) 
[H]c1c([H])c2c(c([H])c1Cl)C1([H])C([H])([H])C([H])([H])OC1([H])C1([H])C([H])([H])C([H])([H])[N+]([H])(C([H])([H])[H])C([H])([H])C1([H])O2

$$$$
42:1:0
     RDKit          3D

 40 43  0  0  1  0  0  0  0  0999 V2000
    1.4827   -6.6326    3.4886 C   0  0  0  0  0  0  0  0  0  0  0  0
    2.4639   -6.2191    2.4910 N   0  0  0  0  0  0  0  0  0  0  0  0
    3.7573   -6.8218    2.8121 C   0  0  0  0  0  0  0  0  0  0  0  0
    4.8048   -6.4343    1.7568 C   0  0  0  0  0  0  0  0  0  0  0  0
    4.9543   -4.9093    1.6059 C   0  0  2  0  0  0  0  0  0  0  0  0
    3.5690   -4.2688    1.4153 C   0  0  2  0  0  0  0  0  0  0  0  0
    2.5643   -4.7595    2.4793 C   0  0  0  0  0  0  0  0  0  0  0  0
    3.0435   -4.5326    0.1233 O   0  0  0  0  0  0  0  0  0  0  0  0
    3.3407   -3.6450   -0.8858 C   0  0  0  0  0  0  0  0  0  0  0  0
    2.3104   -3.4562   -1.8285 C   0  0  0  0  0  0  0  0  0  0  0  0
    2.4746   -2.5909   -2.9171 C   0  0  0  0  0  0  0  0  0  0  0  0
    3.6651   -1.8667   -3.0668 C   0  0  0  0  0  0  0  0  0  0  0  0
    3.8175   -0.7168   -4.3358 Cl  0  0  0  0  0  0  0  0  0  0  0  0
    4.7169   -2.0611   -2.1499 C   0  0  0  0  0  0  0  0  0  0  0  0
    4.5842   -2.9583   -1.0608 C   0  0  0  0  0  0  0  0  0  0  0  0
    5.7773   -3.1428   -0.1093 C   0  0  2  0  0  0  0  0  0  0  0  0
    7.1510   -2.9595   -0.7478 C   0  0  0  0  0  0  0  0  0  0  0  0
    8.0872   -3.7606    0.1604 C   0  0  0  0  0  0  0  0  0  0  0  0
    7.2564   -4.5931    0.9589 O   0  0  0  0  0  0  0  0  0  0  0  0
    5.9239   -4.5561    0.4636 C   0  0  1  0  0  0  0  0  0  0  0  0
    1.3723   -7.7171    3.4824 H   0  0  0  0  0  0  0  0  0  0  0  0
    0.5077   -6.2003    3.2667 H   0  0  0  0  0  0  0  0  0  0  0  0
    1.7667   -6.3249    4.4969 H   0  0  0  0  0  0  0  0  0  0  0  0
    4.0932   -6.5413    3.8131 H   0  0  0  0  0  0  0  0  0  0  0  0
    3.6476   -7.9062    2.8111 H   0  0  0  0  0  0  0  0  0  0  0  0
    5.7642   -6.8685    2.0361 H   0  0  0  0  0  0  0  0  0  0  0  0
    4.5184   -6.8664    0.7967 H   0  0  0  0  0  0  0  0  0  0  0  0
    5.3654   -4.5103    2.5360 H   0  0  0  0  0  0  0  0  0  0  0  0
    3.6531   -3.1891    1.5436 H   0  0  0  0  0  0  0  0  0  0  0  0
    1.5845   -4.3135    2.2960 H   0  0  0  0  0  0  0  0  0  0  0  0
    2.8962   -4.4140    3.4586 H   0  0  0  0  0  0  0  0  0  0  0  0
    1.3780   -3.9951   -1.7189 H   0  0  0  0  0  0  0  0  0  0  0  0
    1.6649   -2.4486   -3.6147 H   0  0  0  0  0  0  0  0  0  0  0  0
    5.6227   -1.5043   -2.2943 H   0  0  0  0  0  0  0  0  0  0  0  0
    5.6875   -2.4273    0.7063 H   0  0  0  0  0  0  0  0  0  0  0  0
    7.1891   -3.3941   -1.7501 H   0  0  0  0  0  0  0  0  0  0  0  0
    7.4508   -1.9148   -0.8069 H   0  0  0  0  0  0  0  0  0  0  0  0
    8.7866   -4.3659   -0.4185 H   0  0  0  0  0  0  0  0  0  0  0  0
    8.6817   -3.1125    0.8074 H   0  0  0  0  0  0  0  0  0  0  0  0
    5.8504   -5.2854   -0.3434 H   0  0  0  0  0  0  0  0  0  0  0  0
  1  2  1  0
  1 21  1  0
  1 22  1  0
  1 23  1  0
  2  7  1  0
  2  3  1  0
  3  4  1  0
  3 24  1  0
  3 25  1  0
  4  5  1  0
  4 26  1  0
  4 27  1  0
  5 20  1  0
  5  6  1  0
  5 28  1  1
  6  7  1  0
  6  8  1  0
  6 29  1  6
  7 30  1  0
  7 31  1  0
  8  9  1  0
  9 15  2  0
  9 10  1  0
 10 11  2  0
 10 32  1  0
 11 12  1  0
 11 33  1  0
 12 13  1  0
 12 14  2  0
 14 15  1  0
 14 34  1  0
 15 16  1  0
 16 20  1  0
 16 17  1  0
 16 35  1  1
 17 18  1  0
 17 36  1  0
 17 37  1  0
 18 19  1  0
 18 38  1  0
 18 39  1  0
 19 20  1  0
 20 40  1  6
M  END
>  <i_m_ct_stereo_status>  (165) 
1

>  <s_m_source_file>  (165) 
/var/tmp/pbs.5076255.sched01/tmphf7gnms3/50i7j3xhgh.sdf

>  <i_m_source_file_index>  (165) 
20

>  <i_lp_mmshare_version>  (165) 
48012

>  <i_f3d_flags>  (165) 
0

>  <s_epik_input>  (165) 
W0NIMl0xW0NIMl1OKFtDSDNdKVtDSDJdW0NAQEhdKFtDQEBIXTEyKU9jM2MoW2NIXWMoQ2wpW2NIXVtjSF0zKVtDQEhdNFtDQEhdMk9bQ0gyXVtDSDJdNA==

>  <s_epik_cmdline>  (165) 
J2VwaWtfcHl0aG9uJywgJy1waHQnLCAnMi4wJywgJy1waCcsICc3LjAnLCAnLXRuJywgJzgnLCAnLW1hJywgJzIwMCcsICctaW1hZScsICc8aW5maWxlLm1hZT4nLCAnLW9tYWUnLCAnPG91dGZpbGUubWFlPic=

>  <r_lp_tautomer_probability>  (165) 
1

>  <r_epik_Ionization_Penalty>  (165) 
1.91589

>  <r_epik_Ionization_Penalty_Charging>  (165) 
0

>  <r_epik_Ionization_Penalty_Neutral>  (165) 
1.91589

>  <r_epik_State_Penalty>  (165) 
2.03829

>  <r_epik_Charging_Adjusted_Penalty>  (165) 
2.03829

>  <i_epik_Tot_Q>  (165) 
0

>  <i_epik_Tot_abs_Q>  (165) 
0

>  <s_lp_Force_Field>  (165) 
OPLS3e

>  <r_lp_Energy>  (165) 
24.3496

>  <b_lp_Chiralities_Consistent>  (165) 
1

>  <s_lp_Variant>  (165) 
42:0-2

>  <s_i_glide_gridfile>  (165) 
pfpi4k_grid

>  <i_i_glide_lignum>  (165) 
20

>  <i_i_glide_rotatable_bonds>  (165) 
0

>  <r_i_docking_score>  (165) 
-3.39997

>  <r_i_glide_ligand_efficiency>  (165) 
-0.169998

>  <r_i_glide_ligand_efficiency_sa>  (165) 
-0.461446

>  <r_i_glide_ligand_efficiency_ln>  (165) 
-0.850899

>  <r_i_glide_gscore>  (165) 
-3.39997

>  <r_i_glide_lipo>  (165) 
-0.854442

>  <r_i_glide_hbond>  (165) 
0

>  <r_i_glide_metal>  (165) 
-0

>  <r_i_glide_rewards>  (165) 
-1.40599

>  <r_i_glide_evdw>  (165) 
-23.4713

>  <r_i_glide_ecoul>  (165) 
0.226885

>  <r_i_glide_erotb>  (165) 
0

>  <r_i_glide_esite>  (165) 
0

>  <r_i_glide_emodel>  (165) 
-27.8819

>  <r_i_glide_energy>  (165) 
-23.2445

>  <r_i_glide_einternal>  (165) 
0

>  <r_i_glide_intrahb_reward>  (165) 
-0

>  <i_i_glide_confnum>  (165) 
2

>  <i_i_glide_posenum>  (165) 
9

>  <r_i_glide_eff_state_penalty>  (165) 
0

>  <ligand_id>  (165) 
42

>  <original_smiles>  (165) 
CN1CCC2C(C1)Oc1ccc(Cl)cc1C1CCOC12

>  <smiles>  (165) 
[H]c1c([H])c2c(c([H])c1Cl)C1([H])C([H])([H])C([H])([H])OC1([H])C1([H])C([H])([H])C([H])([H])N(C([H])([H])[H])C([H])([H])C1([H])O2

$$$$
42:1:1
     RDKit          3D

 40 43  0  0  1  0  0  0  0  0999 V2000
   -1.4064   -7.2635    3.6771 C   0  0  0  0  0  0  0  0  0  0  0  0
   -0.1459   -7.1671    2.9514 N   0  0  0  0  0  0  0  0  0  0  0  0
    0.3059   -8.5234    2.6205 C   0  0  0  0  0  0  0  0  0  0  0  0
    1.6278   -8.4744    1.8392 C   0  0  0  0  0  0  0  0  0  0  0  0
    2.7400   -7.7260    2.5951 C   0  0  2  0  0  0  0  0  0  0  0  0
    2.2102   -6.3626    3.0686 C   0  0  2  0  0  0  0  0  0  0  0  0
    0.8520   -6.5025    3.7939 C   0  0  0  0  0  0  0  0  0  0  0  0
    2.0740   -5.4520    1.9838 O   0  0  0  0  0  0  0  0  0  0  0  0
    3.1600   -4.6647    1.6610 C   0  0  0  0  0  0  0  0  0  0  0  0
    2.8406   -3.3606    1.2335 C   0  0  0  0  0  0  0  0  0  0  0  0
    3.8411   -2.4353    0.9059 C   0  0  0  0  0  0  0  0  0  0  0  0
    5.1924   -2.8085    0.9859 C   0  0  0  0  0  0  0  0  0  0  0  0
    6.4266   -1.6622    0.6001 Cl  0  0  0  0  0  0  0  0  0  0  0  0
    5.5276   -4.1134    1.3937 C   0  0  0  0  0  0  0  0  0  0  0  0
    4.5324   -5.0660    1.7262 C   0  0  0  0  0  0  0  0  0  0  0  0
    4.9699   -6.4737    2.1591 C   0  0  2  0  0  0  0  0  0  0  0  0
    6.2694   -6.9689    1.5297 C   0  0  0  0  0  0  0  0  0  0  0  0
    6.1486   -8.4953    1.5872 C   0  0  0  0  0  0  0  0  0  0  0  0
    4.7829   -8.7751    1.8673 O   0  0  0  0  0  0  0  0  0  0  0  0
    4.0108   -7.5908    1.7367 C   0  0  1  0  0  0  0  0  0  0  0  0
   -2.1681   -7.7316    3.0514 H   0  0  0  0  0  0  0  0  0  0  0  0
   -1.7621   -6.2725    3.9581 H   0  0  0  0  0  0  0  0  0  0  0  0
   -1.3119   -7.8521    4.5939 H   0  0  0  0  0  0  0  0  0  0  0  0
    0.4107   -9.1417    3.5157 H   0  0  0  0  0  0  0  0  0  0  0  0
   -0.4493   -9.0048    1.9997 H   0  0  0  0  0  0  0  0  0  0  0  0
    1.9516   -9.4936    1.6231 H   0  0  0  0  0  0  0  0  0  0  0  0
    1.4466   -7.9843    0.8814 H   0  0  0  0  0  0  0  0  0  0  0  0
    2.9931   -8.3037    3.4878 H   0  0  0  0  0  0  0  0  0  0  0  0
    2.9037   -5.9468    3.8005 H   0  0  0  0  0  0  0  0  0  0  0  0
    0.4930   -5.5168    4.0981 H   0  0  0  0  0  0  0  0  0  0  0  0
    0.9959   -7.0852    4.7057 H   0  0  0  0  0  0  0  0  0  0  0  0
    1.8176   -3.0430    1.1848 H   0  0  0  0  0  0  0  0  0  0  0  0
    3.5633   -1.4359    0.6050 H   0  0  0  0  0  0  0  0  0  0  0  0
    6.5712   -4.3735    1.4488 H   0  0  0  0  0  0  0  0  0  0  0  0
    5.0988   -6.4901    3.2421 H   0  0  0  0  0  0  0  0  0  0  0  0
    6.3269   -6.6481    0.4853 H   0  0  0  0  0  0  0  0  0  0  0  0
    7.1589   -6.6034    2.0400 H   0  0  0  0  0  0  0  0  0  0  0  0
    6.4447   -8.9786    0.6545 H   0  0  0  0  0  0  0  0  0  0  0  0
    6.7739   -8.9166    2.3758 H   0  0  0  0  0  0  0  0  0  0  0  0
    3.7670   -7.4711    0.6806 H   0  0  0  0  0  0  0  0  0  0  0  0
  1  2  1  0
  1 21  1  0
  1 22  1  0
  1 23  1  0
  2  7  1  0
  2  3  1  0
  3  4  1  0
  3 24  1  0
  3 25  1  0
  4  5  1  0
  4 26  1  0
  4 27  1  0
  5 20  1  0
  5  6  1  0
  5 28  1  1
  6  7  1  0
  6  8  1  0
  6 29  1  1
  7 30  1  0
  7 31  1  0
  8  9  1  0
  9 15  2  0
  9 10  1  0
 10 11  2  0
 10 32  1  0
 11 12  1  0
 11 33  1  0
 12 13  1  0
 12 14  2  0
 14 15  1  0
 14 34  1  0
 15 16  1  0
 16 20  1  0
 16 17  1  0
 16 35  1  1
 17 18  1  0
 17 36  1  0
 17 37  1  0
 18 19  1  0
 18 38  1  0
 18 39  1  0
 19 20  1  0
 20 40  1  6
M  END
>  <i_m_ct_stereo_status>  (166) 
1

>  <s_m_source_file>  (166) 
/var/tmp/pbs.5076255.sched01/tmphf7gnms3/50i7j3xhgh.sdf

>  <i_m_source_file_index>  (166) 
20

>  <i_lp_mmshare_version>  (166) 
48012

>  <i_f3d_flags>  (166) 
0

>  <s_epik_input>  (166) 
W0NIMl0xW0NIMl1OKFtDSDNdKVtDSDJdW0NAQEhdKFtDQEBIXTEyKU9jM2MoW2NIXWMoQ2wpW2NIXVtjSF0zKVtDQEhdNFtDQEhdMk9bQ0gyXVtDSDJdNA==

>  <s_epik_cmdline>  (166) 
J2VwaWtfcHl0aG9uJywgJy1waHQnLCAnMi4wJywgJy1waCcsICc3LjAnLCAnLXRuJywgJzgnLCAnLW1hJywgJzIwMCcsICctaW1hZScsICc8aW5maWxlLm1hZT4nLCAnLW9tYWUnLCAnPG91dGZpbGUubWFlPic=

>  <r_lp_tautomer_probability>  (166) 
1

>  <r_epik_Ionization_Penalty>  (166) 
1.91589

>  <r_epik_Ionization_Penalty_Charging>  (166) 
0

>  <r_epik_Ionization_Penalty_Neutral>  (166) 
1.91589

>  <r_epik_State_Penalty>  (166) 
2.03829

>  <r_epik_Charging_Adjusted_Penalty>  (166) 
2.03829

>  <i_epik_Tot_Q>  (166) 
0

>  <i_epik_Tot_abs_Q>  (166) 
0

>  <s_lp_Force_Field>  (166) 
OPLS3e

>  <r_lp_Energy>  (166) 
24.3496

>  <b_lp_Chiralities_Consistent>  (166) 
1

>  <s_lp_Variant>  (166) 
42:0-2

>  <s_i_glide_gridfile>  (166) 
pfpi4k_grid

>  <i_i_glide_lignum>  (166) 
20

>  <i_i_glide_rotatable_bonds>  (166) 
0

>  <r_i_docking_score>  (166) 
-3.05418

>  <r_i_glide_ligand_efficiency>  (166) 
-0.152709

>  <r_i_glide_ligand_efficiency_sa>  (166) 
-0.414516

>  <r_i_glide_ligand_efficiency_ln>  (166) 
-0.76436

>  <r_i_glide_gscore>  (166) 
-3.05418

>  <r_i_glide_lipo>  (166) 
-0.424635

>  <r_i_glide_hbond>  (166) 
0

>  <r_i_glide_metal>  (166) 
-0

>  <r_i_glide_rewards>  (166) 
-1.40599

>  <r_i_glide_evdw>  (166) 
-18.6796

>  <r_i_glide_ecoul>  (166) 
-1.93048

>  <r_i_glide_erotb>  (166) 
0

>  <r_i_glide_esite>  (166) 
0

>  <r_i_glide_emodel>  (166) 
-24.7439

>  <r_i_glide_energy>  (166) 
-20.6101

>  <r_i_glide_einternal>  (166) 
0

>  <r_i_glide_intrahb_reward>  (166) 
-0

>  <i_i_glide_confnum>  (166) 
2

>  <i_i_glide_posenum>  (166) 
1

>  <r_i_glide_eff_state_penalty>  (166) 
0

>  <ligand_id>  (166) 
42

>  <original_smiles>  (166) 
CN1CCC2C(C1)Oc1ccc(Cl)cc1C1CCOC12

>  <smiles>  (166) 
[H]c1c([H])c2c(c([H])c1Cl)C1([H])C([H])([H])C([H])([H])OC1([H])C1([H])C([H])([H])C([H])([H])N(C([H])([H])[H])C([H])([H])C1([H])O2

$$$$
42:1:2
     RDKit          3D

 40 43  0  0  1  0  0  0  0  0999 V2000
   -1.3222   -7.6191    2.9649 C   0  0  0  0  0  0  0  0  0  0  0  0
    0.0108   -7.5243    2.3834 N   0  0  0  0  0  0  0  0  0  0  0  0
    0.7004   -8.8043    2.5849 C   0  0  0  0  0  0  0  0  0  0  0  0
    2.1054   -8.7687    1.9605 C   0  0  0  0  0  0  0  0  0  0  0  0
    2.9657   -7.6069    2.4904 C   0  0  2  0  0  0  0  0  0  0  0  0
    2.1732   -6.2921    2.3999 C   0  0  2  0  0  0  0  0  0  0  0  0
    0.7654   -6.4391    3.0152 C   0  0  0  0  0  0  0  0  0  0  0  0
    2.0555   -5.8422    1.0567 O   0  0  0  0  0  0  0  0  0  0  0  0
    3.0520   -5.0195    0.5687 C   0  0  0  0  0  0  0  0  0  0  0  0
    2.6103   -4.0297   -0.3295 C   0  0  0  0  0  0  0  0  0  0  0  0
    3.4913   -3.0829   -0.8701 C   0  0  0  0  0  0  0  0  0  0  0  0
    4.8531   -3.1398   -0.5412 C   0  0  0  0  0  0  0  0  0  0  0  0
    5.9386   -1.9716   -1.1948 Cl  0  0  0  0  0  0  0  0  0  0  0  0
    5.3207   -4.1421    0.3273 C   0  0  0  0  0  0  0  0  0  0  0  0
    4.4420   -5.1009    0.8921 C   0  0  0  0  0  0  0  0  0  0  0  0
    5.0167   -6.1681    1.8341 C   0  0  2  0  0  0  0  0  0  0  0  0
    6.4600   -6.5803    1.5507 C   0  0  0  0  0  0  0  0  0  0  0  0
    6.5630   -7.9932    2.1287 C   0  0  0  0  0  0  0  0  0  0  0  0
    5.2285   -8.4238    2.3672 O   0  0  0  0  0  0  0  0  0  0  0  0
    4.3145   -7.5268    1.7542 C   0  0  1  0  0  0  0  0  0  0  0  0
   -1.8953   -8.4122    2.4807 H   0  0  0  0  0  0  0  0  0  0  0  0
   -1.8670   -6.6873    2.8210 H   0  0  0  0  0  0  0  0  0  0  0  0
   -1.2886   -7.8324    4.0359 H   0  0  0  0  0  0  0  0  0  0  0  0
    0.7624   -9.0597    3.6449 H   0  0  0  0  0  0  0  0  0  0  0  0
    0.1267   -9.5971    2.1023 H   0  0  0  0  0  0  0  0  0  0  0  0
    2.6095   -9.7179    2.1519 H   0  0  0  0  0  0  0  0  0  0  0  0
    2.0004   -8.6776    0.8842 H   0  0  0  0  0  0  0  0  0  0  0  0
    3.1644   -7.7888    3.5486 H   0  0  0  0  0  0  0  0  0  0  0  0
    2.6784   -5.5267    2.9881 H   0  0  0  0  0  0  0  0  0  0  0  0
    0.2268   -5.4959    2.9101 H   0  0  0  0  0  0  0  0  0  0  0  0
    0.8551   -6.6381    4.0845 H   0  0  0  0  0  0  0  0  0  0  0  0
    1.5700   -3.9776   -0.6107 H   0  0  0  0  0  0  0  0  0  0  0  0
    3.1143   -2.3126   -1.5289 H   0  0  0  0  0  0  0  0  0  0  0  0
    6.3736   -4.1595    0.5612 H   0  0  0  0  0  0  0  0  0  0  0  0
    4.9793   -5.7915    2.8583 H   0  0  0  0  0  0  0  0  0  0  0  0
    6.6421   -6.6374    0.4806 H   0  0  0  0  0  0  0  0  0  0  0  0
    7.1974   -5.8990    1.9765 H   0  0  0  0  0  0  0  0  0  0  0  0
    7.0645   -8.6747    1.4383 H   0  0  0  0  0  0  0  0  0  0  0  0
    7.1241   -8.0015    3.0647 H   0  0  0  0  0  0  0  0  0  0  0  0
    4.2145   -7.8177    0.7078 H   0  0  0  0  0  0  0  0  0  0  0  0
  1  2  1  0
  1 21  1  0
  1 22  1  0
  1 23  1  0
  2  7  1  0
  2  3  1  0
  3  4  1  0
  3 24  1  0
  3 25  1  0
  4  5  1  0
  4 26  1  0
  4 27  1  0
  5 20  1  0
  5  6  1  0
  5 28  1  1
  6  7  1  0
  6  8  1  0
  6 29  1  1
  7 30  1  0
  7 31  1  0
  8  9  1  0
  9 15  2  0
  9 10  1  0
 10 11  2  0
 10 32  1  0
 11 12  1  0
 11 33  1  0
 12 13  1  0
 12 14  2  0
 14 15  1  0
 14 34  1  0
 15 16  1  0
 16 20  1  0
 16 17  1  0
 16 35  1  1
 17 18  1  0
 17 36  1  0
 17 37  1  0
 18 19  1  0
 18 38  1  0
 18 39  1  0
 19 20  1  0
 20 40  1  6
M  END
>  <i_m_ct_stereo_status>  (167) 
1

>  <s_m_source_file>  (167) 
/var/tmp/pbs.5076255.sched01/tmphf7gnms3/50i7j3xhgh.sdf

>  <i_m_source_file_index>  (167) 
20

>  <i_lp_mmshare_version>  (167) 
48012

>  <i_f3d_flags>  (167) 
0

>  <s_epik_input>  (167) 
W0NIMl0xW0NIMl1OKFtDSDNdKVtDSDJdW0NAQEhdKFtDQEBIXTEyKU9jM2MoW2NIXWMoQ2wpW2NIXVtjSF0zKVtDQEhdNFtDQEhdMk9bQ0gyXVtDSDJdNA==

>  <s_epik_cmdline>  (167) 
J2VwaWtfcHl0aG9uJywgJy1waHQnLCAnMi4wJywgJy1waCcsICc3LjAnLCAnLXRuJywgJzgnLCAnLW1hJywgJzIwMCcsICctaW1hZScsICc8aW5maWxlLm1hZT4nLCAnLW9tYWUnLCAnPG91dGZpbGUubWFlPic=

>  <r_lp_tautomer_probability>  (167) 
1

>  <r_epik_Ionization_Penalty>  (167) 
1.91589

>  <r_epik_Ionization_Penalty_Charging>  (167) 
0

>  <r_epik_Ionization_Penalty_Neutral>  (167) 
1.91589

>  <r_epik_State_Penalty>  (167) 
2.03829

>  <r_epik_Charging_Adjusted_Penalty>  (167) 
2.03829

>  <i_epik_Tot_Q>  (167) 
0

>  <i_epik_Tot_abs_Q>  (167) 
0

>  <s_lp_Force_Field>  (167) 
OPLS3e

>  <r_lp_Energy>  (167) 
24.3496

>  <b_lp_Chiralities_Consistent>  (167) 
1

>  <s_lp_Variant>  (167) 
42:0-2

>  <s_i_glide_gridfile>  (167) 
pfpi4k_grid

>  <i_i_glide_lignum>  (167) 
20

>  <i_i_glide_rotatable_bonds>  (167) 
0

>  <r_i_docking_score>  (167) 
-2.96412

>  <r_i_glide_ligand_efficiency>  (167) 
-0.148206

>  <r_i_glide_ligand_efficiency_sa>  (167) 
-0.402292

>  <r_i_glide_ligand_efficiency_ln>  (167) 
-0.74182

>  <r_i_glide_gscore>  (167) 
-2.96412

>  <r_i_glide_lipo>  (167) 
-0.369602

>  <r_i_glide_hbond>  (167) 
0

>  <r_i_glide_metal>  (167) 
-0

>  <r_i_glide_rewards>  (167) 
-1.40599

>  <r_i_glide_evdw>  (167) 
-20.774

>  <r_i_glide_ecoul>  (167) 
-0.998825

>  <r_i_glide_erotb>  (167) 
0

>  <r_i_glide_esite>  (167) 
0

>  <r_i_glide_emodel>  (167) 
-25.7939

>  <r_i_glide_energy>  (167) 
-21.7728

>  <r_i_glide_einternal>  (167) 
0

>  <r_i_glide_intrahb_reward>  (167) 
-0

>  <i_i_glide_confnum>  (167) 
1

>  <i_i_glide_posenum>  (167) 
15

>  <r_i_glide_eff_state_penalty>  (167) 
0

>  <ligand_id>  (167) 
42

>  <original_smiles>  (167) 
CN1CCC2C(C1)Oc1ccc(Cl)cc1C1CCOC12

>  <smiles>  (167) 
[H]c1c([H])c2c(c([H])c1Cl)C1([H])C([H])([H])C([H])([H])OC1([H])C1([H])C([H])([H])C([H])([H])N(C([H])([H])[H])C([H])([H])C1([H])O2

$$$$
44:0:0
     RDKit          3D

 20 20  0  0  1  0  0  0  0  0999 V2000
   -4.9668   -8.3556   -5.2917 C   0  0  0  0  0  0  0  0  0  0  0  0
   -5.9897   -7.2510   -5.5238 C   0  0  0  0  0  0  0  0  0  0  0  0
   -6.0453   -6.2165   -4.5648 C   0  0  0  0  0  0  0  0  0  0  0  0
   -6.9569   -5.1533   -4.6903 C   0  0  0  0  0  0  0  0  0  0  0  0
   -7.8345   -5.1228   -5.7854 C   0  0  0  0  0  0  0  0  0  0  0  0
   -7.7902   -6.1483   -6.7459 C   0  0  0  0  0  0  0  0  0  0  0  0
   -6.8736   -7.2276   -6.6470 C   0  0  0  0  0  0  0  0  0  0  0  0
   -6.8478   -8.2745   -7.7314 C   0  0  0  0  0  0  0  0  0  0  0  0
   -5.9649   -9.1212   -7.8661 O   0  0  0  0  0  0  0  0  0  0  0  0
   -8.0020   -8.3067   -8.7365 C   0  0  0  0  0  0  0  0  0  0  0  0
   -7.8175   -7.0803  -10.0214 Cl  0  0  0  0  0  0  0  0  0  0  0  0
   -4.4737   -8.2550   -4.3249 H   0  0  0  0  0  0  0  0  0  0  0  0
   -4.1898   -8.3245   -6.0564 H   0  0  0  0  0  0  0  0  0  0  0  0
   -5.4353   -9.3395   -5.3101 H   0  0  0  0  0  0  0  0  0  0  0  0
   -5.3870   -6.2456   -3.7098 H   0  0  0  0  0  0  0  0  0  0  0  0
   -6.9980   -4.3745   -3.9398 H   0  0  0  0  0  0  0  0  0  0  0  0
   -8.5481   -4.3169   -5.8824 H   0  0  0  0  0  0  0  0  0  0  0  0
   -8.4808   -6.0693   -7.5691 H   0  0  0  0  0  0  0  0  0  0  0  0
   -8.0310   -9.2807   -9.2264 H   0  0  0  0  0  0  0  0  0  0  0  0
   -8.9583   -8.1529   -8.2379 H   0  0  0  0  0  0  0  0  0  0  0  0
  1  2  1  0
  1 12  1  0
  1 13  1  0
  1 14  1  0
  2  7  2  0
  2  3  1  0
  3  4  2  0
  3 15  1  0
  4  5  1  0
  4 16  1  0
  5  6  2  0
  5 17  1  0
  6  7  1  0
  6 18  1  0
  7  8  1  0
  8  9  2  0
  8 10  1  0
 10 11  1  0
 10 19  1  0
 10 20  1  0
M  END
>  <i_m_ct_stereo_status>  (168) 
1

>  <s_m_source_file>  (168) 
/var/tmp/pbs.5076255.sched01/tmphf7gnms3/50i7j3xhgh.sdf

>  <i_m_source_file_index>  (168) 
22

>  <i_lp_mmshare_version>  (168) 
48012

>  <i_f3d_flags>  (168) 
0

>  <s_epik_input>  (168) 
W0NIM11jMVtjSF1bY0hdW2NIXVtjSF1jMUMoPU8pW0NIMl1DbA==

>  <s_epik_cmdline>  (168) 
J2VwaWtfcHl0aG9uJywgJy1waHQnLCAnMi4wJywgJy1waCcsICc3LjAnLCAnLXRuJywgJzgnLCAnLW1hJywgJzIwMCcsICctaW1hZScsICc8aW5maWxlLm1hZT4nLCAnLW9tYWUnLCAnPG91dGZpbGUubWFlPic=

>  <r_lp_tautomer_probability>  (168) 
1

>  <r_epik_Ionization_Penalty>  (168) 
2.63117e-16

>  <r_epik_Ionization_Penalty_Charging>  (168) 
0

>  <r_epik_Ionization_Penalty_Neutral>  (168) 
2.63117e-16

>  <r_epik_State_Penalty>  (168) 
-0

>  <r_epik_Charging_Adjusted_Penalty>  (168) 
0

>  <i_epik_Tot_Q>  (168) 
0

>  <i_epik_Tot_abs_Q>  (168) 
0

>  <s_lp_Force_Field>  (168) 
OPLS3e

>  <r_lp_Energy>  (168) 
14.532

>  <b_lp_Chiralities_Consistent>  (168) 
1

>  <s_lp_Variant>  (168) 
44:0-1

>  <s_i_glide_gridfile>  (168) 
pfpi4k_grid

>  <i_i_glide_lignum>  (168) 
22

>  <i_i_glide_rotatable_bonds>  (168) 
2

>  <r_i_docking_score>  (168) 
-5.97449

>  <r_i_glide_ligand_efficiency>  (168) 
-0.543135

>  <r_i_glide_ligand_efficiency_sa>  (168) 
-1.20792

>  <r_i_glide_ligand_efficiency_ln>  (168) 
-1.75829

>  <r_i_glide_gscore>  (168) 
-5.97449

>  <r_i_glide_lipo>  (168) 
-2.42511

>  <r_i_glide_hbond>  (168) 
0

>  <r_i_glide_metal>  (168) 
-0

>  <r_i_glide_rewards>  (168) 
-2.93486

>  <r_i_glide_evdw>  (168) 
-20.9267

>  <r_i_glide_ecoul>  (168) 
-0.727233

>  <r_i_glide_erotb>  (168) 
0.540903

>  <r_i_glide_esite>  (168) 
0

>  <r_i_glide_emodel>  (168) 
-29.4355

>  <r_i_glide_energy>  (168) 
-21.654

>  <r_i_glide_einternal>  (168) 
0.191036

>  <r_i_glide_intrahb_reward>  (168) 
-0

>  <i_i_glide_confnum>  (168) 
5

>  <i_i_glide_posenum>  (168) 
20

>  <r_i_glide_eff_state_penalty>  (168) 
0

>  <ligand_id>  (168) 
44

>  <original_smiles>  (168) 
Cc1ccccc1C(=O)CCl

>  <smiles>  (168) 
[H]c1c([H])c([H])c(C([H])([H])[H])c(C(=O)C([H])([H])Cl)c1[H]

$$$$
44:0:1
     RDKit          3D

 20 20  0  0  1  0  0  0  0  0999 V2000
   -4.7106   -8.1306   -5.2341 C   0  0  0  0  0  0  0  0  0  0  0  0
   -5.8327   -7.1495   -5.5360 C   0  0  0  0  0  0  0  0  0  0  0  0
   -5.9223   -6.0050   -4.7174 C   0  0  0  0  0  0  0  0  0  0  0  0
   -6.9382   -5.0541   -4.9055 C   0  0  0  0  0  0  0  0  0  0  0  0
   -7.8748   -5.2346   -5.9359 C   0  0  0  0  0  0  0  0  0  0  0  0
   -7.7879   -6.3654   -6.7714 C   0  0  0  0  0  0  0  0  0  0  0  0
   -6.7768   -7.3450   -6.5900 C   0  0  0  0  0  0  0  0  0  0  0  0
   -6.7146   -8.5223   -7.5251 C   0  0  0  0  0  0  0  0  0  0  0  0
   -5.7257   -9.2429   -7.6539 O   0  0  0  0  0  0  0  0  0  0  0  0
   -7.9564   -8.8290   -8.3702 C   0  0  0  0  0  0  0  0  0  0  0  0
   -7.9008  -10.4317   -9.1588 Cl  0  0  0  0  0  0  0  0  0  0  0  0
   -4.1780   -7.8721   -4.3203 H   0  0  0  0  0  0  0  0  0  0  0  0
   -3.9800   -8.1358   -6.0387 H   0  0  0  0  0  0  0  0  0  0  0  0
   -5.0929   -9.1418   -5.1053 H   0  0  0  0  0  0  0  0  0  0  0  0
   -5.2131   -5.8579   -3.9227 H   0  0  0  0  0  0  0  0  0  0  0  0
   -7.0015   -4.1912   -4.2545 H   0  0  0  0  0  0  0  0  0  0  0  0
   -8.6615   -4.5054   -6.0804 H   0  0  0  0  0  0  0  0  0  0  0  0
   -8.5220   -6.4542   -7.5573 H   0  0  0  0  0  0  0  0  0  0  0  0
   -8.8556   -8.8000   -7.7576 H   0  0  0  0  0  0  0  0  0  0  0  0
   -8.0505   -8.0879   -9.1621 H   0  0  0  0  0  0  0  0  0  0  0  0
  1  2  1  0
  1 12  1  0
  1 13  1  0
  1 14  1  0
  2  7  2  0
  2  3  1  0
  3  4  2  0
  3 15  1  0
  4  5  1  0
  4 16  1  0
  5  6  2  0
  5 17  1  0
  6  7  1  0
  6 18  1  0
  7  8  1  0
  8  9  2  0
  8 10  1  0
 10 11  1  0
 10 19  1  0
 10 20  1  0
M  END
>  <i_m_ct_stereo_status>  (169) 
1

>  <s_m_source_file>  (169) 
/var/tmp/pbs.5076255.sched01/tmphf7gnms3/50i7j3xhgh.sdf

>  <i_m_source_file_index>  (169) 
22

>  <i_lp_mmshare_version>  (169) 
48012

>  <i_f3d_flags>  (169) 
0

>  <s_epik_input>  (169) 
W0NIM11jMVtjSF1bY0hdW2NIXVtjSF1jMUMoPU8pW0NIMl1DbA==

>  <s_epik_cmdline>  (169) 
J2VwaWtfcHl0aG9uJywgJy1waHQnLCAnMi4wJywgJy1waCcsICc3LjAnLCAnLXRuJywgJzgnLCAnLW1hJywgJzIwMCcsICctaW1hZScsICc8aW5maWxlLm1hZT4nLCAnLW9tYWUnLCAnPG91dGZpbGUubWFlPic=

>  <r_lp_tautomer_probability>  (169) 
1

>  <r_epik_Ionization_Penalty>  (169) 
2.63117e-16

>  <r_epik_Ionization_Penalty_Charging>  (169) 
0

>  <r_epik_Ionization_Penalty_Neutral>  (169) 
2.63117e-16

>  <r_epik_State_Penalty>  (169) 
-0

>  <r_epik_Charging_Adjusted_Penalty>  (169) 
0

>  <i_epik_Tot_Q>  (169) 
0

>  <i_epik_Tot_abs_Q>  (169) 
0

>  <s_lp_Force_Field>  (169) 
OPLS3e

>  <r_lp_Energy>  (169) 
14.532

>  <b_lp_Chiralities_Consistent>  (169) 
1

>  <s_lp_Variant>  (169) 
44:0-1

>  <s_i_glide_gridfile>  (169) 
pfpi4k_grid

>  <i_i_glide_lignum>  (169) 
22

>  <i_i_glide_rotatable_bonds>  (169) 
2

>  <r_i_docking_score>  (169) 
-5.65648

>  <r_i_glide_ligand_efficiency>  (169) 
-0.514225

>  <r_i_glide_ligand_efficiency_sa>  (169) 
-1.14363

>  <r_i_glide_ligand_efficiency_ln>  (169) 
-1.6647

>  <r_i_glide_gscore>  (169) 
-5.65648

>  <r_i_glide_lipo>  (169) 
-2.16087

>  <r_i_glide_hbond>  (169) 
0

>  <r_i_glide_metal>  (169) 
-0

>  <r_i_glide_rewards>  (169) 
-2.9357

>  <r_i_glide_evdw>  (169) 
-19.9063

>  <r_i_glide_ecoul>  (169) 
-0.703267

>  <r_i_glide_erotb>  (169) 
0.540903

>  <r_i_glide_esite>  (169) 
0

>  <r_i_glide_emodel>  (169) 
-28

>  <r_i_glide_energy>  (169) 
-20.6096

>  <r_i_glide_einternal>  (169) 
0.161772

>  <r_i_glide_intrahb_reward>  (169) 
-0

>  <i_i_glide_confnum>  (169) 
2

>  <i_i_glide_posenum>  (169) 
17

>  <r_i_glide_eff_state_penalty>  (169) 
0

>  <ligand_id>  (169) 
44

>  <original_smiles>  (169) 
Cc1ccccc1C(=O)CCl

>  <smiles>  (169) 
[H]c1c([H])c([H])c(C([H])([H])[H])c(C(=O)C([H])([H])Cl)c1[H]

$$$$
44:0:2
     RDKit          3D

 20 20  0  0  1  0  0  0  0  0999 V2000
   -9.5021   -4.5261   -7.0864 C   0  0  0  0  0  0  0  0  0  0  0  0
   -8.3358   -5.0692   -6.2699 C   0  0  0  0  0  0  0  0  0  0  0  0
   -7.9710   -4.3331   -5.1242 C   0  0  0  0  0  0  0  0  0  0  0  0
   -6.9052   -4.7431   -4.3123 C   0  0  0  0  0  0  0  0  0  0  0  0
   -6.1882   -5.8998   -4.6446 C   0  0  0  0  0  0  0  0  0  0  0  0
   -6.5343   -6.6398   -5.7873 C   0  0  0  0  0  0  0  0  0  0  0  0
   -7.6183   -6.2601   -6.6123 C   0  0  0  0  0  0  0  0  0  0  0  0
   -7.9787   -7.1241   -7.7981 C   0  0  0  0  0  0  0  0  0  0  0  0
   -8.9650   -6.9407   -8.5071 O   0  0  0  0  0  0  0  0  0  0  0  0
   -7.0412   -8.2619   -8.2138 C   0  0  0  0  0  0  0  0  0  0  0  0
   -7.0224   -9.6259   -7.0675 Cl  0  0  0  0  0  0  0  0  0  0  0  0
   -9.8324   -3.5516   -6.7234 H   0  0  0  0  0  0  0  0  0  0  0  0
  -10.3619   -5.1950   -7.0390 H   0  0  0  0  0  0  0  0  0  0  0  0
   -9.2224   -4.3939   -8.1312 H   0  0  0  0  0  0  0  0  0  0  0  0
   -8.5212   -3.4488   -4.8489 H   0  0  0  0  0  0  0  0  0  0  0  0
   -6.6398   -4.1742   -3.4280 H   0  0  0  0  0  0  0  0  0  0  0  0
   -5.3791   -6.2341   -4.0127 H   0  0  0  0  0  0  0  0  0  0  0  0
   -5.9405   -7.5181   -5.9949 H   0  0  0  0  0  0  0  0  0  0  0  0
   -7.3718   -8.6602   -9.1750 H   0  0  0  0  0  0  0  0  0  0  0  0
   -6.0262   -7.8921   -8.3367 H   0  0  0  0  0  0  0  0  0  0  0  0
  1  2  1  0
  1 12  1  0
  1 13  1  0
  1 14  1  0
  2  7  2  0
  2  3  1  0
  3  4  2  0
  3 15  1  0
  4  5  1  0
  4 16  1  0
  5  6  2  0
  5 17  1  0
  6  7  1  0
  6 18  1  0
  7  8  1  0
  8  9  2  0
  8 10  1  0
 10 11  1  0
 10 19  1  0
 10 20  1  0
M  END
>  <i_m_ct_stereo_status>  (170) 
1

>  <s_m_source_file>  (170) 
/var/tmp/pbs.5076255.sched01/tmphf7gnms3/50i7j3xhgh.sdf

>  <i_m_source_file_index>  (170) 
22

>  <i_lp_mmshare_version>  (170) 
48012

>  <i_f3d_flags>  (170) 
0

>  <s_epik_input>  (170) 
W0NIM11jMVtjSF1bY0hdW2NIXVtjSF1jMUMoPU8pW0NIMl1DbA==

>  <s_epik_cmdline>  (170) 
J2VwaWtfcHl0aG9uJywgJy1waHQnLCAnMi4wJywgJy1waCcsICc3LjAnLCAnLXRuJywgJzgnLCAnLW1hJywgJzIwMCcsICctaW1hZScsICc8aW5maWxlLm1hZT4nLCAnLW9tYWUnLCAnPG91dGZpbGUubWFlPic=

>  <r_lp_tautomer_probability>  (170) 
1

>  <r_epik_Ionization_Penalty>  (170) 
2.63117e-16

>  <r_epik_Ionization_Penalty_Charging>  (170) 
0

>  <r_epik_Ionization_Penalty_Neutral>  (170) 
2.63117e-16

>  <r_epik_State_Penalty>  (170) 
-0

>  <r_epik_Charging_Adjusted_Penalty>  (170) 
0

>  <i_epik_Tot_Q>  (170) 
0

>  <i_epik_Tot_abs_Q>  (170) 
0

>  <s_lp_Force_Field>  (170) 
OPLS3e

>  <r_lp_Energy>  (170) 
14.532

>  <b_lp_Chiralities_Consistent>  (170) 
1

>  <s_lp_Variant>  (170) 
44:0-1

>  <s_i_glide_gridfile>  (170) 
pfpi4k_grid

>  <i_i_glide_lignum>  (170) 
22

>  <i_i_glide_rotatable_bonds>  (170) 
2

>  <r_i_docking_score>  (170) 
-5.60208

>  <r_i_glide_ligand_efficiency>  (170) 
-0.50928

>  <r_i_glide_ligand_efficiency_sa>  (170) 
-1.13263

>  <r_i_glide_ligand_efficiency_ln>  (170) 
-1.64869

>  <r_i_glide_gscore>  (170) 
-5.60208

>  <r_i_glide_lipo>  (170) 
-2.31452

>  <r_i_glide_hbond>  (170) 
0

>  <r_i_glide_metal>  (170) 
-0

>  <r_i_glide_rewards>  (170) 
-2.85464

>  <r_i_glide_evdw>  (170) 
-20.3902

>  <r_i_glide_ecoul>  (170) 
0.304653

>  <r_i_glide_erotb>  (170) 
0.540903

>  <r_i_glide_esite>  (170) 
0

>  <r_i_glide_emodel>  (170) 
-27.1604

>  <r_i_glide_energy>  (170) 
-20.0856

>  <r_i_glide_einternal>  (170) 
0.232105

>  <r_i_glide_intrahb_reward>  (170) 
-0

>  <i_i_glide_confnum>  (170) 
1

>  <i_i_glide_posenum>  (170) 
30

>  <r_i_glide_eff_state_penalty>  (170) 
0

>  <ligand_id>  (170) 
44

>  <original_smiles>  (170) 
Cc1ccccc1C(=O)CCl

>  <smiles>  (170) 
[H]c1c([H])c([H])c(C([H])([H])[H])c(C(=O)C([H])([H])Cl)c1[H]

$$$$
47:0:0
     RDKit          3D

 42 45  0  0  1  0  0  0  0  0999 V2000
    5.3576   -0.8616    3.2140 C   0  0  0  0  0  0  0  0  0  0  0  0
    5.2878   -1.4530    1.7940 C   0  0  2  0  0  0  0  0  0  0  0  0
    4.8916   -0.3483    0.8088 C   0  0  0  0  0  0  0  0  0  0  0  0
    4.8539   -0.8872   -0.6200 C   0  0  0  0  0  0  0  0  0  0  0  0
    3.8125   -2.0001   -0.7415 C   0  0  1  0  0  0  0  0  0  0  0  0
    3.5543   -2.5107   -2.1614 C   0  0  1  0  0  0  0  0  0  0  0  0
    3.2816   -1.3797   -3.1881 C   0  0  0  0  0  0  0  0  0  0  0  0
    4.6514   -3.4497   -2.6634 C   0  0  0  0  0  0  0  0  0  0  0  0
    4.8235   -3.5325   -3.8709 O   0  0  0  0  0  0  0  0  0  0  0  0
    5.3012   -4.2368   -1.7465 O   0  0  0  0  0  0  0  0  0  0  0  0
    5.2641   -4.0186   -0.3520 C   0  0  2  0  0  0  0  0  0  0  0  0
    5.4215   -5.2320    0.3298 O   0  0  0  0  0  0  0  0  0  0  0  0
    4.2658   -5.7285    0.9608 C   0  0  1  0  0  0  0  0  0  0  0  0
    4.3386   -7.2590    0.9012 C   0  0  0  0  0  0  0  0  0  0  0  0
    4.2646   -5.2253    2.4227 C   0  0  0  0  0  0  0  0  0  0  0  0
    4.8856   -3.8307    2.6078 C   0  0  0  0  0  0  0  0  0  0  0  0
    4.3707   -2.7052    1.6861 C   0  0  2  0  0  0  0  0  0  0  0  0
    4.0719   -3.1679    0.2158 C   0  0  1  0  0  0  0  0  0  0  0  0
    2.8514   -3.9000    0.3313 O   0  0  0  0  0  0  0  0  0  0  0  0
    3.0945   -5.3871    0.2332 O   0  0  0  0  0  0  0  0  0  0  0  0
    4.3725   -0.5814    3.5898 H   0  0  0  0  0  0  0  0  0  0  0  0
    5.9835    0.0313    3.2381 H   0  0  0  0  0  0  0  0  0  0  0  0
    5.7971   -1.5625    3.9235 H   0  0  0  0  0  0  0  0  0  0  0  0
    6.3040   -1.7521    1.5310 H   0  0  0  0  0  0  0  0  0  0  0  0
    3.9207    0.0790    1.0764 H   0  0  0  0  0  0  0  0  0  0  0  0
    5.6201    0.4627    0.8681 H   0  0  0  0  0  0  0  0  0  0  0  0
    4.6006   -0.0641   -1.2837 H   0  0  0  0  0  0  0  0  0  0  0  0
    5.8464   -1.2334   -0.9114 H   0  0  0  0  0  0  0  0  0  0  0  0
    2.8799   -1.5490   -0.4102 H   0  0  0  0  0  0  0  0  0  0  0  0
    2.6435   -3.1124   -2.1161 H   0  0  0  0  0  0  0  0  0  0  0  0
    2.8559   -1.7830   -4.1110 H   0  0  0  0  0  0  0  0  0  0  0  0
    4.1888   -0.8331   -3.4615 H   0  0  0  0  0  0  0  0  0  0  0  0
    2.5669   -0.6516   -2.7947 H   0  0  0  0  0  0  0  0  0  0  0  0
    6.1781   -3.4741   -0.1423 H   0  0  0  0  0  0  0  0  0  0  0  0
    4.3009   -7.5910   -0.1360 H   0  0  0  0  0  0  0  0  0  0  0  0
    3.5065   -7.7278    1.4300 H   0  0  0  0  0  0  0  0  0  0  0  0
    5.2679   -7.6384    1.3290 H   0  0  0  0  0  0  0  0  0  0  0  0
    3.2695   -5.2873    2.8595 H   0  0  0  0  0  0  0  0  0  0  0  0
    4.8886   -5.8967    3.0150 H   0  0  0  0  0  0  0  0  0  0  0  0
    4.7501   -3.5374    3.6459 H   0  0  0  0  0  0  0  0  0  0  0  0
    5.9646   -3.9102    2.4723 H   0  0  0  0  0  0  0  0  0  0  0  0
    3.3983   -2.4013    2.0757 H   0  0  0  0  0  0  0  0  0  0  0  0
  1  2  1  0
  1 21  1  0
  1 22  1  0
  1 23  1  0
  2 17  1  0
  2  3  1  0
  2 24  1  6
  3  4  1  0
  3 25  1  0
  3 26  1  0
  4  5  1  0
  4 27  1  0
  4 28  1  0
  5 18  1  0
  5  6  1  0
  5 29  1  1
  6  7  1  0
  6  8  1  0
  6 30  1  1
  7 31  1  0
  7 32  1  0
  7 33  1  0
  8  9  2  0
  8 10  1  0
 10 11  1  0
 11 18  1  0
 11 12  1  0
 11 34  1  1
 12 13  1  0
 13 20  1  0
 13 14  1  1
 13 15  1  0
 14 35  1  0
 14 36  1  0
 14 37  1  0
 15 16  1  0
 15 38  1  0
 15 39  1  0
 16 17  1  0
 16 40  1  0
 16 41  1  0
 17 18  1  0
 17 42  1  1
 18 19  1  1
 19 20  1  0
M  END
>  <i_m_ct_stereo_status>  (171) 
1

>  <s_m_source_file>  (171) 
/var/tmp/pbs.5076255.sched01/tmphf7gnms3/50i7j3xhgh.sdf

>  <i_m_source_file_index>  (171) 
25

>  <i_lp_mmshare_version>  (171) 
48012

>  <i_f3d_flags>  (171) 
0

>  <s_epik_input>  (171) 
W0NAXTEyM1tDQEhdNFtDSDJdW0NIMl1bQ0BASF0oW0NIM10pW0NAQEhdMltDSDJdW0NIMl1bQ0BAXShbQ0gzXSkoT08zKU9bQ0BIXTFPQyg9TylbQ0BASF00W0NIM10=

>  <s_epik_cmdline>  (171) 
J2VwaWtfcHl0aG9uJywgJy1waHQnLCAnMi4wJywgJy1waCcsICc3LjAnLCAnLXRuJywgJzgnLCAnLW1hJywgJzIwMCcsICctaW1hZScsICc8aW5maWxlLm1hZT4nLCAnLW9tYWUnLCAnPG91dGZpbGUubWFlPic=

>  <r_lp_tautomer_probability>  (171) 
1

>  <r_epik_Ionization_Penalty>  (171) 
1.7205e-10

>  <r_epik_Ionization_Penalty_Charging>  (171) 
0

>  <r_epik_Ionization_Penalty_Neutral>  (171) 
1.7205e-10

>  <r_epik_State_Penalty>  (171) 
-0

>  <r_epik_Charging_Adjusted_Penalty>  (171) 
0

>  <i_epik_Tot_Q>  (171) 
0

>  <i_epik_Tot_abs_Q>  (171) 
0

>  <s_epik_Chemistry_Notes>  (171) 
This compound has an ester and may undergo hydrolysis at high or low pH. This compound contains an acetal/aminal-like group ( X-CH(R)-Y where X, Y are N, S, or O) that may be acid/base labile, releasing an aldehyde.

>  <s_lp_Force_Field>  (171) 
OPLS3e

>  <r_lp_Energy>  (171) 
36.9221

>  <b_lp_Chiralities_Consistent>  (171) 
1

>  <s_lp_Variant>  (171) 
47:0-1

>  <s_i_glide_gridfile>  (171) 
pfpi4k_grid

>  <i_i_glide_lignum>  (171) 
25

>  <i_i_glide_rotatable_bonds>  (171) 
0

>  <r_i_docking_score>  (171) 
-3.77549

>  <r_i_glide_ligand_efficiency>  (171) 
-0.188775

>  <r_i_glide_ligand_efficiency_sa>  (171) 
-0.512413

>  <r_i_glide_ligand_efficiency_ln>  (171) 
-0.944881

>  <r_i_glide_gscore>  (171) 
-3.77549

>  <r_i_glide_lipo>  (171) 
-0.604846

>  <r_i_glide_hbond>  (171) 
0

>  <r_i_glide_metal>  (171) 
-0

>  <r_i_glide_rewards>  (171) 
-1.70122

>  <r_i_glide_evdw>  (171) 
-25.8989

>  <r_i_glide_ecoul>  (171) 
-1.1632

>  <r_i_glide_erotb>  (171) 
0

>  <r_i_glide_esite>  (171) 
0

>  <r_i_glide_emodel>  (171) 
-32.8531

>  <r_i_glide_energy>  (171) 
-27.0621

>  <r_i_glide_einternal>  (171) 
0

>  <r_i_glide_intrahb_reward>  (171) 
-0

>  <i_i_glide_confnum>  (171) 
2

>  <i_i_glide_posenum>  (171) 
29

>  <r_i_glide_eff_state_penalty>  (171) 
0

>  <ligand_id>  (171) 
47

>  <original_smiles>  (171) 
CC1CCC2C(C)C(=O)OC3OC4(C)CCC1C32OO4

>  <smiles>  (171) 
[H]C([H])([H])C12OOC34C([H])(OC(=O)C([H])(C([H])([H])[H])C3([H])C([H])([H])C([H])([H])C([H])(C([H])([H])[H])C4([H])C([H])([H])C1([H])[H])O2

$$$$
47:0:1
     RDKit          3D

 42 45  0  0  1  0  0  0  0  0999 V2000
    8.4631   -2.5936   -0.3437 C   0  0  0  0  0  0  0  0  0  0  0  0
    6.9725   -2.9129   -0.5605 C   0  0  2  0  0  0  0  0  0  0  0  0
    6.7013   -3.0993   -2.0536 C   0  0  0  0  0  0  0  0  0  0  0  0
    5.2516   -3.4574   -2.3305 C   0  0  0  0  0  0  0  0  0  0  0  0
    4.3418   -2.3385   -1.8162 C   0  0  1  0  0  0  0  0  0  0  0  0
    2.8770   -2.5466   -2.1232 C   0  0  1  0  0  0  0  0  0  0  0  0
    2.5748   -2.8217   -3.6190 C   0  0  0  0  0  0  0  0  0  0  0  0
    2.2000   -3.5378   -1.1623 C   0  0  0  0  0  0  0  0  0  0  0  0
    1.1604   -4.0756   -1.5267 O   0  0  0  0  0  0  0  0  0  0  0  0
    2.6436   -3.6704    0.1014 O   0  0  0  0  0  0  0  0  0  0  0  0
    3.8743   -3.1950    0.5346 C   0  0  2  0  0  0  0  0  0  0  0  0
    3.7958   -2.8966    1.8948 O   0  0  0  0  0  0  0  0  0  0  0  0
    3.7580   -1.5225    2.2079 C   0  0  1  0  0  0  0  0  0  0  0  0
    2.8968   -1.3586    3.4612 C   0  0  0  0  0  0  0  0  0  0  0  0
    5.2102   -1.0918    2.4682 C   0  0  0  0  0  0  0  0  0  0  0  0
    6.2271   -1.8315    1.5938 C   0  0  0  0  0  0  0  0  0  0  0  0
    6.0094   -1.8818    0.0843 C   0  0  2  0  0  0  0  0  0  0  0  0
    4.5266   -2.0468   -0.3156 C   0  0  1  0  0  0  0  0  0  0  0  0
    3.9792   -0.7530   -0.0423 O   0  0  0  0  0  0  0  0  0  0  0  0
    3.0999   -0.7852    1.1889 O   0  0  0  0  0  0  0  0  0  0  0  0
    8.7488   -1.6078   -0.7067 H   0  0  0  0  0  0  0  0  0  0  0  0
    9.0838   -3.3064   -0.8829 H   0  0  0  0  0  0  0  0  0  0  0  0
    8.7570   -2.6466    0.7028 H   0  0  0  0  0  0  0  0  0  0  0  0
    6.7988   -3.8873   -0.1024 H   0  0  0  0  0  0  0  0  0  0  0  0
    6.9711   -2.2312   -2.6259 H   0  0  0  0  0  0  0  0  0  0  0  0
    7.3437   -3.8516   -2.4618 H   0  0  0  0  0  0  0  0  0  0  0  0
    5.1319   -3.5889   -3.4066 H   0  0  0  0  0  0  0  0  0  0  0  0
    5.0132   -4.4130   -1.8583 H   0  0  0  0  0  0  0  0  0  0  0  0
    4.6344   -1.4270   -2.3405 H   0  0  0  0  0  0  0  0  0  0  0  0
    2.4100   -1.5853   -1.9266 H   0  0  0  0  0  0  0  0  0  0  0  0
    1.5123   -2.6853   -3.8325 H   0  0  0  0  0  0  0  0  0  0  0  0
    2.8301   -3.8431   -3.9141 H   0  0  0  0  0  0  0  0  0  0  0  0
    3.1085   -2.1263   -4.2778 H   0  0  0  0  0  0  0  0  0  0  0  0
    4.5217   -4.0653    0.4623 H   0  0  0  0  0  0  0  0  0  0  0  0
    1.8659   -1.6266    3.2340 H   0  0  0  0  0  0  0  0  0  0  0  0
    2.9060   -0.3271    3.8177 H   0  0  0  0  0  0  0  0  0  0  0  0
    3.2375   -2.0056    4.2738 H   0  0  0  0  0  0  0  0  0  0  0  0
    5.3275   -0.0144    2.4015 H   0  0  0  0  0  0  0  0  0  0  0  0
    5.4679   -1.3606    3.4960 H   0  0  0  0  0  0  0  0  0  0  0  0
    7.1741   -1.3266    1.7011 H   0  0  0  0  0  0  0  0  0  0  0  0
    6.3472   -2.8518    1.9672 H   0  0  0  0  0  0  0  0  0  0  0  0
    6.2847   -0.9000   -0.2947 H   0  0  0  0  0  0  0  0  0  0  0  0
  1  2  1  0
  1 21  1  0
  1 22  1  0
  1 23  1  0
  2 17  1  0
  2  3  1  0
  2 24  1  1
  3  4  1  0
  3 25  1  0
  3 26  1  0
  4  5  1  0
  4 27  1  0
  4 28  1  0
  5 18  1  0
  5  6  1  0
  5 29  1  6
  6  7  1  0
  6  8  1  0
  6 30  1  1
  7 31  1  0
  7 32  1  0
  7 33  1  0
  8  9  2  0
  8 10  1  0
 10 11  1  0
 11 18  1  0
 11 12  1  0
 11 34  1  1
 12 13  1  0
 13 20  1  0
 13 14  1  1
 13 15  1  0
 14 35  1  0
 14 36  1  0
 14 37  1  0
 15 16  1  0
 15 38  1  0
 15 39  1  0
 16 17  1  0
 16 40  1  0
 16 41  1  0
 17 18  1  0
 17 42  1  6
 18 19  1  1
 19 20  1  0
M  END
>  <i_m_ct_stereo_status>  (172) 
1

>  <s_m_source_file>  (172) 
/var/tmp/pbs.5076255.sched01/tmphf7gnms3/50i7j3xhgh.sdf

>  <i_m_source_file_index>  (172) 
25

>  <i_lp_mmshare_version>  (172) 
48012

>  <i_f3d_flags>  (172) 
0

>  <s_epik_input>  (172) 
W0NAXTEyM1tDQEhdNFtDSDJdW0NIMl1bQ0BASF0oW0NIM10pW0NAQEhdMltDSDJdW0NIMl1bQ0BAXShbQ0gzXSkoT08zKU9bQ0BIXTFPQyg9TylbQ0BASF00W0NIM10=

>  <s_epik_cmdline>  (172) 
J2VwaWtfcHl0aG9uJywgJy1waHQnLCAnMi4wJywgJy1waCcsICc3LjAnLCAnLXRuJywgJzgnLCAnLW1hJywgJzIwMCcsICctaW1hZScsICc8aW5maWxlLm1hZT4nLCAnLW9tYWUnLCAnPG91dGZpbGUubWFlPic=

>  <r_lp_tautomer_probability>  (172) 
1

>  <r_epik_Ionization_Penalty>  (172) 
1.7205e-10

>  <r_epik_Ionization_Penalty_Charging>  (172) 
0

>  <r_epik_Ionization_Penalty_Neutral>  (172) 
1.7205e-10

>  <r_epik_State_Penalty>  (172) 
-0

>  <r_epik_Charging_Adjusted_Penalty>  (172) 
0

>  <i_epik_Tot_Q>  (172) 
0

>  <i_epik_Tot_abs_Q>  (172) 
0

>  <s_epik_Chemistry_Notes>  (172) 
This compound has an ester and may undergo hydrolysis at high or low pH. This compound contains an acetal/aminal-like group ( X-CH(R)-Y where X, Y are N, S, or O) that may be acid/base labile, releasing an aldehyde.

>  <s_lp_Force_Field>  (172) 
OPLS3e

>  <r_lp_Energy>  (172) 
36.9221

>  <b_lp_Chiralities_Consistent>  (172) 
1

>  <s_lp_Variant>  (172) 
47:0-1

>  <s_i_glide_gridfile>  (172) 
pfpi4k_grid

>  <i_i_glide_lignum>  (172) 
25

>  <i_i_glide_rotatable_bonds>  (172) 
0

>  <r_i_docking_score>  (172) 
-3.27276

>  <r_i_glide_ligand_efficiency>  (172) 
-0.163638

>  <r_i_glide_ligand_efficiency_sa>  (172) 
-0.444182

>  <r_i_glide_ligand_efficiency_ln>  (172) 
-0.819064

>  <r_i_glide_gscore>  (172) 
-3.27276

>  <r_i_glide_lipo>  (172) 
-0.721179

>  <r_i_glide_hbond>  (172) 
-0.0116057

>  <r_i_glide_metal>  (172) 
-0

>  <r_i_glide_rewards>  (172) 
-1.4841

>  <r_i_glide_evdw>  (172) 
-22.6618

>  <r_i_glide_ecoul>  (172) 
0.622034

>  <r_i_glide_erotb>  (172) 
0

>  <r_i_glide_esite>  (172) 
-0.0160919

>  <r_i_glide_emodel>  (172) 
-26.863

>  <r_i_glide_energy>  (172) 
-22.0398

>  <r_i_glide_einternal>  (172) 
0

>  <r_i_glide_intrahb_reward>  (172) 
-0

>  <i_i_glide_confnum>  (172) 
1

>  <i_i_glide_posenum>  (172) 
5

>  <r_i_glide_eff_state_penalty>  (172) 
0

>  <ligand_id>  (172) 
47

>  <original_smiles>  (172) 
CC1CCC2C(C)C(=O)OC3OC4(C)CCC1C32OO4

>  <smiles>  (172) 
[H]C([H])([H])C12OOC34C([H])(OC(=O)C([H])(C([H])([H])[H])C3([H])C([H])([H])C([H])([H])C([H])(C([H])([H])[H])C4([H])C([H])([H])C1([H])[H])O2

$$$$
47:0:2
     RDKit          3D

 42 45  0  0  1  0  0  0  0  0999 V2000
    5.6260   -9.6209    2.1431 C   0  0  0  0  0  0  0  0  0  0  0  0
    4.3056   -8.9952    2.6217 C   0  0  2  0  0  0  0  0  0  0  0  0
    3.2414  -10.0990    2.7626 C   0  0  0  0  0  0  0  0  0  0  0  0
    1.9194   -9.5342    3.2711 C   0  0  0  0  0  0  0  0  0  0  0  0
    1.3885   -8.4982    2.2738 C   0  0  1  0  0  0  0  0  0  0  0  0
   -0.0142   -7.9514    2.5738 C   0  0  1  0  0  0  0  0  0  0  0  0
   -1.0700   -9.0584    2.8217 C   0  0  0  0  0  0  0  0  0  0  0  0
   -0.0248   -6.9071    3.6963 C   0  0  0  0  0  0  0  0  0  0  0  0
   -1.0510   -6.7412    4.3576 O   0  0  0  0  0  0  0  0  0  0  0  0
    1.0631   -6.0823    3.8336 O   0  0  0  0  0  0  0  0  0  0  0  0
    2.3330   -6.3795    3.2881 C   0  0  2  0  0  0  0  0  0  0  0  0
    3.0273   -5.1815    3.0415 O   0  0  0  0  0  0  0  0  0  0  0  0
    3.1092   -4.7914    1.6955 C   0  0  1  0  0  0  0  0  0  0  0  0
    3.0831   -3.2611    1.6310 C   0  0  0  0  0  0  0  0  0  0  0  0
    4.4283   -5.3438    1.1003 C   0  0  0  0  0  0  0  0  0  0  0  0
    4.8705   -6.6847    1.7126 C   0  0  0  0  0  0  0  0  0  0  0  0
    3.8220   -7.8167    1.7273 C   0  0  2  0  0  0  0  0  0  0  0  0
    2.3632   -7.3265    2.0541 C   0  0  1  0  0  0  0  0  0  0  0  0
    1.9108   -6.6838    0.8685 O   0  0  0  0  0  0  0  0  0  0  0  0
    1.9530   -5.1835    0.9970 O   0  0  0  0  0  0  0  0  0  0  0  0
    5.5519   -9.9873    1.1182 H   0  0  0  0  0  0  0  0  0  0  0  0
    5.8976  -10.4652    2.7759 H   0  0  0  0  0  0  0  0  0  0  0  0
    6.4540   -8.9123    2.1955 H   0  0  0  0  0  0  0  0  0  0  0  0
    4.4764   -8.6092    3.6296 H   0  0  0  0  0  0  0  0  0  0  0  0
    3.0814  -10.6040    1.8059 H   0  0  0  0  0  0  0  0  0  0  0  0
    3.5954  -10.8619    3.4606 H   0  0  0  0  0  0  0  0  0  0  0  0
    1.2213  -10.3645    3.3713 H   0  0  0  0  0  0  0  0  0  0  0  0
    2.0575   -9.1160    4.2728 H   0  0  0  0  0  0  0  0  0  0  0  0
    1.3189   -9.0142    1.3138 H   0  0  0  0  0  0  0  0  0  0  0  0
   -0.3320   -7.4132    1.6745 H   0  0  0  0  0  0  0  0  0  0  0  0
   -2.0798   -8.6469    2.7979 H   0  0  0  0  0  0  0  0  0  0  0  0
   -0.9310   -9.5170    3.8027 H   0  0  0  0  0  0  0  0  0  0  0  0
   -1.0107   -9.8431    2.0647 H   0  0  0  0  0  0  0  0  0  0  0  0
    2.8925   -6.8600    4.0914 H   0  0  0  0  0  0  0  0  0  0  0  0
    2.1165   -2.8967    1.9908 H   0  0  0  0  0  0  0  0  0  0  0  0
    3.2249   -2.8876    0.6063 H   0  0  0  0  0  0  0  0  0  0  0  0
    3.8643   -2.8309    2.2611 H   0  0  0  0  0  0  0  0  0  0  0  0
    4.4156   -5.3780    0.0057 H   0  0  0  0  0  0  0  0  0  0  0  0
    5.2312   -4.6443    1.3569 H   0  0  0  0  0  0  0  0  0  0  0  0
    5.7626   -7.0235    1.1892 H   0  0  0  0  0  0  0  0  0  0  0  0
    5.1951   -6.5062    2.7400 H   0  0  0  0  0  0  0  0  0  0  0  0
    3.7753   -8.2032    0.7065 H   0  0  0  0  0  0  0  0  0  0  0  0
  1  2  1  0
  1 21  1  0
  1 22  1  0
  1 23  1  0
  2 17  1  0
  2  3  1  0
  2 24  1  1
  3  4  1  0
  3 25  1  0
  3 26  1  0
  4  5  1  0
  4 27  1  0
  4 28  1  0
  5 18  1  0
  5  6  1  0
  5 29  1  6
  6  7  1  0
  6  8  1  0
  6 30  1  6
  7 31  1  0
  7 32  1  0
  7 33  1  0
  8  9  2  0
  8 10  1  0
 10 11  1  0
 11 18  1  0
 11 12  1  0
 11 34  1  1
 12 13  1  0
 13 20  1  0
 13 14  1  1
 13 15  1  0
 14 35  1  0
 14 36  1  0
 14 37  1  0
 15 16  1  0
 15 38  1  0
 15 39  1  0
 16 17  1  0
 16 40  1  0
 16 41  1  0
 17 18  1  0
 17 42  1  6
 18 19  1  6
 19 20  1  0
M  END
>  <i_m_ct_stereo_status>  (173) 
1

>  <s_m_source_file>  (173) 
/var/tmp/pbs.5076255.sched01/tmphf7gnms3/50i7j3xhgh.sdf

>  <i_m_source_file_index>  (173) 
25

>  <i_lp_mmshare_version>  (173) 
48012

>  <i_f3d_flags>  (173) 
0

>  <s_epik_input>  (173) 
W0NAXTEyM1tDQEhdNFtDSDJdW0NIMl1bQ0BASF0oW0NIM10pW0NAQEhdMltDSDJdW0NIMl1bQ0BAXShbQ0gzXSkoT08zKU9bQ0BIXTFPQyg9TylbQ0BASF00W0NIM10=

>  <s_epik_cmdline>  (173) 
J2VwaWtfcHl0aG9uJywgJy1waHQnLCAnMi4wJywgJy1waCcsICc3LjAnLCAnLXRuJywgJzgnLCAnLW1hJywgJzIwMCcsICctaW1hZScsICc8aW5maWxlLm1hZT4nLCAnLW9tYWUnLCAnPG91dGZpbGUubWFlPic=

>  <r_lp_tautomer_probability>  (173) 
1

>  <r_epik_Ionization_Penalty>  (173) 
1.7205e-10

>  <r_epik_Ionization_Penalty_Charging>  (173) 
0

>  <r_epik_Ionization_Penalty_Neutral>  (173) 
1.7205e-10

>  <r_epik_State_Penalty>  (173) 
-0

>  <r_epik_Charging_Adjusted_Penalty>  (173) 
0

>  <i_epik_Tot_Q>  (173) 
0

>  <i_epik_Tot_abs_Q>  (173) 
0

>  <s_epik_Chemistry_Notes>  (173) 
This compound has an ester and may undergo hydrolysis at high or low pH. This compound contains an acetal/aminal-like group ( X-CH(R)-Y where X, Y are N, S, or O) that may be acid/base labile, releasing an aldehyde.

>  <s_lp_Force_Field>  (173) 
OPLS3e

>  <r_lp_Energy>  (173) 
36.9221

>  <b_lp_Chiralities_Consistent>  (173) 
1

>  <s_lp_Variant>  (173) 
47:0-1

>  <s_i_glide_gridfile>  (173) 
pfpi4k_grid

>  <i_i_glide_lignum>  (173) 
25

>  <i_i_glide_rotatable_bonds>  (173) 
0

>  <r_i_docking_score>  (173) 
-3.06822

>  <r_i_glide_ligand_efficiency>  (173) 
-0.153411

>  <r_i_glide_ligand_efficiency_sa>  (173) 
-0.416421

>  <r_i_glide_ligand_efficiency_ln>  (173) 
-0.767873

>  <r_i_glide_gscore>  (173) 
-3.06822

>  <r_i_glide_lipo>  (173) 
-0.103274

>  <r_i_glide_hbond>  (173) 
-0.0656333

>  <r_i_glide_metal>  (173) 
-0

>  <r_i_glide_rewards>  (173) 
-1.48489

>  <r_i_glide_evdw>  (173) 
-21.8227

>  <r_i_glide_ecoul>  (173) 
-1.812

>  <r_i_glide_erotb>  (173) 
0

>  <r_i_glide_esite>  (173) 
-0.0514787

>  <r_i_glide_emodel>  (173) 
-28.3212

>  <r_i_glide_energy>  (173) 
-23.6347

>  <r_i_glide_einternal>  (173) 
0

>  <r_i_glide_intrahb_reward>  (173) 
-0

>  <i_i_glide_confnum>  (173) 
2

>  <i_i_glide_posenum>  (173) 
2

>  <r_i_glide_eff_state_penalty>  (173) 
0

>  <ligand_id>  (173) 
47

>  <original_smiles>  (173) 
CC1CCC2C(C)C(=O)OC3OC4(C)CCC1C32OO4

>  <smiles>  (173) 
[H]C([H])([H])C12OOC34C([H])(OC(=O)C([H])(C([H])([H])[H])C3([H])C([H])([H])C([H])([H])C([H])(C([H])([H])[H])C4([H])C([H])([H])C1([H])[H])O2

$$$$
48:0:0
     RDKit          3D

 36 39  0  0  1  0  0  0  0  0999 V2000
   -0.8710   -1.4359    6.1527 O   0  0  0  0  0  0  0  0  0  0  0  0
   -0.4675   -0.5054    5.4682 C   0  0  0  0  0  0  0  0  0  0  0  0
   -0.9684    0.8650    5.8060 C   0  0  0  0  0  0  0  0  0  0  0  0
   -0.4800    2.1478    5.6742 C   0  0  0  0  0  0  0  0  0  0  0  0
   -1.4611    3.0462    6.1351 C   0  0  0  0  0  0  0  0  0  0  0  0
   -2.4627    2.2853    6.6836 C   0  0  0  0  0  0  0  0  0  0  0  0
   -2.1809    0.9573    6.4760 O   0  0  0  0  0  0  0  0  0  0  0  0
    0.3131   -0.7121    4.3543 N   0  0  0  0  0  0  0  0  0  0  0  0
    0.9129    0.3017    3.4372 C   0  0  0  0  0  0  0  0  0  0  0  0
    2.4537    0.1439    3.5319 C   0  0  0  0  0  0  0  0  0  0  0  0
    2.8690   -1.2055    3.1494 N   0  0  0  0  0  0  0  0  0  0  0  0
    3.5902   -1.4062    2.0157 C   0  0  0  0  0  0  0  0  0  0  0  0
    4.5512   -0.4871    1.6929 N   0  0  0  0  0  0  0  0  0  0  0  0
    5.3266   -0.6693    0.6373 C   0  0  0  0  0  0  0  0  0  0  0  0
    5.3300   -1.6650   -0.2506 N   0  0  0  0  0  0  0  0  0  0  0  0
    4.3527   -2.5740    0.0413 C   0  0  0  0  0  0  0  0  0  0  0  0
    4.0384   -3.7275   -0.6348 N   0  0  0  0  0  0  0  0  0  0  0  0
    3.0042   -4.2950    0.0610 C   0  0  0  0  0  0  0  0  0  0  0  0
    2.6147   -3.6355    1.1051 N   0  0  0  0  0  0  0  0  0  0  0  0
    3.4561   -2.5189    1.1356 C   0  0  0  0  0  0  0  0  0  0  0  0
    2.1870   -2.2805    3.8728 C   0  0  0  0  0  0  0  0  0  0  0  0
    0.6434   -2.0867    3.9037 C   0  0  0  0  0  0  0  0  0  0  0  0
    4.5190   -4.0195   -1.4712 H   0  0  0  0  0  0  0  0  0  0  0  0
    0.4756    2.4719    5.2630 H   0  0  0  0  0  0  0  0  0  0  0  0
   -1.4079    4.1400    6.1265 H   0  0  0  0  0  0  0  0  0  0  0  0
   -3.3738    2.5046    7.2481 H   0  0  0  0  0  0  0  0  0  0  0  0
    0.5488    0.0995    2.4167 H   0  0  0  0  0  0  0  0  0  0  0  0
    0.7291    1.3404    3.6478 H   0  0  0  0  0  0  0  0  0  0  0  0
    2.9084    0.9283    2.9269 H   0  0  0  0  0  0  0  0  0  0  0  0
    2.8109    0.3061    4.5544 H   0  0  0  0  0  0  0  0  0  0  0  0
    6.0951    0.0872    0.4873 H   0  0  0  0  0  0  0  0  0  0  0  0
    2.5232   -5.2257   -0.2227 H   0  0  0  0  0  0  0  0  0  0  0  0
    2.4516   -3.2735    3.5008 H   0  0  0  0  0  0  0  0  0  0  0  0
    2.5560   -2.2296    4.8955 H   0  0  0  0  0  0  0  0  0  0  0  0
    0.1920   -2.9001    4.4920 H   0  0  0  0  0  0  0  0  0  0  0  0
    0.2427   -2.2110    2.8915 H   0  0  0  0  0  0  0  0  0  0  0  0
  1  2  2  0
  2  3  1  0
  2  8  1  0
  3  7  1  0
  3  4  2  0
  4  5  1  0
  4 24  1  0
  5  6  2  0
  5 25  1  0
  6  7  1  0
  6 26  1  0
  8 22  1  0
  8  9  1  0
  9 10  1  0
  9 27  1  0
  9 28  1  0
 10 11  1  0
 10 29  1  0
 10 30  1  0
 11 12  1  0
 11 21  1  0
 12 20  1  0
 12 13  2  0
 13 14  1  0
 14 15  2  0
 14 31  1  0
 15 16  1  0
 16 20  2  0
 16 17  1  0
 17 23  1  0
 17 18  1  0
 18 19  2  0
 18 32  1  0
 19 20  1  0
 21 22  1  0
 21 33  1  0
 21 34  1  0
 22 35  1  0
 22 36  1  0
M  END
>  <i_m_ct_stereo_status>  (174) 
1

>  <s_m_source_file>  (174) 
/var/tmp/pbs.5076255.sched01/tmphf7gnms3/50i7j3xhgh.sdf

>  <i_m_source_file_index>  (174) 
26

>  <i_lp_mmshare_version>  (174) 
48012

>  <i_f3d_flags>  (174) 
0

>  <s_epik_input>  (174) 
bzFbY0hdW2NIXVtjSF1jMUMoPU8pTjJbQ0gyXVtDSDJdTihbQ0gyXVtDSDJdMiljKG5bY0hdbjMpYyhjMzQpbltjSF1bbkhdNA==

>  <s_epik_cmdline>  (174) 
J2VwaWtfcHl0aG9uJywgJy1waHQnLCAnMi4wJywgJy1waCcsICc3LjAnLCAnLXRuJywgJzgnLCAnLW1hJywgJzIwMCcsICctaW1hZScsICc8aW5maWxlLm1hZT4nLCAnLW9tYWUnLCAnPG91dGZpbGUubWFlPic=

>  <r_lp_tautomer_probability>  (174) 
0.955585

>  <r_epik_Ionization_Penalty>  (174) 
0.00257772

>  <r_epik_Ionization_Penalty_Charging>  (174) 
0

>  <r_epik_Ionization_Penalty_Neutral>  (174) 
0.00257772

>  <r_epik_State_Penalty>  (174) 
0.0207074

>  <r_epik_Charging_Adjusted_Penalty>  (174) 
0.0207074

>  <i_epik_Tot_Q>  (174) 
0

>  <i_epik_Tot_abs_Q>  (174) 
0

>  <s_lp_Force_Field>  (174) 
OPLS3e

>  <r_lp_Energy>  (174) 
43.6502

>  <b_lp_Chiralities_Consistent>  (174) 
1

>  <s_lp_Variant>  (174) 
48:0-1

>  <s_i_glide_gridfile>  (174) 
pfpi4k_grid

>  <i_i_glide_lignum>  (174) 
26

>  <i_i_glide_rotatable_bonds>  (174) 
3

>  <r_i_docking_score>  (174) 
-3.16835

>  <r_i_glide_ligand_efficiency>  (174) 
-0.144016

>  <r_i_glide_ligand_efficiency_sa>  (174) 
-0.403538

>  <r_i_glide_ligand_efficiency_ln>  (174) 
-0.774461

>  <r_i_glide_gscore>  (174) 
-3.16835

>  <r_i_glide_lipo>  (174) 
-0.119659

>  <r_i_glide_hbond>  (174) 
-0.130176

>  <r_i_glide_metal>  (174) 
-0

>  <r_i_glide_rewards>  (174) 
-1.56697

>  <r_i_glide_evdw>  (174) 
-23.1839

>  <r_i_glide_ecoul>  (174) 
-4.91099

>  <r_i_glide_erotb>  (174) 
0.61862

>  <r_i_glide_esite>  (174) 
-0.0743272

>  <r_i_glide_emodel>  (174) 
-33.4988

>  <r_i_glide_energy>  (174) 
-28.0949

>  <r_i_glide_einternal>  (174) 
0.52795

>  <r_i_glide_intrahb_reward>  (174) 
-0

>  <i_i_glide_confnum>  (174) 
3

>  <i_i_glide_posenum>  (174) 
2

>  <r_i_glide_eff_state_penalty>  (174) 
0

>  <ligand_id>  (174) 
48

>  <original_smiles>  (174) 
O=C(c1ccco1)N1CCN(c2ncnc3[nH]cnc23)CC1

>  <smiles>  (174) 
[H]c1nc(N2C([H])([H])C([H])([H])N(C(=O)c3oc([H])c([H])c3[H])C([H])([H])C2([H])[H])c2nc([H])n([H])c2n1

$$$$
48:0:1
     RDKit          3D

 36 39  0  0  1  0  0  0  0  0999 V2000
    3.1180   -8.9710    3.3221 O   0  0  0  0  0  0  0  0  0  0  0  0
    2.5436   -7.9843    2.8670 C   0  0  0  0  0  0  0  0  0  0  0  0
    1.0532   -8.0028    2.7771 C   0  0  0  0  0  0  0  0  0  0  0  0
    0.0621   -7.0567    2.9514 C   0  0  0  0  0  0  0  0  0  0  0  0
   -1.1835   -7.6674    2.6670 C   0  0  0  0  0  0  0  0  0  0  0  0
   -0.9164   -9.0017    2.4842 C   0  0  0  0  0  0  0  0  0  0  0  0
    0.4340   -9.2038    2.5229 O   0  0  0  0  0  0  0  0  0  0  0  0
    3.2613   -6.9348    2.3539 N   0  0  0  0  0  0  0  0  0  0  0  0
    4.7207   -7.0027    2.1450 C   0  0  0  0  0  0  0  0  0  0  0  0
    5.0498   -6.6560    0.6662 C   0  0  0  0  0  0  0  0  0  0  0  0
    4.4177   -5.4059    0.2461 N   0  0  0  0  0  0  0  0  0  0  0  0
    5.1117   -4.3286   -0.2073 C   0  0  0  0  0  0  0  0  0  0  0  0
    6.4379   -4.2258    0.1061 N   0  0  0  0  0  0  0  0  0  0  0  0
    7.1576   -3.2020   -0.3584 C   0  0  0  0  0  0  0  0  0  0  0  0
    6.7603   -2.1809   -1.1243 N   0  0  0  0  0  0  0  0  0  0  0  0
    5.4339   -2.2696   -1.4161 C   0  0  0  0  0  0  0  0  0  0  0  0
    4.6772   -1.4052   -2.1749 N   0  0  0  0  0  0  0  0  0  0  0  0
    3.4125   -1.9363   -2.1978 C   0  0  0  0  0  0  0  0  0  0  0  0
    3.2828   -3.0495   -1.5370 N   0  0  0  0  0  0  0  0  0  0  0  0
    4.5443   -3.2945   -1.0077 C   0  0  0  0  0  0  0  0  0  0  0  0
    3.0058   -5.3150    0.5415 C   0  0  0  0  0  0  0  0  0  0  0  0
    2.7620   -5.5963    2.0077 C   0  0  0  0  0  0  0  0  0  0  0  0
    5.0408   -0.5632   -2.5957 H   0  0  0  0  0  0  0  0  0  0  0  0
    0.1703   -6.0240    3.2397 H   0  0  0  0  0  0  0  0  0  0  0  0
   -2.1654   -7.1997    2.6657 H   0  0  0  0  0  0  0  0  0  0  0  0
   -1.5248   -9.8802    2.3335 H   0  0  0  0  0  0  0  0  0  0  0  0
    5.2106   -6.2790    2.8051 H   0  0  0  0  0  0  0  0  0  0  0  0
    5.1610   -7.9782    2.3860 H   0  0  0  0  0  0  0  0  0  0  0  0
    6.1342   -6.6596    0.4974 H   0  0  0  0  0  0  0  0  0  0  0  0
    4.6241   -7.4298    0.0297 H   0  0  0  0  0  0  0  0  0  0  0  0
    8.2020   -3.2176   -0.0967 H   0  0  0  0  0  0  0  0  0  0  0  0
    2.5911   -1.4783   -2.7246 H   0  0  0  0  0  0  0  0  0  0  0  0
    2.5611   -4.3420    0.3482 H   0  0  0  0  0  0  0  0  0  0  0  0
    2.4787   -6.0353   -0.0804 H   0  0  0  0  0  0  0  0  0  0  0  0
    1.6864   -5.4294    2.0304 H   0  0  0  0  0  0  0  0  0  0  0  0
    3.2113   -4.8549    2.6698 H   0  0  0  0  0  0  0  0  0  0  0  0
  1  2  2  0
  2  3  1  0
  2  8  1  0
  3  7  1  0
  3  4  2  0
  4  5  1  0
  4 24  1  0
  5  6  2  0
  5 25  1  0
  6  7  1  0
  6 26  1  0
  8 22  1  0
  8  9  1  0
  9 10  1  0
  9 27  1  0
  9 28  1  0
 10 11  1  0
 10 29  1  0
 10 30  1  0
 11 12  1  0
 11 21  1  0
 12 20  1  0
 12 13  2  0
 13 14  1  0
 14 15  2  0
 14 31  1  0
 15 16  1  0
 16 20  2  0
 16 17  1  0
 17 23  1  0
 17 18  1  0
 18 19  2  0
 18 32  1  0
 19 20  1  0
 21 22  1  0
 21 33  1  0
 21 34  1  0
 22 35  1  0
 22 36  1  0
M  END
>  <i_m_ct_stereo_status>  (175) 
1

>  <s_m_source_file>  (175) 
/var/tmp/pbs.5076255.sched01/tmphf7gnms3/50i7j3xhgh.sdf

>  <i_m_source_file_index>  (175) 
26

>  <i_lp_mmshare_version>  (175) 
48012

>  <i_f3d_flags>  (175) 
0

>  <s_epik_input>  (175) 
bzFbY0hdW2NIXVtjSF1jMUMoPU8pTjJbQ0gyXVtDSDJdTihbQ0gyXVtDSDJdMiljKG5bY0hdbjMpYyhjMzQpbltjSF1bbkhdNA==

>  <s_epik_cmdline>  (175) 
J2VwaWtfcHl0aG9uJywgJy1waHQnLCAnMi4wJywgJy1waCcsICc3LjAnLCAnLXRuJywgJzgnLCAnLW1hJywgJzIwMCcsICctaW1hZScsICc8aW5maWxlLm1hZT4nLCAnLW9tYWUnLCAnPG91dGZpbGUubWFlPic=

>  <r_lp_tautomer_probability>  (175) 
0.955585

>  <r_epik_Ionization_Penalty>  (175) 
0.00257772

>  <r_epik_Ionization_Penalty_Charging>  (175) 
0

>  <r_epik_Ionization_Penalty_Neutral>  (175) 
0.00257772

>  <r_epik_State_Penalty>  (175) 
0.0207074

>  <r_epik_Charging_Adjusted_Penalty>  (175) 
0.0207074

>  <i_epik_Tot_Q>  (175) 
0

>  <i_epik_Tot_abs_Q>  (175) 
0

>  <s_lp_Force_Field>  (175) 
OPLS3e

>  <r_lp_Energy>  (175) 
43.6502

>  <b_lp_Chiralities_Consistent>  (175) 
1

>  <s_lp_Variant>  (175) 
48:0-1

>  <s_i_glide_gridfile>  (175) 
pfpi4k_grid

>  <i_i_glide_lignum>  (175) 
26

>  <i_i_glide_rotatable_bonds>  (175) 
3

>  <r_i_docking_score>  (175) 
-3.12743

>  <r_i_glide_ligand_efficiency>  (175) 
-0.142156

>  <r_i_glide_ligand_efficiency_sa>  (175) 
-0.398326

>  <r_i_glide_ligand_efficiency_ln>  (175) 
-0.764458

>  <r_i_glide_gscore>  (175) 
-3.12743

>  <r_i_glide_lipo>  (175) 
-0.302333

>  <r_i_glide_hbond>  (175) 
-0.16

>  <r_i_glide_metal>  (175) 
-0

>  <r_i_glide_rewards>  (175) 
-1.5975

>  <r_i_glide_evdw>  (175) 
-30.3051

>  <r_i_glide_ecoul>  (175) 
-0.263834

>  <r_i_glide_erotb>  (175) 
0.61862

>  <r_i_glide_esite>  (175) 
-0.131381

>  <r_i_glide_emodel>  (175) 
-35.4945

>  <r_i_glide_energy>  (175) 
-30.5689

>  <r_i_glide_einternal>  (175) 
0.824229

>  <r_i_glide_intrahb_reward>  (175) 
-0

>  <i_i_glide_confnum>  (175) 
5

>  <i_i_glide_posenum>  (175) 
3

>  <r_i_glide_eff_state_penalty>  (175) 
0

>  <ligand_id>  (175) 
48

>  <original_smiles>  (175) 
O=C(c1ccco1)N1CCN(c2ncnc3[nH]cnc23)CC1

>  <smiles>  (175) 
[H]c1nc(N2C([H])([H])C([H])([H])N(C(=O)c3oc([H])c([H])c3[H])C([H])([H])C2([H])[H])c2nc([H])n([H])c2n1

$$$$
48:0:2
     RDKit          3D

 36 39  0  0  1  0  0  0  0  0999 V2000
   -1.0510   -3.1267    6.7387 O   0  0  0  0  0  0  0  0  0  0  0  0
   -0.1490   -3.3288    5.9026 C   0  0  0  0  0  0  0  0  0  0  0  0
    0.3102   -2.1447    5.0734 C   0  0  0  0  0  0  0  0  0  0  0  0
    1.5042   -1.7605    4.5258 C   0  0  0  0  0  0  0  0  0  0  0  0
    1.2862   -0.5618    3.7795 C   0  0  0  0  0  0  0  0  0  0  0  0
   -0.0032   -0.2096    4.0236 C   0  0  0  0  0  0  0  0  0  0  0  0
   -0.6268   -1.1789    4.7854 O   0  0  0  0  0  0  0  0  0  0  0  0
    0.3063   -4.5701    5.6218 N   0  0  0  0  0  0  0  0  0  0  0  0
   -0.3881   -5.8039    6.0926 C   0  0  0  0  0  0  0  0  0  0  0  0
   -0.6880   -6.7395    4.8800 C   0  0  0  0  0  0  0  0  0  0  0  0
    0.4993   -6.9672    4.0473 N   0  0  0  0  0  0  0  0  0  0  0  0
    1.0396   -8.2029    3.8300 C   0  0  0  0  0  0  0  0  0  0  0  0
    0.6096   -9.2399    4.5961 N   0  0  0  0  0  0  0  0  0  0  0  0
    1.0544  -10.4789    4.3749 C   0  0  0  0  0  0  0  0  0  0  0  0
    1.9502  -10.8806    3.4744 N   0  0  0  0  0  0  0  0  0  0  0  0
    2.4272   -9.8455    2.7297 C   0  0  0  0  0  0  0  0  0  0  0  0
    3.3581   -9.8545    1.7157 N   0  0  0  0  0  0  0  0  0  0  0  0
    3.4864   -8.5831    1.2733 C   0  0  0  0  0  0  0  0  0  0  0  0
    2.6980   -7.7290    1.8674 N   0  0  0  0  0  0  0  0  0  0  0  0
    2.0256   -8.4867    2.8321 C   0  0  0  0  0  0  0  0  0  0  0  0
    1.2223   -5.7434    3.7095 C   0  0  0  0  0  0  0  0  0  0  0  0
    1.5597   -4.9412    4.9451 C   0  0  0  0  0  0  0  0  0  0  0  0
    3.7567  -10.7600    1.3914 H   0  0  0  0  0  0  0  0  0  0  0  0
    2.4859   -2.2083    4.5683 H   0  0  0  0  0  0  0  0  0  0  0  0
    2.0376   -0.0236    3.2106 H   0  0  0  0  0  0  0  0  0  0  0  0
   -0.6048    0.6764    3.7740 H   0  0  0  0  0  0  0  0  0  0  0  0
    0.2655   -6.3238    6.8076 H   0  0  0  0  0  0  0  0  0  0  0  0
   -1.3347   -5.5873    6.6334 H   0  0  0  0  0  0  0  0  0  0  0  0
   -1.1662   -7.6616    5.2086 H   0  0  0  0  0  0  0  0  0  0  0  0
   -1.3937   -6.2370    4.2224 H   0  0  0  0  0  0  0  0  0  0  0  0
    0.6172  -11.2396    4.9994 H   0  0  0  0  0  0  0  0  0  0  0  0
    4.1489   -8.2777    0.4751 H   0  0  0  0  0  0  0  0  0  0  0  0
    2.1834   -5.8787    3.2265 H   0  0  0  0  0  0  0  0  0  0  0  0
    0.6050   -5.1798    3.0039 H   0  0  0  0  0  0  0  0  0  0  0  0
    2.1469   -4.1698    4.5070 H   0  0  0  0  0  0  0  0  0  0  0  0
    2.2101   -5.4752    5.6392 H   0  0  0  0  0  0  0  0  0  0  0  0
  1  2  2  0
  2  3  1  0
  2  8  1  0
  3  7  1  0
  3  4  2  0
  4  5  1  0
  4 24  1  0
  5  6  2  0
  5 25  1  0
  6  7  1  0
  6 26  1  0
  8 22  1  0
  8  9  1  0
  9 10  1  0
  9 27  1  0
  9 28  1  0
 10 11  1  0
 10 29  1  0
 10 30  1  0
 11 12  1  0
 11 21  1  0
 12 20  1  0
 12 13  2  0
 13 14  1  0
 14 15  2  0
 14 31  1  0
 15 16  1  0
 16 20  2  0
 16 17  1  0
 17 23  1  0
 17 18  1  0
 18 19  2  0
 18 32  1  0
 19 20  1  0
 21 22  1  0
 21 33  1  0
 21 34  1  0
 22 35  1  0
 22 36  1  0
M  END
>  <i_m_ct_stereo_status>  (176) 
1

>  <s_m_source_file>  (176) 
/var/tmp/pbs.5076255.sched01/tmphf7gnms3/50i7j3xhgh.sdf

>  <i_m_source_file_index>  (176) 
26

>  <i_lp_mmshare_version>  (176) 
48012

>  <i_f3d_flags>  (176) 
0

>  <s_epik_input>  (176) 
bzFbY0hdW2NIXVtjSF1jMUMoPU8pTjJbQ0gyXVtDSDJdTihbQ0gyXVtDSDJdMiljKG5bY0hdbjMpYyhjMzQpbltjSF1bbkhdNA==

>  <s_epik_cmdline>  (176) 
J2VwaWtfcHl0aG9uJywgJy1waHQnLCAnMi4wJywgJy1waCcsICc3LjAnLCAnLXRuJywgJzgnLCAnLW1hJywgJzIwMCcsICctaW1hZScsICc8aW5maWxlLm1hZT4nLCAnLW9tYWUnLCAnPG91dGZpbGUubWFlPic=

>  <r_lp_tautomer_probability>  (176) 
0.955585

>  <r_epik_Ionization_Penalty>  (176) 
0.00257772

>  <r_epik_Ionization_Penalty_Charging>  (176) 
0

>  <r_epik_Ionization_Penalty_Neutral>  (176) 
0.00257772

>  <r_epik_State_Penalty>  (176) 
0.0207074

>  <r_epik_Charging_Adjusted_Penalty>  (176) 
0.0207074

>  <i_epik_Tot_Q>  (176) 
0

>  <i_epik_Tot_abs_Q>  (176) 
0

>  <s_lp_Force_Field>  (176) 
OPLS3e

>  <r_lp_Energy>  (176) 
43.6502

>  <b_lp_Chiralities_Consistent>  (176) 
1

>  <s_lp_Variant>  (176) 
48:0-1

>  <s_i_glide_gridfile>  (176) 
pfpi4k_grid

>  <i_i_glide_lignum>  (176) 
26

>  <i_i_glide_rotatable_bonds>  (176) 
3

>  <r_i_docking_score>  (176) 
-2.87339

>  <r_i_glide_ligand_efficiency>  (176) 
-0.130609

>  <r_i_glide_ligand_efficiency_sa>  (176) 
-0.365971

>  <r_i_glide_ligand_efficiency_ln>  (176) 
-0.702361

>  <r_i_glide_gscore>  (176) 
-2.87339

>  <r_i_glide_lipo>  (176) 
-0.00840688

>  <r_i_glide_hbond>  (176) 
-0.16

>  <r_i_glide_metal>  (176) 
-0

>  <r_i_glide_rewards>  (176) 
-1.37657

>  <r_i_glide_evdw>  (176) 
-23.4555

>  <r_i_glide_ecoul>  (176) 
-3.97137

>  <r_i_glide_erotb>  (176) 
0.61862

>  <r_i_glide_esite>  (176) 
-0.178556

>  <r_i_glide_emodel>  (176) 
-31.4355

>  <r_i_glide_energy>  (176) 
-27.4269

>  <r_i_glide_einternal>  (176) 
1.34704

>  <r_i_glide_intrahb_reward>  (176) 
-0

>  <i_i_glide_confnum>  (176) 
5

>  <i_i_glide_posenum>  (176) 
22

>  <r_i_glide_eff_state_penalty>  (176) 
0

>  <ligand_id>  (176) 
48

>  <original_smiles>  (176) 
O=C(c1ccco1)N1CCN(c2ncnc3[nH]cnc23)CC1

>  <smiles>  (176) 
[H]c1nc(N2C([H])([H])C([H])([H])N(C(=O)c3oc([H])c([H])c3[H])C([H])([H])C2([H])[H])c2nc([H])n([H])c2n1

$$$$
48:1:0
     RDKit          3D

 36 39  0  0  1  0  0  0  0  0999 V2000
   -1.2340    1.5434    3.5926 O   0  0  0  0  0  0  0  0  0  0  0  0
   -0.1511    2.1335    3.5525 C   0  0  0  0  0  0  0  0  0  0  0  0
   -0.0299    3.4102    4.2954 C   0  0  0  0  0  0  0  0  0  0  0  0
    0.5656    4.5985    3.9763 C   0  0  0  0  0  0  0  0  0  0  0  0
    0.2781    5.4956    5.0442 C   0  0  0  0  0  0  0  0  0  0  0  0
   -0.4929    4.7949    5.9201 C   0  0  0  0  0  0  0  0  0  0  0  0
   -0.7004    3.5276    5.4779 O   0  0  0  0  0  0  0  0  0  0  0  0
    0.9040    1.6728    2.8492 N   0  0  0  0  0  0  0  0  0  0  0  0
    0.7499    0.6414    1.8111 C   0  0  0  0  0  0  0  0  0  0  0  0
    1.6145   -0.5916    2.1152 C   0  0  0  0  0  0  0  0  0  0  0  0
    2.9969   -0.1913    2.3531 N   0  0  0  0  0  0  0  0  0  0  0  0
    4.0911   -0.6911    1.6186 C   0  0  0  0  0  0  0  0  0  0  0  0
    5.3231   -0.5818    2.1636 N   0  0  0  0  0  0  0  0  0  0  0  0
    6.3630   -1.0817    1.5016 C   0  0  0  0  0  0  0  0  0  0  0  0
    6.4079   -1.6922    0.3078 N   0  0  0  0  0  0  0  0  0  0  0  0
    5.1956   -1.8139   -0.2500 C   0  0  0  0  0  0  0  0  0  0  0  0
    4.9447   -2.4025   -1.4818 N   0  0  0  0  0  0  0  0  0  0  0  0
    3.6214   -2.2713   -1.5763 C   0  0  0  0  0  0  0  0  0  0  0  0
    3.0149   -1.6802   -0.5427 N   0  0  0  0  0  0  0  0  0  0  0  0
    4.0046   -1.3365    0.3613 C   0  0  0  0  0  0  0  0  0  0  0  0
    3.1709    0.8306    3.3846 C   0  0  0  0  0  0  0  0  0  0  0  0
    2.3087    2.0655    3.0558 C   0  0  0  0  0  0  0  0  0  0  0  0
    1.9847   -1.4620   -0.5282 H   0  0  0  0  0  0  0  0  0  0  0  0
    1.1229    4.8220    3.0766 H   0  0  0  0  0  0  0  0  0  0  0  0
    0.5887    6.5248    5.1272 H   0  0  0  0  0  0  0  0  0  0  0  0
   -0.9780    5.0307    6.8582 H   0  0  0  0  0  0  0  0  0  0  0  0
   -0.2877    0.3407    1.6703 H   0  0  0  0  0  0  0  0  0  0  0  0
    1.0548    1.0680    0.8614 H   0  0  0  0  0  0  0  0  0  0  0  0
    1.2456   -1.0774    3.0172 H   0  0  0  0  0  0  0  0  0  0  0  0
    1.5135   -1.3314    1.3276 H   0  0  0  0  0  0  0  0  0  0  0  0
    7.3124   -0.9734    1.9939 H   0  0  0  0  0  0  0  0  0  0  0  0
    3.0619   -2.6193   -2.4349 H   0  0  0  0  0  0  0  0  0  0  0  0
    4.2105    1.1331    3.5060 H   0  0  0  0  0  0  0  0  0  0  0  0
    2.8673    0.4002    4.3395 H   0  0  0  0  0  0  0  0  0  0  0  0
    2.6776    2.5519    2.1531 H   0  0  0  0  0  0  0  0  0  0  0  0
    2.4341    2.7819    3.8647 H   0  0  0  0  0  0  0  0  0  0  0  0
  1  2  2  0
  2  3  1  0
  2  8  1  0
  3  7  1  0
  3  4  2  0
  4  5  1  0
  4 24  1  0
  5  6  2  0
  5 25  1  0
  6  7  1  0
  6 26  1  0
  8 22  1  0
  8  9  1  0
  9 10  1  0
  9 27  1  0
  9 28  1  0
 10 29  1  0
 10 30  1  0
 10 11  1  0
 11 12  1  0
 11 21  1  0
 12 13  2  0
 12 20  1  0
 13 14  1  0
 14 31  1  0
 14 15  2  0
 15 16  1  0
 16 17  1  0
 16 20  2  0
 17 18  2  0
 18 19  1  0
 18 32  1  0
 19 20  1  0
 19 23  1  0
 21 22  1  0
 21 33  1  0
 21 34  1  0
 22 35  1  0
 22 36  1  0
M  END
>  <i_m_ct_stereo_status>  (177) 
1

>  <s_m_source_file>  (177) 
/var/tmp/pbs.5076255.sched01/tmphf7gnms3/50i7j3xhgh.sdf

>  <i_m_source_file_index>  (177) 
27

>  <i_lp_mmshare_version>  (177) 
48012

>  <i_f3d_flags>  (177) 
0

>  <s_epik_input>  (177) 
bzFbY0hdW2NIXVtjSF1jMUMoPU8pTjJbQ0gyXVtDSDJdTihbQ0gyXVtDSDJdMiljKG5bY0hdbjMpYyhjMzQpbltjSF1bbkhdNA==

>  <s_epik_cmdline>  (177) 
J2VwaWtfcHl0aG9uJywgJy1waHQnLCAnMi4wJywgJy1waCcsICc3LjAnLCAnLXRuJywgJzgnLCAnLW1hJywgJzIwMCcsICctaW1hZScsICc8aW5maWxlLm1hZT4nLCAnLW9tYWUnLCAnPG91dGZpbGUubWFlPic=

>  <r_lp_tautomer_probability>  (177) 
0.0419193

>  <r_epik_Ionization_Penalty>  (177) 
0.00643567

>  <r_epik_Ionization_Penalty_Charging>  (177) 
0

>  <r_epik_Ionization_Penalty_Neutral>  (177) 
0.00643567

>  <r_epik_State_Penalty>  (177) 
1.99742

>  <r_epik_Charging_Adjusted_Penalty>  (177) 
1.99742

>  <i_epik_Tot_Q>  (177) 
0

>  <i_epik_Tot_abs_Q>  (177) 
0

>  <s_lp_Force_Field>  (177) 
OPLS3e

>  <r_lp_Energy>  (177) 
42.3512

>  <b_lp_Chiralities_Consistent>  (177) 
1

>  <s_lp_Variant>  (177) 
48:0-2

>  <s_i_glide_gridfile>  (177) 
pfpi4k_grid

>  <i_i_glide_lignum>  (177) 
27

>  <i_i_glide_rotatable_bonds>  (177) 
3

>  <r_i_docking_score>  (177) 
-4.09956

>  <r_i_glide_ligand_efficiency>  (177) 
-0.186344

>  <r_i_glide_ligand_efficiency_sa>  (177) 
-0.522142

>  <r_i_glide_ligand_efficiency_ln>  (177) 
-1.00208

>  <r_i_glide_gscore>  (177) 
-4.09956

>  <r_i_glide_lipo>  (177) 
-0.055318

>  <r_i_glide_hbond>  (177) 
-0.0956169

>  <r_i_glide_metal>  (177) 
-0

>  <r_i_glide_rewards>  (177) 
-1.51373

>  <r_i_glide_evdw>  (177) 
-18.8881

>  <r_i_glide_ecoul>  (177) 
-12.4059

>  <r_i_glide_erotb>  (177) 
0.61862

>  <r_i_glide_esite>  (177) 
-0.248221

>  <r_i_glide_emodel>  (177) 
-40.8194

>  <r_i_glide_energy>  (177) 
-31.294

>  <r_i_glide_einternal>  (177) 
0.564716

>  <r_i_glide_intrahb_reward>  (177) 
-0

>  <i_i_glide_confnum>  (177) 
1

>  <i_i_glide_posenum>  (177) 
2

>  <r_i_glide_eff_state_penalty>  (177) 
0

>  <ligand_id>  (177) 
48

>  <original_smiles>  (177) 
O=C(c1ccco1)N1CCN(c2ncnc3[nH]cnc23)CC1

>  <smiles>  (177) 
[H]c1nc(N2C([H])([H])C([H])([H])N(C(=O)c3oc([H])c([H])c3[H])C([H])([H])C2([H])[H])c2c(n1)nc([H])n2[H]

$$$$
48:1:1
     RDKit          3D

 36 39  0  0  1  0  0  0  0  0999 V2000
    1.1849    0.9765    5.5211 O   0  0  0  0  0  0  0  0  0  0  0  0
    0.9592    1.1323    4.3206 C   0  0  0  0  0  0  0  0  0  0  0  0
   -0.3300    1.7623    3.8933 C   0  0  0  0  0  0  0  0  0  0  0  0
   -0.9420    1.9453    2.6731 C   0  0  0  0  0  0  0  0  0  0  0  0
   -2.1826    2.5968    2.9185 C   0  0  0  0  0  0  0  0  0  0  0  0
   -2.2378    2.8127    4.2662 C   0  0  0  0  0  0  0  0  0  0  0  0
   -1.1242    2.3043    4.8680 O   0  0  0  0  0  0  0  0  0  0  0  0
    1.9053    0.8724    3.3914 N   0  0  0  0  0  0  0  0  0  0  0  0
    1.6162    0.3306    2.0583 C   0  0  0  0  0  0  0  0  0  0  0  0
    2.3300   -1.0124    1.8900 C   0  0  0  0  0  0  0  0  0  0  0  0
    3.7556   -0.8855    2.1510 N   0  0  0  0  0  0  0  0  0  0  0  0
    4.7443   -1.2006    1.1950 C   0  0  0  0  0  0  0  0  0  0  0  0
    6.0310   -1.2119    1.6032 N   0  0  0  0  0  0  0  0  0  0  0  0
    6.9855   -1.5438    0.7320 C   0  0  0  0  0  0  0  0  0  0  0  0
    6.8675   -1.8848   -0.5576 N   0  0  0  0  0  0  0  0  0  0  0  0
    5.6043   -1.8735   -0.9888 C   0  0  0  0  0  0  0  0  0  0  0  0
    5.2127   -2.1539   -2.2895 N   0  0  0  0  0  0  0  0  0  0  0  0
    3.8971   -1.9883   -2.2149 C   0  0  0  0  0  0  0  0  0  0  0  0
    3.4138   -1.6139   -1.0221 N   0  0  0  0  0  0  0  0  0  0  0  0
    4.5001   -1.5225   -0.1620 C   0  0  0  0  0  0  0  0  0  0  0  0
    4.0784   -0.3356    3.4752 C   0  0  0  0  0  0  0  0  0  0  0  0
    3.3442    1.0023    3.6881 C   0  0  0  0  0  0  0  0  0  0  0  0
    2.4197   -1.4328   -0.8301 H   0  0  0  0  0  0  0  0  0  0  0  0
   -0.5589    1.6689    1.6969 H   0  0  0  0  0  0  0  0  0  0  0  0
   -2.9396    2.8568    2.1874 H   0  0  0  0  0  0  0  0  0  0  0  0
   -2.9738    3.2528    4.9299 H   0  0  0  0  0  0  0  0  0  0  0  0
    0.5712    0.0893    1.9238 H   0  0  0  0  0  0  0  0  0  0  0  0
    1.9200    1.0504    1.2954 H   0  0  0  0  0  0  0  0  0  0  0  0
    1.9170   -1.7307    2.5951 H   0  0  0  0  0  0  0  0  0  0  0  0
    2.0868   -1.4040    0.9105 H   0  0  0  0  0  0  0  0  0  0  0  0
    7.9866   -1.5053    1.1211 H   0  0  0  0  0  0  0  0  0  0  0  0
    3.2488   -2.1498   -3.0579 H   0  0  0  0  0  0  0  0  0  0  0  0
    5.1481   -0.1815    3.6237 H   0  0  0  0  0  0  0  0  0  0  0  0
    3.7486   -1.0539    4.2274 H   0  0  0  0  0  0  0  0  0  0  0  0
    3.7459    1.7336    2.9952 H   0  0  0  0  0  0  0  0  0  0  0  0
    3.5492    1.3979    4.6873 H   0  0  0  0  0  0  0  0  0  0  0  0
  1  2  2  0
  2  3  1  0
  2  8  1  0
  3  7  1  0
  3  4  2  0
  4  5  1  0
  4 24  1  0
  5  6  2  0
  5 25  1  0
  6  7  1  0
  6 26  1  0
  8 22  1  0
  8  9  1  0
  9 10  1  0
  9 27  1  0
  9 28  1  0
 10 29  1  0
 10 30  1  0
 10 11  1  0
 11 12  1  0
 11 21  1  0
 12 13  2  0
 12 20  1  0
 13 14  1  0
 14 31  1  0
 14 15  2  0
 15 16  1  0
 16 17  1  0
 16 20  2  0
 17 18  2  0
 18 19  1  0
 18 32  1  0
 19 20  1  0
 19 23  1  0
 21 22  1  0
 21 33  1  0
 21 34  1  0
 22 35  1  0
 22 36  1  0
M  END
>  <i_m_ct_stereo_status>  (178) 
1

>  <s_m_source_file>  (178) 
/var/tmp/pbs.5076255.sched01/tmphf7gnms3/50i7j3xhgh.sdf

>  <i_m_source_file_index>  (178) 
27

>  <i_lp_mmshare_version>  (178) 
48012

>  <i_f3d_flags>  (178) 
0

>  <s_epik_input>  (178) 
bzFbY0hdW2NIXVtjSF1jMUMoPU8pTjJbQ0gyXVtDSDJdTihbQ0gyXVtDSDJdMiljKG5bY0hdbjMpYyhjMzQpbltjSF1bbkhdNA==

>  <s_epik_cmdline>  (178) 
J2VwaWtfcHl0aG9uJywgJy1waHQnLCAnMi4wJywgJy1waCcsICc3LjAnLCAnLXRuJywgJzgnLCAnLW1hJywgJzIwMCcsICctaW1hZScsICc8aW5maWxlLm1hZT4nLCAnLW9tYWUnLCAnPG91dGZpbGUubWFlPic=

>  <r_lp_tautomer_probability>  (178) 
0.0419193

>  <r_epik_Ionization_Penalty>  (178) 
0.00643567

>  <r_epik_Ionization_Penalty_Charging>  (178) 
0

>  <r_epik_Ionization_Penalty_Neutral>  (178) 
0.00643567

>  <r_epik_State_Penalty>  (178) 
1.99742

>  <r_epik_Charging_Adjusted_Penalty>  (178) 
1.99742

>  <i_epik_Tot_Q>  (178) 
0

>  <i_epik_Tot_abs_Q>  (178) 
0

>  <s_lp_Force_Field>  (178) 
OPLS3e

>  <r_lp_Energy>  (178) 
42.3512

>  <b_lp_Chiralities_Consistent>  (178) 
1

>  <s_lp_Variant>  (178) 
48:0-2

>  <s_i_glide_gridfile>  (178) 
pfpi4k_grid

>  <i_i_glide_lignum>  (178) 
27

>  <i_i_glide_rotatable_bonds>  (178) 
3

>  <r_i_docking_score>  (178) 
-3.95966

>  <r_i_glide_ligand_efficiency>  (178) 
-0.179985

>  <r_i_glide_ligand_efficiency_sa>  (178) 
-0.504324

>  <r_i_glide_ligand_efficiency_ln>  (178) 
-0.967886

>  <r_i_glide_gscore>  (178) 
-3.95966

>  <r_i_glide_lipo>  (178) 
-0.0830669

>  <r_i_glide_hbond>  (178) 
-0.32

>  <r_i_glide_metal>  (178) 
-0

>  <r_i_glide_rewards>  (178) 
-1.38277

>  <r_i_glide_evdw>  (178) 
-25.2165

>  <r_i_glide_ecoul>  (178) 
-8.90905

>  <r_i_glide_erotb>  (178) 
0.61862

>  <r_i_glide_esite>  (178) 
-0.195269

>  <r_i_glide_emodel>  (178) 
-39.5159

>  <r_i_glide_energy>  (178) 
-34.1255

>  <r_i_glide_einternal>  (178) 
7.01814

>  <r_i_glide_intrahb_reward>  (178) 
-0

>  <i_i_glide_confnum>  (178) 
1

>  <i_i_glide_posenum>  (178) 
27

>  <r_i_glide_eff_state_penalty>  (178) 
0

>  <ligand_id>  (178) 
48

>  <original_smiles>  (178) 
O=C(c1ccco1)N1CCN(c2ncnc3[nH]cnc23)CC1

>  <smiles>  (178) 
[H]c1nc(N2C([H])([H])C([H])([H])N(C(=O)c3oc([H])c([H])c3[H])C([H])([H])C2([H])[H])c2c(n1)nc([H])n2[H]

$$$$
48:1:2
     RDKit          3D

 36 39  0  0  1  0  0  0  0  0999 V2000
    1.2226    1.9122    5.8846 O   0  0  0  0  0  0  0  0  0  0  0  0
    1.0804    1.8733    4.6575 C   0  0  0  0  0  0  0  0  0  0  0  0
   -0.2578    2.2086    4.1002 C   0  0  0  0  0  0  0  0  0  0  0  0
   -0.8762    1.9747    2.8768 C   0  0  0  0  0  0  0  0  0  0  0  0
   -2.1633    2.5438    2.9242 C   0  0  0  0  0  0  0  0  0  0  0  0
   -2.3433    2.9855    4.2150 C   0  0  0  0  0  0  0  0  0  0  0  0
   -1.1788    2.8219    4.9180 O   0  0  0  0  0  0  0  0  0  0  0  0
    2.1263    1.5674    3.8285 N   0  0  0  0  0  0  0  0  0  0  0  0
    2.2264    1.7899    2.3733 C   0  0  0  0  0  0  0  0  0  0  0  0
    2.2937    0.3942    1.7031 C   0  0  0  0  0  0  0  0  0  0  0  0
    3.4463   -0.3539    2.2071 N   0  0  0  0  0  0  0  0  0  0  0  0
    4.5395   -0.6869    1.3868 C   0  0  0  0  0  0  0  0  0  0  0  0
    5.7776   -0.6907    1.9119 N   0  0  0  0  0  0  0  0  0  0  0  0
    6.7936   -1.0966    1.1482 C   0  0  0  0  0  0  0  0  0  0  0  0
    6.7934   -1.5214   -0.1178 N   0  0  0  0  0  0  0  0  0  0  0  0
    5.5821   -1.5124   -0.6607 C   0  0  0  0  0  0  0  0  0  0  0  0
    5.3069   -1.8991   -1.9524 N   0  0  0  0  0  0  0  0  0  0  0  0
    3.9711   -1.7284   -1.9921 C   0  0  0  0  0  0  0  0  0  0  0  0
    3.4081   -1.2748   -0.8817 N   0  0  0  0  0  0  0  0  0  0  0  0
    4.4063   -1.1010    0.0417 C   0  0  0  0  0  0  0  0  0  0  0  0
    3.5524   -0.4582    3.6685 C   0  0  0  0  0  0  0  0  0  0  0  0
    3.3539    0.9185    4.3526 C   0  0  0  0  0  0  0  0  0  0  0  0
    2.3903   -1.0824   -0.7604 H   0  0  0  0  0  0  0  0  0  0  0  0
   -0.4688    1.4788    2.0036 H   0  0  0  0  0  0  0  0  0  0  0  0
   -2.8988    2.5844    2.1206 H   0  0  0  0  0  0  0  0  0  0  0  0
   -3.1864    3.3863    4.7734 H   0  0  0  0  0  0  0  0  0  0  0  0
    1.4547    2.4189    1.9365 H   0  0  0  0  0  0  0  0  0  0  0  0
    3.1545    2.3411    2.1873 H   0  0  0  0  0  0  0  0  0  0  0  0
    1.4200   -0.2244    1.9211 H   0  0  0  0  0  0  0  0  0  0  0  0
    2.3178    0.5059    0.6250 H   0  0  0  0  0  0  0  0  0  0  0  0
    7.7706   -1.0616    1.6152 H   0  0  0  0  0  0  0  0  0  0  0  0
    3.4181   -1.9592   -2.8743 H   0  0  0  0  0  0  0  0  0  0  0  0
    4.4845   -0.9200    3.9965 H   0  0  0  0  0  0  0  0  0  0  0  0
    2.7509   -1.1256    3.9762 H   0  0  0  0  0  0  0  0  0  0  0  0
    4.2080    1.5716    4.1450 H   0  0  0  0  0  0  0  0  0  0  0  0
    3.3548    0.7695    5.4454 H   0  0  0  0  0  0  0  0  0  0  0  0
  1  2  2  0
  2  3  1  0
  2  8  1  0
  3  7  1  0
  3  4  2  0
  4  5  1  0
  4 24  1  0
  5  6  2  0
  5 25  1  0
  6  7  1  0
  6 26  1  0
  8 22  1  0
  8  9  1  0
  9 10  1  0
  9 27  1  0
  9 28  1  0
 10 29  1  0
 10 30  1  0
 10 11  1  0
 11 12  1  0
 11 21  1  0
 12 13  2  0
 12 20  1  0
 13 14  1  0
 14 31  1  0
 14 15  2  0
 15 16  1  0
 16 17  1  0
 16 20  2  0
 17 18  2  0
 18 19  1  0
 18 32  1  0
 19 20  1  0
 19 23  1  0
 21 22  1  0
 21 33  1  0
 21 34  1  0
 22 35  1  0
 22 36  1  0
M  END
>  <i_m_ct_stereo_status>  (179) 
1

>  <s_m_source_file>  (179) 
/var/tmp/pbs.5076255.sched01/tmphf7gnms3/50i7j3xhgh.sdf

>  <i_m_source_file_index>  (179) 
27

>  <i_lp_mmshare_version>  (179) 
48012

>  <i_f3d_flags>  (179) 
0

>  <s_epik_input>  (179) 
bzFbY0hdW2NIXVtjSF1jMUMoPU8pTjJbQ0gyXVtDSDJdTihbQ0gyXVtDSDJdMiljKG5bY0hdbjMpYyhjMzQpbltjSF1bbkhdNA==

>  <s_epik_cmdline>  (179) 
J2VwaWtfcHl0aG9uJywgJy1waHQnLCAnMi4wJywgJy1waCcsICc3LjAnLCAnLXRuJywgJzgnLCAnLW1hJywgJzIwMCcsICctaW1hZScsICc8aW5maWxlLm1hZT4nLCAnLW9tYWUnLCAnPG91dGZpbGUubWFlPic=

>  <r_lp_tautomer_probability>  (179) 
0.0419193

>  <r_epik_Ionization_Penalty>  (179) 
0.00643567

>  <r_epik_Ionization_Penalty_Charging>  (179) 
0

>  <r_epik_Ionization_Penalty_Neutral>  (179) 
0.00643567

>  <r_epik_State_Penalty>  (179) 
1.99742

>  <r_epik_Charging_Adjusted_Penalty>  (179) 
1.99742

>  <i_epik_Tot_Q>  (179) 
0

>  <i_epik_Tot_abs_Q>  (179) 
0

>  <s_lp_Force_Field>  (179) 
OPLS3e

>  <r_lp_Energy>  (179) 
42.3512

>  <b_lp_Chiralities_Consistent>  (179) 
1

>  <s_lp_Variant>  (179) 
48:0-2

>  <s_i_glide_gridfile>  (179) 
pfpi4k_grid

>  <i_i_glide_lignum>  (179) 
27

>  <i_i_glide_rotatable_bonds>  (179) 
3

>  <r_i_docking_score>  (179) 
-3.93415

>  <r_i_glide_ligand_efficiency>  (179) 
-0.178825

>  <r_i_glide_ligand_efficiency_sa>  (179) 
-0.501074

>  <r_i_glide_ligand_efficiency_ln>  (179) 
-0.961649

>  <r_i_glide_gscore>  (179) 
-3.93415

>  <r_i_glide_lipo>  (179) 
-0.155743

>  <r_i_glide_hbond>  (179) 
-0.270479

>  <r_i_glide_metal>  (179) 
-0

>  <r_i_glide_rewards>  (179) 
-1.37523

>  <r_i_glide_evdw>  (179) 
-21.6528

>  <r_i_glide_ecoul>  (179) 
-9.79346

>  <r_i_glide_erotb>  (179) 
0.61862

>  <r_i_glide_esite>  (179) 
-0.199658

>  <r_i_glide_emodel>  (179) 
-39.1921

>  <r_i_glide_energy>  (179) 
-31.4462

>  <r_i_glide_einternal>  (179) 
2.22213

>  <r_i_glide_intrahb_reward>  (179) 
-0

>  <i_i_glide_confnum>  (179) 
4

>  <i_i_glide_posenum>  (179) 
36

>  <r_i_glide_eff_state_penalty>  (179) 
0

>  <ligand_id>  (179) 
48

>  <original_smiles>  (179) 
O=C(c1ccco1)N1CCN(c2ncnc3[nH]cnc23)CC1

>  <smiles>  (179) 
[H]c1nc(N2C([H])([H])C([H])([H])N(C(=O)c3oc([H])c([H])c3[H])C([H])([H])C2([H])[H])c2c(n1)nc([H])n2[H]

$$$$
49:0:0
     RDKit          3D

 54 58  0  0  1  0  0  0  0  0999 V2000
    6.1588   -2.2025   -1.2585 C   0  0  0  0  0  0  0  0  0  0  0  0
    6.2470   -2.7607    0.1667 C   0  0  2  0  0  0  0  0  0  0  0  0
    6.6516   -4.1191    0.0936 O   0  0  0  0  0  0  0  0  0  0  0  0
    6.3220   -4.7307    1.3307 C   0  0  0  0  0  0  0  0  0  0  0  0
    4.9611   -4.1230    1.6836 C   0  0  1  0  0  0  0  0  0  0  0  0
    4.7222   -3.7794    3.1544 C   0  0  0  0  0  0  0  0  0  0  0  0
    3.9279   -2.4551    3.1607 C   0  0  2  0  0  0  0  0  0  0  0  0
    2.3802   -2.6447    3.1340 C   0  0  1  0  0  0  0  0  0  0  0  0
    1.7869   -3.4306    4.3296 C   0  0  0  0  0  0  0  0  0  0  0  0
    1.0036   -2.6114    5.3346 C   0  0  0  0  0  0  0  0  0  0  0  0
    0.7619   -1.2891    5.2580 C   0  0  0  0  0  0  0  0  0  0  0  0
    0.0575   -0.5779    6.4134 C   0  0  0  0  0  0  0  0  0  0  0  0
   -0.9856    0.4240    5.9323 C   0  0  0  0  0  0  0  0  0  0  0  0
   -2.0879    0.5126    6.4745 O   0  0  0  0  0  0  0  0  0  0  0  0
   -0.5651    1.3418    4.7937 C   0  0  0  0  0  0  0  0  0  0  0  0
    0.0627    0.5287    3.6466 C   0  0  0  0  0  0  0  0  0  0  0  0
    1.2205   -0.4305    4.0715 C   0  0  1  0  0  0  0  0  0  0  0  0
    2.4265    0.4085    4.5485 C   0  0  0  0  0  0  0  0  0  0  0  0
    1.5877   -1.3412    2.8421 C   0  0  1  0  0  0  0  0  0  0  0  0
    2.2241   -0.5715    1.7018 C   0  0  0  0  0  0  0  0  0  0  0  0
    3.4874   -0.7475    1.2839 C   0  0  0  0  0  0  0  0  0  0  0  0
    4.4993   -1.6886    1.9240 C   0  0  1  0  0  0  0  0  0  0  0  0
    5.6879   -0.8185    2.3768 C   0  0  0  0  0  0  0  0  0  0  0  0
    4.8936   -2.8151    0.9143 C   0  0  1  0  0  0  0  0  0  0  0  0
    5.8326   -1.1627   -1.2497 H   0  0  0  0  0  0  0  0  0  0  0  0
    5.4466   -2.7700   -1.8584 H   0  0  0  0  0  0  0  0  0  0  0  0
    7.1247   -2.2607   -1.7614 H   0  0  0  0  0  0  0  0  0  0  0  0
    7.0200   -2.2396    0.7302 H   0  0  0  0  0  0  0  0  0  0  0  0
    6.2819   -5.8154    1.2247 H   0  0  0  0  0  0  0  0  0  0  0  0
    7.0887   -4.4897    2.0688 H   0  0  0  0  0  0  0  0  0  0  0  0
    4.1712   -4.7780    1.3194 H   0  0  0  0  0  0  0  0  0  0  0  0
    4.2353   -4.6026    3.6751 H   0  0  0  0  0  0  0  0  0  0  0  0
    5.6738   -3.6137    3.6615 H   0  0  0  0  0  0  0  0  0  0  0  0
    4.1731   -1.9307    4.0805 H   0  0  0  0  0  0  0  0  0  0  0  0
    2.2086   -3.2834    2.2663 H   0  0  0  0  0  0  0  0  0  0  0  0
    1.1189   -4.2103    3.9622 H   0  0  0  0  0  0  0  0  0  0  0  0
    2.5722   -3.9288    4.8983 H   0  0  0  0  0  0  0  0  0  0  0  0
    0.6661   -3.1630    6.2003 H   0  0  0  0  0  0  0  0  0  0  0  0
   -0.4205   -1.3098    7.0649 H   0  0  0  0  0  0  0  0  0  0  0  0
    0.7908   -0.0415    7.0127 H   0  0  0  0  0  0  0  0  0  0  0  0
   -1.4241    1.9090    4.4379 H   0  0  0  0  0  0  0  0  0  0  0  0
    0.1463    2.0643    5.1864 H   0  0  0  0  0  0  0  0  0  0  0  0
   -0.7389   -0.0455    3.1821 H   0  0  0  0  0  0  0  0  0  0  0  0
    0.4085    1.2233    2.8795 H   0  0  0  0  0  0  0  0  0  0  0  0
    2.8528    1.0138    3.7490 H   0  0  0  0  0  0  0  0  0  0  0  0
    3.2143   -0.2277    4.9480 H   0  0  0  0  0  0  0  0  0  0  0  0
    2.1543    1.0900    5.3553 H   0  0  0  0  0  0  0  0  0  0  0  0
    0.6397   -1.6947    2.4388 H   0  0  0  0  0  0  0  0  0  0  0  0
    1.5834    0.1283    1.1863 H   0  0  0  0  0  0  0  0  0  0  0  0
    3.8470   -0.1751    0.4417 H   0  0  0  0  0  0  0  0  0  0  0  0
    6.4697   -1.4201    2.8320 H   0  0  0  0  0  0  0  0  0  0  0  0
    5.3734   -0.0782    3.1145 H   0  0  0  0  0  0  0  0  0  0  0  0
    6.1251   -0.2720    1.5412 H   0  0  0  0  0  0  0  0  0  0  0  0
    4.0994   -2.9364    0.1764 H   0  0  0  0  0  0  0  0  0  0  0  0
  1  2  1  0
  1 25  1  0
  1 26  1  0
  1 27  1  0
  2 24  1  0
  2  3  1  0
  2 28  1  1
  3  4  1  0
  4  5  1  0
  4 29  1  0
  4 30  1  0
  5 24  1  0
  5  6  1  0
  5 31  1  6
  6  7  1  0
  6 32  1  0
  6 33  1  0
  7 22  1  0
  7  8  1  0
  7 34  1  1
  8 19  1  0
  8  9  1  0
  8 35  1  6
  9 10  1  0
  9 36  1  0
  9 37  1  0
 10 11  2  0
 10 38  1  0
 11 17  1  0
 11 12  1  0
 12 13  1  0
 12 39  1  0
 12 40  1  0
 13 14  2  0
 13 15  1  0
 15 16  1  0
 15 41  1  0
 15 42  1  0
 16 17  1  0
 16 43  1  0
 16 44  1  0
 17 18  1  1
 17 19  1  0
 18 45  1  0
 18 46  1  0
 18 47  1  0
 19 20  1  0
 19 48  1  6
 20 21  2  0
 20 49  1  0
 21 22  1  0
 21 50  1  0
 22 23  1  1
 22 24  1  0
 23 51  1  0
 23 52  1  0
 23 53  1  0
 24 54  1  6
M  END
>  <i_m_ct_stereo_status>  (180) 
1

>  <s_m_source_file>  (180) 
/var/tmp/pbs.5076255.sched01/tmphf7gnms3/50i7j3xhgh.sdf

>  <i_m_source_file_index>  (180) 
28

>  <i_lp_mmshare_version>  (180) 
48012

>  <i_f3d_flags>  (180) 
0

>  <s_epik_input>  (180) 
W0NIM11bQ0BASF0xT1tDSDJdW0NAQEhdKFtDSDJdMilbQ0BIXTFbQ0BAXShbQ0gzXSkoW0NIXT1bQ0hdW0NAQEhdMzQpW0NASF0yW0NASF0zW0NIMl1bQ0hdPUMoW0NAQF00NVtDSDNdKVtDSDJdQyg9TylbQ0gyXVtDSDJdNQ==

>  <s_epik_cmdline>  (180) 
J2VwaWtfcHl0aG9uJywgJy1waHQnLCAnMi4wJywgJy1waCcsICc3LjAnLCAnLXRuJywgJzgnLCAnLW1hJywgJzIwMCcsICctaW1hZScsICc8aW5maWxlLm1hZT4nLCAnLW9tYWUnLCAnPG91dGZpbGUubWFlPic=

>  <r_lp_tautomer_probability>  (180) 
1

>  <r_epik_Ionization_Penalty>  (180) 
4.54643e-11

>  <r_epik_Ionization_Penalty_Charging>  (180) 
0

>  <r_epik_Ionization_Penalty_Neutral>  (180) 
4.54643e-11

>  <r_epik_State_Penalty>  (180) 
-0

>  <r_epik_Charging_Adjusted_Penalty>  (180) 
0

>  <i_epik_Tot_Q>  (180) 
0

>  <i_epik_Tot_abs_Q>  (180) 
0

>  <s_lp_Force_Field>  (180) 
OPLS3e

>  <r_lp_Energy>  (180) 
28.9496

>  <b_lp_Chiralities_Consistent>  (180) 
1

>  <s_lp_Variant>  (180) 
49:0-1

>  <s_i_glide_gridfile>  (180) 
pfpi4k_grid

>  <i_i_glide_lignum>  (180) 
28

>  <i_i_glide_rotatable_bonds>  (180) 
0

>  <r_i_docking_score>  (180) 
-3.36727

>  <r_i_glide_ligand_efficiency>  (180) 
-0.140303

>  <r_i_glide_ligand_efficiency_sa>  (180) 
-0.404703

>  <r_i_glide_ligand_efficiency_ln>  (180) 
-0.805941

>  <r_i_glide_gscore>  (180) 
-3.36727

>  <r_i_glide_lipo>  (180) 
-0.337511

>  <r_i_glide_hbond>  (180) 
-0.16

>  <r_i_glide_metal>  (180) 
-0

>  <r_i_glide_rewards>  (180) 
-1.18314

>  <r_i_glide_evdw>  (180) 
-22.3961

>  <r_i_glide_ecoul>  (180) 
-3.49697

>  <r_i_glide_erotb>  (180) 
0

>  <r_i_glide_esite>  (180) 
-0.0422609

>  <r_i_glide_emodel>  (180) 
-31.4682

>  <r_i_glide_energy>  (180) 
-25.8931

>  <r_i_glide_einternal>  (180) 
0

>  <r_i_glide_intrahb_reward>  (180) 
-0

>  <i_i_glide_confnum>  (180) 
2

>  <i_i_glide_posenum>  (180) 
33

>  <r_i_glide_eff_state_penalty>  (180) 
0

>  <ligand_id>  (180) 
49

>  <original_smiles>  (180) 
CC1OCC2CC3C4CC=C5CC(=O)CCC5(C)C4C=CC3(C)C21

>  <smiles>  (180) 
[H]C1=C2C([H])([H])C(=O)C([H])([H])C([H])([H])C2(C([H])([H])[H])C2([H])C([H])=C([H])C3(C([H])([H])[H])C([H])(C([H])([H])C4([H])C([H])([H])OC([H])(C([H])([H])[H])C43[H])C2([H])C1([H])[H]

$$$$
49:0:1
     RDKit          3D

 54 58  0  0  1  0  0  0  0  0999 V2000
    2.4631   -8.0230    4.1848 C   0  0  0  0  0  0  0  0  0  0  0  0
    3.5512   -6.9466    4.2877 C   0  0  2  0  0  0  0  0  0  0  0  0
    3.5904   -6.4626    5.6238 O   0  0  0  0  0  0  0  0  0  0  0  0
    4.2850   -5.2253    5.6099 C   0  0  0  0  0  0  0  0  0  0  0  0
    3.7697   -4.5450    4.3405 C   0  0  1  0  0  0  0  0  0  0  0  0
    4.7909   -3.7558    3.5218 C   0  0  0  0  0  0  0  0  0  0  0  0
    4.4424   -4.0162    2.0423 C   0  0  2  0  0  0  0  0  0  0  0  0
    3.4307   -2.9937    1.4471 C   0  0  1  0  0  0  0  0  0  0  0  0
    3.8976   -1.5159    1.4579 C   0  0  0  0  0  0  0  0  0  0  0  0
    4.2659   -0.9339    0.1114 C   0  0  0  0  0  0  0  0  0  0  0  0
    4.1936   -1.5714   -1.0683 C   0  0  0  0  0  0  0  0  0  0  0  0
    4.7042   -0.8957   -2.3314 C   0  0  0  0  0  0  0  0  0  0  0  0
    3.8013   -1.1002   -3.5356 C   0  0  0  0  0  0  0  0  0  0  0  0
    3.5696   -0.1954   -4.3366 O   0  0  0  0  0  0  0  0  0  0  0  0
    3.2948   -2.5089   -3.7582 C   0  0  0  0  0  0  0  0  0  0  0  0
    2.7048   -3.0573   -2.4517 C   0  0  0  0  0  0  0  0  0  0  0  0
    3.6622   -2.9994   -1.2134 C   0  0  1  0  0  0  0  0  0  0  0  0
    4.8895   -3.9130   -1.4475 C   0  0  0  0  0  0  0  0  0  0  0  0
    2.8552   -3.4149    0.0693 C   0  0  1  0  0  0  0  0  0  0  0  0
    2.4534   -4.8737    0.0811 C   0  0  0  0  0  0  0  0  0  0  0  0
    2.9051   -5.7768    0.9629 C   0  0  0  0  0  0  0  0  0  0  0  0
    3.9341   -5.4928    2.0489 C   0  0  1  0  0  0  0  0  0  0  0  0
    5.1278   -6.4360    1.7938 C   0  0  0  0  0  0  0  0  0  0  0  0
    3.2767   -5.6754    3.4533 C   0  0  1  0  0  0  0  0  0  0  0  0
    2.3871   -8.4140    3.1715 H   0  0  0  0  0  0  0  0  0  0  0  0
    1.4897   -7.6242    4.4706 H   0  0  0  0  0  0  0  0  0  0  0  0
    2.6785   -8.8592    4.8522 H   0  0  0  0  0  0  0  0  0  0  0  0
    4.5298   -7.3801    4.0852 H   0  0  0  0  0  0  0  0  0  0  0  0
    4.0637   -4.6525    6.5102 H   0  0  0  0  0  0  0  0  0  0  0  0
    5.3598   -5.4099    5.5739 H   0  0  0  0  0  0  0  0  0  0  0  0
    2.9203   -3.9113    4.5912 H   0  0  0  0  0  0  0  0  0  0  0  0
    4.7984   -2.7050    3.8086 H   0  0  0  0  0  0  0  0  0  0  0  0
    5.7954   -4.1373    3.7088 H   0  0  0  0  0  0  0  0  0  0  0  0
    5.3611   -3.9329    1.4675 H   0  0  0  0  0  0  0  0  0  0  0  0
    2.5817   -3.0220    2.1311 H   0  0  0  0  0  0  0  0  0  0  0  0
    3.1045   -0.8855    1.8621 H   0  0  0  0  0  0  0  0  0  0  0  0
    4.7719   -1.3829    2.0925 H   0  0  0  0  0  0  0  0  0  0  0  0
    4.6511    0.0787    0.1448 H   0  0  0  0  0  0  0  0  0  0  0  0
    4.8208    0.1689   -2.1677 H   0  0  0  0  0  0  0  0  0  0  0  0
    5.6771   -1.3127   -2.5720 H   0  0  0  0  0  0  0  0  0  0  0  0
    2.5444   -2.5133   -4.5450 H   0  0  0  0  0  0  0  0  0  0  0  0
    4.1261   -3.1185   -4.1063 H   0  0  0  0  0  0  0  0  0  0  0  0
    1.7976   -2.4893   -2.2519 H   0  0  0  0  0  0  0  0  0  0  0  0
    2.3544   -4.0666   -2.6334 H   0  0  0  0  0  0  0  0  0  0  0  0
    4.6169   -4.9662   -1.5041 H   0  0  0  0  0  0  0  0  0  0  0  0
    5.6234   -3.8004   -0.6503 H   0  0  0  0  0  0  0  0  0  0  0  0
    5.4099   -3.6709   -2.3760 H   0  0  0  0  0  0  0  0  0  0  0  0
    1.9164   -2.8695    0.0066 H   0  0  0  0  0  0  0  0  0  0  0  0
    1.7511   -5.1659   -0.6845 H   0  0  0  0  0  0  0  0  0  0  0  0
    2.5504   -6.7955    0.9115 H   0  0  0  0  0  0  0  0  0  0  0  0
    5.9095   -6.3124    2.5419 H   0  0  0  0  0  0  0  0  0  0  0  0
    5.5740   -6.2428    0.8181 H   0  0  0  0  0  0  0  0  0  0  0  0
    4.8183   -7.4814    1.7962 H   0  0  0  0  0  0  0  0  0  0  0  0
    2.1953   -5.5493    3.3717 H   0  0  0  0  0  0  0  0  0  0  0  0
  1  2  1  0
  1 25  1  0
  1 26  1  0
  1 27  1  0
  2 24  1  0
  2  3  1  0
  2 28  1  6
  3  4  1  0
  4  5  1  0
  4 29  1  0
  4 30  1  0
  5 24  1  0
  5  6  1  0
  5 31  1  1
  6  7  1  0
  6 32  1  0
  6 33  1  0
  7 22  1  0
  7  8  1  0
  7 34  1  6
  8 19  1  0
  8  9  1  0
  8 35  1  1
  9 10  1  0
  9 36  1  0
  9 37  1  0
 10 11  2  0
 10 38  1  0
 11 17  1  0
 11 12  1  0
 12 13  1  0
 12 39  1  0
 12 40  1  0
 13 14  2  0
 13 15  1  0
 15 16  1  0
 15 41  1  0
 15 42  1  0
 16 17  1  0
 16 43  1  0
 16 44  1  0
 17 18  1  6
 17 19  1  0
 18 45  1  0
 18 46  1  0
 18 47  1  0
 19 20  1  0
 19 48  1  6
 20 21  2  0
 20 49  1  0
 21 22  1  0
 21 50  1  0
 22 23  1  6
 22 24  1  0
 23 51  1  0
 23 52  1  0
 23 53  1  0
 24 54  1  6
M  END
>  <i_m_ct_stereo_status>  (181) 
1

>  <s_m_source_file>  (181) 
/var/tmp/pbs.5076255.sched01/tmphf7gnms3/50i7j3xhgh.sdf

>  <i_m_source_file_index>  (181) 
28

>  <i_lp_mmshare_version>  (181) 
48012

>  <i_f3d_flags>  (181) 
0

>  <s_epik_input>  (181) 
W0NIM11bQ0BASF0xT1tDSDJdW0NAQEhdKFtDSDJdMilbQ0BIXTFbQ0BAXShbQ0gzXSkoW0NIXT1bQ0hdW0NAQEhdMzQpW0NASF0yW0NASF0zW0NIMl1bQ0hdPUMoW0NAQF00NVtDSDNdKVtDSDJdQyg9TylbQ0gyXVtDSDJdNQ==

>  <s_epik_cmdline>  (181) 
J2VwaWtfcHl0aG9uJywgJy1waHQnLCAnMi4wJywgJy1waCcsICc3LjAnLCAnLXRuJywgJzgnLCAnLW1hJywgJzIwMCcsICctaW1hZScsICc8aW5maWxlLm1hZT4nLCAnLW9tYWUnLCAnPG91dGZpbGUubWFlPic=

>  <r_lp_tautomer_probability>  (181) 
1

>  <r_epik_Ionization_Penalty>  (181) 
4.54643e-11

>  <r_epik_Ionization_Penalty_Charging>  (181) 
0

>  <r_epik_Ionization_Penalty_Neutral>  (181) 
4.54643e-11

>  <r_epik_State_Penalty>  (181) 
-0

>  <r_epik_Charging_Adjusted_Penalty>  (181) 
0

>  <i_epik_Tot_Q>  (181) 
0

>  <i_epik_Tot_abs_Q>  (181) 
0

>  <s_lp_Force_Field>  (181) 
OPLS3e

>  <r_lp_Energy>  (181) 
28.9496

>  <b_lp_Chiralities_Consistent>  (181) 
1

>  <s_lp_Variant>  (181) 
49:0-1

>  <s_i_glide_gridfile>  (181) 
pfpi4k_grid

>  <i_i_glide_lignum>  (181) 
28

>  <i_i_glide_rotatable_bonds>  (181) 
0

>  <r_i_docking_score>  (181) 
-3.18031

>  <r_i_glide_ligand_efficiency>  (181) 
-0.132513

>  <r_i_glide_ligand_efficiency_sa>  (181) 
-0.382233

>  <r_i_glide_ligand_efficiency_ln>  (181) 
-0.761193

>  <r_i_glide_gscore>  (181) 
-3.18031

>  <r_i_glide_lipo>  (181) 
-0.267798

>  <r_i_glide_hbond>  (181) 
0

>  <r_i_glide_metal>  (181) 
-0

>  <r_i_glide_rewards>  (181) 
-1.47496

>  <r_i_glide_evdw>  (181) 
-26.8571

>  <r_i_glide_ecoul>  (181) 
-0.631327

>  <r_i_glide_erotb>  (181) 
0

>  <r_i_glide_esite>  (181) 
0

>  <r_i_glide_emodel>  (181) 
-32.6499

>  <r_i_glide_energy>  (181) 
-27.4884

>  <r_i_glide_einternal>  (181) 
0

>  <r_i_glide_intrahb_reward>  (181) 
-0

>  <i_i_glide_confnum>  (181) 
2

>  <i_i_glide_posenum>  (181) 
13

>  <r_i_glide_eff_state_penalty>  (181) 
0

>  <ligand_id>  (181) 
49

>  <original_smiles>  (181) 
CC1OCC2CC3C4CC=C5CC(=O)CCC5(C)C4C=CC3(C)C21

>  <smiles>  (181) 
[H]C1=C2C([H])([H])C(=O)C([H])([H])C([H])([H])C2(C([H])([H])[H])C2([H])C([H])=C([H])C3(C([H])([H])[H])C([H])(C([H])([H])C4([H])C([H])([H])OC([H])(C([H])([H])[H])C43[H])C2([H])C1([H])[H]

$$$$
49:0:2
     RDKit          3D

 54 58  0  0  1  0  0  0  0  0999 V2000
   -2.9307    2.9876    3.8465 C   0  0  0  0  0  0  0  0  0  0  0  0
   -1.9883    2.4140    4.9061 C   0  0  2  0  0  0  0  0  0  0  0  0
   -1.9294    3.3035    6.0123 O   0  0  0  0  0  0  0  0  0  0  0  0
   -0.7764    2.9501    6.7623 C   0  0  0  0  0  0  0  0  0  0  0  0
    0.2701    2.6427    5.6851 C   0  0  1  0  0  0  0  0  0  0  0  0
    1.2029    1.4631    5.9636 C   0  0  0  0  0  0  0  0  0  0  0  0
    1.3973    0.7516    4.6098 C   0  0  2  0  0  0  0  0  0  0  0  0
    2.5968    1.2926    3.7803 C   0  0  1  0  0  0  0  0  0  0  0  0
    3.9789    1.1578    4.4664 C   0  0  0  0  0  0  0  0  0  0  0  0
    4.9062    0.1144    3.8789 C   0  0  0  0  0  0  0  0  0  0  0  0
    4.6363   -0.6800    2.8269 C   0  0  0  0  0  0  0  0  0  0  0  0
    5.6270   -1.7650    2.4121 C   0  0  0  0  0  0  0  0  0  0  0  0
    5.8251   -1.8388    0.9043 C   0  0  0  0  0  0  0  0  0  0  0  0
    6.9384   -1.9201    0.3907 O   0  0  0  0  0  0  0  0  0  0  0  0
    4.5599   -1.8256    0.0679 C   0  0  0  0  0  0  0  0  0  0  0  0
    3.6769   -0.6450    0.4971 C   0  0  0  0  0  0  0  0  0  0  0  0
    3.3377   -0.5714    2.0198 C   0  0  1  0  0  0  0  0  0  0  0  0
    2.4583   -1.7777    2.4016 C   0  0  0  0  0  0  0  0  0  0  0  0
    2.6184    0.8006    2.3076 C   0  0  1  0  0  0  0  0  0  0  0  0
    1.2371    0.8934    1.6927 C   0  0  0  0  0  0  0  0  0  0  0  0
    0.1008    0.9723    2.3977 C   0  0  0  0  0  0  0  0  0  0  0  0
    0.0099    0.9225    3.9163 C   0  0  1  0  0  0  0  0  0  0  0  0
   -0.8739   -0.2845    4.2868 C   0  0  0  0  0  0  0  0  0  0  0  0
   -0.5245    2.2863    4.4458 C   0  0  1  0  0  0  0  0  0  0  0  0
   -2.9817    2.3522    2.9652 H   0  0  0  0  0  0  0  0  0  0  0  0
   -2.5993    3.9772    3.5293 H   0  0  0  0  0  0  0  0  0  0  0  0
   -3.9381    3.0815    4.2530 H   0  0  0  0  0  0  0  0  0  0  0  0
   -2.3787    1.4751    5.2983 H   0  0  0  0  0  0  0  0  0  0  0  0
   -0.4737    3.7678    7.4182 H   0  0  0  0  0  0  0  0  0  0  0  0
   -1.0020    2.0807    7.3845 H   0  0  0  0  0  0  0  0  0  0  0  0
    0.8425    3.5418    5.4698 H   0  0  0  0  0  0  0  0  0  0  0  0
    2.1242    1.7971    6.4385 H   0  0  0  0  0  0  0  0  0  0  0  0
    0.7330    0.7613    6.6527 H   0  0  0  0  0  0  0  0  0  0  0  0
    1.5997   -0.2975    4.8132 H   0  0  0  0  0  0  0  0  0  0  0  0
    2.4145    2.3668    3.7132 H   0  0  0  0  0  0  0  0  0  0  0  0
    4.4996    2.1138    4.4073 H   0  0  0  0  0  0  0  0  0  0  0  0
    3.8741    0.9138    5.5226 H   0  0  0  0  0  0  0  0  0  0  0  0
    5.8439    0.0024    4.4015 H   0  0  0  0  0  0  0  0  0  0  0  0
    6.5922   -1.5491    2.8710 H   0  0  0  0  0  0  0  0  0  0  0  0
    5.2891   -2.7339    2.7717 H   0  0  0  0  0  0  0  0  0  0  0  0
    4.8193   -1.7433   -0.9885 H   0  0  0  0  0  0  0  0  0  0  0  0
    4.0413   -2.7724    0.1974 H   0  0  0  0  0  0  0  0  0  0  0  0
    4.1960    0.2664    0.1936 H   0  0  0  0  0  0  0  0  0  0  0  0
    2.7561   -0.6795   -0.0799 H   0  0  0  0  0  0  0  0  0  0  0  0
    1.4890   -1.7520    1.9053 H   0  0  0  0  0  0  0  0  0  0  0  0
    2.2973   -1.8153    3.4766 H   0  0  0  0  0  0  0  0  0  0  0  0
    2.9354   -2.7217    2.1354 H   0  0  0  0  0  0  0  0  0  0  0  0
    3.1989    1.5581    1.7835 H   0  0  0  0  0  0  0  0  0  0  0  0
    1.1945    0.9292    0.6158 H   0  0  0  0  0  0  0  0  0  0  0  0
   -0.8373    1.0688    1.8707 H   0  0  0  0  0  0  0  0  0  0  0  0
   -1.0098   -0.3818    5.3625 H   0  0  0  0  0  0  0  0  0  0  0  0
   -0.4288   -1.2122    3.9244 H   0  0  0  0  0  0  0  0  0  0  0  0
   -1.8537   -0.2028    3.8213 H   0  0  0  0  0  0  0  0  0  0  0  0
   -0.3289    3.0680    3.7115 H   0  0  0  0  0  0  0  0  0  0  0  0
  1  2  1  0
  1 25  1  0
  1 26  1  0
  1 27  1  0
  2 24  1  0
  2  3  1  0
  2 28  1  1
  3  4  1  0
  4  5  1  0
  4 29  1  0
  4 30  1  0
  5 24  1  0
  5  6  1  0
  5 31  1  6
  6  7  1  0
  6 32  1  0
  6 33  1  0
  7 22  1  0
  7  8  1  0
  7 34  1  1
  8 19  1  0
  8  9  1  0
  8 35  1  6
  9 10  1  0
  9 36  1  0
  9 37  1  0
 10 11  2  0
 10 38  1  0
 11 17  1  0
 11 12  1  0
 12 13  1  0
 12 39  1  0
 12 40  1  0
 13 14  2  0
 13 15  1  0
 15 16  1  0
 15 41  1  0
 15 42  1  0
 16 17  1  0
 16 43  1  0
 16 44  1  0
 17 18  1  1
 17 19  1  0
 18 45  1  0
 18 46  1  0
 18 47  1  0
 19 20  1  0
 19 48  1  6
 20 21  2  0
 20 49  1  0
 21 22  1  0
 21 50  1  0
 22 23  1  6
 22 24  1  0
 23 51  1  0
 23 52  1  0
 23 53  1  0
 24 54  1  6
M  END
>  <i_m_ct_stereo_status>  (182) 
1

>  <s_m_source_file>  (182) 
/var/tmp/pbs.5076255.sched01/tmphf7gnms3/50i7j3xhgh.sdf

>  <i_m_source_file_index>  (182) 
28

>  <i_lp_mmshare_version>  (182) 
48012

>  <i_f3d_flags>  (182) 
0

>  <s_epik_input>  (182) 
W0NIM11bQ0BASF0xT1tDSDJdW0NAQEhdKFtDSDJdMilbQ0BIXTFbQ0BAXShbQ0gzXSkoW0NIXT1bQ0hdW0NAQEhdMzQpW0NASF0yW0NASF0zW0NIMl1bQ0hdPUMoW0NAQF00NVtDSDNdKVtDSDJdQyg9TylbQ0gyXVtDSDJdNQ==

>  <s_epik_cmdline>  (182) 
J2VwaWtfcHl0aG9uJywgJy1waHQnLCAnMi4wJywgJy1waCcsICc3LjAnLCAnLXRuJywgJzgnLCAnLW1hJywgJzIwMCcsICctaW1hZScsICc8aW5maWxlLm1hZT4nLCAnLW9tYWUnLCAnPG91dGZpbGUubWFlPic=

>  <r_lp_tautomer_probability>  (182) 
1

>  <r_epik_Ionization_Penalty>  (182) 
4.54643e-11

>  <r_epik_Ionization_Penalty_Charging>  (182) 
0

>  <r_epik_Ionization_Penalty_Neutral>  (182) 
4.54643e-11

>  <r_epik_State_Penalty>  (182) 
-0

>  <r_epik_Charging_Adjusted_Penalty>  (182) 
0

>  <i_epik_Tot_Q>  (182) 
0

>  <i_epik_Tot_abs_Q>  (182) 
0

>  <s_lp_Force_Field>  (182) 
OPLS3e

>  <r_lp_Energy>  (182) 
28.9496

>  <b_lp_Chiralities_Consistent>  (182) 
1

>  <s_lp_Variant>  (182) 
49:0-1

>  <s_i_glide_gridfile>  (182) 
pfpi4k_grid

>  <i_i_glide_lignum>  (182) 
28

>  <i_i_glide_rotatable_bonds>  (182) 
0

>  <r_i_docking_score>  (182) 
-3.12371

>  <r_i_glide_ligand_efficiency>  (182) 
-0.130155

>  <r_i_glide_ligand_efficiency_sa>  (182) 
-0.375431

>  <r_i_glide_ligand_efficiency_ln>  (182) 
-0.747647

>  <r_i_glide_gscore>  (182) 
-3.12371

>  <r_i_glide_lipo>  (182) 
-0.260695

>  <r_i_glide_hbond>  (182) 
0

>  <r_i_glide_metal>  (182) 
-0

>  <r_i_glide_rewards>  (182) 
-1.33216

>  <r_i_glide_evdw>  (182) 
-24.4454

>  <r_i_glide_ecoul>  (182) 
-2.05722

>  <r_i_glide_erotb>  (182) 
0

>  <r_i_glide_esite>  (182) 
0

>  <r_i_glide_emodel>  (182) 
-31.6491

>  <r_i_glide_energy>  (182) 
-26.5026

>  <r_i_glide_einternal>  (182) 
0

>  <r_i_glide_intrahb_reward>  (182) 
-0

>  <i_i_glide_confnum>  (182) 
1

>  <i_i_glide_posenum>  (182) 
1

>  <r_i_glide_eff_state_penalty>  (182) 
0

>  <ligand_id>  (182) 
49

>  <original_smiles>  (182) 
CC1OCC2CC3C4CC=C5CC(=O)CCC5(C)C4C=CC3(C)C21

>  <smiles>  (182) 
[H]C1=C2C([H])([H])C(=O)C([H])([H])C([H])([H])C2(C([H])([H])[H])C2([H])C([H])=C([H])C3(C([H])([H])[H])C([H])(C([H])([H])C4([H])C([H])([H])OC([H])(C([H])([H])[H])C43[H])C2([H])C1([H])[H]

$$$$
50:0:0
     RDKit          3D

 79 84  0  0  1  0  0  0  0  0999 V2000
   -1.7519   -1.1951    5.6567 C   0  0  0  0  0  0  0  0  0  0  0  0
   -1.7000    0.2291    5.1158 C   0  0  0  0  0  0  0  0  0  0  0  0
   -0.6819    1.1134    5.0561 C   0  0  0  0  0  0  0  0  0  0  0  0
    0.6445    0.6623    5.5816 C   0  0  0  0  0  0  0  0  0  0  0  0
    0.7551    0.2992    6.7562 O   0  0  0  0  0  0  0  0  0  0  0  0
    1.9445    0.6534    4.7119 C   0  0  2  0  0  0  0  0  0  0  0  0
    2.9225    1.6885    5.4145 C   0  0  0  0  0  0  0  0  0  0  0  0
    2.3507    2.9832    5.9756 C   0  0  2  0  0  0  0  0  0  0  0  0
    1.2729    3.7448    5.2861 C   0  0  2  0  0  0  0  0  0  0  0  0
    0.4786    3.2471    4.0786 C   0  0  2  0  0  0  0  0  0  0  0  0
   -0.8612    2.5652    4.5235 C   0  0  1  0  0  0  0  0  0  0  0  0
   -2.0081    2.7256    3.4569 C   0  0  0  0  0  0  0  0  0  0  0  0
   -2.2640    4.1601    2.9592 C   0  0  0  0  0  0  0  0  0  0  0  0
   -3.3704    4.6546    2.3687 C   0  0  0  0  0  0  0  0  0  0  0  0
   -4.6187    3.8540    2.0709 C   0  0  0  0  0  0  0  0  0  0  0  0
   -3.4060    6.0965    1.8930 C   0  0  0  0  0  0  0  0  0  0  0  0
    1.1382    2.4322    2.9273 C   0  0  1  0  0  0  0  0  0  0  0  0
    1.8917    3.2750    2.1025 O   0  0  0  0  0  0  0  0  0  0  0  0
    1.7145    0.9953    3.1740 C   0  0  2  0  0  0  0  0  0  0  0  0
    0.7298    0.0194    2.4480 C   0  0  0  0  0  0  0  0  0  0  0  0
    3.0531    0.8315    2.3981 C   0  0  0  0  0  0  0  0  0  0  0  0
    3.6648   -0.5712    2.4521 C   0  0  0  0  0  0  0  0  0  0  0  0
    3.8485   -1.1188    3.8811 C   0  0  2  0  0  0  0  0  0  0  0  0
    5.2051   -0.6661    4.4522 C   0  0  0  0  0  0  0  0  0  0  0  0
    3.7729   -2.6333    3.8200 C   0  0  0  0  0  0  0  0  0  0  0  0
    4.6917   -3.5916    3.2328 C   0  0  0  0  0  0  0  0  0  0  0  0
    4.3997   -4.9080    3.2475 C   0  0  0  0  0  0  0  0  0  0  0  0
    3.1437   -5.4098    3.8586 C   0  0  0  0  0  0  0  0  0  0  0  0
    2.8170   -6.5885    3.8829 O   0  0  0  0  0  0  0  0  0  0  0  0
    2.3499   -4.4599    4.3978 N   0  0  0  0  0  0  0  0  0  0  0  0
    2.6611   -3.0980    4.3743 C   0  0  0  0  0  0  0  0  0  0  0  0
    1.7573   -2.0578    4.9503 C   0  0  0  0  0  0  0  0  0  0  0  0
    2.6418   -0.7695    4.8469 C   0  0  2  0  0  0  0  0  0  0  0  0
    2.6438    4.3780    5.3939 C   0  0  0  0  0  0  0  0  0  0  0  0
    2.8070    5.5437    6.3539 C   0  0  0  0  0  0  0  0  0  0  0  0
    3.6016    4.5784    4.2411 C   0  0  0  0  0  0  0  0  0  0  0  0
    1.4760   -4.7304    4.8321 H   0  0  0  0  0  0  0  0  0  0  0  0
   -2.0868   -1.8638    4.8762 H   0  0  0  0  0  0  0  0  0  0  0  0
   -2.5139   -1.2460    6.4251 H   0  0  0  0  0  0  0  0  0  0  0  0
   -0.8145   -1.5741    6.0588 H   0  0  0  0  0  0  0  0  0  0  0  0
   -2.6338    0.5307    4.7214 H   0  0  0  0  0  0  0  0  0  0  0  0
    3.3662    1.2242    6.2947 H   0  0  0  0  0  0  0  0  0  0  0  0
    3.7808    1.9326    4.8059 H   0  0  0  0  0  0  0  0  0  0  0  0
    2.2520    2.9611    7.0594 H   0  0  0  0  0  0  0  0  0  0  0  0
    0.5840    4.2510    5.9554 H   0  0  0  0  0  0  0  0  0  0  0  0
    0.2818    4.2054    3.6118 H   0  0  0  0  0  0  0  0  0  0  0  0
   -1.2406    3.1104    5.3884 H   0  0  0  0  0  0  0  0  0  0  0  0
   -1.8053    2.0968    2.5919 H   0  0  0  0  0  0  0  0  0  0  0  0
   -2.9508    2.3758    3.8623 H   0  0  0  0  0  0  0  0  0  0  0  0
   -1.4712    4.8789    3.0611 H   0  0  0  0  0  0  0  0  0  0  0  0
   -5.5027    4.3830    2.4331 H   0  0  0  0  0  0  0  0  0  0  0  0
   -4.5719    2.8701    2.5253 H   0  0  0  0  0  0  0  0  0  0  0  0
   -4.7149    3.7093    0.9963 H   0  0  0  0  0  0  0  0  0  0  0  0
   -4.2033    6.6477    2.3921 H   0  0  0  0  0  0  0  0  0  0  0  0
   -3.5854    6.1403    0.8208 H   0  0  0  0  0  0  0  0  0  0  0  0
   -2.4488    6.6012    2.0567 H   0  0  0  0  0  0  0  0  0  0  0  0
    0.3270    2.3012    2.2110 H   0  0  0  0  0  0  0  0  0  0  0  0
    1.2442    3.7571    1.5533 H   0  0  0  0  0  0  0  0  0  0  0  0
    0.6951    0.2352    1.3763 H   0  0  0  0  0  0  0  0  0  0  0  0
   -0.2964    0.0799    2.7950 H   0  0  0  0  0  0  0  0  0  0  0  0
    1.0286   -1.0204    2.5232 H   0  0  0  0  0  0  0  0  0  0  0  0
    2.9186    1.0993    1.3472 H   0  0  0  0  0  0  0  0  0  0  0  0
    3.7905    1.5253    2.7822 H   0  0  0  0  0  0  0  0  0  0  0  0
    3.0521   -1.2496    1.8594 H   0  0  0  0  0  0  0  0  0  0  0  0
    4.6247   -0.5563    1.9342 H   0  0  0  0  0  0  0  0  0  0  0  0
    5.3055    0.4147    4.4738 H   0  0  0  0  0  0  0  0  0  0  0  0
    6.0123   -1.0270    3.8192 H   0  0  0  0  0  0  0  0  0  0  0  0
    5.3749   -1.0401    5.4617 H   0  0  0  0  0  0  0  0  0  0  0  0
    5.6190   -3.2489    2.7968 H   0  0  0  0  0  0  0  0  0  0  0  0
    5.0867   -5.6254    2.8194 H   0  0  0  0  0  0  0  0  0  0  0  0
    0.8340   -2.0184    4.3757 H   0  0  0  0  0  0  0  0  0  0  0  0
    1.5069   -2.2970    5.9865 H   0  0  0  0  0  0  0  0  0  0  0  0
    3.0941   -0.7792    5.8376 H   0  0  0  0  0  0  0  0  0  0  0  0
    2.5541    6.4844    5.8654 H   0  0  0  0  0  0  0  0  0  0  0  0
    3.8340    5.6065    6.7142 H   0  0  0  0  0  0  0  0  0  0  0  0
    2.1576    5.4290    7.2223 H   0  0  0  0  0  0  0  0  0  0  0  0
    3.2557    5.3831    3.5930 H   0  0  0  0  0  0  0  0  0  0  0  0
    3.7044    3.6799    3.6517 H   0  0  0  0  0  0  0  0  0  0  0  0
    4.5906    4.8283    4.6265 H   0  0  0  0  0  0  0  0  0  0  0  0
  1  2  1  0
  1 38  1  0
  1 39  1  0
  1 40  1  0
  2  3  2  3
  2 41  1  0
  3 11  1  0
  3  4  1  0
  4  5  2  0
  4  6  1  0
  6 19  1  0
  6 33  1  0
  6  7  1  1
  7  8  1  0
  7 42  1  0
  7 43  1  0
  8 34  1  0
  8  9  1  0
  8 44  1  1
  9 10  1  0
  9 34  1  0
  9 45  1  1
 10 11  1  0
 10 17  1  0
 10 46  1  6
 11 12  1  0
 11 47  1  1
 12 13  1  0
 12 48  1  0
 12 49  1  0
 13 14  2  3
 13 50  1  0
 14 15  1  0
 14 16  1  0
 15 51  1  0
 15 52  1  0
 15 53  1  0
 16 54  1  0
 16 55  1  0
 16 56  1  0
 17 18  1  0
 17 19  1  0
 17 57  1  6
 18 58  1  0
 19 20  1  6
 19 21  1  0
 20 59  1  0
 20 60  1  0
 20 61  1  0
 21 22  1  0
 21 62  1  0
 21 63  1  0
 22 23  1  0
 22 64  1  0
 22 65  1  0
 23 33  1  0
 23 24  1  1
 23 25  1  0
 24 66  1  0
 24 67  1  0
 24 68  1  0
 25 31  2  0
 25 26  1  0
 26 27  2  0
 26 69  1  0
 27 28  1  0
 27 70  1  0
 28 29  2  0
 28 30  1  0
 30 37  1  0
 30 31  1  0
 31 32  1  0
 32 33  1  0
 32 71  1  0
 32 72  1  0
 33 73  1  1
 34 35  1  0
 34 36  1  0
 35 74  1  0
 35 75  1  0
 35 76  1  0
 36 77  1  0
 36 78  1  0
 36 79  1  0
M  END
>  <i_m_ct_stereo_status>  (183) 
1

>  <s_m_source_file>  (183) 
/var/tmp/pbs.5076255.sched01/tmphf7gnms3/50i7j3xhgh.sdf

>  <i_m_source_file_index>  (183) 
29

>  <i_lp_mmshare_version>  (183) 
48012

>  <i_f3d_flags>  (183) 
0

>  <s_epik_input>  (183) 
W0NIM11DKFtDSDNdKT1bQ0hdW0NIMl1bQ0BASF0oQygvQzE9Tyk9W0NIXVxbQ0gzXSlbQ0BASF0oW0NASF0yW0NAQEhdKFtDSDJdMylDMihbQ0gzXSlbQ0gzXSlbQ0BASF0oW09IXSlbQ0BAXShbQ0BdMTM0KShbQ0gzXSlbQ0gyXVtDSDJdW0NAXTUoW0NIM10pYzZjKFtDSDJdW0NASF00NSlbbkhdYyg9TylbY0hdW2NIXTY=

>  <s_epik_cmdline>  (183) 
J2VwaWtfcHl0aG9uJywgJy1waHQnLCAnMi4wJywgJy1waCcsICc3LjAnLCAnLXRuJywgJzgnLCAnLW1hJywgJzIwMCcsICctaW1hZScsICc8aW5maWxlLm1hZT4nLCAnLW9tYWUnLCAnPG91dGZpbGUubWFlPic=

>  <r_lp_tautomer_probability>  (183) 
1

>  <r_epik_Ionization_Penalty>  (183) 
6.46008e-06

>  <r_epik_Ionization_Penalty_Charging>  (183) 
6.25028e-06

>  <r_epik_Ionization_Penalty_Neutral>  (183) 
2.09799e-07

>  <r_epik_State_Penalty>  (183) 
-0

>  <r_epik_Charging_Adjusted_Penalty>  (183) 
6.25028e-06

>  <i_epik_Tot_Q>  (183) 
0

>  <i_epik_Tot_abs_Q>  (183) 
0

>  <s_lp_Force_Field>  (183) 
OPLS3e

>  <r_lp_Energy>  (183) 
87.2272

>  <b_lp_Chiralities_Consistent>  (183) 
1

>  <s_lp_Variant>  (183) 
50:0-1

>  <s_i_glide_gridfile>  (183) 
pfpi4k_grid

>  <i_i_glide_lignum>  (183) 
29

>  <i_i_glide_rotatable_bonds>  (183) 
3

>  <r_i_docking_score>  (183) 
-2.40255

>  <r_i_glide_ligand_efficiency>  (183) 
-0.0667375

>  <r_i_glide_ligand_efficiency_sa>  (183) 
-0.220362

>  <r_i_glide_ligand_efficiency_ln>  (183) 
-0.524171

>  <r_i_glide_gscore>  (183) 
-2.40255

>  <r_i_glide_lipo>  (183) 
-0.417264

>  <r_i_glide_hbond>  (183) 
-0.14743

>  <r_i_glide_metal>  (183) 
-0

>  <r_i_glide_rewards>  (183) 
-0.0703042

>  <r_i_glide_evdw>  (183) 
-18.0411

>  <r_i_glide_ecoul>  (183) 
-6.87577

>  <r_i_glide_erotb>  (183) 
0.169689

>  <r_i_glide_esite>  (183) 
-0.00381669

>  <r_i_glide_emodel>  (183) 
-27.559

>  <r_i_glide_energy>  (183) 
-24.9169

>  <r_i_glide_einternal>  (183) 
2.46688

>  <r_i_glide_intrahb_reward>  (183) 
-0

>  <i_i_glide_confnum>  (183) 
4

>  <i_i_glide_posenum>  (183) 
23

>  <r_i_glide_eff_state_penalty>  (183) 
0

>  <ligand_id>  (183) 
50

>  <original_smiles>  (183) 
CC=C1C(=O)C23CC4C(C(C1CC=C(C)C)C(O)C2(C)CCC1(C)c2ccc(=O)[nH]c2CC13)C4(C)C

>  <smiles>  (183) 
[H]OC1([H])C2([H])C([H])(C([H])([H])C([H])=C(C([H])([H])[H])C([H])([H])[H])C(=C([H])C([H])([H])[H])C(=O)C3(C([H])([H])C4([H])C2([H])C4(C([H])([H])[H])C([H])([H])[H])C2([H])C([H])([H])c4c(c([H])c([H])c(=O)n4[H])C2(C([H])([H])[H])C([H])([H])C([H])([H])C13C([H])([H])[H]

$$$$
50:0:1
     RDKit          3D

 79 84  0  0  1  0  0  0  0  0999 V2000
   -2.0686   -0.4289    5.4779 C   0  0  0  0  0  0  0  0  0  0  0  0
   -1.9274    0.9615    4.8814 C   0  0  0  0  0  0  0  0  0  0  0  0
   -0.9193    1.8600    4.9770 C   0  0  0  0  0  0  0  0  0  0  0  0
    0.2662    1.4828    5.8006 C   0  0  0  0  0  0  0  0  0  0  0  0
    0.1162    1.2007    6.9930 O   0  0  0  0  0  0  0  0  0  0  0  0
    1.7271    1.4629    5.2426 C   0  0  2  0  0  0  0  0  0  0  0  0
    2.5080    2.5728    6.0646 C   0  0  0  0  0  0  0  0  0  0  0  0
    1.8047    3.8906    6.3946 C   0  0  2  0  0  0  0  0  0  0  0  0
    0.8896    4.5845    5.4309 C   0  0  2  0  0  0  0  0  0  0  0  0
    0.3848    3.9726    4.1189 C   0  0  2  0  0  0  0  0  0  0  0  0
   -1.0005    3.2704    4.3224 C   0  0  1  0  0  0  0  0  0  0  0  0
   -1.8766    3.3244    3.0203 C   0  0  0  0  0  0  0  0  0  0  0  0
   -2.2082    4.7272    2.5009 C   0  0  0  0  0  0  0  0  0  0  0  0
   -3.4102    5.2014    2.1043 C   0  0  0  0  0  0  0  0  0  0  0  0
   -4.7134    4.4092    2.0755 C   0  0  0  0  0  0  0  0  0  0  0  0
   -3.5354    6.6239    1.5962 C   0  0  0  0  0  0  0  0  0  0  0  0
    1.3214    3.1226    3.2105 C   0  0  1  0  0  0  0  0  0  0  0  0
    2.2122    3.9469    2.4895 O   0  0  0  0  0  0  0  0  0  0  0  0
    1.8323    1.7053    3.6724 C   0  0  2  0  0  0  0  0  0  0  0  0
    1.0443    0.6481    2.8218 C   0  0  0  0  0  0  0  0  0  0  0  0
    3.3101    1.5293    3.2273 C   0  0  0  0  0  0  0  0  0  0  0  0
    3.9172    0.1491    3.5040 C   0  0  0  0  0  0  0  0  0  0  0  0
    3.7979   -0.3027    4.9732 C   0  0  2  0  0  0  0  0  0  0  0  0
    4.9950    0.2207    5.7951 C   0  0  0  0  0  0  0  0  0  0  0  0
    3.7599   -1.8198    5.0044 C   0  0  0  0  0  0  0  0  0  0  0  0
    4.7979   -2.7864    4.6957 C   0  0  0  0  0  0  0  0  0  0  0  0
    4.5212   -4.1121    4.7380 C   0  0  0  0  0  0  0  0  0  0  0  0
    3.1808   -4.6065    5.0962 C   0  0  0  0  0  0  0  0  0  0  0  0
    2.8716   -5.7960    5.1325 O   0  0  0  0  0  0  0  0  0  0  0  0
    2.2664   -3.6477    5.3846 N   0  0  0  0  0  0  0  0  0  0  0  0
    2.5587   -2.2850    5.3346 C   0  0  0  0  0  0  0  0  0  0  0  0
    1.5393   -1.2305    5.6257 C   0  0  0  0  0  0  0  0  0  0  0  0
    2.4048    0.0716    5.6266 C   0  0  2  0  0  0  0  0  0  0  0  0
    2.2046    5.2476    5.7963 C   0  0  0  0  0  0  0  0  0  0  0  0
    2.1372    6.4756    6.6922 C   0  0  0  0  0  0  0  0  0  0  0  0
    3.3975    5.3894    4.8640 C   0  0  0  0  0  0  0  0  0  0  0  0
    1.3269   -3.9212    5.6285 H   0  0  0  0  0  0  0  0  0  0  0  0
   -2.2146   -1.1441    4.6691 H   0  0  0  0  0  0  0  0  0  0  0  0
   -2.9601   -0.4441    6.0971 H   0  0  0  0  0  0  0  0  0  0  0  0
   -1.2215   -0.7612    6.0749 H   0  0  0  0  0  0  0  0  0  0  0  0
   -2.7847    1.2234    4.3080 H   0  0  0  0  0  0  0  0  0  0  0  0
    2.7554    2.1811    7.0514 H   0  0  0  0  0  0  0  0  0  0  0  0
    3.4789    2.7974    5.6458 H   0  0  0  0  0  0  0  0  0  0  0  0
    1.4798    3.9317    7.4322 H   0  0  0  0  0  0  0  0  0  0  0  0
    0.0615    5.1050    5.9056 H   0  0  0  0  0  0  0  0  0  0  0  0
    0.2182    4.8802    3.5438 H   0  0  0  0  0  0  0  0  0  0  0  0
   -1.5693    3.8517    5.0523 H   0  0  0  0  0  0  0  0  0  0  0  0
   -1.4026    2.7718    2.2098 H   0  0  0  0  0  0  0  0  0  0  0  0
   -2.8202    2.8249    3.1668 H   0  0  0  0  0  0  0  0  0  0  0  0
   -1.3768    5.4109    2.4131 H   0  0  0  0  0  0  0  0  0  0  0  0
   -5.5211    4.9882    2.5247 H   0  0  0  0  0  0  0  0  0  0  0  0
   -4.6731    3.4498    2.5861 H   0  0  0  0  0  0  0  0  0  0  0  0
   -4.9847    4.2100    1.0379 H   0  0  0  0  0  0  0  0  0  0  0  0
   -4.2570    7.1862    2.1883 H   0  0  0  0  0  0  0  0  0  0  0  0
   -3.8780    6.6127    0.5641 H   0  0  0  0  0  0  0  0  0  0  0  0
   -2.5773    7.1484    1.6201 H   0  0  0  0  0  0  0  0  0  0  0  0
    0.6975    2.8988    2.3536 H   0  0  0  0  0  0  0  0  0  0  0  0
    1.6804    4.3705    1.8261 H   0  0  0  0  0  0  0  0  0  0  0  0
    1.2394    0.7874    1.7557 H   0  0  0  0  0  0  0  0  0  0  0  0
   -0.0343    0.6946    2.9290 H   0  0  0  0  0  0  0  0  0  0  0  0
    1.3360   -0.3735    3.0357 H   0  0  0  0  0  0  0  0  0  0  0  0
    3.3880    1.7119    2.1538 H   0  0  0  0  0  0  0  0  0  0  0  0
    3.9377    2.2877    3.6815 H   0  0  0  0  0  0  0  0  0  0  0  0
    3.4580   -0.5839    2.8401 H   0  0  0  0  0  0  0  0  0  0  0  0
    4.9651    0.1559    3.2035 H   0  0  0  0  0  0  0  0  0  0  0  0
    5.0726    1.3021    5.7556 H   0  0  0  0  0  0  0  0  0  0  0  0
    5.9371   -0.1664    5.4098 H   0  0  0  0  0  0  0  0  0  0  0  0
    4.9315   -0.0720    6.8415 H   0  0  0  0  0  0  0  0  0  0  0  0
    5.7909   -2.4548    4.4463 H   0  0  0  0  0  0  0  0  0  0  0  0
    5.2976   -4.8314    4.5195 H   0  0  0  0  0  0  0  0  0  0  0  0
    0.7598   -1.2526    4.8668 H   0  0  0  0  0  0  0  0  0  0  0  0
    1.0731   -1.4074    6.5970 H   0  0  0  0  0  0  0  0  0  0  0  0
    2.6288    0.1418    6.6900 H   0  0  0  0  0  0  0  0  0  0  0  0
    1.9858    7.3754    6.0987 H   0  0  0  0  0  0  0  0  0  0  0  0
    3.0565    6.5884    7.2629 H   0  0  0  0  0  0  0  0  0  0  0  0
    1.3136    6.3967    7.4023 H   0  0  0  0  0  0  0  0  0  0  0  0
    3.1906    6.1466    4.1101 H   0  0  0  0  0  0  0  0  0  0  0  0
    3.6353    4.4598    4.3689 H   0  0  0  0  0  0  0  0  0  0  0  0
    4.2814    5.6843    5.4316 H   0  0  0  0  0  0  0  0  0  0  0  0
  1  2  1  0
  1 38  1  0
  1 39  1  0
  1 40  1  0
  2  3  2  3
  2 41  1  0
  3 11  1  0
  3  4  1  0
  4  5  2  0
  4  6  1  0
  6 19  1  0
  6 33  1  0
  6  7  1  1
  7  8  1  0
  7 42  1  0
  7 43  1  0
  8 34  1  0
  8  9  1  0
  8 44  1  1
  9 10  1  0
  9 34  1  0
  9 45  1  1
 10 11  1  0
 10 17  1  0
 10 46  1  6
 11 12  1  0
 11 47  1  1
 12 13  1  0
 12 48  1  0
 12 49  1  0
 13 14  2  3
 13 50  1  0
 14 15  1  0
 14 16  1  0
 15 51  1  0
 15 52  1  0
 15 53  1  0
 16 54  1  0
 16 55  1  0
 16 56  1  0
 17 18  1  0
 17 19  1  0
 17 57  1  6
 18 58  1  0
 19 20  1  6
 19 21  1  0
 20 59  1  0
 20 60  1  0
 20 61  1  0
 21 22  1  0
 21 62  1  0
 21 63  1  0
 22 23  1  0
 22 64  1  0
 22 65  1  0
 23 33  1  0
 23 24  1  1
 23 25  1  0
 24 66  1  0
 24 67  1  0
 24 68  1  0
 25 31  2  0
 25 26  1  0
 26 27  2  0
 26 69  1  0
 27 28  1  0
 27 70  1  0
 28 29  2  0
 28 30  1  0
 30 37  1  0
 30 31  1  0
 31 32  1  0
 32 33  1  0
 32 71  1  0
 32 72  1  0
 33 73  1  1
 34 35  1  0
 34 36  1  0
 35 74  1  0
 35 75  1  0
 35 76  1  0
 36 77  1  0
 36 78  1  0
 36 79  1  0
M  END
>  <i_m_ct_stereo_status>  (184) 
1

>  <s_m_source_file>  (184) 
/var/tmp/pbs.5076255.sched01/tmphf7gnms3/50i7j3xhgh.sdf

>  <i_m_source_file_index>  (184) 
29

>  <i_lp_mmshare_version>  (184) 
48012

>  <i_f3d_flags>  (184) 
0

>  <s_epik_input>  (184) 
W0NIM11DKFtDSDNdKT1bQ0hdW0NIMl1bQ0BASF0oQygvQzE9Tyk9W0NIXVxbQ0gzXSlbQ0BASF0oW0NASF0yW0NAQEhdKFtDSDJdMylDMihbQ0gzXSlbQ0gzXSlbQ0BASF0oW09IXSlbQ0BAXShbQ0BdMTM0KShbQ0gzXSlbQ0gyXVtDSDJdW0NAXTUoW0NIM10pYzZjKFtDSDJdW0NASF00NSlbbkhdYyg9TylbY0hdW2NIXTY=

>  <s_epik_cmdline>  (184) 
J2VwaWtfcHl0aG9uJywgJy1waHQnLCAnMi4wJywgJy1waCcsICc3LjAnLCAnLXRuJywgJzgnLCAnLW1hJywgJzIwMCcsICctaW1hZScsICc8aW5maWxlLm1hZT4nLCAnLW9tYWUnLCAnPG91dGZpbGUubWFlPic=

>  <r_lp_tautomer_probability>  (184) 
1

>  <r_epik_Ionization_Penalty>  (184) 
6.46008e-06

>  <r_epik_Ionization_Penalty_Charging>  (184) 
6.25028e-06

>  <r_epik_Ionization_Penalty_Neutral>  (184) 
2.09799e-07

>  <r_epik_State_Penalty>  (184) 
-0

>  <r_epik_Charging_Adjusted_Penalty>  (184) 
6.25028e-06

>  <i_epik_Tot_Q>  (184) 
0

>  <i_epik_Tot_abs_Q>  (184) 
0

>  <s_lp_Force_Field>  (184) 
OPLS3e

>  <r_lp_Energy>  (184) 
87.2272

>  <b_lp_Chiralities_Consistent>  (184) 
1

>  <s_lp_Variant>  (184) 
50:0-1

>  <s_i_glide_gridfile>  (184) 
pfpi4k_grid

>  <i_i_glide_lignum>  (184) 
29

>  <i_i_glide_rotatable_bonds>  (184) 
3

>  <r_i_docking_score>  (184) 
-1.80528

>  <r_i_glide_ligand_efficiency>  (184) 
-0.0501466

>  <r_i_glide_ligand_efficiency_sa>  (184) 
-0.16558

>  <r_i_glide_ligand_efficiency_ln>  (184) 
-0.393863

>  <r_i_glide_gscore>  (184) 
-1.80528

>  <r_i_glide_lipo>  (184) 
-0.117286

>  <r_i_glide_hbond>  (184) 
-0.157409

>  <r_i_glide_metal>  (184) 
-0

>  <r_i_glide_rewards>  (184) 
-0.0703042

>  <r_i_glide_evdw>  (184) 
-20.8154

>  <r_i_glide_ecoul>  (184) 
-3.91099

>  <r_i_glide_erotb>  (184) 
0.169689

>  <r_i_glide_esite>  (184) 
-0.00254899

>  <r_i_glide_emodel>  (184) 
-27.2535

>  <r_i_glide_energy>  (184) 
-24.7264

>  <r_i_glide_einternal>  (184) 
0.94922

>  <r_i_glide_intrahb_reward>  (184) 
-0

>  <i_i_glide_confnum>  (184) 
2

>  <i_i_glide_posenum>  (184) 
37

>  <r_i_glide_eff_state_penalty>  (184) 
0

>  <ligand_id>  (184) 
50

>  <original_smiles>  (184) 
CC=C1C(=O)C23CC4C(C(C1CC=C(C)C)C(O)C2(C)CCC1(C)c2ccc(=O)[nH]c2CC13)C4(C)C

>  <smiles>  (184) 
[H]OC1([H])C2([H])C([H])(C([H])([H])C([H])=C(C([H])([H])[H])C([H])([H])[H])C(=C([H])C([H])([H])[H])C(=O)C3(C([H])([H])C4([H])C2([H])C4(C([H])([H])[H])C([H])([H])[H])C2([H])C([H])([H])c4c(c([H])c([H])c(=O)n4[H])C2(C([H])([H])[H])C([H])([H])C([H])([H])C13C([H])([H])[H]

$$$$
50:0:2
     RDKit          3D

 79 84  0  0  1  0  0  0  0  0999 V2000
    0.7510   -3.6163    6.0351 C   0  0  0  0  0  0  0  0  0  0  0  0
    0.3407   -2.1751    6.2849 C   0  0  0  0  0  0  0  0  0  0  0  0
    1.0427   -1.0301    6.0837 C   0  0  0  0  0  0  0  0  0  0  0  0
    2.4746   -1.1365    5.6544 C   0  0  0  0  0  0  0  0  0  0  0  0
    3.2720   -1.7687    6.3545 O   0  0  0  0  0  0  0  0  0  0  0  0
    3.0688   -0.4292    4.3905 C   0  0  2  0  0  0  0  0  0  0  0  0
    4.1512    0.5944    4.9401 C   0  0  0  0  0  0  0  0  0  0  0  0
    3.8424    1.3846    6.2151 C   0  0  2  0  0  0  0  0  0  0  0  0
    2.4776    1.9381    6.5301 C   0  0  2  0  0  0  0  0  0  0  0  0
    1.1924    1.5823    5.7485 C   0  0  2  0  0  0  0  0  0  0  0  0
    0.4469    0.3662    6.4004 C   0  0  1  0  0  0  0  0  0  0  0  0
   -1.1036    0.4823    6.1657 C   0  0  0  0  0  0  0  0  0  0  0  0
   -1.8100    1.3198    7.2247 C   0  0  0  0  0  0  0  0  0  0  0  0
   -2.5919    2.4024    7.0280 C   0  0  0  0  0  0  0  0  0  0  0  0
   -2.8940    3.0278    5.6708 C   0  0  0  0  0  0  0  0  0  0  0  0
   -3.2498    3.1129    8.1960 C   0  0  0  0  0  0  0  0  0  0  0  0
    1.2203    1.4773    4.1873 C   0  0  1  0  0  0  0  0  0  0  0  0
    1.3282    2.7557    3.5991 O   0  0  0  0  0  0  0  0  0  0  0  0
    1.9883    0.2956    3.4733 C   0  0  2  0  0  0  0  0  0  0  0  0
    0.8855   -0.6853    2.9427 C   0  0  0  0  0  0  0  0  0  0  0  0
    2.6850    0.8343    2.1835 C   0  0  0  0  0  0  0  0  0  0  0  0
    3.3651   -0.2387    1.3227 C   0  0  0  0  0  0  0  0  0  0  0  0
    4.3725   -1.1205    2.0879 C   0  0  2  0  0  0  0  0  0  0  0  0
    5.7645   -0.4577    2.0995 C   0  0  0  0  0  0  0  0  0  0  0  0
    4.4383   -2.4743    1.4049 C   0  0  0  0  0  0  0  0  0  0  0  0
    4.9648   -2.8390    0.1013 C   0  0  0  0  0  0  0  0  0  0  0  0
    4.8701   -4.1188   -0.3320 C   0  0  0  0  0  0  0  0  0  0  0  0
    4.2511   -5.1666    0.4977 C   0  0  0  0  0  0  0  0  0  0  0  0
    4.1551   -6.3470    0.1564 O   0  0  0  0  0  0  0  0  0  0  0  0
    3.7828   -4.7530    1.6987 N   0  0  0  0  0  0  0  0  0  0  0  0
    3.8800   -3.4367    2.1348 C   0  0  0  0  0  0  0  0  0  0  0  0
    3.3536   -2.9805    3.4611 C   0  0  0  0  0  0  0  0  0  0  0  0
    3.8824   -1.5108    3.5409 C   0  0  2  0  0  0  0  0  0  0  0  0
    3.6207    2.9024    6.2435 C   0  0  0  0  0  0  0  0  0  0  0  0
    4.1830    3.6869    7.4228 C   0  0  0  0  0  0  0  0  0  0  0  0
    3.7548    3.7558    4.9928 C   0  0  0  0  0  0  0  0  0  0  0  0
    3.3431   -5.4244    2.3155 H   0  0  0  0  0  0  0  0  0  0  0  0
    0.0992   -4.0500    5.2760 H   0  0  0  0  0  0  0  0  0  0  0  0
    0.6119   -4.1800    6.9564 H   0  0  0  0  0  0  0  0  0  0  0  0
    1.7825   -3.7535    5.7165 H   0  0  0  0  0  0  0  0  0  0  0  0
   -0.6626   -2.1276    6.6662 H   0  0  0  0  0  0  0  0  0  0  0  0
    5.0629    0.0535    5.2037 H   0  0  0  0  0  0  0  0  0  0  0  0
    4.5014    1.2815    4.1796 H   0  0  0  0  0  0  0  0  0  0  0  0
    4.3835    0.9917    7.0712 H   0  0  0  0  0  0  0  0  0  0  0  0
    2.2482    1.9372    7.5908 H   0  0  0  0  0  0  0  0  0  0  0  0
    0.5576    2.4460    5.9590 H   0  0  0  0  0  0  0  0  0  0  0  0
    0.5948    0.4423    7.4805 H   0  0  0  0  0  0  0  0  0  0  0  0
   -1.3112    0.8683    5.1725 H   0  0  0  0  0  0  0  0  0  0  0  0
   -1.6352   -0.4636    6.1611 H   0  0  0  0  0  0  0  0  0  0  0  0
   -1.6630    0.9785    8.2430 H   0  0  0  0  0  0  0  0  0  0  0  0
   -3.9649    3.2010    5.5787 H   0  0  0  0  0  0  0  0  0  0  0  0
   -2.5936    2.4292    4.8142 H   0  0  0  0  0  0  0  0  0  0  0  0
   -2.3867    3.9890    5.5931 H   0  0  0  0  0  0  0  0  0  0  0  0
   -4.3359    3.1002    8.0850 H   0  0  0  0  0  0  0  0  0  0  0  0
   -2.9149    4.1491    8.2324 H   0  0  0  0  0  0  0  0  0  0  0  0
   -3.0079    2.6401    9.1507 H   0  0  0  0  0  0  0  0  0  0  0  0
    0.1866    1.3204    3.9006 H   0  0  0  0  0  0  0  0  0  0  0  0
    0.9903    2.7147    2.7132 H   0  0  0  0  0  0  0  0  0  0  0  0
    0.2343   -0.1756    2.2283 H   0  0  0  0  0  0  0  0  0  0  0  0
    0.2271   -1.0842    3.7091 H   0  0  0  0  0  0  0  0  0  0  0  0
    1.2878   -1.5371    2.4044 H   0  0  0  0  0  0  0  0  0  0  0  0
    1.9470    1.3350    1.5523 H   0  0  0  0  0  0  0  0  0  0  0  0
    3.4112    1.6046    2.4194 H   0  0  0  0  0  0  0  0  0  0  0  0
    2.5999   -0.8584    0.8538 H   0  0  0  0  0  0  0  0  0  0  0  0
    3.8628    0.2491    0.4848 H   0  0  0  0  0  0  0  0  0  0  0  0
    5.7393    0.5192    2.5664 H   0  0  0  0  0  0  0  0  0  0  0  0
    6.1386   -0.3166    1.0861 H   0  0  0  0  0  0  0  0  0  0  0  0
    6.5013   -1.0606    2.6255 H   0  0  0  0  0  0  0  0  0  0  0  0
    5.4392   -2.0965   -0.5142 H   0  0  0  0  0  0  0  0  0  0  0  0
    5.2673   -4.3943   -1.2984 H   0  0  0  0  0  0  0  0  0  0  0  0
    2.2689   -3.0714    3.4753 H   0  0  0  0  0  0  0  0  0  0  0  0
    3.7542   -3.6018    4.2667 H   0  0  0  0  0  0  0  0  0  0  0  0
    4.8102   -1.6815    4.0889 H   0  0  0  0  0  0  0  0  0  0  0  0
    3.6053    4.5957    7.5826 H   0  0  0  0  0  0  0  0  0  0  0  0
    5.2216    3.9638    7.2491 H   0  0  0  0  0  0  0  0  0  0  0  0
    4.1447    3.0969    8.3383 H   0  0  0  0  0  0  0  0  0  0  0  0
    3.0253    4.5633    5.0194 H   0  0  0  0  0  0  0  0  0  0  0  0
    3.6121    3.1774    4.0925 H   0  0  0  0  0  0  0  0  0  0  0  0
    4.7560    4.1856    4.9355 H   0  0  0  0  0  0  0  0  0  0  0  0
  1  2  1  0
  1 38  1  0
  1 39  1  0
  1 40  1  0
  2  3  2  3
  2 41  1  0
  3 11  1  0
  3  4  1  0
  4  5  2  0
  4  6  1  0
  6 19  1  0
  6 33  1  0
  6  7  1  1
  7  8  1  0
  7 42  1  0
  7 43  1  0
  8 34  1  0
  8  9  1  0
  8 44  1  1
  9 10  1  0
  9 34  1  0
  9 45  1  1
 10 11  1  0
 10 17  1  0
 10 46  1  6
 11 12  1  0
 11 47  1  1
 12 13  1  0
 12 48  1  0
 12 49  1  0
 13 14  2  3
 13 50  1  0
 14 15  1  0
 14 16  1  0
 15 51  1  0
 15 52  1  0
 15 53  1  0
 16 54  1  0
 16 55  1  0
 16 56  1  0
 17 18  1  0
 17 19  1  0
 17 57  1  6
 18 58  1  0
 19 20  1  6
 19 21  1  0
 20 59  1  0
 20 60  1  0
 20 61  1  0
 21 22  1  0
 21 62  1  0
 21 63  1  0
 22 23  1  0
 22 64  1  0
 22 65  1  0
 23 33  1  0
 23 24  1  1
 23 25  1  0
 24 66  1  0
 24 67  1  0
 24 68  1  0
 25 31  2  0
 25 26  1  0
 26 27  2  0
 26 69  1  0
 27 28  1  0
 27 70  1  0
 28 29  2  0
 28 30  1  0
 30 37  1  0
 30 31  1  0
 31 32  1  0
 32 33  1  0
 32 71  1  0
 32 72  1  0
 33 73  1  1
 34 35  1  0
 34 36  1  0
 35 74  1  0
 35 75  1  0
 35 76  1  0
 36 77  1  0
 36 78  1  0
 36 79  1  0
M  END
>  <i_m_ct_stereo_status>  (185) 
1

>  <s_m_source_file>  (185) 
/var/tmp/pbs.5076255.sched01/tmphf7gnms3/50i7j3xhgh.sdf

>  <i_m_source_file_index>  (185) 
29

>  <i_lp_mmshare_version>  (185) 
48012

>  <i_f3d_flags>  (185) 
0

>  <s_epik_input>  (185) 
W0NIM11DKFtDSDNdKT1bQ0hdW0NIMl1bQ0BASF0oQygvQzE9Tyk9W0NIXVxbQ0gzXSlbQ0BASF0oW0NASF0yW0NAQEhdKFtDSDJdMylDMihbQ0gzXSlbQ0gzXSlbQ0BASF0oW09IXSlbQ0BAXShbQ0BdMTM0KShbQ0gzXSlbQ0gyXVtDSDJdW0NAXTUoW0NIM10pYzZjKFtDSDJdW0NASF00NSlbbkhdYyg9TylbY0hdW2NIXTY=

>  <s_epik_cmdline>  (185) 
J2VwaWtfcHl0aG9uJywgJy1waHQnLCAnMi4wJywgJy1waCcsICc3LjAnLCAnLXRuJywgJzgnLCAnLW1hJywgJzIwMCcsICctaW1hZScsICc8aW5maWxlLm1hZT4nLCAnLW9tYWUnLCAnPG91dGZpbGUubWFlPic=

>  <r_lp_tautomer_probability>  (185) 
1

>  <r_epik_Ionization_Penalty>  (185) 
6.46008e-06

>  <r_epik_Ionization_Penalty_Charging>  (185) 
6.25028e-06

>  <r_epik_Ionization_Penalty_Neutral>  (185) 
2.09799e-07

>  <r_epik_State_Penalty>  (185) 
-0

>  <r_epik_Charging_Adjusted_Penalty>  (185) 
6.25028e-06

>  <i_epik_Tot_Q>  (185) 
0

>  <i_epik_Tot_abs_Q>  (185) 
0

>  <s_lp_Force_Field>  (185) 
OPLS3e

>  <r_lp_Energy>  (185) 
87.2272

>  <b_lp_Chiralities_Consistent>  (185) 
1

>  <s_lp_Variant>  (185) 
50:0-1

>  <s_i_glide_gridfile>  (185) 
pfpi4k_grid

>  <i_i_glide_lignum>  (185) 
29

>  <i_i_glide_rotatable_bonds>  (185) 
3

>  <r_i_docking_score>  (185) 
-1.623

>  <r_i_glide_ligand_efficiency>  (185) 
-0.0450834

>  <r_i_glide_ligand_efficiency_sa>  (185) 
-0.148862

>  <r_i_glide_ligand_efficiency_ln>  (185) 
-0.354095

>  <r_i_glide_gscore>  (185) 
-1.623

>  <r_i_glide_lipo>  (185) 
-0.416248

>  <r_i_glide_hbond>  (185) 
0

>  <r_i_glide_metal>  (185) 
-0

>  <r_i_glide_rewards>  (185) 
-0.0703042

>  <r_i_glide_evdw>  (185) 
-24.8593

>  <r_i_glide_ecoul>  (185) 
-0.421149

>  <r_i_glide_erotb>  (185) 
0.169689

>  <r_i_glide_esite>  (185) 
0

>  <r_i_glide_emodel>  (185) 
-26.7276

>  <r_i_glide_energy>  (185) 
-25.2805

>  <r_i_glide_einternal>  (185) 
2.59079

>  <r_i_glide_intrahb_reward>  (185) 
-0

>  <i_i_glide_confnum>  (185) 
2

>  <i_i_glide_posenum>  (185) 
3

>  <r_i_glide_eff_state_penalty>  (185) 
0

>  <ligand_id>  (185) 
50

>  <original_smiles>  (185) 
CC=C1C(=O)C23CC4C(C(C1CC=C(C)C)C(O)C2(C)CCC1(C)c2ccc(=O)[nH]c2CC13)C4(C)C

>  <smiles>  (185) 
[H]OC1([H])C2([H])C([H])(C([H])([H])C([H])=C(C([H])([H])[H])C([H])([H])[H])C(=C([H])C([H])([H])[H])C(=O)C3(C([H])([H])C4([H])C2([H])C4(C([H])([H])[H])C([H])([H])[H])C2([H])C([H])([H])c4c(c([H])c([H])c(=O)n4[H])C2(C([H])([H])[H])C([H])([H])C([H])([H])C13C([H])([H])[H]

$$$$
51:0:0
     RDKit          3D

 71 78  0  0  1  0  0  0  0  0999 V2000
    6.1270   -7.3244    5.6296 C   0  0  0  0  0  0  0  0  0  0  0  0
    5.4180   -6.3561    4.7087 C   0  0  0  0  0  0  0  0  0  0  0  0
    4.8410   -5.3703    5.1873 O   0  0  0  0  0  0  0  0  0  0  0  0
    5.4837   -6.6965    3.3993 O   0  0  0  0  0  0  0  0  0  0  0  0
    4.8012   -5.9886    2.3463 C   0  0  1  0  0  0  0  0  0  0  0  0
    5.3377   -6.5671    0.9584 C   0  0  0  0  0  0  0  0  0  0  0  0
    5.2903   -5.5515   -0.2577 C   0  0  0  0  0  0  0  0  0  0  0  0
    3.9876   -4.7814   -0.1188 C   0  0  1  0  0  0  0  0  0  0  0  0
    4.2779   -4.1025    1.0896 C   0  0  1  0  0  0  0  0  0  0  0  0
    2.8584   -4.7153    1.7523 C   0  0  0  0  0  0  0  0  0  0  0  0
    3.2608   -6.0240    2.4602 C   0  0  1  0  0  0  0  0  0  0  0  0
    2.5450   -7.3054    1.9899 C   0  0  0  0  0  0  0  0  0  0  0  0
    5.1099   -4.4743    2.2538 C   0  0  1  0  0  0  0  0  0  0  0  0
    4.5459   -3.2994    3.1597 C   0  0  0  0  0  0  0  0  0  0  0  0
    3.7151   -2.0552    2.4635 C   0  0  1  0  0  0  0  0  0  0  0  0
    4.6680   -0.7876    2.6679 C   0  0  1  0  0  0  0  0  0  0  0  0
    4.9481   -0.4132    4.1460 C   0  0  0  0  0  0  0  0  0  0  0  0
    5.9924   -0.7872    1.7828 C   0  0  0  0  0  0  0  0  0  0  0  0
    6.1746   -1.9469    0.7180 C   0  0  2  0  0  0  0  0  0  0  0  0
    7.1634   -2.7963    1.1994 O   0  0  0  0  0  0  0  0  0  0  0  0
    6.5513   -1.6598   -0.5863 O   0  0  0  0  0  0  0  0  0  0  0  0
    6.0404   -2.9002   -1.2912 O   0  0  0  0  0  0  0  0  0  0  0  0
    4.6391   -2.7475   -1.2193 C   0  0  1  0  0  0  0  0  0  0  0  0
    4.4125   -1.6045   -2.2783 C   0  0  0  0  0  0  0  0  0  0  0  0
    2.9821   -1.4598   -2.7675 C   0  0  0  0  0  0  0  0  0  0  0  0
    2.2913   -2.8222   -2.8438 C   0  0  1  0  0  0  0  0  0  0  0  0
    2.9421   -3.7162   -3.9041 C   0  0  0  0  0  0  0  0  0  0  0  0
    2.1609   -3.4445   -1.4151 C   0  0  1  0  0  0  0  0  0  0  0  0
    1.3992   -4.6369   -1.3870 O   0  0  0  0  0  0  0  0  0  0  0  0
    3.4025   -3.3264   -0.4596 C   0  0  1  0  0  0  0  0  0  0  0  0
    2.9865   -2.1833    0.8852 C   0  0  2  0  0  0  0  0  0  0  0  0
    3.9090   -1.4026    0.3221 N   0  0  0  0  0  0  0  0  0  0  0  0
    4.8176   -2.5767    0.2852 C   0  0  1  0  0  0  0  0  0  0  0  0
    6.3334   -8.2878    5.1464 H   0  0  0  0  0  0  0  0  0  0  0  0
    5.4940   -7.4961    6.4991 H   0  0  0  0  0  0  0  0  0  0  0  0
    7.0573   -6.8751    5.9788 H   0  0  0  0  0  0  0  0  0  0  0  0
    6.3695   -6.8975    1.0612 H   0  0  0  0  0  0  0  0  0  0  0  0
    4.7972   -7.4686    0.6719 H   0  0  0  0  0  0  0  0  0  0  0  0
    6.1952   -4.9355   -0.2359 H   0  0  0  0  0  0  0  0  0  0  0  0
    5.2197   -6.0789   -1.2005 H   0  0  0  0  0  0  0  0  0  0  0  0
    3.2594   -5.5879   -0.2362 H   0  0  0  0  0  0  0  0  0  0  0  0
    2.3519   -4.1099    2.4930 H   0  0  0  0  0  0  0  0  0  0  0  0
    1.9906   -4.8646    1.1090 H   0  0  0  0  0  0  0  0  0  0  0  0
    2.9804   -5.8995    3.5024 H   0  0  0  0  0  0  0  0  0  0  0  0
    2.5800   -7.4625    0.9122 H   0  0  0  0  0  0  0  0  0  0  0  0
    1.4968   -7.2767    2.2799 H   0  0  0  0  0  0  0  0  0  0  0  0
    2.9839   -8.1807    2.4682 H   0  0  0  0  0  0  0  0  0  0  0  0
    6.1882   -4.5036    2.1702 H   0  0  0  0  0  0  0  0  0  0  0  0
    3.8628   -3.6776    3.9176 H   0  0  0  0  0  0  0  0  0  0  0  0
    5.4021   -2.9464    3.7302 H   0  0  0  0  0  0  0  0  0  0  0  0
    2.8684   -1.8864    3.1179 H   0  0  0  0  0  0  0  0  0  0  0  0
    4.0802    0.0746    2.3417 H   0  0  0  0  0  0  0  0  0  0  0  0
    5.6534   -1.0775    4.6513 H   0  0  0  0  0  0  0  0  0  0  0  0
    4.0260   -0.4043    4.7338 H   0  0  0  0  0  0  0  0  0  0  0  0
    5.3743    0.5902    4.2043 H   0  0  0  0  0  0  0  0  0  0  0  0
    6.0065    0.1566    1.2320 H   0  0  0  0  0  0  0  0  0  0  0  0
    6.8619   -0.7324    2.4421 H   0  0  0  0  0  0  0  0  0  0  0  0
    7.9080   -2.2772    1.4355 H   0  0  0  0  0  0  0  0  0  0  0  0
    4.8154   -0.6298   -1.9908 H   0  0  0  0  0  0  0  0  0  0  0  0
    4.9929   -1.8998   -3.1535 H   0  0  0  0  0  0  0  0  0  0  0  0
    2.4554   -0.7965   -2.0882 H   0  0  0  0  0  0  0  0  0  0  0  0
    2.9377   -0.9535   -3.7342 H   0  0  0  0  0  0  0  0  0  0  0  0
    1.2789   -2.6662   -3.2041 H   0  0  0  0  0  0  0  0  0  0  0  0
    3.9023   -4.1030   -3.5492 H   0  0  0  0  0  0  0  0  0  0  0  0
    3.0925   -3.1841   -4.8446 H   0  0  0  0  0  0  0  0  0  0  0  0
    2.2716   -4.5516   -4.0886 H   0  0  0  0  0  0  0  0  0  0  0  0
    1.4445   -2.8417   -0.9082 H   0  0  0  0  0  0  0  0  0  0  0  0
    1.8893   -5.2732   -1.8980 H   0  0  0  0  0  0  0  0  0  0  0  0
    2.0238   -1.6869    0.8786 H   0  0  0  0  0  0  0  0  0  0  0  0
    3.6606   -1.1051   -0.5928 H   0  0  0  0  0  0  0  0  0  0  0  0
    4.2286   -0.7003    0.9528 H   0  0  0  0  0  0  0  0  0  0  0  0
  1  2  1  0
  1 34  1  0
  1 35  1  0
  1 36  1  0
  2  3  2  0
  2  4  1  0
  5  4  1  1
  5 11  1  0
  5 13  1  0
  5  6  1  0
  6  7  1  0
  6 37  1  0
  6 38  1  0
  7  8  1  0
  7 39  1  0
  7 40  1  0
  8 30  1  0
  8  9  1  0
  8 41  1  1
  9 33  1  0
  9 10  1  1
  9 13  1  0
 10 11  1  0
 10 42  1  0
 10 43  1  0
 11 12  1  0
 11 44  1  1
 12 45  1  0
 12 46  1  0
 12 47  1  0
 13 14  1  0
 13 48  1  6
 14 15  1  0
 14 49  1  0
 14 50  1  0
 15 31  1  0
 15 16  1  0
 15 51  1  1
 16 17  1  0
 16 18  1  0
 16 52  1  6
 17 53  1  0
 17 54  1  0
 17 55  1  0
 18 19  1  0
 18 56  1  0
 18 57  1  0
 19 33  1  0
 19 20  1  1
 19 21  1  0
 20 58  1  0
 21 22  1  0
 23 22  1  6
 30 23  1  6
 23 33  1  0
 23 24  1  0
 24 25  1  0
 24 59  1  0
 24 60  1  0
 25 26  1  0
 25 61  1  0
 25 62  1  0
 26 27  1  0
 26 28  1  0
 26 63  1  6
 27 64  1  0
 27 65  1  0
 27 66  1  0
 28 29  1  0
 28 30  1  0
 28 67  1  1
 29 68  1  0
 30 31  1  0
 31 32  1  0
 31 69  1  1
 33 32  1  1
 32 70  1  0
 32 71  1  0
M  CHG  1  32   1
M  END
>  <i_m_ct_stereo_status>  (186) 
1

>  <s_m_source_file>  (186) 
/var/tmp/pbs.5076255.sched01/tmphf7gnms3/50i7j3xhgh.sdf

>  <i_m_source_file_index>  (186) 
30

>  <i_lp_mmshare_version>  (186) 
48012

>  <i_f3d_flags>  (186) 
0

>  <s_epik_input>  (186) 
W0NIMl0xW0NIMl1bQ0BASF0oW0NIM10pW0NAQEhdKFtPSF0pW0NAXTIoW0NAXTEzW0NAQF00NVtDQF02NzgpW0NASF02W0NIMl1bQ0gyXVtDQEBdKFtDQEBIXShbQ0gyXTcpW0NIM10pKE9DKD1PKVtDSDNdKVtDQEBIXThbQ0gyXVtDQEhdKFtDQEhdMltOSF01KVtDQEBIXShbQ0gzXSlbQ0gyXVtDQF00KFtPSF0pT08z

>  <s_epik_cmdline>  (186) 
J2VwaWtfcHl0aG9uJywgJy1waHQnLCAnMi4wJywgJy1waCcsICc3LjAnLCAnLXRuJywgJzgnLCAnLW1hJywgJzIwMCcsICctaW1hZScsICc8aW5maWxlLm1hZT4nLCAnLW9tYWUnLCAnPG91dGZpbGUubWFlPic=

>  <r_epik_Ionization_Penalty>  (186) 
0.0050628

>  <r_epik_Ionization_Penalty_Charging>  (186) 
0.00499211

>  <r_epik_Ionization_Penalty_Neutral>  (186) 
7.06936e-05

>  <r_epik_State_Penalty>  (186) 
0.00362874

>  <r_epik_Charging_Adjusted_Penalty>  (186) 
0.00862084

>  <i_epik_Tot_Q>  (186) 
1

>  <i_epik_Tot_abs_Q>  (186) 
1

>  <s_epik_Chemistry_Notes>  (186) 
This compound has an ester and may undergo hydrolysis at high or low pH.

>  <s_lp_Force_Field>  (186) 
OPLS3e

>  <r_lp_Energy>  (186) 
468.359

>  <b_lp_Chiralities_Consistent>  (186) 
1

>  <s_lp_Variant>  (186) 
51:0-1

>  <s_i_glide_gridfile>  (186) 
pfpi4k_grid

>  <i_i_glide_lignum>  (186) 
30

>  <i_i_glide_rotatable_bonds>  (186) 
4

>  <r_i_docking_score>  (186) 
-3.6583

>  <r_i_glide_ligand_efficiency>  (186) 
-0.110858

>  <r_i_glide_ligand_efficiency_sa>  (186) 
-0.35558

>  <r_i_glide_ligand_efficiency_ln>  (186) 
-0.813587

>  <r_i_glide_gscore>  (186) 
-3.6583

>  <r_i_glide_lipo>  (186) 
-0.637644

>  <r_i_glide_hbond>  (186) 
-0.434116

>  <r_i_glide_metal>  (186) 
-0

>  <r_i_glide_rewards>  (186) 
-0.406371

>  <r_i_glide_evdw>  (186) 
-11.7902

>  <r_i_glide_ecoul>  (186) 
-10.9622

>  <r_i_glide_erotb>  (186) 
0.0948895

>  <r_i_glide_esite>  (186) 
-0.0412226

>  <r_i_glide_emodel>  (186) 
-25.2465

>  <r_i_glide_energy>  (186) 
-22.7524

>  <r_i_glide_einternal>  (186) 
2.94299

>  <r_i_glide_intrahb_reward>  (186) 
-0

>  <i_i_glide_confnum>  (186) 
1

>  <i_i_glide_posenum>  (186) 
1

>  <r_i_glide_eff_state_penalty>  (186) 
0

>  <ligand_id>  (186) 
51

>  <original_smiles>  (186) 
CC(=O)OC12CCC3C4(CC1C)C2CC1C(C)CC2(O)OOC56CCC(C)C(O)C35C1NC246

>  <smiles>  (186) 
[H]OC1([H])C([H])(C([H])([H])[H])C([H])([H])C([H])([H])C23OOC4(O[H])C([H])([H])C([H])(C([H])([H])[H])C5([H])C([H])([H])C6([H])C7(OC(=O)C([H])([H])[H])C([H])([H])C([H])([H])C8([H])C12C5([H])[N+]([H])([H])C43C68C([H])([H])C7([H])C([H])([H])[H]

$$$$
51:0:1
     RDKit          3D

 71 78  0  0  1  0  0  0  0  0999 V2000
    5.0758   -7.0987    5.8276 C   0  0  0  0  0  0  0  0  0  0  0  0
    4.6852   -6.0989    4.7776 C   0  0  0  0  0  0  0  0  0  0  0  0
    4.3227   -4.9553    5.1397 O   0  0  0  0  0  0  0  0  0  0  0  0
    4.7534   -6.5491    3.5030 O   0  0  0  0  0  0  0  0  0  0  0  0
    4.2941   -5.8222    2.3429 C   0  0  1  0  0  0  0  0  0  0  0  0
    4.7841   -6.6209    1.0493 C   0  0  0  0  0  0  0  0  0  0  0  0
    5.0052   -5.7338   -0.2500 C   0  0  0  0  0  0  0  0  0  0  0  0
    3.8847   -4.6940   -0.2716 C   0  0  1  0  0  0  0  0  0  0  0  0
    4.2466   -3.9916    0.9054 C   0  0  1  0  0  0  0  0  0  0  0  0
    2.6953   -4.2448    1.4997 C   0  0  0  0  0  0  0  0  0  0  0  0
    2.7768   -5.5374    2.3328 C   0  0  1  0  0  0  0  0  0  0  0  0
    1.8474   -6.6911    1.9094 C   0  0  0  0  0  0  0  0  0  0  0  0
    4.9116   -4.4162    2.1621 C   0  0  1  0  0  0  0  0  0  0  0  0
    4.5388   -3.0667    2.9089 C   0  0  0  0  0  0  0  0  0  0  0  0
    4.0144   -1.7495    2.0624 C   0  0  1  0  0  0  0  0  0  0  0  0
    5.2027   -0.7101    2.2438 C   0  0  1  0  0  0  0  0  0  0  0  0
    5.4344   -0.2472    3.7102 C   0  0  0  0  0  0  0  0  0  0  0  0
    6.5426   -1.0638    1.4414 C   0  0  0  0  0  0  0  0  0  0  0  0
    6.5803   -2.3562    0.5455 C   0  0  2  0  0  0  0  0  0  0  0  0
    7.3918   -3.2961    1.1962 O   0  0  0  0  0  0  0  0  0  0  0  0
    7.0711   -2.2532   -0.7476 O   0  0  0  0  0  0  0  0  0  0  0  0
    6.3389   -3.4012   -1.4093 O   0  0  0  0  0  0  0  0  0  0  0  0
    4.9904   -2.9530   -1.4492 C   0  0  1  0  0  0  0  0  0  0  0  0
    5.0408   -1.8723   -2.5847 C   0  0  0  0  0  0  0  0  0  0  0  0
    3.6981   -1.4701   -3.1954 C   0  0  0  0  0  0  0  0  0  0  0  0
    2.7790   -2.6843   -3.2394 C   0  0  1  0  0  0  0  0  0  0  0  0
    3.3489   -3.7997   -4.0873 C   0  0  0  0  0  0  0  0  0  0  0  0
    2.4576   -3.1222   -1.8048 C   0  0  1  0  0  0  0  0  0  0  0  0
    1.4944   -4.1314   -1.6921 O   0  0  0  0  0  0  0  0  0  0  0  0
    3.6168   -3.1853   -0.7621 C   0  0  1  0  0  0  0  0  0  0  0  0
    3.3853   -1.8807    0.4440 C   0  0  2  0  0  0  0  0  0  0  0  0
    4.5027   -1.3703   -0.0830 N   0  0  0  0  0  0  0  0  0  0  0  0
    5.1435   -2.7105    0.0462 C   0  0  1  0  0  0  0  0  0  0  0  0
    5.0736   -8.1271    5.4452 H   0  0  0  0  0  0  0  0  0  0  0  0
    4.3576   -7.0198    6.6469 H   0  0  0  0  0  0  0  0  0  0  0  0
    6.0596   -6.8350    6.2240 H   0  0  0  0  0  0  0  0  0  0  0  0
    5.7252   -7.1269    1.2539 H   0  0  0  0  0  0  0  0  0  0  0  0
    4.0973   -7.4294    0.7929 H   0  0  0  0  0  0  0  0  0  0  0  0
    6.0230   -5.3293   -0.2354 H   0  0  0  0  0  0  0  0  0  0  0  0
    4.9224   -6.3403   -1.1373 H   0  0  0  0  0  0  0  0  0  0  0  0
    3.0231   -5.3603   -0.3569 H   0  0  0  0  0  0  0  0  0  0  0  0
    2.2741   -3.4862    2.1456 H   0  0  0  0  0  0  0  0  0  0  0  0
    1.8565   -4.2718    0.8016 H   0  0  0  0  0  0  0  0  0  0  0  0
    2.4585   -5.2599    3.3325 H   0  0  0  0  0  0  0  0  0  0  0  0
    1.9186   -6.9573    0.8549 H   0  0  0  0  0  0  0  0  0  0  0  0
    0.8112   -6.4288    2.1125 H   0  0  0  0  0  0  0  0  0  0  0  0
    2.0713   -7.5851    2.4909 H   0  0  0  0  0  0  0  0  0  0  0  0
    5.9662   -4.6756    2.1777 H   0  0  0  0  0  0  0  0  0  0  0  0
    3.7324   -3.2047    3.6295 H   0  0  0  0  0  0  0  0  0  0  0  0
    5.4040   -2.8425    3.5252 H   0  0  0  0  0  0  0  0  0  0  0  0
    3.1825   -1.3656    2.6343 H   0  0  0  0  0  0  0  0  0  0  0  0
    4.8202    0.2185    1.8045 H   0  0  0  0  0  0  0  0  0  0  0  0
    5.9214   -0.9910    4.3405 H   0  0  0  0  0  0  0  0  0  0  0  0
    4.5016    0.0184    4.2180 H   0  0  0  0  0  0  0  0  0  0  0  0
    6.0693    0.6399    3.7291 H   0  0  0  0  0  0  0  0  0  0  0  0
    6.7240   -0.2411    0.7536 H   0  0  0  0  0  0  0  0  0  0  0  0
    7.3932   -1.0358    2.1195 H   0  0  0  0  0  0  0  0  0  0  0  0
    7.3313   -4.1255    0.7314 H   0  0  0  0  0  0  0  0  0  0  0  0
    5.6250   -0.9904   -2.3124 H   0  0  0  0  0  0  0  0  0  0  0  0
    5.5998   -2.3618   -3.3803 H   0  0  0  0  0  0  0  0  0  0  0  0
    3.2361   -0.6766   -2.6190 H   0  0  0  0  0  0  0  0  0  0  0  0
    3.8504   -1.0590   -4.1998 H   0  0  0  0  0  0  0  0  0  0  0  0
    1.8494   -2.3783   -3.7196 H   0  0  0  0  0  0  0  0  0  0  0  0
    4.2128   -4.3069   -3.6503 H   0  0  0  0  0  0  0  0  0  0  0  0
    3.6522   -3.4190   -5.0675 H   0  0  0  0  0  0  0  0  0  0  0  0
    2.5782   -4.5413   -4.3059 H   0  0  0  0  0  0  0  0  0  0  0  0
    1.8218   -2.2901   -1.5268 H   0  0  0  0  0  0  0  0  0  0  0  0
    1.8589   -4.8651   -2.1689 H   0  0  0  0  0  0  0  0  0  0  0  0
    2.6024   -1.1716    0.2510 H   0  0  0  0  0  0  0  0  0  0  0  0
    4.3820   -1.1131   -1.0302 H   0  0  0  0  0  0  0  0  0  0  0  0
    4.9014   -0.6941    0.5261 H   0  0  0  0  0  0  0  0  0  0  0  0
  1  2  1  0
  1 34  1  0
  1 35  1  0
  1 36  1  0
  2  3  2  0
  2  4  1  0
  5  4  1  1
  5 11  1  0
  5 13  1  0
  5  6  1  0
  6  7  1  0
  6 37  1  0
  6 38  1  0
  7  8  1  0
  7 39  1  0
  7 40  1  0
  8 30  1  0
  8  9  1  0
  8 41  1  1
  9 33  1  0
  9 10  1  1
  9 13  1  0
 10 11  1  0
 10 42  1  0
 10 43  1  0
 11 12  1  0
 11 44  1  1
 12 45  1  0
 12 46  1  0
 12 47  1  0
 13 14  1  0
 13 48  1  6
 14 15  1  0
 14 49  1  0
 14 50  1  0
 15 31  1  0
 15 16  1  0
 15 51  1  1
 16 17  1  0
 16 18  1  0
 16 52  1  6
 17 53  1  0
 17 54  1  0
 17 55  1  0
 18 19  1  0
 18 56  1  0
 18 57  1  0
 19 33  1  0
 19 20  1  1
 19 21  1  0
 20 58  1  0
 21 22  1  0
 23 22  1  6
 30 23  1  6
 23 33  1  0
 23 24  1  0
 24 25  1  0
 24 59  1  0
 24 60  1  0
 25 26  1  0
 25 61  1  0
 25 62  1  0
 26 27  1  0
 26 28  1  0
 26 63  1  6
 27 64  1  0
 27 65  1  0
 27 66  1  0
 28 29  1  0
 28 30  1  0
 28 67  1  1
 29 68  1  0
 30 31  1  0
 31 32  1  0
 31 69  1  1
 33 32  1  6
 32 70  1  0
 32 71  1  0
M  CHG  1  32   1
M  END
>  <i_m_ct_stereo_status>  (187) 
1

>  <s_m_source_file>  (187) 
/var/tmp/pbs.5076255.sched01/tmphf7gnms3/50i7j3xhgh.sdf

>  <i_m_source_file_index>  (187) 
30

>  <i_lp_mmshare_version>  (187) 
48012

>  <i_f3d_flags>  (187) 
0

>  <s_epik_input>  (187) 
W0NIMl0xW0NIMl1bQ0BASF0oW0NIM10pW0NAQEhdKFtPSF0pW0NAXTIoW0NAXTEzW0NAQF00NVtDQF02NzgpW0NASF02W0NIMl1bQ0gyXVtDQEBdKFtDQEBIXShbQ0gyXTcpW0NIM10pKE9DKD1PKVtDSDNdKVtDQEBIXThbQ0gyXVtDQEhdKFtDQEhdMltOSF01KVtDQEBIXShbQ0gzXSlbQ0gyXVtDQF00KFtPSF0pT08z

>  <s_epik_cmdline>  (187) 
J2VwaWtfcHl0aG9uJywgJy1waHQnLCAnMi4wJywgJy1waCcsICc3LjAnLCAnLXRuJywgJzgnLCAnLW1hJywgJzIwMCcsICctaW1hZScsICc8aW5maWxlLm1hZT4nLCAnLW9tYWUnLCAnPG91dGZpbGUubWFlPic=

>  <r_epik_Ionization_Penalty>  (187) 
0.0050628

>  <r_epik_Ionization_Penalty_Charging>  (187) 
0.00499211

>  <r_epik_Ionization_Penalty_Neutral>  (187) 
7.06936e-05

>  <r_epik_State_Penalty>  (187) 
0.00362874

>  <r_epik_Charging_Adjusted_Penalty>  (187) 
0.00862084

>  <i_epik_Tot_Q>  (187) 
1

>  <i_epik_Tot_abs_Q>  (187) 
1

>  <s_epik_Chemistry_Notes>  (187) 
This compound has an ester and may undergo hydrolysis at high or low pH.

>  <s_lp_Force_Field>  (187) 
OPLS3e

>  <r_lp_Energy>  (187) 
468.359

>  <b_lp_Chiralities_Consistent>  (187) 
1

>  <s_lp_Variant>  (187) 
51:0-1

>  <s_i_glide_gridfile>  (187) 
pfpi4k_grid

>  <i_i_glide_lignum>  (187) 
30

>  <i_i_glide_rotatable_bonds>  (187) 
4

>  <r_i_docking_score>  (187) 
-3.57586

>  <r_i_glide_ligand_efficiency>  (187) 
-0.108359

>  <r_i_glide_ligand_efficiency_sa>  (187) 
-0.347566

>  <r_i_glide_ligand_efficiency_ln>  (187) 
-0.795252

>  <r_i_glide_gscore>  (187) 
-3.57586

>  <r_i_glide_lipo>  (187) 
-0.793201

>  <r_i_glide_hbond>  (187) 
-0.48

>  <r_i_glide_metal>  (187) 
-0

>  <r_i_glide_rewards>  (187) 
-0.389081

>  <r_i_glide_evdw>  (187) 
-14.4931

>  <r_i_glide_ecoul>  (187) 
-8.4064

>  <r_i_glide_erotb>  (187) 
0.0948895

>  <r_i_glide_esite>  (187) 
-0.0228504

>  <r_i_glide_emodel>  (187) 
-24.8605

>  <r_i_glide_energy>  (187) 
-22.8995

>  <r_i_glide_einternal>  (187) 
3.30956

>  <r_i_glide_intrahb_reward>  (187) 
-0

>  <i_i_glide_confnum>  (187) 
2

>  <i_i_glide_posenum>  (187) 
8

>  <r_i_glide_eff_state_penalty>  (187) 
0

>  <ligand_id>  (187) 
51

>  <original_smiles>  (187) 
CC(=O)OC12CCC3C4(CC1C)C2CC1C(C)CC2(O)OOC56CCC(C)C(O)C35C1NC246

>  <smiles>  (187) 
[H]OC1([H])C([H])(C([H])([H])[H])C([H])([H])C([H])([H])C23OOC4(O[H])C([H])([H])C([H])(C([H])([H])[H])C5([H])C([H])([H])C6([H])C7(OC(=O)C([H])([H])[H])C([H])([H])C([H])([H])C8([H])C12C5([H])[N+]([H])([H])C43C68C([H])([H])C7([H])C([H])([H])[H]

$$$$
51:0:2
     RDKit          3D

 71 78  0  0  1  0  0  0  0  0999 V2000
   -2.9124    3.2515    2.8645 C   0  0  0  0  0  0  0  0  0  0  0  0
   -2.0519    3.1963    4.1058 C   0  0  0  0  0  0  0  0  0  0  0  0
   -2.5908    2.9860    5.1780 O   0  0  0  0  0  0  0  0  0  0  0  0
   -0.7270    3.4171    3.8443 O   0  0  0  0  0  0  0  0  0  0  0  0
    0.3049    3.6122    4.8407 C   0  0  1  0  0  0  0  0  0  0  0  0
    1.6080    2.8141    4.3697 C   0  0  0  0  0  0  0  0  0  0  0  0
    2.5961    2.3884    5.5342 C   0  0  0  0  0  0  0  0  0  0  0  0
    2.6365    3.5786    6.5226 C   0  0  1  0  0  0  0  0  0  0  0  0
    1.2710    3.5235    6.9507 C   0  0  1  0  0  0  0  0  0  0  0  0
    1.0827    5.1392    6.5213 C   0  0  0  0  0  0  0  0  0  0  0  0
    0.5532    5.1154    5.0744 C   0  0  1  0  0  0  0  0  0  0  0  0
    1.4074    5.8658    4.0286 C   0  0  0  0  0  0  0  0  0  0  0  0
    0.0404    3.0948    6.2707 C   0  0  1  0  0  0  0  0  0  0  0  0
   -0.9237    3.7319    7.3690 C   0  0  0  0  0  0  0  0  0  0  0  0
   -0.3183    4.1764    8.8351 C   0  0  1  0  0  0  0  0  0  0  0  0
   -1.0052    3.1319    9.8545 C   0  0  1  0  0  0  0  0  0  0  0  0
   -2.5515    3.2199    9.9492 C   0  0  0  0  0  0  0  0  0  0  0  0
   -0.4999    1.6195    9.7531 C   0  0  0  0  0  0  0  0  0  0  0  0
    0.6613    1.2997    8.7237 C   0  0  2  0  0  0  0  0  0  0  0  0
    0.0241    0.5783    7.6975 O   0  0  0  0  0  0  0  0  0  0  0  0
    1.7764    0.5617    9.1087 O   0  0  0  0  0  0  0  0  0  0  0  0
    2.8122    1.0662    8.1230 O   0  0  0  0  0  0  0  0  0  0  0  0
    3.0556    2.3846    8.5580 C   0  0  1  0  0  0  0  0  0  0  0  0
    3.9036    2.1629    9.8652 C   0  0  0  0  0  0  0  0  0  0  0  0
    4.6868    3.3908   10.3514 C   0  0  0  0  0  0  0  0  0  0  0  0
    5.2087    4.2142    9.1667 C   0  0  1  0  0  0  0  0  0  0  0  0
    6.1735    3.4235    8.2572 C   0  0  0  0  0  0  0  0  0  0  0  0
    3.9945    4.8271    8.4371 C   0  0  1  0  0  0  0  0  0  0  0  0
    4.4360    5.6313    7.3632 O   0  0  0  0  0  0  0  0  0  0  0  0
    2.7865    3.8643    8.1157 C   0  0  1  0  0  0  0  0  0  0  0  0
    1.3853    4.4357    9.0911 C   0  0  2  0  0  0  0  0  0  0  0  0
    1.5098    3.2788    9.7236 N   0  0  0  0  0  0  0  0  0  0  0  0
    1.5504    2.5710    8.4464 C   0  0  1  0  0  0  0  0  0  0  0  0
   -2.3693    3.7128    2.0477 H   0  0  0  0  0  0  0  0  0  0  0  0
   -3.8098    3.8286    3.0725 H   0  0  0  0  0  0  0  0  0  0  0  0
   -3.2194    2.2417    2.6024 H   0  0  0  0  0  0  0  0  0  0  0  0
    1.3133    1.9115    3.8410 H   0  0  0  0  0  0  0  0  0  0  0  0
    2.1668    3.3847    3.6305 H   0  0  0  0  0  0  0  0  0  0  0  0
    2.2333    1.4498    5.9575 H   0  0  0  0  0  0  0  0  0  0  0  0
    3.5898    2.1792    5.1349 H   0  0  0  0  0  0  0  0  0  0  0  0
    3.0639    4.3628    5.8974 H   0  0  0  0  0  0  0  0  0  0  0  0
    0.3776    5.7422    7.0837 H   0  0  0  0  0  0  0  0  0  0  0  0
    1.9295    5.8210    6.6217 H   0  0  0  0  0  0  0  0  0  0  0  0
   -0.4233    5.5979    5.0715 H   0  0  0  0  0  0  0  0  0  0  0  0
    2.4550    5.5651    4.0307 H   0  0  0  0  0  0  0  0  0  0  0  0
    1.3829    6.9384    4.2150 H   0  0  0  0  0  0  0  0  0  0  0  0
    1.0190    5.7096    3.0202 H   0  0  0  0  0  0  0  0  0  0  0  0
   -0.1437    2.0528    6.0717 H   0  0  0  0  0  0  0  0  0  0  0  0
   -1.4524    4.5896    6.9499 H   0  0  0  0  0  0  0  0  0  0  0  0
   -1.7130    3.0028    7.5154 H   0  0  0  0  0  0  0  0  0  0  0  0
   -0.7796    5.1378    9.0563 H   0  0  0  0  0  0  0  0  0  0  0  0
   -0.7234    3.4752   10.8518 H   0  0  0  0  0  0  0  0  0  0  0  0
   -3.0811    2.7768    9.1027 H   0  0  0  0  0  0  0  0  0  0  0  0
   -2.8922    4.2532   10.0458 H   0  0  0  0  0  0  0  0  0  0  0  0
   -2.9055    2.6916   10.8381 H   0  0  0  0  0  0  0  0  0  0  0  0
   -0.1794    1.3032   10.7467 H   0  0  0  0  0  0  0  0  0  0  0  0
   -1.3552    0.9787    9.5340 H   0  0  0  0  0  0  0  0  0  0  0  0
    0.6217    0.5308    6.9653 H   0  0  0  0  0  0  0  0  0  0  0  0
    3.3553    1.6953   10.6826 H   0  0  0  0  0  0  0  0  0  0  0  0
    4.6543    1.4176    9.5992 H   0  0  0  0  0  0  0  0  0  0  0  0
    4.0496    4.0184   10.9763 H   0  0  0  0  0  0  0  0  0  0  0  0
    5.5132    3.0843   10.9990 H   0  0  0  0  0  0  0  0  0  0  0  0
    5.7925    5.0371    9.5834 H   0  0  0  0  0  0  0  0  0  0  0  0
    5.6670    2.6377    7.6969 H   0  0  0  0  0  0  0  0  0  0  0  0
    6.9668    2.9544    8.8420 H   0  0  0  0  0  0  0  0  0  0  0  0
    6.6549    4.0799    7.5309 H   0  0  0  0  0  0  0  0  0  0  0  0
    3.6114    5.5670    9.1353 H   0  0  0  0  0  0  0  0  0  0  0  0
    4.9216    6.3632    7.7067 H   0  0  0  0  0  0  0  0  0  0  0  0
    1.5805    5.2509    9.7875 H   0  0  0  0  0  0  0  0  0  0  0  0
    2.3848    3.1831   10.2205 H   0  0  0  0  0  0  0  0  0  0  0  0
    0.6913    3.0503   10.2731 H   0  0  0  0  0  0  0  0  0  0  0  0
  1  2  1  0
  1 34  1  0
  1 35  1  0
  1 36  1  0
  2  3  2  0
  2  4  1  0
  5  4  1  6
  5 11  1  0
  5 13  1  0
  5  6  1  0
  6  7  1  0
  6 37  1  0
  6 38  1  0
  7  8  1  0
  7 39  1  0
  7 40  1  0
  8 30  1  0
  8  9  1  0
  8 41  1  6
  9 33  1  0
  9 10  1  1
  9 13  1  0
 10 11  1  0
 10 42  1  0
 10 43  1  0
 11 12  1  0
 11 44  1  1
 12 45  1  0
 12 46  1  0
 12 47  1  0
 13 14  1  0
 13 48  1  6
 14 15  1  0
 14 49  1  0
 14 50  1  0
 15 31  1  0
 15 16  1  0
 15 51  1  1
 16 17  1  0
 16 18  1  0
 16 52  1  1
 17 53  1  0
 17 54  1  0
 17 55  1  0
 18 19  1  0
 18 56  1  0
 18 57  1  0
 19 33  1  0
 19 20  1  6
 19 21  1  0
 20 58  1  0
 21 22  1  0
 23 22  1  6
 30 23  1  1
 23 33  1  0
 23 24  1  0
 24 25  1  0
 24 59  1  0
 24 60  1  0
 25 26  1  0
 25 61  1  0
 25 62  1  0
 26 27  1  0
 26 28  1  0
 26 63  1  1
 27 64  1  0
 27 65  1  0
 27 66  1  0
 28 29  1  0
 28 30  1  0
 28 67  1  1
 29 68  1  0
 30 31  1  0
 31 32  1  0
 31 69  1  1
 33 32  1  1
 32 70  1  0
 32 71  1  0
M  CHG  1  32   1
M  END
>  <i_m_ct_stereo_status>  (188) 
1

>  <s_m_source_file>  (188) 
/var/tmp/pbs.5076255.sched01/tmphf7gnms3/50i7j3xhgh.sdf

>  <i_m_source_file_index>  (188) 
30

>  <i_lp_mmshare_version>  (188) 
48012

>  <i_f3d_flags>  (188) 
0

>  <s_epik_input>  (188) 
W0NIMl0xW0NIMl1bQ0BASF0oW0NIM10pW0NAQEhdKFtPSF0pW0NAXTIoW0NAXTEzW0NAQF00NVtDQF02NzgpW0NASF02W0NIMl1bQ0gyXVtDQEBdKFtDQEBIXShbQ0gyXTcpW0NIM10pKE9DKD1PKVtDSDNdKVtDQEBIXThbQ0gyXVtDQEhdKFtDQEhdMltOSF01KVtDQEBIXShbQ0gzXSlbQ0gyXVtDQF00KFtPSF0pT08z

>  <s_epik_cmdline>  (188) 
J2VwaWtfcHl0aG9uJywgJy1waHQnLCAnMi4wJywgJy1waCcsICc3LjAnLCAnLXRuJywgJzgnLCAnLW1hJywgJzIwMCcsICctaW1hZScsICc8aW5maWxlLm1hZT4nLCAnLW9tYWUnLCAnPG91dGZpbGUubWFlPic=

>  <r_epik_Ionization_Penalty>  (188) 
0.0050628

>  <r_epik_Ionization_Penalty_Charging>  (188) 
0.00499211

>  <r_epik_Ionization_Penalty_Neutral>  (188) 
7.06936e-05

>  <r_epik_State_Penalty>  (188) 
0.00362874

>  <r_epik_Charging_Adjusted_Penalty>  (188) 
0.00862084

>  <i_epik_Tot_Q>  (188) 
1

>  <i_epik_Tot_abs_Q>  (188) 
1

>  <s_epik_Chemistry_Notes>  (188) 
This compound has an ester and may undergo hydrolysis at high or low pH.

>  <s_lp_Force_Field>  (188) 
OPLS3e

>  <r_lp_Energy>  (188) 
468.359

>  <b_lp_Chiralities_Consistent>  (188) 
1

>  <s_lp_Variant>  (188) 
51:0-1

>  <s_i_glide_gridfile>  (188) 
pfpi4k_grid

>  <i_i_glide_lignum>  (188) 
30

>  <i_i_glide_rotatable_bonds>  (188) 
4

>  <r_i_docking_score>  (188) 
-1.61724

>  <r_i_glide_ligand_efficiency>  (188) 
-0.0490073

>  <r_i_glide_ligand_efficiency_sa>  (188) 
-0.157192

>  <r_i_glide_ligand_efficiency_ln>  (188) 
-0.359666

>  <r_i_glide_gscore>  (188) 
-1.61724

>  <r_i_glide_lipo>  (188) 
-0.00143048

>  <r_i_glide_hbond>  (188) 
0

>  <r_i_glide_metal>  (188) 
-0

>  <r_i_glide_rewards>  (188) 
-0.268752

>  <r_i_glide_evdw>  (188) 
-20.9629

>  <r_i_glide_ecoul>  (188) 
-2.31873

>  <r_i_glide_erotb>  (188) 
0.0948895

>  <r_i_glide_esite>  (188) 
-0.0459896

>  <r_i_glide_emodel>  (188) 
-22.4474

>  <r_i_glide_energy>  (188) 
-23.2817

>  <r_i_glide_einternal>  (188) 
5.26371

>  <r_i_glide_intrahb_reward>  (188) 
-0

>  <i_i_glide_confnum>  (188) 
2

>  <i_i_glide_posenum>  (188) 
11

>  <r_i_glide_eff_state_penalty>  (188) 
0

>  <ligand_id>  (188) 
51

>  <original_smiles>  (188) 
CC(=O)OC12CCC3C4(CC1C)C2CC1C(C)CC2(O)OOC56CCC(C)C(O)C35C1NC246

>  <smiles>  (188) 
[H]OC1([H])C([H])(C([H])([H])[H])C([H])([H])C([H])([H])C23OOC4(O[H])C([H])([H])C([H])(C([H])([H])[H])C5([H])C([H])([H])C6([H])C7(OC(=O)C([H])([H])[H])C([H])([H])C([H])([H])C8([H])C12C5([H])[N+]([H])([H])C43C68C([H])([H])C7([H])C([H])([H])[H]

$$$$
52:1:0
     RDKit          3D

 76 80  0  0  1  0  0  0  0  0999 V2000
    1.0361   -3.0738    3.6253 C   0  0  0  0  0  0  0  0  0  0  0  0
    1.4965   -2.9380    4.8824 C   0  0  0  0  0  0  0  0  0  0  0  0
    2.0049   -1.6678    5.5700 C   0  0  1  0  0  0  0  0  0  0  0  0
    3.5256   -1.9880    5.7132 C   0  0  0  0  0  0  0  0  0  0  0  0
    1.8955   -0.3773    4.6857 C   0  0  0  0  0  0  0  0  0  0  0  0
    0.5476    0.4461    4.5955 C   0  0  2  0  0  0  0  0  0  0  0  0
   -0.0125    0.2014    3.2971 O   0  0  0  0  0  0  0  0  0  0  0  0
    0.7077    0.6113    2.1255 C   0  0  0  0  0  0  0  0  0  0  0  0
    0.7030    2.0392    4.7495 C   0  0  0  0  0  0  0  0  0  0  0  0
   -0.4214    2.6298    4.1347 O   0  0  0  0  0  0  0  0  0  0  0  0
   -0.4788    3.9670    3.7997 C   0  0  0  0  0  0  0  0  0  0  0  0
   -1.5432    4.5392    3.6554 O   0  0  0  0  0  0  0  0  0  0  0  0
    0.8242    4.6015    3.5359 C   0  0  0  0  0  0  0  0  0  0  0  0
    1.0515    5.9224    3.7055 C   0  0  0  0  0  0  0  0  0  0  0  0
    2.3159    6.5514    3.5714 C   0  0  0  0  0  0  0  0  0  0  0  0
    3.5296    6.1374    3.0790 C   0  0  0  0  0  0  0  0  0  0  0  0
    4.4569    7.2148    3.3234 C   0  0  0  0  0  0  0  0  0  0  0  0
    3.7455    8.2083    3.8894 C   0  0  0  0  0  0  0  0  0  0  0  0
    2.4422    7.8164    4.0891 O   0  0  0  0  0  0  0  0  0  0  0  0
    1.5065    2.7852    5.6201 C   0  0  0  0  0  0  0  0  0  0  0  0
    3.0462    2.6078    5.6949 C   0  0  1  0  0  0  0  0  0  0  0  0
    3.7865    3.9020    5.3180 C   0  0  0  0  0  0  0  0  0  0  0  0
    3.6793    1.8677    6.9741 C   0  0  0  0  0  0  0  0  0  0  0  0
    2.6944    1.4133    8.1240 C   0  0  2  0  0  0  0  0  0  0  0  0
    2.9538   -0.0452    8.5379 C   0  0  0  0  0  0  0  0  0  0  0  0
    2.3645   -1.1889    8.0927 C   0  0  0  0  0  0  0  0  0  0  0  0
    1.3028   -1.4362    6.9846 C   0  0  1  0  0  0  0  0  0  0  0  0
    0.1004   -0.4359    6.9974 C   0  0  0  0  0  0  0  0  0  0  0  0
    0.1408    0.5774    7.9044 C   0  0  0  0  0  0  0  0  0  0  0  0
    1.2438    1.6489    7.7089 C   0  0  0  0  0  0  0  0  0  0  0  0
    0.9504    3.0382    7.0385 C   0  0  0  0  0  0  0  0  0  0  0  0
    1.6950    4.2127    7.7711 C   0  0  0  0  0  0  0  0  0  0  0  0
   -0.5467    3.5109    7.1737 C   0  0  0  0  0  0  0  0  0  0  0  0
   -0.5418   -0.2033    5.6083 C   0  0  0  0  0  0  0  0  0  0  0  0
   -1.8267    0.6554    5.7023 C   0  0  0  0  0  0  0  0  0  0  0  0
   -1.2137   -1.5495    5.1176 C   0  0  0  0  0  0  0  0  0  0  0  0
    0.9451   -2.2166    2.9551 H   0  0  0  0  0  0  0  0  0  0  0  0
    0.7299   -4.0255    3.2504 H   0  0  0  0  0  0  0  0  0  0  0  0
    1.5779   -3.8457    5.4761 H   0  0  0  0  0  0  0  0  0  0  0  0
    4.1105   -1.1750    6.1476 H   0  0  0  0  0  0  0  0  0  0  0  0
    3.9764   -2.1944    4.7328 H   0  0  0  0  0  0  0  0  0  0  0  0
    3.6967   -2.8778    6.3327 H   0  0  0  0  0  0  0  0  0  0  0  0
    2.6337    0.2295    5.1587 H   0  0  0  0  0  0  0  0  0  0  0  0
    2.3598   -0.5659    3.7123 H   0  0  0  0  0  0  0  0  0  0  0  0
    0.0058    0.7447    1.2982 H   0  0  0  0  0  0  0  0  0  0  0  0
    1.4191   -0.1490    1.8009 H   0  0  0  0  0  0  0  0  0  0  0  0
    1.2390    1.5524    2.2549 H   0  0  0  0  0  0  0  0  0  0  0  0
    1.6525    3.9478    3.2258 H   0  0  0  0  0  0  0  0  0  0  0  0
    0.2243    6.5926    3.9722 H   0  0  0  0  0  0  0  0  0  0  0  0
    3.7357    5.1846    2.6084 H   0  0  0  0  0  0  0  0  0  0  0  0
    5.5052    7.2448    3.0760 H   0  0  0  0  0  0  0  0  0  0  0  0
    3.9595    9.2282    4.2289 H   0  0  0  0  0  0  0  0  0  0  0  0
    3.3666    2.0133    4.8476 H   0  0  0  0  0  0  0  0  0  0  0  0
    3.5249    4.1361    4.3295 H   0  0  0  0  0  0  0  0  0  0  0  0
    4.8741    3.7888    5.3916 H   0  0  0  0  0  0  0  0  0  0  0  0
    3.5238    4.7421    5.9961 H   0  0  0  0  0  0  0  0  0  0  0  0
    4.2645    1.0122    6.6314 H   0  0  0  0  0  0  0  0  0  0  0  0
    4.4265    2.5160    7.4265 H   0  0  0  0  0  0  0  0  0  0  0  0
    2.8878    2.0128    9.0299 H   0  0  0  0  0  0  0  0  0  0  0  0
    3.7223   -0.1218    9.3012 H   0  0  0  0  0  0  0  0  0  0  0  0
    2.7246   -2.0937    8.5515 H   0  0  0  0  0  0  0  0  0  0  0  0
    0.8670   -2.3881    7.2824 H   0  0  0  0  0  0  0  0  0  0  0  0
    0.3776    0.2742    8.9094 H   0  0  0  0  0  0  0  0  0  0  0  0
    1.5965    1.0853    6.8818 H   0  0  0  0  0  0  0  0  0  0  0  0
    1.3068    4.3602    8.7704 H   0  0  0  0  0  0  0  0  0  0  0  0
    1.5583    5.1452    7.2184 H   0  0  0  0  0  0  0  0  0  0  0  0
    2.7714    4.0789    7.9027 H   0  0  0  0  0  0  0  0  0  0  0  0
   -1.1381    2.8390    7.7996 H   0  0  0  0  0  0  0  0  0  0  0  0
   -1.0535    3.6547    6.2323 H   0  0  0  0  0  0  0  0  0  0  0  0
   -0.6190    4.4832    7.6559 H   0  0  0  0  0  0  0  0  0  0  0  0
   -2.3005    0.7178    4.7214 H   0  0  0  0  0  0  0  0  0  0  0  0
   -1.6663    1.6668    6.0353 H   0  0  0  0  0  0  0  0  0  0  0  0
   -2.5435    0.2217    6.3949 H   0  0  0  0  0  0  0  0  0  0  0  0
   -1.0327   -1.7431    4.0654 H   0  0  0  0  0  0  0  0  0  0  0  0
   -2.2984   -1.5500    5.2543 H   0  0  0  0  0  0  0  0  0  0  0  0
   -0.8738   -2.4094    5.7117 H   0  0  0  0  0  0  0  0  0  0  0  0
  1  2  2  0
  1 37  1  0
  1 38  1  0
  2  3  1  0
  2 39  1  0
  3 27  1  0
  3  4  1  1
  3  5  1  0
  4 40  1  0
  4 41  1  0
  4 42  1  0
  5  6  1  0
  5 43  1  0
  5 44  1  0
  6 34  1  0
  6  7  1  6
  6  9  1  0
  7  8  1  0
  8 45  1  0
  8 46  1  0
  8 47  1  0
  9 10  1  0
  9 20  2  3
 10 11  1  0
 11 12  2  0
 11 13  1  0
 13 14  2  3
 13 48  1  0
 14 15  1  0
 14 49  1  0
 15 19  1  0
 15 16  2  0
 16 17  1  0
 16 50  1  0
 17 18  2  0
 17 51  1  0
 18 19  1  0
 18 52  1  0
 20 31  1  0
 20 21  1  0
 21 22  1  0
 21 23  1  0
 21 53  1  6
 22 54  1  0
 22 55  1  0
 22 56  1  0
 23 24  1  0
 23 57  1  0
 23 58  1  0
 24 30  1  0
 24 25  1  0
 24 59  1  1
 25 26  2  0
 25 60  1  0
 26 27  1  0
 26 61  1  0
 27 28  1  0
 27 62  1  1
 28 29  2  0
 28 34  1  0
 29 30  1  0
 29 63  1  0
 30 31  1  0
 30 64  1  0
 31 32  1  0
 31 33  1  0
 32 65  1  0
 32 66  1  0
 32 67  1  0
 33 68  1  0
 33 69  1  0
 33 70  1  0
 34 35  1  0
 34 36  1  0
 35 71  1  0
 35 72  1  0
 35 73  1  0
 36 74  1  0
 36 75  1  0
 36 76  1  0
M  END
>  <i_m_ct_stereo_status>  (189) 
1

>  <s_m_source_file>  (189) 
/var/tmp/pbs.5076255.sched01/tmphf7gnms3/50i7j3xhgh.sdf

>  <i_m_source_file_index>  (189) 
32

>  <i_lp_mmshare_version>  (189) 
48012

>  <i_f3d_flags>  (189) 
0

>  <s_epik_input>  (189) 
W0NIM11PQzEyW0NIMl1bQ0BdKFtDSDNdKShbQ0hdPVtDSDJdKVtDSF0zQyhDMihbQ0gzXSlbQ0gzXSk9W0NIXVtDQEBIXTRbQ0hdKFtDSF09W0NIXTMpW0NIMl1bQ0BIXShbQ0gzXSlcQyhDNChbQ0gzXSlbQ0gzXSk9Q1wxT0MoPU8pL1tDSF09W0NIXS9jNVtjSF1bY0hdW2NIXW81

>  <s_epik_cmdline>  (189) 
J2VwaWtfcHl0aG9uJywgJy1waHQnLCAnMi4wJywgJy1waCcsICc3LjAnLCAnLXRuJywgJzgnLCAnLW1hJywgJzIwMCcsICctaW1hZScsICc8aW5maWxlLm1hZT4nLCAnLW9tYWUnLCAnPG91dGZpbGUubWFlPic=

>  <r_lp_tautomer_probability>  (189) 
1

>  <r_epik_Ionization_Penalty>  (189) 
1.29585e-13

>  <r_epik_Ionization_Penalty_Charging>  (189) 
0

>  <r_epik_Ionization_Penalty_Neutral>  (189) 
1.29585e-13

>  <r_epik_State_Penalty>  (189) 
-0

>  <r_epik_Charging_Adjusted_Penalty>  (189) 
0

>  <i_epik_Tot_Q>  (189) 
0

>  <i_epik_Tot_abs_Q>  (189) 
0

>  <s_lp_Force_Field>  (189) 
OPLS3e

>  <r_lp_Energy>  (189) 
252.424

>  <b_lp_Chiralities_Consistent>  (189) 
1

>  <s_lp_Variant>  (189) 
52:0-2

>  <s_i_glide_gridfile>  (189) 
pfpi4k_grid

>  <i_i_glide_lignum>  (189) 
32

>  <i_i_glide_rotatable_bonds>  (189) 
6

>  <r_i_docking_score>  (189) 
-1.77316

>  <r_i_glide_ligand_efficiency>  (189) 
-0.0492545

>  <r_i_glide_ligand_efficiency_sa>  (189) 
-0.162635

>  <r_i_glide_ligand_efficiency_ln>  (189) 
-0.386856

>  <r_i_glide_gscore>  (189) 
-1.77316

>  <r_i_glide_lipo>  (189) 
-0.272325

>  <r_i_glide_hbond>  (189) 
-0.16

>  <r_i_glide_metal>  (189) 
-0

>  <r_i_glide_rewards>  (189) 
-0.0773345

>  <r_i_glide_evdw>  (189) 
-22.4352

>  <r_i_glide_ecoul>  (189) 
-2.59749

>  <r_i_glide_erotb>  (189) 
0.340689

>  <r_i_glide_esite>  (189) 
-0.0928124

>  <r_i_glide_emodel>  (189) 
-23.3812

>  <r_i_glide_energy>  (189) 
-25.0326

>  <r_i_glide_einternal>  (189) 
6.97991

>  <r_i_glide_intrahb_reward>  (189) 
-0

>  <i_i_glide_confnum>  (189) 
3

>  <i_i_glide_posenum>  (189) 
27

>  <r_i_glide_eff_state_penalty>  (189) 
0

>  <ligand_id>  (189) 
52

>  <original_smiles>  (189) 
C=CC1(C)CC2(OC)C(OC(=O)C=Cc3ccco3)=C3C(C)CC4C=CC1C(=CC4C3(C)C)C2(C)C

>  <smiles>  (189) 
[H]C([H])=C([H])C1(C([H])([H])[H])C2([H])C([H])=C([H])C3([H])C([H])([H])C([H])(C([H])([H])[H])C4=C(OC(=O)C([H])=C([H])c5oc([H])c([H])c5[H])C(OC([H])([H])[H])(C1([H])[H])C(C([H])([H])[H])(C([H])([H])[H])C2=C([H])C3([H])C4(C([H])([H])[H])C([H])([H])[H]

$$$$
52:1:1
     RDKit          3D

 76 80  0  0  1  0  0  0  0  0999 V2000
    1.8696   -5.9466    3.3435 C   0  0  0  0  0  0  0  0  0  0  0  0
    2.6322   -6.0269    4.4476 C   0  0  0  0  0  0  0  0  0  0  0  0
    3.4744   -4.9190    5.1048 C   0  0  1  0  0  0  0  0  0  0  0  0
    4.9181   -5.4425    4.8461 C   0  0  0  0  0  0  0  0  0  0  0  0
    3.3723   -3.5250    4.4032 C   0  0  0  0  0  0  0  0  0  0  0  0
    2.1700   -2.5383    4.7331 C   0  0  2  0  0  0  0  0  0  0  0  0
    1.3015   -2.5386    3.5874 O   0  0  0  0  0  0  0  0  0  0  0  0
    1.7988   -2.0797    2.3270 C   0  0  0  0  0  0  0  0  0  0  0  0
    2.5732   -0.9998    4.9897 C   0  0  0  0  0  0  0  0  0  0  0  0
    1.4942   -0.2230    4.6095 O   0  0  0  0  0  0  0  0  0  0  0  0
    1.5414    1.1250    4.4032 C   0  0  0  0  0  0  0  0  0  0  0  0
    2.5190    1.8624    4.4970 O   0  0  0  0  0  0  0  0  0  0  0  0
    0.2049    1.5802    4.0297 C   0  0  0  0  0  0  0  0  0  0  0  0
   -0.0277    2.8729    3.7231 C   0  0  0  0  0  0  0  0  0  0  0  0
   -1.2680    3.4556    3.3193 C   0  0  0  0  0  0  0  0  0  0  0  0
   -1.6016    4.7075    2.9049 C   0  0  0  0  0  0  0  0  0  0  0  0
   -2.9975    4.6445    2.5698 C   0  0  0  0  0  0  0  0  0  0  0  0
   -3.3721    3.3649    2.7970 C   0  0  0  0  0  0  0  0  0  0  0  0
   -2.3400    2.6125    3.2677 O   0  0  0  0  0  0  0  0  0  0  0  0
    3.6538   -0.4290    5.6577 C   0  0  0  0  0  0  0  0  0  0  0  0
    5.1436   -0.8156    5.3252 C   0  0  1  0  0  0  0  0  0  0  0  0
    5.9675    0.4314    4.9359 C   0  0  0  0  0  0  0  0  0  0  0  0
    5.9339   -1.7756    6.3503 C   0  0  0  0  0  0  0  0  0  0  0  0
    5.1976   -2.2836    7.6614 C   0  0  2  0  0  0  0  0  0  0  0  0
    5.3154   -3.7984    7.8581 C   0  0  0  0  0  0  0  0  0  0  0  0
    4.4728   -4.7939    7.4874 C   0  0  0  0  0  0  0  0  0  0  0  0
    3.1610   -4.7780    6.6656 C   0  0  1  0  0  0  0  0  0  0  0  0
    2.1619   -3.6407    7.0714 C   0  0  0  0  0  0  0  0  0  0  0  0
    2.5747   -2.7509    8.0173 C   0  0  0  0  0  0  0  0  0  0  0  0
    3.7435   -1.8129    7.6320 C   0  0  0  0  0  0  0  0  0  0  0  0
    3.5180   -0.3187    7.2136 C   0  0  0  0  0  0  0  0  0  0  0  0
    4.5822    0.6296    7.8449 C   0  0  0  0  0  0  0  0  0  0  0  0
    2.1871    0.2984    7.7462 C   0  0  0  0  0  0  0  0  0  0  0  0
    1.2475   -3.1555    5.9119 C   0  0  0  0  0  0  0  0  0  0  0  0
    0.1805   -2.1486    6.3985 C   0  0  0  0  0  0  0  0  0  0  0  0
    0.2702   -4.3146    5.4918 C   0  0  0  0  0  0  0  0  0  0  0  0
    1.8014   -5.0273    2.7691 H   0  0  0  0  0  0  0  0  0  0  0  0
    1.3814   -6.8180    2.9404 H   0  0  0  0  0  0  0  0  0  0  0  0
    2.7193   -7.0064    4.9247 H   0  0  0  0  0  0  0  0  0  0  0  0
    5.7049   -4.7684    5.2016 H   0  0  0  0  0  0  0  0  0  0  0  0
    5.0945   -5.5798    3.7740 H   0  0  0  0  0  0  0  0  0  0  0  0
    5.0847   -6.4163    5.3231 H   0  0  0  0  0  0  0  0  0  0  0  0
    4.2819   -3.0718    4.7349 H   0  0  0  0  0  0  0  0  0  0  0  0
    3.5550   -3.6442    3.3334 H   0  0  0  0  0  0  0  0  0  0  0  0
    0.9615   -1.7468    1.7153 H   0  0  0  0  0  0  0  0  0  0  0  0
    2.2838   -2.8831    1.7733 H   0  0  0  0  0  0  0  0  0  0  0  0
    2.4875   -1.2393    2.4066 H   0  0  0  0  0  0  0  0  0  0  0  0
   -0.6067    0.8690    4.0021 H   0  0  0  0  0  0  0  0  0  0  0  0
    0.7921    3.5722    3.7603 H   0  0  0  0  0  0  0  0  0  0  0  0
   -0.9105    5.5304    2.8144 H   0  0  0  0  0  0  0  0  0  0  0  0
   -3.6344    5.4178    2.1751 H   0  0  0  0  0  0  0  0  0  0  0  0
   -4.2999    2.8066    2.6748 H   0  0  0  0  0  0  0  0  0  0  0  0
    5.1524   -1.3262    4.3618 H   0  0  0  0  0  0  0  0  0  0  0  0
    5.4985    0.9154    4.0823 H   0  0  0  0  0  0  0  0  0  0  0  0
    6.9893    0.1884    4.6506 H   0  0  0  0  0  0  0  0  0  0  0  0
    6.0211    1.1882    5.7155 H   0  0  0  0  0  0  0  0  0  0  0  0
    6.2662   -2.6585    5.8046 H   0  0  0  0  0  0  0  0  0  0  0  0
    6.8547   -1.2953    6.6643 H   0  0  0  0  0  0  0  0  0  0  0  0
    5.6719   -1.8522    8.5445 H   0  0  0  0  0  0  0  0  0  0  0  0
    6.1930   -4.0591    8.4201 H   0  0  0  0  0  0  0  0  0  0  0  0
    4.7738   -5.7852    7.7689 H   0  0  0  0  0  0  0  0  0  0  0  0
    2.6638   -5.6892    6.9680 H   0  0  0  0  0  0  0  0  0  0  0  0
    2.9890   -3.2118    8.9040 H   0  0  0  0  0  0  0  0  0  0  0  0
    3.7908   -2.3079    6.6952 H   0  0  0  0  0  0  0  0  0  0  0  0
    4.4422    0.6746    8.9237 H   0  0  0  0  0  0  0  0  0  0  0  0
    4.4615    1.6393    7.4474 H   0  0  0  0  0  0  0  0  0  0  0  0
    5.6188    0.3469    7.6956 H   0  0  0  0  0  0  0  0  0  0  0  0
    1.6672   -0.3733    8.4304 H   0  0  0  0  0  0  0  0  0  0  0  0
    1.4988    0.6289    6.9680 H   0  0  0  0  0  0  0  0  0  0  0  0
    2.3781    1.2026    8.3272 H   0  0  0  0  0  0  0  0  0  0  0  0
   -0.5067   -1.9218    5.5827 H   0  0  0  0  0  0  0  0  0  0  0  0
    0.5597   -1.2208    6.7693 H   0  0  0  0  0  0  0  0  0  0  0  0
   -0.3974   -2.5937    7.2081 H   0  0  0  0  0  0  0  0  0  0  0  0
    0.0885   -4.3350    4.4114 H   0  0  0  0  0  0  0  0  0  0  0  0
   -0.7166   -4.2147    5.9861 H   0  0  0  0  0  0  0  0  0  0  0  0
    0.6285   -5.2828    5.8534 H   0  0  0  0  0  0  0  0  0  0  0  0
  1  2  2  0
  1 37  1  0
  1 38  1  0
  2  3  1  0
  2 39  1  0
  3 27  1  0
  3  4  1  1
  3  5  1  0
  4 40  1  0
  4 41  1  0
  4 42  1  0
  5  6  1  0
  5 43  1  0
  5 44  1  0
  6 34  1  0
  6  7  1  6
  6  9  1  0
  7  8  1  0
  8 45  1  0
  8 46  1  0
  8 47  1  0
  9 10  1  0
  9 20  2  3
 10 11  1  0
 11 12  2  0
 11 13  1  0
 13 14  2  3
 13 48  1  0
 14 15  1  0
 14 49  1  0
 15 19  1  0
 15 16  2  0
 16 17  1  0
 16 50  1  0
 17 18  2  0
 17 51  1  0
 18 19  1  0
 18 52  1  0
 20 31  1  0
 20 21  1  0
 21 22  1  0
 21 23  1  0
 21 53  1  6
 22 54  1  0
 22 55  1  0
 22 56  1  0
 23 24  1  0
 23 57  1  0
 23 58  1  0
 24 30  1  0
 24 25  1  0
 24 59  1  1
 25 26  2  0
 25 60  1  0
 26 27  1  0
 26 61  1  0
 27 28  1  0
 27 62  1  1
 28 29  2  0
 28 34  1  0
 29 30  1  0
 29 63  1  0
 30 31  1  0
 30 64  1  0
 31 32  1  0
 31 33  1  0
 32 65  1  0
 32 66  1  0
 32 67  1  0
 33 68  1  0
 33 69  1  0
 33 70  1  0
 34 35  1  0
 34 36  1  0
 35 71  1  0
 35 72  1  0
 35 73  1  0
 36 74  1  0
 36 75  1  0
 36 76  1  0
M  END
>  <i_m_ct_stereo_status>  (190) 
1

>  <s_m_source_file>  (190) 
/var/tmp/pbs.5076255.sched01/tmphf7gnms3/50i7j3xhgh.sdf

>  <i_m_source_file_index>  (190) 
32

>  <i_lp_mmshare_version>  (190) 
48012

>  <i_f3d_flags>  (190) 
0

>  <s_epik_input>  (190) 
W0NIM11PQzEyW0NIMl1bQ0BdKFtDSDNdKShbQ0hdPVtDSDJdKVtDSF0zQyhDMihbQ0gzXSlbQ0gzXSk9W0NIXVtDQEBIXTRbQ0hdKFtDSF09W0NIXTMpW0NIMl1bQ0BIXShbQ0gzXSlcQyhDNChbQ0gzXSlbQ0gzXSk9Q1wxT0MoPU8pL1tDSF09W0NIXS9jNVtjSF1bY0hdW2NIXW81

>  <s_epik_cmdline>  (190) 
J2VwaWtfcHl0aG9uJywgJy1waHQnLCAnMi4wJywgJy1waCcsICc3LjAnLCAnLXRuJywgJzgnLCAnLW1hJywgJzIwMCcsICctaW1hZScsICc8aW5maWxlLm1hZT4nLCAnLW9tYWUnLCAnPG91dGZpbGUubWFlPic=

>  <r_lp_tautomer_probability>  (190) 
1

>  <r_epik_Ionization_Penalty>  (190) 
1.29585e-13

>  <r_epik_Ionization_Penalty_Charging>  (190) 
0

>  <r_epik_Ionization_Penalty_Neutral>  (190) 
1.29585e-13

>  <r_epik_State_Penalty>  (190) 
-0

>  <r_epik_Charging_Adjusted_Penalty>  (190) 
0

>  <i_epik_Tot_Q>  (190) 
0

>  <i_epik_Tot_abs_Q>  (190) 
0

>  <s_lp_Force_Field>  (190) 
OPLS3e

>  <r_lp_Energy>  (190) 
252.424

>  <b_lp_Chiralities_Consistent>  (190) 
1

>  <s_lp_Variant>  (190) 
52:0-2

>  <s_i_glide_gridfile>  (190) 
pfpi4k_grid

>  <i_i_glide_lignum>  (190) 
32

>  <i_i_glide_rotatable_bonds>  (190) 
6

>  <r_i_docking_score>  (190) 
-0.850583

>  <r_i_glide_ligand_efficiency>  (190) 
-0.0236273

>  <r_i_glide_ligand_efficiency_sa>  (190) 
-0.0780157

>  <r_i_glide_ligand_efficiency_ln>  (190) 
-0.185574

>  <r_i_glide_gscore>  (190) 
-0.850583

>  <r_i_glide_lipo>  (190) 
-0.203468

>  <r_i_glide_hbond>  (190) 
0

>  <r_i_glide_metal>  (190) 
-0

>  <r_i_glide_rewards>  (190) 
-0.0773345

>  <r_i_glide_evdw>  (190) 
-19.1196

>  <r_i_glide_ecoul>  (190) 
0.323632

>  <r_i_glide_erotb>  (190) 
0.340689

>  <r_i_glide_esite>  (190) 
-0.003037

>  <r_i_glide_emodel>  (190) 
-19.1548

>  <r_i_glide_energy>  (190) 
-18.7959

>  <r_i_glide_einternal>  (190) 
1.27033

>  <r_i_glide_intrahb_reward>  (190) 
-0

>  <i_i_glide_confnum>  (190) 
3

>  <i_i_glide_posenum>  (190) 
1

>  <r_i_glide_eff_state_penalty>  (190) 
0

>  <ligand_id>  (190) 
52

>  <original_smiles>  (190) 
C=CC1(C)CC2(OC)C(OC(=O)C=Cc3ccco3)=C3C(C)CC4C=CC1C(=CC4C3(C)C)C2(C)C

>  <smiles>  (190) 
[H]C([H])=C([H])C1(C([H])([H])[H])C2([H])C([H])=C([H])C3([H])C([H])([H])C([H])(C([H])([H])[H])C4=C(OC(=O)C([H])=C([H])c5oc([H])c([H])c5[H])C(OC([H])([H])[H])(C1([H])[H])C(C([H])([H])[H])(C([H])([H])[H])C2=C([H])C3([H])C4(C([H])([H])[H])C([H])([H])[H]

$$$$
52:2:0
     RDKit          3D

 76 80  0  0  1  0  0  0  0  0999 V2000
   -1.8284   -8.8351    2.3606 C   0  0  0  0  0  0  0  0  0  0  0  0
   -1.1067   -8.1357    3.2529 C   0  0  0  0  0  0  0  0  0  0  0  0
    0.4233   -8.1571    3.4461 C   0  0  1  0  0  0  0  0  0  0  0  0
    1.0437   -8.8058    2.1839 C   0  0  0  0  0  0  0  0  0  0  0  0
    0.9205   -6.6541    3.4446 C   0  0  0  0  0  0  0  0  0  0  0  0
    2.2192   -6.3224    4.2703 C   0  0  2  0  0  0  0  0  0  0  0  0
    2.3320   -4.8974    4.4683 O   0  0  0  0  0  0  0  0  0  0  0  0
    1.9763   -3.9510    3.4605 C   0  0  0  0  0  0  0  0  0  0  0  0
    3.4784   -6.8074    3.3734 C   0  0  0  0  0  0  0  0  0  0  0  0
    3.2777   -6.3729    2.0800 O   0  0  0  0  0  0  0  0  0  0  0  0
    4.2554   -5.6457    1.4698 C   0  0  0  0  0  0  0  0  0  0  0  0
    5.3318   -5.3926    2.0218 O   0  0  0  0  0  0  0  0  0  0  0  0
    3.8135   -5.1398    0.1585 C   0  0  0  0  0  0  0  0  0  0  0  0
    4.5152   -4.3886   -0.7190 C   0  0  0  0  0  0  0  0  0  0  0  0
    5.8236   -3.8268   -0.7560 C   0  0  0  0  0  0  0  0  0  0  0  0
    6.5290   -3.1991   -1.7534 C   0  0  0  0  0  0  0  0  0  0  0  0
    7.8212   -2.9215   -1.2415 C   0  0  0  0  0  0  0  0  0  0  0  0
    7.8270   -3.3831    0.0533 C   0  0  0  0  0  0  0  0  0  0  0  0
    6.6149   -3.9138    0.3359 O   0  0  0  0  0  0  0  0  0  0  0  0
    4.5354   -7.6906    3.5560 C   0  0  0  0  0  0  0  0  0  0  0  0
    4.8001   -8.7124    2.4102 C   0  0  1  0  0  0  0  0  0  0  0  0
    6.2000   -8.6234    1.7493 C   0  0  0  0  0  0  0  0  0  0  0  0
    4.3051  -10.1877    2.7673 C   0  0  0  0  0  0  0  0  0  0  0  0
    3.7304  -10.4937    4.2235 C   0  0  2  0  0  0  0  0  0  0  0  0
    2.2975  -11.0811    4.1855 C   0  0  0  0  0  0  0  0  0  0  0  0
    1.0953  -10.4744    4.4498 C   0  0  0  0  0  0  0  0  0  0  0  0
    0.7409   -8.9908    4.7855 C   0  0  1  0  0  0  0  0  0  0  0  0
    1.7039   -8.3426    5.8316 C   0  0  0  0  0  0  0  0  0  0  0  0
    2.7896   -9.0463    6.2315 C   0  0  0  0  0  0  0  0  0  0  0  0
    3.7806   -9.2491    5.1029 C   0  0  1  0  0  0  0  0  0  0  0  0
    4.9655   -8.2905    4.8848 C   0  0  0  0  0  0  0  0  0  0  0  0
    6.3057   -9.0999    4.9023 C   0  0  0  0  0  0  0  0  0  0  0  0
    5.3119   -7.1648    5.8780 C   0  0  0  0  0  0  0  0  0  0  0  0
    1.7981   -6.8174    5.7561 C   0  0  0  0  0  0  0  0  0  0  0  0
    2.6174   -6.1875    6.9438 C   0  0  0  0  0  0  0  0  0  0  0  0
    0.3709   -6.3084    6.1913 C   0  0  0  0  0  0  0  0  0  0  0  0
   -1.3915   -9.5555    1.6819 H   0  0  0  0  0  0  0  0  0  0  0  0
   -2.8949   -8.7067    2.2788 H   0  0  0  0  0  0  0  0  0  0  0  0
   -1.6556   -7.4652    3.8975 H   0  0  0  0  0  0  0  0  0  0  0  0
    2.1158   -8.8061    2.2055 H   0  0  0  0  0  0  0  0  0  0  0  0
    0.7501   -8.2581    1.2881 H   0  0  0  0  0  0  0  0  0  0  0  0
    0.7409   -9.8420    2.0347 H   0  0  0  0  0  0  0  0  0  0  0  0
    1.0131   -6.3244    2.4118 H   0  0  0  0  0  0  0  0  0  0  0  0
    0.1195   -5.9936    3.7674 H   0  0  0  0  0  0  0  0  0  0  0  0
    2.3840   -2.9765    3.7392 H   0  0  0  0  0  0  0  0  0  0  0  0
    0.8963   -3.8525    3.3718 H   0  0  0  0  0  0  0  0  0  0  0  0
    2.3644   -4.1595    2.4755 H   0  0  0  0  0  0  0  0  0  0  0  0
    2.8042   -5.4045   -0.1203 H   0  0  0  0  0  0  0  0  0  0  0  0
    3.9420   -4.1564   -1.5971 H   0  0  0  0  0  0  0  0  0  0  0  0
    6.1536   -3.0057   -2.7453 H   0  0  0  0  0  0  0  0  0  0  0  0
    8.6794   -2.4731   -1.7236 H   0  0  0  0  0  0  0  0  0  0  0  0
    8.5366   -3.4404    0.8483 H   0  0  0  0  0  0  0  0  0  0  0  0
    4.1654   -8.4443    1.5713 H   0  0  0  0  0  0  0  0  0  0  0  0
    6.4018   -7.6181    1.3794 H   0  0  0  0  0  0  0  0  0  0  0  0
    6.2606   -9.2842    0.8815 H   0  0  0  0  0  0  0  0  0  0  0  0
    7.0281   -8.8771    2.4091 H   0  0  0  0  0  0  0  0  0  0  0  0
    3.5409  -10.4734    2.0421 H   0  0  0  0  0  0  0  0  0  0  0  0
    5.1094  -10.8921    2.5489 H   0  0  0  0  0  0  0  0  0  0  0  0
    4.3403  -11.2723    4.6862 H   0  0  0  0  0  0  0  0  0  0  0  0
    2.2711  -12.1389    3.9480 H   0  0  0  0  0  0  0  0  0  0  0  0
    0.2209  -11.1065    4.3810 H   0  0  0  0  0  0  0  0  0  0  0  0
   -0.1968   -9.0811    5.3397 H   0  0  0  0  0  0  0  0  0  0  0  0
    2.6055  -10.0671    6.5313 H   0  0  0  0  0  0  0  0  0  0  0  0
    3.0867   -8.9316    4.3570 H   0  0  0  0  0  0  0  0  0  0  0  0
    6.5135   -9.4804    5.9044 H   0  0  0  0  0  0  0  0  0  0  0  0
    7.1645   -8.4870    4.6121 H   0  0  0  0  0  0  0  0  0  0  0  0
    6.3307   -9.9780    4.2563 H   0  0  0  0  0  0  0  0  0  0  0  0
    5.2490   -7.4923    6.9148 H   0  0  0  0  0  0  0  0  0  0  0  0
    4.7310   -6.2694    5.6983 H   0  0  0  0  0  0  0  0  0  0  0  0
    6.3351   -6.8095    5.7402 H   0  0  0  0  0  0  0  0  0  0  0  0
    3.1510   -5.2766    6.6729 H   0  0  0  0  0  0  0  0  0  0  0  0
    3.3076   -6.8726    7.4201 H   0  0  0  0  0  0  0  0  0  0  0  0
    2.0092   -5.8710    7.7892 H   0  0  0  0  0  0  0  0  0  0  0  0
    0.2682   -5.2253    6.0876 H   0  0  0  0  0  0  0  0  0  0  0  0
    0.1422   -6.5664    7.2270 H   0  0  0  0  0  0  0  0  0  0  0  0
   -0.4550   -6.7705    5.6550 H   0  0  0  0  0  0  0  0  0  0  0  0
  1  2  2  0
  1 37  1  0
  1 38  1  0
  2  3  1  0
  2 39  1  0
  3 27  1  0
  3  4  1  6
  3  5  1  0
  4 40  1  0
  4 41  1  0
  4 42  1  0
  5  6  1  0
  5 43  1  0
  5 44  1  0
  6 34  1  0
  6  7  1  1
  6  9  1  0
  7  8  1  0
  8 45  1  0
  8 46  1  0
  8 47  1  0
  9 10  1  0
  9 20  2  3
 10 11  1  0
 11 12  2  0
 11 13  1  0
 13 14  2  3
 13 48  1  0
 14 15  1  0
 14 49  1  0
 15 19  1  0
 15 16  2  0
 16 17  1  0
 16 50  1  0
 17 18  2  0
 17 51  1  0
 18 19  1  0
 18 52  1  0
 20 31  1  0
 20 21  1  0
 21 22  1  0
 21 23  1  0
 21 53  1  6
 22 54  1  0
 22 55  1  0
 22 56  1  0
 23 24  1  0
 23 57  1  0
 23 58  1  0
 24 30  1  0
 24 25  1  0
 24 59  1  1
 25 26  2  0
 25 60  1  0
 26 27  1  0
 26 61  1  0
 27 28  1  0
 27 62  1  1
 28 29  2  0
 28 34  1  0
 29 30  1  0
 29 63  1  0
 30 31  1  0
 30 64  1  6
 31 32  1  0
 31 33  1  0
 32 65  1  0
 32 66  1  0
 32 67  1  0
 33 68  1  0
 33 69  1  0
 33 70  1  0
 34 35  1  0
 34 36  1  0
 35 71  1  0
 35 72  1  0
 35 73  1  0
 36 74  1  0
 36 75  1  0
 36 76  1  0
M  END
>  <i_m_ct_stereo_status>  (191) 
1

>  <s_m_source_file>  (191) 
/var/tmp/pbs.5076255.sched01/tmphf7gnms3/50i7j3xhgh.sdf

>  <i_m_source_file_index>  (191) 
33

>  <i_lp_mmshare_version>  (191) 
48012

>  <i_f3d_flags>  (191) 
0

>  <s_epik_input>  (191) 
W0NIM11PQzEyW0NIMl1bQ0BdKFtDSDNdKShbQ0hdPVtDSDJdKVtDSF0zQyhDMihbQ0gzXSlbQ0gzXSk9W0NIXVtDQEBIXTRbQ0hdKFtDSF09W0NIXTMpW0NIMl1bQ0BIXShbQ0gzXSlcQyhDNChbQ0gzXSlbQ0gzXSk9Q1wxT0MoPU8pL1tDSF09W0NIXS9jNVtjSF1bY0hdW2NIXW81

>  <s_epik_cmdline>  (191) 
J2VwaWtfcHl0aG9uJywgJy1waHQnLCAnMi4wJywgJy1waCcsICc3LjAnLCAnLXRuJywgJzgnLCAnLW1hJywgJzIwMCcsICctaW1hZScsICc8aW5maWxlLm1hZT4nLCAnLW9tYWUnLCAnPG91dGZpbGUubWFlPic=

>  <r_lp_tautomer_probability>  (191) 
1

>  <r_epik_Ionization_Penalty>  (191) 
1.29585e-13

>  <r_epik_Ionization_Penalty_Charging>  (191) 
0

>  <r_epik_Ionization_Penalty_Neutral>  (191) 
1.29585e-13

>  <r_epik_State_Penalty>  (191) 
-0

>  <r_epik_Charging_Adjusted_Penalty>  (191) 
0

>  <i_epik_Tot_Q>  (191) 
0

>  <i_epik_Tot_abs_Q>  (191) 
0

>  <s_lp_Force_Field>  (191) 
OPLS3e

>  <r_lp_Energy>  (191) 
251.409

>  <b_lp_Chiralities_Consistent>  (191) 
1

>  <s_lp_Variant>  (191) 
52:0-3

>  <s_i_glide_gridfile>  (191) 
pfpi4k_grid

>  <i_i_glide_lignum>  (191) 
33

>  <i_i_glide_rotatable_bonds>  (191) 
6

>  <r_i_docking_score>  (191) 
-2.24506

>  <r_i_glide_ligand_efficiency>  (191) 
-0.0623629

>  <r_i_glide_ligand_efficiency_sa>  (191) 
-0.205918

>  <r_i_glide_ligand_efficiency_ln>  (191) 
-0.489812

>  <r_i_glide_gscore>  (191) 
-2.24506

>  <r_i_glide_lipo>  (191) 
-0.731892

>  <r_i_glide_hbond>  (191) 
0

>  <r_i_glide_metal>  (191) 
-0

>  <r_i_glide_rewards>  (191) 
-0.12701

>  <r_i_glide_evdw>  (191) 
-27.3614

>  <r_i_glide_ecoul>  (191) 
-2.39187

>  <r_i_glide_erotb>  (191) 
0.340689

>  <r_i_glide_esite>  (191) 
0

>  <r_i_glide_emodel>  (191) 
-32.4308

>  <r_i_glide_energy>  (191) 
-29.7533

>  <r_i_glide_einternal>  (191) 
1.61313

>  <r_i_glide_intrahb_reward>  (191) 
-0

>  <i_i_glide_confnum>  (191) 
3

>  <i_i_glide_posenum>  (191) 
32

>  <r_i_glide_eff_state_penalty>  (191) 
0

>  <ligand_id>  (191) 
52

>  <original_smiles>  (191) 
C=CC1(C)CC2(OC)C(OC(=O)C=Cc3ccco3)=C3C(C)CC4C=CC1C(=CC4C3(C)C)C2(C)C

>  <smiles>  (191) 
[H]C([H])=C([H])C1(C([H])([H])[H])C2([H])C([H])=C([H])C3([H])C([H])([H])C([H])(C([H])([H])[H])C4=C(OC(=O)C([H])=C([H])c5oc([H])c([H])c5[H])C(OC([H])([H])[H])(C1([H])[H])C(C([H])([H])[H])(C([H])([H])[H])C2=C([H])C3([H])C4(C([H])([H])[H])C([H])([H])[H]

$$$$
52:2:1
     RDKit          3D

 76 80  0  0  1  0  0  0  0  0999 V2000
   -1.8956   -8.6771    2.2014 C   0  0  0  0  0  0  0  0  0  0  0  0
   -1.1918   -8.2851    3.2797 C   0  0  0  0  0  0  0  0  0  0  0  0
    0.3395   -8.2760    3.4544 C   0  0  1  0  0  0  0  0  0  0  0  0
    0.9652   -8.7565    2.1177 C   0  0  0  0  0  0  0  0  0  0  0  0
    0.7700   -6.7690    3.6204 C   0  0  0  0  0  0  0  0  0  0  0  0
    2.0741   -6.4916    4.4515 C   0  0  2  0  0  0  0  0  0  0  0  0
    2.1669   -5.0970    4.8060 O   0  0  0  0  0  0  0  0  0  0  0  0
    1.7603   -4.0568    3.9184 C   0  0  0  0  0  0  0  0  0  0  0  0
    3.3274   -6.8506    3.4847 C   0  0  0  0  0  0  0  0  0  0  0  0
    3.0768   -6.3089    2.2327 O   0  0  0  0  0  0  0  0  0  0  0  0
    4.0027   -5.4871    1.6757 C   0  0  0  0  0  0  0  0  0  0  0  0
    5.0411   -5.1746    2.2541 O   0  0  0  0  0  0  0  0  0  0  0  0
    3.6084   -4.9968    0.3485 C   0  0  0  0  0  0  0  0  0  0  0  0
    4.3893   -4.3200   -0.5076 C   0  0  0  0  0  0  0  0  0  0  0  0
    5.7443   -3.8469   -0.5023 C   0  0  0  0  0  0  0  0  0  0  0  0
    6.7691   -3.7756    0.4124 C   0  0  0  0  0  0  0  0  0  0  0  0
    7.9057   -3.2616   -0.2412 C   0  0  0  0  0  0  0  0  0  0  0  0
    7.5139   -3.0170   -1.5263 C   0  0  0  0  0  0  0  0  0  0  0  0
    6.2088   -3.3607   -1.6953 O   0  0  0  0  0  0  0  0  0  0  0  0
    4.4238   -7.6940    3.5479 C   0  0  0  0  0  0  0  0  0  0  0  0
    4.7125   -8.5730    2.2930 C   0  0  1  0  0  0  0  0  0  0  0  0
    6.0957   -8.3668    1.6307 C   0  0  0  0  0  0  0  0  0  0  0  0
    4.2706  -10.0920    2.4870 C   0  0  0  0  0  0  0  0  0  0  0  0
    3.7308  -10.5838    3.9066 C   0  0  2  0  0  0  0  0  0  0  0  0
    2.3151  -11.2044    3.8235 C   0  0  0  0  0  0  0  0  0  0  0  0
    1.1029  -10.6694    4.1748 C   0  0  0  0  0  0  0  0  0  0  0  0
    0.7094   -9.2478    4.6826 C   0  0  1  0  0  0  0  0  0  0  0  0
    1.6646   -8.6937    5.7925 C   0  0  0  0  0  0  0  0  0  0  0  0
    2.7846   -9.3982    6.0891 C   0  0  0  0  0  0  0  0  0  0  0  0
    3.7643   -9.4470    4.9314 C   0  0  1  0  0  0  0  0  0  0  0  0
    4.9119   -8.4239    4.8004 C   0  0  0  0  0  0  0  0  0  0  0  0
    6.2742   -9.1840    4.6981 C   0  0  0  0  0  0  0  0  0  0  0  0
    5.2405   -7.4049    5.9034 C   0  0  0  0  0  0  0  0  0  0  0  0
    1.7096   -7.1640    5.8883 C   0  0  0  0  0  0  0  0  0  0  0  0
    2.5440   -6.6460    7.1161 C   0  0  0  0  0  0  0  0  0  0  0  0
    0.2847   -6.7526    6.3949 C   0  0  0  0  0  0  0  0  0  0  0  0
   -1.4356   -9.0626    1.3028 H   0  0  0  0  0  0  0  0  0  0  0  0
   -2.9719   -8.6182    2.1876 H   0  0  0  0  0  0  0  0  0  0  0  0
   -1.7567   -7.9263    4.1300 H   0  0  0  0  0  0  0  0  0  0  0  0
    2.0408   -8.7467    2.1336 H   0  0  0  0  0  0  0  0  0  0  0  0
    0.6746   -8.1244    1.2812 H   0  0  0  0  0  0  0  0  0  0  0  0
    0.6704   -9.7715    1.8616 H   0  0  0  0  0  0  0  0  0  0  0  0
    0.8297   -6.3170    2.6339 H   0  0  0  0  0  0  0  0  0  0  0  0
   -0.0453   -6.1738    4.0319 H   0  0  0  0  0  0  0  0  0  0  0  0
    2.1409   -3.1079    4.2992 H   0  0  0  0  0  0  0  0  0  0  0  0
    0.6746   -3.9865    3.8607 H   0  0  0  0  0  0  0  0  0  0  0  0
    2.1427   -4.1498    2.9090 H   0  0  0  0  0  0  0  0  0  0  0  0
    2.5899   -5.2104    0.0534 H   0  0  0  0  0  0  0  0  0  0  0  0
    3.8644   -4.0755   -1.4169 H   0  0  0  0  0  0  0  0  0  0  0  0
    6.7950   -4.0589    1.4442 H   0  0  0  0  0  0  0  0  0  0  0  0
    8.8902   -3.0864    0.1538 H   0  0  0  0  0  0  0  0  0  0  0  0
    8.0470   -2.6165   -2.3665 H   0  0  0  0  0  0  0  0  0  0  0  0
    4.0538   -8.2472    1.4953 H   0  0  0  0  0  0  0  0  0  0  0  0
    6.2601   -7.3222    1.3620 H   0  0  0  0  0  0  0  0  0  0  0  0
    6.1523   -8.9391    0.7006 H   0  0  0  0  0  0  0  0  0  0  0  0
    6.9453   -8.6662    2.2419 H   0  0  0  0  0  0  0  0  0  0  0  0
    3.5015  -10.3087    1.7402 H   0  0  0  0  0  0  0  0  0  0  0  0
    5.0927  -10.7381    2.1799 H   0  0  0  0  0  0  0  0  0  0  0  0
    4.3740  -11.3876    4.2663 H   0  0  0  0  0  0  0  0  0  0  0  0
    2.3259  -12.2266    3.4730 H   0  0  0  0  0  0  0  0  0  0  0  0
    0.2467  -11.3156    4.0531 H   0  0  0  0  0  0  0  0  0  0  0  0
   -0.2127   -9.4292    5.2317 H   0  0  0  0  0  0  0  0  0  0  0  0
    2.6388  -10.4539    6.2709 H   0  0  0  0  0  0  0  0  0  0  0  0
    3.0408   -9.0848    4.2354 H   0  0  0  0  0  0  0  0  0  0  0  0
    6.5147   -9.6653    5.6487 H   0  0  0  0  0  0  0  0  0  0  0  0
    7.1063   -8.5115    4.4675 H   0  0  0  0  0  0  0  0  0  0  0  0
    6.3143   -9.9810    3.9596 H   0  0  0  0  0  0  0  0  0  0  0  0
    5.2131   -7.8512    6.8971 H   0  0  0  0  0  0  0  0  0  0  0  0
    4.6299   -6.5158    5.8349 H   0  0  0  0  0  0  0  0  0  0  0  0
    6.2528   -7.0064    5.7870 H   0  0  0  0  0  0  0  0  0  0  0  0
    3.0401   -5.6915    6.9414 H   0  0  0  0  0  0  0  0  0  0  0  0
    3.2628   -7.3574    7.5001 H   0  0  0  0  0  0  0  0  0  0  0  0
    1.9396   -6.4472    8.0014 H   0  0  0  0  0  0  0  0  0  0  0  0
    0.1549   -5.6677    6.4166 H   0  0  0  0  0  0  0  0  0  0  0  0
    0.0911   -7.1370    7.3965 H   0  0  0  0  0  0  0  0  0  0  0  0
   -0.5274   -7.1752    5.8164 H   0  0  0  0  0  0  0  0  0  0  0  0
  1  2  2  0
  1 37  1  0
  1 38  1  0
  2  3  1  0
  2 39  1  0
  3 27  1  0
  3  4  1  6
  3  5  1  0
  4 40  1  0
  4 41  1  0
  4 42  1  0
  5  6  1  0
  5 43  1  0
  5 44  1  0
  6 34  1  0
  6  7  1  1
  6  9  1  0
  7  8  1  0
  8 45  1  0
  8 46  1  0
  8 47  1  0
  9 10  1  0
  9 20  2  3
 10 11  1  0
 11 12  2  0
 11 13  1  0
 13 14  2  3
 13 48  1  0
 14 15  1  0
 14 49  1  0
 15 19  1  0
 15 16  2  0
 16 17  1  0
 16 50  1  0
 17 18  2  0
 17 51  1  0
 18 19  1  0
 18 52  1  0
 20 31  1  0
 20 21  1  0
 21 22  1  0
 21 23  1  0
 21 53  1  6
 22 54  1  0
 22 55  1  0
 22 56  1  0
 23 24  1  0
 23 57  1  0
 23 58  1  0
 24 30  1  0
 24 25  1  0
 24 59  1  1
 25 26  2  0
 25 60  1  0
 26 27  1  0
 26 61  1  0
 27 28  1  0
 27 62  1  1
 28 29  2  0
 28 34  1  0
 29 30  1  0
 29 63  1  0
 30 31  1  0
 30 64  1  6
 31 32  1  0
 31 33  1  0
 32 65  1  0
 32 66  1  0
 32 67  1  0
 33 68  1  0
 33 69  1  0
 33 70  1  0
 34 35  1  0
 34 36  1  0
 35 71  1  0
 35 72  1  0
 35 73  1  0
 36 74  1  0
 36 75  1  0
 36 76  1  0
M  END
>  <i_m_ct_stereo_status>  (192) 
1

>  <s_m_source_file>  (192) 
/var/tmp/pbs.5076255.sched01/tmphf7gnms3/50i7j3xhgh.sdf

>  <i_m_source_file_index>  (192) 
33

>  <i_lp_mmshare_version>  (192) 
48012

>  <i_f3d_flags>  (192) 
0

>  <s_epik_input>  (192) 
W0NIM11PQzEyW0NIMl1bQ0BdKFtDSDNdKShbQ0hdPVtDSDJdKVtDSF0zQyhDMihbQ0gzXSlbQ0gzXSk9W0NIXVtDQEBIXTRbQ0hdKFtDSF09W0NIXTMpW0NIMl1bQ0BIXShbQ0gzXSlcQyhDNChbQ0gzXSlbQ0gzXSk9Q1wxT0MoPU8pL1tDSF09W0NIXS9jNVtjSF1bY0hdW2NIXW81

>  <s_epik_cmdline>  (192) 
J2VwaWtfcHl0aG9uJywgJy1waHQnLCAnMi4wJywgJy1waCcsICc3LjAnLCAnLXRuJywgJzgnLCAnLW1hJywgJzIwMCcsICctaW1hZScsICc8aW5maWxlLm1hZT4nLCAnLW9tYWUnLCAnPG91dGZpbGUubWFlPic=

>  <r_lp_tautomer_probability>  (192) 
1

>  <r_epik_Ionization_Penalty>  (192) 
1.29585e-13

>  <r_epik_Ionization_Penalty_Charging>  (192) 
0

>  <r_epik_Ionization_Penalty_Neutral>  (192) 
1.29585e-13

>  <r_epik_State_Penalty>  (192) 
-0

>  <r_epik_Charging_Adjusted_Penalty>  (192) 
0

>  <i_epik_Tot_Q>  (192) 
0

>  <i_epik_Tot_abs_Q>  (192) 
0

>  <s_lp_Force_Field>  (192) 
OPLS3e

>  <r_lp_Energy>  (192) 
251.409

>  <b_lp_Chiralities_Consistent>  (192) 
1

>  <s_lp_Variant>  (192) 
52:0-3

>  <s_i_glide_gridfile>  (192) 
pfpi4k_grid

>  <i_i_glide_lignum>  (192) 
33

>  <i_i_glide_rotatable_bonds>  (192) 
6

>  <r_i_docking_score>  (192) 
-2.15857

>  <r_i_glide_ligand_efficiency>  (192) 
-0.0599603

>  <r_i_glide_ligand_efficiency_sa>  (192) 
-0.197985

>  <r_i_glide_ligand_efficiency_ln>  (192) 
-0.470942

>  <r_i_glide_gscore>  (192) 
-2.15857

>  <r_i_glide_lipo>  (192) 
-0.710997

>  <r_i_glide_hbond>  (192) 
0

>  <r_i_glide_metal>  (192) 
-0

>  <r_i_glide_rewards>  (192) 
-0.104577

>  <r_i_glide_evdw>  (192) 
-25.7469

>  <r_i_glide_ecoul>  (192) 
-2.64227

>  <r_i_glide_erotb>  (192) 
0.340689

>  <r_i_glide_esite>  (192) 
0

>  <r_i_glide_emodel>  (192) 
-30.3987

>  <r_i_glide_energy>  (192) 
-28.3892

>  <r_i_glide_einternal>  (192) 
1.92731

>  <r_i_glide_intrahb_reward>  (192) 
-0

>  <i_i_glide_confnum>  (192) 
3

>  <i_i_glide_posenum>  (192) 
8

>  <r_i_glide_eff_state_penalty>  (192) 
0

>  <ligand_id>  (192) 
52

>  <original_smiles>  (192) 
C=CC1(C)CC2(OC)C(OC(=O)C=Cc3ccco3)=C3C(C)CC4C=CC1C(=CC4C3(C)C)C2(C)C

>  <smiles>  (192) 
[H]C([H])=C([H])C1(C([H])([H])[H])C2([H])C([H])=C([H])C3([H])C([H])([H])C([H])(C([H])([H])[H])C4=C(OC(=O)C([H])=C([H])c5oc([H])c([H])c5[H])C(OC([H])([H])[H])(C1([H])[H])C(C([H])([H])[H])(C([H])([H])[H])C2=C([H])C3([H])C4(C([H])([H])[H])C([H])([H])[H]

$$$$
52:2:2
     RDKit          3D

 76 80  0  0  1  0  0  0  0  0999 V2000
    3.1788  -11.7778    2.8996 C   0  0  0  0  0  0  0  0  0  0  0  0
    2.2102  -10.8921    3.2016 C   0  0  0  0  0  0  0  0  0  0  0  0
    2.3742   -9.4441    3.7031 C   0  0  1  0  0  0  0  0  0  0  0  0
    3.8840   -9.0831    3.6267 C   0  0  0  0  0  0  0  0  0  0  0  0
    1.6532   -8.5236    2.6417 C   0  0  0  0  0  0  0  0  0  0  0  0
    1.0567   -7.1574    3.1572 C   0  0  2  0  0  0  0  0  0  0  0  0
    0.2137   -6.4846    2.2035 O   0  0  0  0  0  0  0  0  0  0  0  0
   -0.0266   -7.0389    0.9164 C   0  0  0  0  0  0  0  0  0  0  0  0
    2.3136   -6.1632    3.3450 C   0  0  0  0  0  0  0  0  0  0  0  0
    3.0769   -6.2671    2.1895 O   0  0  0  0  0  0  0  0  0  0  0  0
    3.2954   -5.1286    1.4680 C   0  0  0  0  0  0  0  0  0  0  0  0
    2.8732   -4.0169    1.7805 O   0  0  0  0  0  0  0  0  0  0  0  0
    4.0514   -5.4019    0.2305 C   0  0  0  0  0  0  0  0  0  0  0  0
    4.4950   -4.4721   -0.6217 C   0  0  0  0  0  0  0  0  0  0  0  0
    4.5091   -3.0258   -0.6726 C   0  0  0  0  0  0  0  0  0  0  0  0
    4.2711   -2.0127    0.2120 C   0  0  0  0  0  0  0  0  0  0  0  0
    4.3951   -0.7921   -0.5126 C   0  0  0  0  0  0  0  0  0  0  0  0
    4.7408   -1.1328   -1.7948 C   0  0  0  0  0  0  0  0  0  0  0  0
    4.8144   -2.4792   -1.8984 O   0  0  0  0  0  0  0  0  0  0  0  0
    2.8525   -5.4179    4.3754 C   0  0  0  0  0  0  0  0  0  0  0  0
    4.3946   -5.5041    4.5814 C   0  0  1  0  0  0  0  0  0  0  0  0
    5.1423   -4.1607    4.4905 C   0  0  0  0  0  0  0  0  0  0  0  0
    4.8028   -6.4189    5.8270 C   0  0  0  0  0  0  0  0  0  0  0  0
    3.6703   -7.0306    6.7720 C   0  0  2  0  0  0  0  0  0  0  0  0
    3.7228   -8.5742    6.8512 C   0  0  0  0  0  0  0  0  0  0  0  0
    2.9376   -9.5119    6.2348 C   0  0  0  0  0  0  0  0  0  0  0  0
    1.7943   -9.3754    5.1907 C   0  0  1  0  0  0  0  0  0  0  0  0
    0.7744   -8.2371    5.5226 C   0  0  0  0  0  0  0  0  0  0  0  0
    1.0453   -7.4138    6.5686 C   0  0  0  0  0  0  0  0  0  0  0  0
    2.2784   -6.5616    6.3327 C   0  0  1  0  0  0  0  0  0  0  0  0
    2.1752   -5.1435    5.7317 C   0  0  0  0  0  0  0  0  0  0  0  0
    2.8734   -4.1322    6.6963 C   0  0  0  0  0  0  0  0  0  0  0  0
    0.8306   -4.4342    5.5104 C   0  0  0  0  0  0  0  0  0  0  0  0
    0.0253   -7.6573    4.3116 C   0  0  0  0  0  0  0  0  0  0  0  0
   -1.0998   -6.6450    4.7184 C   0  0  0  0  0  0  0  0  0  0  0  0
   -0.9009   -8.8064    3.8186 C   0  0  0  0  0  0  0  0  0  0  0  0
    4.2197  -11.5642    3.0100 H   0  0  0  0  0  0  0  0  0  0  0  0
    2.9280  -12.7561    2.5103 H   0  0  0  0  0  0  0  0  0  0  0  0
    1.1845  -11.2281    3.0756 H   0  0  0  0  0  0  0  0  0  0  0  0
    4.0796   -8.0620    3.9119 H   0  0  0  0  0  0  0  0  0  0  0  0
    4.2709   -9.1886    2.6121 H   0  0  0  0  0  0  0  0  0  0  0  0
    4.5138   -9.7067    4.2625 H   0  0  0  0  0  0  0  0  0  0  0  0
    2.3377   -8.3732    1.8133 H   0  0  0  0  0  0  0  0  0  0  0  0
    0.8938   -9.1136    2.1292 H   0  0  0  0  0  0  0  0  0  0  0  0
   -0.5739   -6.3274    0.2978 H   0  0  0  0  0  0  0  0  0  0  0  0
   -0.6550   -7.9288    0.9651 H   0  0  0  0  0  0  0  0  0  0  0  0
    0.9025   -7.2774    0.4013 H   0  0  0  0  0  0  0  0  0  0  0  0
    4.2480   -6.4416   -0.0101 H   0  0  0  0  0  0  0  0  0  0  0  0
    4.9817   -4.9104   -1.4853 H   0  0  0  0  0  0  0  0  0  0  0  0
    4.0283   -2.0881    1.2649 H   0  0  0  0  0  0  0  0  0  0  0  0
    4.2572    0.2019   -0.1355 H   0  0  0  0  0  0  0  0  0  0  0  0
    4.9614   -0.5484   -2.6829 H   0  0  0  0  0  0  0  0  0  0  0  0
    4.8007   -6.0372    3.7315 H   0  0  0  0  0  0  0  0  0  0  0  0
    4.9577   -3.6596    3.5381 H   0  0  0  0  0  0  0  0  0  0  0  0
    6.2087   -4.3564    4.5366 H   0  0  0  0  0  0  0  0  0  0  0  0
    4.9234   -3.4417    5.2804 H   0  0  0  0  0  0  0  0  0  0  0  0
    5.4073   -7.2499    5.4565 H   0  0  0  0  0  0  0  0  0  0  0  0
    5.5032   -5.8673    6.4467 H   0  0  0  0  0  0  0  0  0  0  0  0
    3.8416   -6.6937    7.7932 H   0  0  0  0  0  0  0  0  0  0  0  0
    4.4738   -8.9234    7.5357 H   0  0  0  0  0  0  0  0  0  0  0  0
    3.1429  -10.5417    6.4731 H   0  0  0  0  0  0  0  0  0  0  0  0
    1.2088  -10.2811    5.3349 H   0  0  0  0  0  0  0  0  0  0  0  0
    1.3314   -7.8987    7.4949 H   0  0  0  0  0  0  0  0  0  0  0  0
    2.5826   -7.1532    5.4942 H   0  0  0  0  0  0  0  0  0  0  0  0
    2.3010   -4.0301    7.6125 H   0  0  0  0  0  0  0  0  0  0  0  0
    2.9495   -3.1352    6.2593 H   0  0  0  0  0  0  0  0  0  0  0  0
    3.8741   -4.4004    7.0158 H   0  0  0  0  0  0  0  0  0  0  0  0
    0.1628   -4.5638    6.3531 H   0  0  0  0  0  0  0  0  0  0  0  0
    0.3768   -4.7055    4.5715 H   0  0  0  0  0  0  0  0  0  0  0  0
    0.9749   -3.3569    5.4046 H   0  0  0  0  0  0  0  0  0  0  0  0
   -1.2275   -5.8666    3.9799 H   0  0  0  0  0  0  0  0  0  0  0  0
   -0.9671   -6.2062    5.6917 H   0  0  0  0  0  0  0  0  0  0  0  0
   -2.0929   -7.0710    4.8121 H   0  0  0  0  0  0  0  0  0  0  0  0
   -1.4178   -8.5681    2.8891 H   0  0  0  0  0  0  0  0  0  0  0  0
   -1.6540   -9.0038    4.5730 H   0  0  0  0  0  0  0  0  0  0  0  0
   -0.4139   -9.7658    3.7102 H   0  0  0  0  0  0  0  0  0  0  0  0
  1  2  2  0
  1 37  1  0
  1 38  1  0
  2  3  1  0
  2 39  1  0
  3 27  1  0
  3  4  1  1
  3  5  1  0
  4 40  1  0
  4 41  1  0
  4 42  1  0
  5  6  1  0
  5 43  1  0
  5 44  1  0
  6 34  1  0
  6  7  1  6
  6  9  1  0
  7  8  1  0
  8 45  1  0
  8 46  1  0
  8 47  1  0
  9 10  1  0
  9 20  2  3
 10 11  1  0
 11 12  2  0
 11 13  1  0
 13 14  2  3
 13 48  1  0
 14 15  1  0
 14 49  1  0
 15 19  1  0
 15 16  2  0
 16 17  1  0
 16 50  1  0
 17 18  2  0
 17 51  1  0
 18 19  1  0
 18 52  1  0
 20 31  1  0
 20 21  1  0
 21 22  1  0
 21 23  1  0
 21 53  1  6
 22 54  1  0
 22 55  1  0
 22 56  1  0
 23 24  1  0
 23 57  1  0
 23 58  1  0
 24 30  1  0
 24 25  1  0
 24 59  1  1
 25 26  2  0
 25 60  1  0
 26 27  1  0
 26 61  1  0
 27 28  1  0
 27 62  1  6
 28 29  2  0
 28 34  1  0
 29 30  1  0
 29 63  1  0
 30 31  1  0
 30 64  1  6
 31 32  1  0
 31 33  1  0
 32 65  1  0
 32 66  1  0
 32 67  1  0
 33 68  1  0
 33 69  1  0
 33 70  1  0
 34 35  1  0
 34 36  1  0
 35 71  1  0
 35 72  1  0
 35 73  1  0
 36 74  1  0
 36 75  1  0
 36 76  1  0
M  END
>  <i_m_ct_stereo_status>  (193) 
1

>  <s_m_source_file>  (193) 
/var/tmp/pbs.5076255.sched01/tmphf7gnms3/50i7j3xhgh.sdf

>  <i_m_source_file_index>  (193) 
33

>  <i_lp_mmshare_version>  (193) 
48012

>  <i_f3d_flags>  (193) 
0

>  <s_epik_input>  (193) 
W0NIM11PQzEyW0NIMl1bQ0BdKFtDSDNdKShbQ0hdPVtDSDJdKVtDSF0zQyhDMihbQ0gzXSlbQ0gzXSk9W0NIXVtDQEBIXTRbQ0hdKFtDSF09W0NIXTMpW0NIMl1bQ0BIXShbQ0gzXSlcQyhDNChbQ0gzXSlbQ0gzXSk9Q1wxT0MoPU8pL1tDSF09W0NIXS9jNVtjSF1bY0hdW2NIXW81

>  <s_epik_cmdline>  (193) 
J2VwaWtfcHl0aG9uJywgJy1waHQnLCAnMi4wJywgJy1waCcsICc3LjAnLCAnLXRuJywgJzgnLCAnLW1hJywgJzIwMCcsICctaW1hZScsICc8aW5maWxlLm1hZT4nLCAnLW9tYWUnLCAnPG91dGZpbGUubWFlPic=

>  <r_lp_tautomer_probability>  (193) 
1

>  <r_epik_Ionization_Penalty>  (193) 
1.29585e-13

>  <r_epik_Ionization_Penalty_Charging>  (193) 
0

>  <r_epik_Ionization_Penalty_Neutral>  (193) 
1.29585e-13

>  <r_epik_State_Penalty>  (193) 
-0

>  <r_epik_Charging_Adjusted_Penalty>  (193) 
0

>  <i_epik_Tot_Q>  (193) 
0

>  <i_epik_Tot_abs_Q>  (193) 
0

>  <s_lp_Force_Field>  (193) 
OPLS3e

>  <r_lp_Energy>  (193) 
251.409

>  <b_lp_Chiralities_Consistent>  (193) 
1

>  <s_lp_Variant>  (193) 
52:0-3

>  <s_i_glide_gridfile>  (193) 
pfpi4k_grid

>  <i_i_glide_lignum>  (193) 
33

>  <i_i_glide_rotatable_bonds>  (193) 
6

>  <r_i_docking_score>  (193) 
-1.53793

>  <r_i_glide_ligand_efficiency>  (193) 
-0.0427204

>  <r_i_glide_ligand_efficiency_sa>  (193) 
-0.14106

>  <r_i_glide_ligand_efficiency_ln>  (193) 
-0.335536

>  <r_i_glide_gscore>  (193) 
-1.53793

>  <r_i_glide_lipo>  (193) 
-0.0823376

>  <r_i_glide_hbond>  (193) 
-0.144013

>  <r_i_glide_metal>  (193) 
-0

>  <r_i_glide_rewards>  (193) 
-0.0849972

>  <r_i_glide_evdw>  (193) 
-26.3151

>  <r_i_glide_ecoul>  (193) 
-1.6768

>  <r_i_glide_erotb>  (193) 
0.340689

>  <r_i_glide_esite>  (193) 
0

>  <r_i_glide_emodel>  (193) 
-27.9144

>  <r_i_glide_energy>  (193) 
-27.9919

>  <r_i_glide_einternal>  (193) 
3.43186

>  <r_i_glide_intrahb_reward>  (193) 
-0

>  <i_i_glide_confnum>  (193) 
3

>  <i_i_glide_posenum>  (193) 
40

>  <r_i_glide_eff_state_penalty>  (193) 
0

>  <ligand_id>  (193) 
52

>  <original_smiles>  (193) 
C=CC1(C)CC2(OC)C(OC(=O)C=Cc3ccco3)=C3C(C)CC4C=CC1C(=CC4C3(C)C)C2(C)C

>  <smiles>  (193) 
[H]C([H])=C([H])C1(C([H])([H])[H])C2([H])C([H])=C([H])C3([H])C([H])([H])C([H])(C([H])([H])[H])C4=C(OC(=O)C([H])=C([H])c5oc([H])c([H])c5[H])C(OC([H])([H])[H])(C1([H])[H])C(C([H])([H])[H])(C([H])([H])[H])C2=C([H])C3([H])C4(C([H])([H])[H])C([H])([H])[H]

$$$$
52:4:0
     RDKit          3D

 76 80  0  0  1  0  0  0  0  0999 V2000
   -0.2135   -7.4994    1.6745 C   0  0  0  0  0  0  0  0  0  0  0  0
    1.0351   -7.4986    2.2044 C   0  0  0  0  0  0  0  0  0  0  0  0
    1.8560   -8.7034    2.7320 C   0  0  1  0  0  0  0  0  0  0  0  0
    0.9231   -9.9455    2.6966 C   0  0  0  0  0  0  0  0  0  0  0  0
    3.1855   -8.7736    1.7951 C   0  0  0  0  0  0  0  0  0  0  0  0
    4.6577   -8.5305    2.4733 C   0  0  1  0  0  0  0  0  0  0  0  0
    5.7055   -8.8876    1.5253 O   0  0  0  0  0  0  0  0  0  0  0  0
    7.0701   -8.4234    1.6784 C   0  0  0  0  0  0  0  0  0  0  0  0
    4.8050   -6.9511    2.7696 C   0  0  0  0  0  0  0  0  0  0  0  0
    4.2992   -6.2902    1.6381 O   0  0  0  0  0  0  0  0  0  0  0  0
    5.1149   -5.6785    0.7500 C   0  0  0  0  0  0  0  0  0  0  0  0
    6.3611   -5.6445    0.7945 O   0  0  0  0  0  0  0  0  0  0  0  0
    4.3509   -4.9638   -0.2561 C   0  0  0  0  0  0  0  0  0  0  0  0
    4.9469   -4.1916   -1.1953 C   0  0  0  0  0  0  0  0  0  0  0  0
    4.3364   -3.4125   -2.1973 C   0  0  0  0  0  0  0  0  0  0  0  0
    4.7926   -2.6772   -3.2303 C   0  0  0  0  0  0  0  0  0  0  0  0
    3.6461   -2.1406   -3.9057 C   0  0  0  0  0  0  0  0  0  0  0  0
    2.5795   -2.6263   -3.2136 C   0  0  0  0  0  0  0  0  0  0  0  0
    2.9551   -3.3839   -2.1623 O   0  0  0  0  0  0  0  0  0  0  0  0
    5.1288   -6.1538    3.8763 C   0  0  0  0  0  0  0  0  0  0  0  0
    4.5464   -4.7167    4.1684 C   0  0  1  0  0  0  0  0  0  0  0  0
    3.8296   -3.9528    3.0335 C   0  0  0  0  0  0  0  0  0  0  0  0
    3.5893   -4.7392    5.4566 C   0  0  0  0  0  0  0  0  0  0  0  0
    3.3142   -6.2055    5.9075 C   0  0  2  0  0  0  0  0  0  0  0  0
    1.9144   -6.8314    6.0899 C   0  0  0  0  0  0  0  0  0  0  0  0
    1.4736   -7.8631    5.3187 C   0  0  0  0  0  0  0  0  0  0  0  0
    2.3406   -8.5134    4.2149 C   0  0  1  0  0  0  0  0  0  0  0  0
    3.6836   -9.1117    4.7236 C   0  0  0  0  0  0  0  0  0  0  0  0
    4.2363   -8.6504    5.8686 C   0  0  0  0  0  0  0  0  0  0  0  0
    4.5742   -7.1578    6.0809 C   0  0  1  0  0  0  0  0  0  0  0  0
    5.7846   -6.6286    5.2131 C   0  0  0  0  0  0  0  0  0  0  0  0
    7.0152   -7.4982    4.9445 C   0  0  0  0  0  0  0  0  0  0  0  0
    6.5121   -5.5107    6.0701 C   0  0  0  0  0  0  0  0  0  0  0  0
    4.6045   -9.6751    3.6277 C   0  0  0  0  0  0  0  0  0  0  0  0
    4.0277  -11.0764    3.1910 C   0  0  0  0  0  0  0  0  0  0  0  0
    5.9744  -10.2592    4.1743 C   0  0  0  0  0  0  0  0  0  0  0  0
   -0.8163   -8.3891    1.5652 H   0  0  0  0  0  0  0  0  0  0  0  0
   -0.6724   -6.5877    1.3332 H   0  0  0  0  0  0  0  0  0  0  0  0
    1.5285   -6.5427    2.2625 H   0  0  0  0  0  0  0  0  0  0  0  0
    1.1900  -10.7300    3.4020 H   0  0  0  0  0  0  0  0  0  0  0  0
    0.8650  -10.3642    1.6803 H   0  0  0  0  0  0  0  0  0  0  0  0
   -0.0975   -9.7140    3.0056 H   0  0  0  0  0  0  0  0  0  0  0  0
    3.1786   -9.7064    1.2415 H   0  0  0  0  0  0  0  0  0  0  0  0
    3.0533   -8.1008    0.9518 H   0  0  0  0  0  0  0  0  0  0  0  0
    7.6348   -8.6266    0.7702 H   0  0  0  0  0  0  0  0  0  0  0  0
    7.6403   -8.8480    2.4777 H   0  0  0  0  0  0  0  0  0  0  0  0
    7.1296   -7.3854    1.9116 H   0  0  0  0  0  0  0  0  0  0  0  0
    3.2613   -5.0416   -0.2337 H   0  0  0  0  0  0  0  0  0  0  0  0
    6.0417   -4.1371   -1.1917 H   0  0  0  0  0  0  0  0  0  0  0  0
    5.8365   -2.5384   -3.4926 H   0  0  0  0  0  0  0  0  0  0  0  0
    3.6162   -1.5022   -4.7611 H   0  0  0  0  0  0  0  0  0  0  0  0
    1.5050   -2.5220   -3.3204 H   0  0  0  0  0  0  0  0  0  0  0  0
    5.3939   -4.0616    4.3789 H   0  0  0  0  0  0  0  0  0  0  0  0
    4.5197   -3.7214    2.2276 H   0  0  0  0  0  0  0  0  0  0  0  0
    3.4866   -2.9764    3.3712 H   0  0  0  0  0  0  0  0  0  0  0  0
    2.9642   -4.5002    2.6514 H   0  0  0  0  0  0  0  0  0  0  0  0
    4.0012   -4.1515    6.2737 H   0  0  0  0  0  0  0  0  0  0  0  0
    2.6492   -4.2345    5.2375 H   0  0  0  0  0  0  0  0  0  0  0  0
    3.0069   -6.1968    4.8986 H   0  0  0  0  0  0  0  0  0  0  0  0
    1.3095   -6.4453    6.8897 H   0  0  0  0  0  0  0  0  0  0  0  0
    0.5085   -8.3099    5.5103 H   0  0  0  0  0  0  0  0  0  0  0  0
    2.7604   -7.6372    3.8241 H   0  0  0  0  0  0  0  0  0  0  0  0
    3.5486   -8.7702    6.6929 H   0  0  0  0  0  0  0  0  0  0  0  0
    4.8807   -7.1201    7.1299 H   0  0  0  0  0  0  0  0  0  0  0  0
    7.2846   -8.1476    5.7670 H   0  0  0  0  0  0  0  0  0  0  0  0
    7.9025   -6.8961    4.7257 H   0  0  0  0  0  0  0  0  0  0  0  0
    6.8162   -8.0436    4.0545 H   0  0  0  0  0  0  0  0  0  0  0  0
    7.1660   -5.9595    6.8207 H   0  0  0  0  0  0  0  0  0  0  0  0
    5.8698   -4.8563    6.6566 H   0  0  0  0  0  0  0  0  0  0  0  0
    7.1540   -4.8801    5.4462 H   0  0  0  0  0  0  0  0  0  0  0  0
    4.6786  -11.5821    2.4777 H   0  0  0  0  0  0  0  0  0  0  0  0
    3.0586  -11.1250    2.7275 H   0  0  0  0  0  0  0  0  0  0  0  0
    3.9108  -11.7333    4.0538 H   0  0  0  0  0  0  0  0  0  0  0  0
    6.7827  -10.1676    3.4779 H   0  0  0  0  0  0  0  0  0  0  0  0
    5.9761  -11.3360    4.3205 H   0  0  0  0  0  0  0  0  0  0  0  0
    6.2737   -9.8989    5.1503 H   0  0  0  0  0  0  0  0  0  0  0  0
  1  2  2  0
  1 37  1  0
  1 38  1  0
  2  3  1  0
  2 39  1  0
  3 27  1  0
  3  4  1  1
  3  5  1  0
  4 40  1  0
  4 41  1  0
  4 42  1  0
  5  6  1  0
  5 43  1  0
  5 44  1  0
  6 34  1  0
  6  7  1  6
  6  9  1  0
  7  8  1  0
  8 45  1  0
  8 46  1  0
  8 47  1  0
  9 10  1  0
  9 20  2  3
 10 11  1  0
 11 12  2  0
 11 13  1  0
 13 14  2  3
 13 48  1  0
 14 15  1  0
 14 49  1  0
 15 19  1  0
 15 16  2  0
 16 17  1  0
 16 50  1  0
 17 18  2  0
 17 51  1  0
 18 19  1  0
 18 52  1  0
 20 31  1  0
 20 21  1  0
 21 22  1  0
 21 23  1  0
 21 53  1  1
 22 54  1  0
 22 55  1  0
 22 56  1  0
 23 24  1  0
 23 57  1  0
 23 58  1  0
 24 30  1  0
 24 25  1  0
 24 59  1  1
 25 26  2  0
 25 60  1  0
 26 27  1  0
 26 61  1  0
 27 28  1  0
 27 62  1  6
 28 29  2  0
 28 34  1  0
 29 30  1  0
 29 63  1  0
 30 31  1  0
 30 64  1  1
 31 32  1  0
 31 33  1  0
 32 65  1  0
 32 66  1  0
 32 67  1  0
 33 68  1  0
 33 69  1  0
 33 70  1  0
 34 35  1  0
 34 36  1  0
 35 71  1  0
 35 72  1  0
 35 73  1  0
 36 74  1  0
 36 75  1  0
 36 76  1  0
M  END
>  <i_m_ct_stereo_status>  (194) 
1

>  <s_m_source_file>  (194) 
/var/tmp/pbs.5076255.sched01/tmphf7gnms3/50i7j3xhgh.sdf

>  <i_m_source_file_index>  (194) 
35

>  <i_lp_mmshare_version>  (194) 
48012

>  <i_f3d_flags>  (194) 
0

>  <s_epik_input>  (194) 
W0NIM11PQzEyW0NIMl1bQ0BdKFtDSDNdKShbQ0hdPVtDSDJdKVtDSF0zQyhDMihbQ0gzXSlbQ0gzXSk9W0NIXVtDQEBIXTRbQ0hdKFtDSF09W0NIXTMpW0NIMl1bQ0BIXShbQ0gzXSlcQyhDNChbQ0gzXSlbQ0gzXSk9Q1wxT0MoPU8pL1tDSF09W0NIXS9jNVtjSF1bY0hdW2NIXW81

>  <s_epik_cmdline>  (194) 
J2VwaWtfcHl0aG9uJywgJy1waHQnLCAnMi4wJywgJy1waCcsICc3LjAnLCAnLXRuJywgJzgnLCAnLW1hJywgJzIwMCcsICctaW1hZScsICc8aW5maWxlLm1hZT4nLCAnLW9tYWUnLCAnPG91dGZpbGUubWFlPic=

>  <r_lp_tautomer_probability>  (194) 
1

>  <r_epik_Ionization_Penalty>  (194) 
1.29585e-13

>  <r_epik_Ionization_Penalty_Charging>  (194) 
0

>  <r_epik_Ionization_Penalty_Neutral>  (194) 
1.29585e-13

>  <r_epik_State_Penalty>  (194) 
-0

>  <r_epik_Charging_Adjusted_Penalty>  (194) 
0

>  <i_epik_Tot_Q>  (194) 
0

>  <i_epik_Tot_abs_Q>  (194) 
0

>  <s_lp_Force_Field>  (194) 
OPLS3e

>  <r_lp_Energy>  (194) 
259.003

>  <b_lp_Chiralities_Consistent>  (194) 
1

>  <s_lp_Variant>  (194) 
52:0-5

>  <s_i_glide_gridfile>  (194) 
pfpi4k_grid

>  <i_i_glide_lignum>  (194) 
35

>  <i_i_glide_rotatable_bonds>  (194) 
6

>  <r_i_docking_score>  (194) 
-1.71829

>  <r_i_glide_ligand_efficiency>  (194) 
-0.0477303

>  <r_i_glide_ligand_efficiency_sa>  (194) 
-0.157602

>  <r_i_glide_ligand_efficiency_ln>  (194) 
-0.374884

>  <r_i_glide_gscore>  (194) 
-1.71829

>  <r_i_glide_lipo>  (194) 
-0.568639

>  <r_i_glide_hbond>  (194) 
0

>  <r_i_glide_metal>  (194) 
-0

>  <r_i_glide_rewards>  (194) 
-0.210501

>  <r_i_glide_evdw>  (194) 
-27.3047

>  <r_i_glide_ecoul>  (194) 
0.569327

>  <r_i_glide_erotb>  (194) 
0.340689

>  <r_i_glide_esite>  (194) 
0

>  <r_i_glide_emodel>  (194) 
-24.2739

>  <r_i_glide_energy>  (194) 
-26.7354

>  <r_i_glide_einternal>  (194) 
3.42689

>  <r_i_glide_intrahb_reward>  (194) 
-0

>  <i_i_glide_confnum>  (194) 
2

>  <i_i_glide_posenum>  (194) 
29

>  <r_i_glide_eff_state_penalty>  (194) 
0

>  <ligand_id>  (194) 
52

>  <original_smiles>  (194) 
C=CC1(C)CC2(OC)C(OC(=O)C=Cc3ccco3)=C3C(C)CC4C=CC1C(=CC4C3(C)C)C2(C)C

>  <smiles>  (194) 
[H]C([H])=C([H])C1(C([H])([H])[H])C2([H])C([H])=C([H])C3([H])C([H])([H])C([H])(C([H])([H])[H])C4=C(OC(=O)C([H])=C([H])c5oc([H])c([H])c5[H])C(OC([H])([H])[H])(C1([H])[H])C(C([H])([H])[H])(C([H])([H])[H])C2=C([H])C3([H])C4(C([H])([H])[H])C([H])([H])[H]

$$$$
52:4:1
     RDKit          3D

 76 80  0  0  1  0  0  0  0  0999 V2000
   -0.6373   -7.7563    1.6867 C   0  0  0  0  0  0  0  0  0  0  0  0
    0.5143   -7.8799    2.3880 C   0  0  0  0  0  0  0  0  0  0  0  0
    1.1740   -9.1694    2.9370 C   0  0  1  0  0  0  0  0  0  0  0  0
    0.1446  -10.3096    2.7030 C   0  0  0  0  0  0  0  0  0  0  0  0
    2.5648   -9.3046    2.1341 C   0  0  0  0  0  0  0  0  0  0  0  0
    3.9421   -9.2437    2.9825 C   0  0  1  0  0  0  0  0  0  0  0  0
    5.0860   -9.6872    2.2188 O   0  0  0  0  0  0  0  0  0  0  0  0
    5.2785   -9.2775    0.8607 C   0  0  0  0  0  0  0  0  0  0  0  0
    4.2288   -7.6874    3.4101 C   0  0  0  0  0  0  0  0  0  0  0  0
    3.9112   -6.9100    2.3108 O   0  0  0  0  0  0  0  0  0  0  0  0
    4.9275   -6.3413    1.5893 C   0  0  0  0  0  0  0  0  0  0  0  0
    6.1231   -6.5426    1.7688 O   0  0  0  0  0  0  0  0  0  0  0  0
    4.3622   -5.4606    0.5618 C   0  0  0  0  0  0  0  0  0  0  0  0
    5.1494   -4.7998   -0.3072 C   0  0  0  0  0  0  0  0  0  0  0  0
    4.7221   -3.8426   -1.2944 C   0  0  0  0  0  0  0  0  0  0  0  0
    5.3589   -3.2011   -2.3208 C   0  0  0  0  0  0  0  0  0  0  0  0
    4.3858   -2.3551   -2.9262 C   0  0  0  0  0  0  0  0  0  0  0  0
    3.2316   -2.5505   -2.2314 C   0  0  0  0  0  0  0  0  0  0  0  0
    3.4142   -3.4546   -1.2314 O   0  0  0  0  0  0  0  0  0  0  0  0
    4.4899   -6.9995    4.6035 C   0  0  0  0  0  0  0  0  0  0  0  0
    4.0009   -5.5237    4.9166 C   0  0  1  0  0  0  0  0  0  0  0  0
    3.4902   -4.6451    3.7589 C   0  0  0  0  0  0  0  0  0  0  0  0
    2.9037   -5.5356    6.0826 C   0  0  0  0  0  0  0  0  0  0  0  0
    2.4476   -6.9914    6.4115 C   0  0  2  0  0  0  0  0  0  0  0  0
    0.9911   -7.5024    6.4037 C   0  0  0  0  0  0  0  0  0  0  0  0
    0.5558   -8.4501    5.5250 C   0  0  0  0  0  0  0  0  0  0  0  0
    1.4877   -9.1089    4.4818 C   0  0  1  0  0  0  0  0  0  0  0  0
    2.7170   -9.8433    5.0865 C   0  0  0  0  0  0  0  0  0  0  0  0
    3.1741   -9.5108    6.3147 C   0  0  0  0  0  0  0  0  0  0  0  0
    3.6046   -8.0677    6.6503 C   0  0  1  0  0  0  0  0  0  0  0  0
    4.9492   -7.6006    5.9600 C   0  0  0  0  0  0  0  0  0  0  0  0
    6.1400   -8.5563    5.7133 C   0  0  0  0  0  0  0  0  0  0  0  0
    5.6584   -6.6066    6.9579 C   0  0  0  0  0  0  0  0  0  0  0  0
    3.6975  -10.4277    4.0606 C   0  0  0  0  0  0  0  0  0  0  0  0
    3.0636  -11.7543    3.4926 C   0  0  0  0  0  0  0  0  0  0  0  0
    4.9882  -11.1049    4.6810 C   0  0  0  0  0  0  0  0  0  0  0  0
   -1.2719   -8.5885    1.4215 H   0  0  0  0  0  0  0  0  0  0  0  0
   -0.9772   -6.7919    1.3540 H   0  0  0  0  0  0  0  0  0  0  0  0
    1.0550   -6.9659    2.5837 H   0  0  0  0  0  0  0  0  0  0  0  0
    0.2378  -11.1396    3.4014 H   0  0  0  0  0  0  0  0  0  0  0  0
    0.1875  -10.6896    1.6940 H   0  0  0  0  0  0  0  0  0  0  0  0
   -0.8827   -9.9821    2.8855 H   0  0  0  0  0  0  0  0  0  0  0  0
    2.5333  -10.2153    1.5419 H   0  0  0  0  0  0  0  0  0  0  0  0
    2.5964   -8.5783    1.3219 H   0  0  0  0  0  0  0  0  0  0  0  0
    6.2461   -9.6679    0.4877 H   0  0  0  0  0  0  0  0  0  0  0  0
    5.3763   -8.2889    0.6406 H   0  0  0  0  0  0  0  0  0  0  0  0
    4.4483   -9.6117    0.2041 H   0  0  0  0  0  0  0  0  0  0  0  0
    3.3035   -5.3117    0.5650 H   0  0  0  0  0  0  0  0  0  0  0  0
    6.2156   -4.9926   -0.3118 H   0  0  0  0  0  0  0  0  0  0  0  0
    6.3962   -3.3117   -2.6011 H   0  0  0  0  0  0  0  0  0  0  0  0
    4.5300   -1.6961   -3.7613 H   0  0  0  0  0  0  0  0  0  0  0  0
    2.2290   -2.1461   -2.3025 H   0  0  0  0  0  0  0  0  0  0  0  0
    4.8694   -4.9653    5.2566 H   0  0  0  0  0  0  0  0  0  0  0  0
    4.2824   -4.4259    3.0516 H   0  0  0  0  0  0  0  0  0  0  0  0
    3.2017   -3.6555    4.1006 H   0  0  0  0  0  0  0  0  0  0  0  0
    2.6346   -5.0872    3.2458 H   0  0  0  0  0  0  0  0  0  0  0  0
    3.2598   -5.0279    6.9740 H   0  0  0  0  0  0  0  0  0  0  0  0
    2.0430   -4.9312    5.7926 H   0  0  0  0  0  0  0  0  0  0  0  0
    2.2634   -6.8969    5.3795 H   0  0  0  0  0  0  0  0  0  0  0  0
    0.3156   -7.0926    7.1370 H   0  0  0  0  0  0  0  0  0  0  0  0
   -0.4614   -8.8020    5.5713 H   0  0  0  0  0  0  0  0  0  0  0  0
    2.0297   -8.2596    4.2027 H   0  0  0  0  0  0  0  0  0  0  0  0
    2.3799   -9.6049    7.0392 H   0  0  0  0  0  0  0  0  0  0  0  0
    3.7858   -8.0930    7.7271 H   0  0  0  0  0  0  0  0  0  0  0  0
    6.2480   -9.3095    6.4893 H   0  0  0  0  0  0  0  0  0  0  0  0
    7.0939   -8.0297    5.7013 H   0  0  0  0  0  0  0  0  0  0  0  0
    6.1376   -8.9733    4.7184 H   0  0  0  0  0  0  0  0  0  0  0  0
    6.1733   -7.1440    7.7524 H   0  0  0  0  0  0  0  0  0  0  0  0
    5.0067   -5.9390    7.5065 H   0  0  0  0  0  0  0  0  0  0  0  0
    6.4130   -5.9886    6.4726 H   0  0  0  0  0  0  0  0  0  0  0  0
    3.7412  -12.2951    2.8336 H   0  0  0  0  0  0  0  0  0  0  0  0
    2.1552  -11.6936    2.9264 H   0  0  0  0  0  0  0  0  0  0  0  0
    2.7994  -12.4361    4.3021 H   0  0  0  0  0  0  0  0  0  0  0  0
    5.8952  -10.9358    4.1037 H   0  0  0  0  0  0  0  0  0  0  0  0
    4.9494  -12.1937    4.7333 H   0  0  0  0  0  0  0  0  0  0  0  0
    5.1678  -10.8797    5.7216 H   0  0  0  0  0  0  0  0  0  0  0  0
  1  2  2  0
  1 37  1  0
  1 38  1  0
  2  3  1  0
  2 39  1  0
  3 27  1  0
  3  4  1  1
  3  5  1  0
  4 40  1  0
  4 41  1  0
  4 42  1  0
  5  6  1  0
  5 43  1  0
  5 44  1  0
  6 34  1  0
  6  7  1  6
  6  9  1  0
  7  8  1  0
  8 45  1  0
  8 46  1  0
  8 47  1  0
  9 10  1  0
  9 20  2  3
 10 11  1  0
 11 12  2  0
 11 13  1  0
 13 14  2  3
 13 48  1  0
 14 15  1  0
 14 49  1  0
 15 19  1  0
 15 16  2  0
 16 17  1  0
 16 50  1  0
 17 18  2  0
 17 51  1  0
 18 19  1  0
 18 52  1  0
 20 31  1  0
 20 21  1  0
 21 22  1  0
 21 23  1  0
 21 53  1  1
 22 54  1  0
 22 55  1  0
 22 56  1  0
 23 24  1  0
 23 57  1  0
 23 58  1  0
 24 30  1  0
 24 25  1  0
 24 59  1  1
 25 26  2  0
 25 60  1  0
 26 27  1  0
 26 61  1  0
 27 28  1  0
 27 62  1  6
 28 29  2  0
 28 34  1  0
 29 30  1  0
 29 63  1  0
 30 31  1  0
 30 64  1  1
 31 32  1  0
 31 33  1  0
 32 65  1  0
 32 66  1  0
 32 67  1  0
 33 68  1  0
 33 69  1  0
 33 70  1  0
 34 35  1  0
 34 36  1  0
 35 71  1  0
 35 72  1  0
 35 73  1  0
 36 74  1  0
 36 75  1  0
 36 76  1  0
M  END
>  <i_m_ct_stereo_status>  (195) 
1

>  <s_m_source_file>  (195) 
/var/tmp/pbs.5076255.sched01/tmphf7gnms3/50i7j3xhgh.sdf

>  <i_m_source_file_index>  (195) 
35

>  <i_lp_mmshare_version>  (195) 
48012

>  <i_f3d_flags>  (195) 
0

>  <s_epik_input>  (195) 
W0NIM11PQzEyW0NIMl1bQ0BdKFtDSDNdKShbQ0hdPVtDSDJdKVtDSF0zQyhDMihbQ0gzXSlbQ0gzXSk9W0NIXVtDQEBIXTRbQ0hdKFtDSF09W0NIXTMpW0NIMl1bQ0BIXShbQ0gzXSlcQyhDNChbQ0gzXSlbQ0gzXSk9Q1wxT0MoPU8pL1tDSF09W0NIXS9jNVtjSF1bY0hdW2NIXW81

>  <s_epik_cmdline>  (195) 
J2VwaWtfcHl0aG9uJywgJy1waHQnLCAnMi4wJywgJy1waCcsICc3LjAnLCAnLXRuJywgJzgnLCAnLW1hJywgJzIwMCcsICctaW1hZScsICc8aW5maWxlLm1hZT4nLCAnLW9tYWUnLCAnPG91dGZpbGUubWFlPic=

>  <r_lp_tautomer_probability>  (195) 
1

>  <r_epik_Ionization_Penalty>  (195) 
1.29585e-13

>  <r_epik_Ionization_Penalty_Charging>  (195) 
0

>  <r_epik_Ionization_Penalty_Neutral>  (195) 
1.29585e-13

>  <r_epik_State_Penalty>  (195) 
-0

>  <r_epik_Charging_Adjusted_Penalty>  (195) 
0

>  <i_epik_Tot_Q>  (195) 
0

>  <i_epik_Tot_abs_Q>  (195) 
0

>  <s_lp_Force_Field>  (195) 
OPLS3e

>  <r_lp_Energy>  (195) 
259.003

>  <b_lp_Chiralities_Consistent>  (195) 
1

>  <s_lp_Variant>  (195) 
52:0-5

>  <s_i_glide_gridfile>  (195) 
pfpi4k_grid

>  <i_i_glide_lignum>  (195) 
35

>  <i_i_glide_rotatable_bonds>  (195) 
6

>  <r_i_docking_score>  (195) 
-1.57954

>  <r_i_glide_ligand_efficiency>  (195) 
-0.043876

>  <r_i_glide_ligand_efficiency_sa>  (195) 
-0.144875

>  <r_i_glide_ligand_efficiency_ln>  (195) 
-0.344612

>  <r_i_glide_gscore>  (195) 
-1.57954

>  <r_i_glide_lipo>  (195) 
-0.530633

>  <r_i_glide_hbond>  (195) 
0

>  <r_i_glide_metal>  (195) 
-0

>  <r_i_glide_rewards>  (195) 
-0.161558

>  <r_i_glide_evdw>  (195) 
-27.7183

>  <r_i_glide_ecoul>  (195) 
1.05255

>  <r_i_glide_erotb>  (195) 
0.340689

>  <r_i_glide_esite>  (195) 
0

>  <r_i_glide_emodel>  (195) 
-25.9154

>  <r_i_glide_energy>  (195) 
-26.6658

>  <r_i_glide_einternal>  (195) 
1.85526

>  <r_i_glide_intrahb_reward>  (195) 
-0

>  <i_i_glide_confnum>  (195) 
2

>  <i_i_glide_posenum>  (195) 
34

>  <r_i_glide_eff_state_penalty>  (195) 
0

>  <ligand_id>  (195) 
52

>  <original_smiles>  (195) 
C=CC1(C)CC2(OC)C(OC(=O)C=Cc3ccco3)=C3C(C)CC4C=CC1C(=CC4C3(C)C)C2(C)C

>  <smiles>  (195) 
[H]C([H])=C([H])C1(C([H])([H])[H])C2([H])C([H])=C([H])C3([H])C([H])([H])C([H])(C([H])([H])[H])C4=C(OC(=O)C([H])=C([H])c5oc([H])c([H])c5[H])C(OC([H])([H])[H])(C1([H])[H])C(C([H])([H])[H])(C([H])([H])[H])C2=C([H])C3([H])C4(C([H])([H])[H])C([H])([H])[H]

$$$$
52:4:2
     RDKit          3D

 76 80  0  0  1  0  0  0  0  0999 V2000
   -0.1459   -6.4838    1.8867 C   0  0  0  0  0  0  0  0  0  0  0  0
   -0.0617   -7.8197    1.7997 C   0  0  0  0  0  0  0  0  0  0  0  0
    0.4997   -8.8407    2.8038 C   0  0  1  0  0  0  0  0  0  0  0  0
   -0.5261   -9.9966    2.7339 C   0  0  0  0  0  0  0  0  0  0  0  0
    1.9813   -9.1815    2.2849 C   0  0  0  0  0  0  0  0  0  0  0  0
    3.2236   -8.8570    3.2593 C   0  0  1  0  0  0  0  0  0  0  0  0
    4.4236   -9.5282    2.8100 O   0  0  0  0  0  0  0  0  0  0  0  0
    4.8533   -9.4433    1.4276 C   0  0  0  0  0  0  0  0  0  0  0  0
    3.4944   -7.2371    3.2541 C   0  0  0  0  0  0  0  0  0  0  0  0
    3.3712   -6.8052    1.9394 O   0  0  0  0  0  0  0  0  0  0  0  0
    4.4422   -6.3206    1.3221 C   0  0  0  0  0  0  0  0  0  0  0  0
    5.6189   -6.6205    1.6625 O   0  0  0  0  0  0  0  0  0  0  0  0
    4.0546   -5.4565    0.2255 C   0  0  0  0  0  0  0  0  0  0  0  0
    4.9700   -4.7901   -0.5366 C   0  0  0  0  0  0  0  0  0  0  0  0
    4.6793   -3.8520   -1.5700 C   0  0  0  0  0  0  0  0  0  0  0  0
    5.4645   -3.2436   -2.5340 C   0  0  0  0  0  0  0  0  0  0  0  0
    4.5901   -2.3536   -3.2241 C   0  0  0  0  0  0  0  0  0  0  0  0
    3.3725   -2.4611   -2.6273 C   0  0  0  0  0  0  0  0  0  0  0  0
    3.4149   -3.3569   -1.6129 O   0  0  0  0  0  0  0  0  0  0  0  0
    3.5755   -6.2297    4.2311 C   0  0  0  0  0  0  0  0  0  0  0  0
    3.0682   -4.7320    4.0672 C   0  0  1  0  0  0  0  0  0  0  0  0
    2.7573   -4.1801    2.6571 C   0  0  0  0  0  0  0  0  0  0  0  0
    1.8149   -4.4367    5.0146 C   0  0  0  0  0  0  0  0  0  0  0  0
    1.2911   -5.7490    5.6582 C   0  0  2  0  0  0  0  0  0  0  0  0
   -0.1549   -6.2610    5.5724 C   0  0  0  0  0  0  0  0  0  0  0  0
   -0.4760   -7.4246    4.9458 C   0  0  0  0  0  0  0  0  0  0  0  0
    0.5798   -8.3377    4.2876 C   0  0  1  0  0  0  0  0  0  0  0  0
    1.6742   -8.8501    5.2579 C   0  0  0  0  0  0  0  0  0  0  0  0
    1.9528   -8.1738    6.3946 C   0  0  0  0  0  0  0  0  0  0  0  0
    2.3729   -6.6928    6.3540 C   0  0  1  0  0  0  0  0  0  0  0  0
    3.8142   -6.4215    5.7622 C   0  0  0  0  0  0  0  0  0  0  0  0
    5.0025   -7.3767    5.9842 C   0  0  0  0  0  0  0  0  0  0  0  0
    4.3963   -5.1756    6.5287 C   0  0  0  0  0  0  0  0  0  0  0  0
    2.7817   -9.6819    4.5951 C   0  0  0  0  0  0  0  0  0  0  0  0
    2.2128  -11.1264    4.3372 C   0  0  0  0  0  0  0  0  0  0  0  0
    3.9427  -10.1356    5.5612 C   0  0  0  0  0  0  0  0  0  0  0  0
    0.2075   -5.9274    2.7397 H   0  0  0  0  0  0  0  0  0  0  0  0
   -0.5814   -5.9449    1.0598 H   0  0  0  0  0  0  0  0  0  0  0  0
   -0.4537   -8.2451    0.8907 H   0  0  0  0  0  0  0  0  0  0  0  0
   -0.5608  -10.5878    3.6451 H   0  0  0  0  0  0  0  0  0  0  0  0
   -0.3353  -10.6609    1.8929 H   0  0  0  0  0  0  0  0  0  0  0  0
   -1.5460   -9.6270    2.6182 H   0  0  0  0  0  0  0  0  0  0  0  0
    2.0259  -10.2239    1.9787 H   0  0  0  0  0  0  0  0  0  0  0  0
    2.1427   -8.7085    1.3168 H   0  0  0  0  0  0  0  0  0  0  0  0
    5.8241   -9.9916    1.3738 H   0  0  0  0  0  0  0  0  0  0  0  0
    5.0152   -8.4984    1.0116 H   0  0  0  0  0  0  0  0  0  0  0  0
    4.0922   -9.9519    0.8154 H   0  0  0  0  0  0  0  0  0  0  0  0
    3.0015   -5.3285   -0.0042 H   0  0  0  0  0  0  0  0  0  0  0  0
    6.0107   -5.0081   -0.3989 H   0  0  0  0  0  0  0  0  0  0  0  0
    6.5072   -3.4576   -2.7041 H   0  0  0  0  0  0  0  0  0  0  0  0
    4.8378   -1.7270   -4.0587 H   0  0  0  0  0  0  0  0  0  0  0  0
    2.4078   -1.9992   -2.7876 H   0  0  0  0  0  0  0  0  0  0  0  0
    3.9004   -4.0952    4.3570 H   0  0  0  0  0  0  0  0  0  0  0  0
    3.6898   -4.1133    2.0978 H   0  0  0  0  0  0  0  0  0  0  0  0
    2.3764   -3.1487    2.6912 H   0  0  0  0  0  0  0  0  0  0  0  0
    2.0153   -4.7993    2.1363 H   0  0  0  0  0  0  0  0  0  0  0  0
    2.0581   -3.6799    5.7527 H   0  0  0  0  0  0  0  0  0  0  0  0
    1.0301   -3.9647    4.4236 H   0  0  0  0  0  0  0  0  0  0  0  0
    1.2715   -5.9587    4.6283 H   0  0  0  0  0  0  0  0  0  0  0  0
   -0.9123   -5.6675    6.0529 H   0  0  0  0  0  0  0  0  0  0  0  0
   -1.4912   -7.7748    4.9250 H   0  0  0  0  0  0  0  0  0  0  0  0
    1.1929   -7.6036    3.8667 H   0  0  0  0  0  0  0  0  0  0  0  0
    1.0603   -8.0583    6.9909 H   0  0  0  0  0  0  0  0  0  0  0  0
    2.4013   -6.4107    7.4063 H   0  0  0  0  0  0  0  0  0  0  0  0
    4.9736   -7.8717    6.9527 H   0  0  0  0  0  0  0  0  0  0  0  0
    5.9579   -6.8509    5.9615 H   0  0  0  0  0  0  0  0  0  0  0  0
    5.1328   -8.0647    5.1653 H   0  0  0  0  0  0  0  0  0  0  0  0
    4.7750   -5.4589    7.5099 H   0  0  0  0  0  0  0  0  0  0  0  0
    3.6916   -4.3900    6.7579 H   0  0  0  0  0  0  0  0  0  0  0  0
    5.2304   -4.7131    6.0038 H   0  0  0  0  0  0  0  0  0  0  0  0
    2.9705  -11.8176    3.9665 H   0  0  0  0  0  0  0  0  0  0  0  0
    1.3954  -11.2467    3.6582 H   0  0  0  0  0  0  0  0  0  0  0  0
    1.8214  -11.5513    5.2603 H   0  0  0  0  0  0  0  0  0  0  0  0
    4.9309  -10.1288    5.1025 H   0  0  0  0  0  0  0  0  0  0  0  0
    3.8585  -11.1663    5.9107 H   0  0  0  0  0  0  0  0  0  0  0  0
    3.9770   -9.6192    6.5079 H   0  0  0  0  0  0  0  0  0  0  0  0
  1  2  2  0
  1 37  1  0
  1 38  1  0
  2  3  1  0
  2 39  1  0
  3 27  1  0
  3  4  1  1
  3  5  1  0
  4 40  1  0
  4 41  1  0
  4 42  1  0
  5  6  1  0
  5 43  1  0
  5 44  1  0
  6 34  1  0
  6  7  1  6
  6  9  1  0
  7  8  1  0
  8 45  1  0
  8 46  1  0
  8 47  1  0
  9 10  1  0
  9 20  2  3
 10 11  1  0
 11 12  2  0
 11 13  1  0
 13 14  2  3
 13 48  1  0
 14 15  1  0
 14 49  1  0
 15 19  1  0
 15 16  2  0
 16 17  1  0
 16 50  1  0
 17 18  2  0
 17 51  1  0
 18 19  1  0
 18 52  1  0
 20 31  1  0
 20 21  1  0
 21 22  1  0
 21 23  1  0
 21 53  1  1
 22 54  1  0
 22 55  1  0
 22 56  1  0
 23 24  1  0
 23 57  1  0
 23 58  1  0
 24 30  1  0
 24 25  1  0
 24 59  1  1
 25 26  2  0
 25 60  1  0
 26 27  1  0
 26 61  1  0
 27 28  1  0
 27 62  1  6
 28 29  2  0
 28 34  1  0
 29 30  1  0
 29 63  1  0
 30 31  1  0
 30 64  1  1
 31 32  1  0
 31 33  1  0
 32 65  1  0
 32 66  1  0
 32 67  1  0
 33 68  1  0
 33 69  1  0
 33 70  1  0
 34 35  1  0
 34 36  1  0
 35 71  1  0
 35 72  1  0
 35 73  1  0
 36 74  1  0
 36 75  1  0
 36 76  1  0
M  END
>  <i_m_ct_stereo_status>  (196) 
1

>  <s_m_source_file>  (196) 
/var/tmp/pbs.5076255.sched01/tmphf7gnms3/50i7j3xhgh.sdf

>  <i_m_source_file_index>  (196) 
35

>  <i_lp_mmshare_version>  (196) 
48012

>  <i_f3d_flags>  (196) 
0

>  <s_epik_input>  (196) 
W0NIM11PQzEyW0NIMl1bQ0BdKFtDSDNdKShbQ0hdPVtDSDJdKVtDSF0zQyhDMihbQ0gzXSlbQ0gzXSk9W0NIXVtDQEBIXTRbQ0hdKFtDSF09W0NIXTMpW0NIMl1bQ0BIXShbQ0gzXSlcQyhDNChbQ0gzXSlbQ0gzXSk9Q1wxT0MoPU8pL1tDSF09W0NIXS9jNVtjSF1bY0hdW2NIXW81

>  <s_epik_cmdline>  (196) 
J2VwaWtfcHl0aG9uJywgJy1waHQnLCAnMi4wJywgJy1waCcsICc3LjAnLCAnLXRuJywgJzgnLCAnLW1hJywgJzIwMCcsICctaW1hZScsICc8aW5maWxlLm1hZT4nLCAnLW9tYWUnLCAnPG91dGZpbGUubWFlPic=

>  <r_lp_tautomer_probability>  (196) 
1

>  <r_epik_Ionization_Penalty>  (196) 
1.29585e-13

>  <r_epik_Ionization_Penalty_Charging>  (196) 
0

>  <r_epik_Ionization_Penalty_Neutral>  (196) 
1.29585e-13

>  <r_epik_State_Penalty>  (196) 
-0

>  <r_epik_Charging_Adjusted_Penalty>  (196) 
0

>  <i_epik_Tot_Q>  (196) 
0

>  <i_epik_Tot_abs_Q>  (196) 
0

>  <s_lp_Force_Field>  (196) 
OPLS3e

>  <r_lp_Energy>  (196) 
259.003

>  <b_lp_Chiralities_Consistent>  (196) 
1

>  <s_lp_Variant>  (196) 
52:0-5

>  <s_i_glide_gridfile>  (196) 
pfpi4k_grid

>  <i_i_glide_lignum>  (196) 
35

>  <i_i_glide_rotatable_bonds>  (196) 
6

>  <r_i_docking_score>  (196) 
-1.5245

>  <r_i_glide_ligand_efficiency>  (196) 
-0.0423471

>  <r_i_glide_ligand_efficiency_sa>  (196) 
-0.139827

>  <r_i_glide_ligand_efficiency_ln>  (196) 
-0.332604

>  <r_i_glide_gscore>  (196) 
-1.5245

>  <r_i_glide_lipo>  (196) 
-0.386847

>  <r_i_glide_hbond>  (196) 
0

>  <r_i_glide_metal>  (196) 
-0

>  <r_i_glide_rewards>  (196) 
-0.178972

>  <r_i_glide_evdw>  (196) 
-27.7036

>  <r_i_glide_ecoul>  (196) 
0.572087

>  <r_i_glide_erotb>  (196) 
0.340689

>  <r_i_glide_esite>  (196) 
0

>  <r_i_glide_emodel>  (196) 
-24.955

>  <r_i_glide_energy>  (196) 
-27.1315

>  <r_i_glide_einternal>  (196) 
3.76863

>  <r_i_glide_intrahb_reward>  (196) 
-0

>  <i_i_glide_confnum>  (196) 
2

>  <i_i_glide_posenum>  (196) 
20

>  <r_i_glide_eff_state_penalty>  (196) 
0

>  <ligand_id>  (196) 
52

>  <original_smiles>  (196) 
C=CC1(C)CC2(OC)C(OC(=O)C=Cc3ccco3)=C3C(C)CC4C=CC1C(=CC4C3(C)C)C2(C)C

>  <smiles>  (196) 
[H]C([H])=C([H])C1(C([H])([H])[H])C2([H])C([H])=C([H])C3([H])C([H])([H])C([H])(C([H])([H])[H])C4=C(OC(=O)C([H])=C([H])c5oc([H])c([H])c5[H])C(OC([H])([H])[H])(C1([H])[H])C(C([H])([H])[H])(C([H])([H])[H])C2=C([H])C3([H])C4(C([H])([H])[H])C([H])([H])[H]

$$$$
52:6:0
     RDKit          3D

 76 80  0  0  1  0  0  0  0  0999 V2000
    5.5547   -8.7176    4.8253 C   0  0  0  0  0  0  0  0  0  0  0  0
    5.4330   -7.5380    5.4618 C   0  0  0  0  0  0  0  0  0  0  0  0
    4.2075   -6.9014    6.1501 C   0  0  1  0  0  0  0  0  0  0  0  0
    4.7263   -6.5739    7.5764 C   0  0  0  0  0  0  0  0  0  0  0  0
    3.8256   -5.6314    5.2383 C   0  0  0  0  0  0  0  0  0  0  0  0
    2.3543   -5.6002    4.5764 C   0  0  1  0  0  0  0  0  0  0  0  0
    2.0195   -4.2808    4.0622 O   0  0  0  0  0  0  0  0  0  0  0  0
    2.9299   -3.5340    3.2336 C   0  0  0  0  0  0  0  0  0  0  0  0
    2.3361   -6.6536    3.3217 C   0  0  0  0  0  0  0  0  0  0  0  0
    3.5482   -6.5056    2.6745 O   0  0  0  0  0  0  0  0  0  0  0  0
    3.5255   -5.8894    1.4510 C   0  0  0  0  0  0  0  0  0  0  0  0
    2.5179   -5.5270    0.8791 O   0  0  0  0  0  0  0  0  0  0  0  0
    4.9255   -5.6848    0.9930 C   0  0  0  0  0  0  0  0  0  0  0  0
    5.3198   -4.9286   -0.0680 C   0  0  0  0  0  0  0  0  0  0  0  0
    4.6241   -4.0646   -0.9934 C   0  0  0  0  0  0  0  0  0  0  0  0
    5.0224   -3.3565   -2.1122 C   0  0  0  0  0  0  0  0  0  0  0  0
    3.8616   -2.6969   -2.6107 C   0  0  0  0  0  0  0  0  0  0  0  0
    2.8552   -3.0361   -1.7482 C   0  0  0  0  0  0  0  0  0  0  0  0
    3.3036   -3.8283   -0.7466 O   0  0  0  0  0  0  0  0  0  0  0  0
    1.5359   -7.7248    2.9080 C   0  0  0  0  0  0  0  0  0  0  0  0
    2.0704   -9.0065    2.1442 C   0  0  1  0  0  0  0  0  0  0  0  0
    3.4690   -8.9617    1.4981 C   0  0  0  0  0  0  0  0  0  0  0  0
    1.9683  -10.2983    3.0810 C   0  0  0  0  0  0  0  0  0  0  0  0
    1.6064   -9.9020    4.5456 C   0  0  2  0  0  0  0  0  0  0  0  0
    2.4081  -10.2838    5.8057 C   0  0  0  0  0  0  0  0  0  0  0  0
    3.0176   -9.3522    6.5914 C   0  0  0  0  0  0  0  0  0  0  0  0
    2.9491   -7.8368    6.2868 C   0  0  1  0  0  0  0  0  0  0  0  0
    1.5095   -7.2574    6.2637 C   0  0  0  0  0  0  0  0  0  0  0  0
    0.4529   -8.0668    6.0244 C   0  0  0  0  0  0  0  0  0  0  0  0
    0.3689   -8.9094    4.7360 C   0  0  1  0  0  0  0  0  0  0  0  0
    0.1100   -8.0823    3.4136 C   0  0  0  0  0  0  0  0  0  0  0  0
   -0.7787   -6.8156    3.3760 C   0  0  0  0  0  0  0  0  0  0  0  0
   -0.7617   -8.9892    2.4678 C   0  0  0  0  0  0  0  0  0  0  0  0
    1.4144   -5.7745    5.8855 C   0  0  0  0  0  0  0  0  0  0  0  0
    1.8363   -4.9227    7.1429 C   0  0  0  0  0  0  0  0  0  0  0  0
   -0.0615   -5.2125    5.7868 C   0  0  0  0  0  0  0  0  0  0  0  0
    4.7418   -9.4122    4.7018 H   0  0  0  0  0  0  0  0  0  0  0  0
    6.5047   -9.0100    4.4001 H   0  0  0  0  0  0  0  0  0  0  0  0
    6.3288   -6.9329    5.5062 H   0  0  0  0  0  0  0  0  0  0  0  0
    3.9354   -6.5316    8.3230 H   0  0  0  0  0  0  0  0  0  0  0  0
    5.2826   -5.6377    7.6073 H   0  0  0  0  0  0  0  0  0  0  0  0
    5.3984   -7.3512    7.9480 H   0  0  0  0  0  0  0  0  0  0  0  0
    3.9976   -4.7276    5.8097 H   0  0  0  0  0  0  0  0  0  0  0  0
    4.5829   -5.4891    4.4685 H   0  0  0  0  0  0  0  0  0  0  0  0
    2.4369   -2.5879    2.9299 H   0  0  0  0  0  0  0  0  0  0  0  0
    3.1575   -3.9080    2.3193 H   0  0  0  0  0  0  0  0  0  0  0  0
    3.8769   -3.3226    3.7734 H   0  0  0  0  0  0  0  0  0  0  0  0
    5.6698   -6.2263    1.5205 H   0  0  0  0  0  0  0  0  0  0  0  0
    6.3963   -4.9294   -0.2380 H   0  0  0  0  0  0  0  0  0  0  0  0
    6.0195   -3.3342   -2.5392 H   0  0  0  0  0  0  0  0  0  0  0  0
    3.7787   -2.0537   -3.4804 H   0  0  0  0  0  0  0  0  0  0  0  0
    1.8008   -2.7803   -1.6958 H   0  0  0  0  0  0  0  0  0  0  0  0
    1.4208   -9.1472    1.2852 H   0  0  0  0  0  0  0  0  0  0  0  0
    3.5149   -8.2469    0.6841 H   0  0  0  0  0  0  0  0  0  0  0  0
    3.7117   -9.8904    0.9967 H   0  0  0  0  0  0  0  0  0  0  0  0
    4.2551   -8.7548    2.2258 H   0  0  0  0  0  0  0  0  0  0  0  0
    1.2632  -11.0231    2.6869 H   0  0  0  0  0  0  0  0  0  0  0  0
    2.9111  -10.8456    3.0583 H   0  0  0  0  0  0  0  0  0  0  0  0
    2.4738   -9.3426    4.3391 H   0  0  0  0  0  0  0  0  0  0  0  0
    2.4780  -11.3281    6.0582 H   0  0  0  0  0  0  0  0  0  0  0  0
    3.5629   -9.6613    7.4662 H   0  0  0  0  0  0  0  0  0  0  0  0
    3.0418   -7.8785    5.2460 H   0  0  0  0  0  0  0  0  0  0  0  0
    0.4532   -8.8782    6.7358 H   0  0  0  0  0  0  0  0  0  0  0  0
   -0.5079   -9.5352    4.9007 H   0  0  0  0  0  0  0  0  0  0  0  0
   -1.6172   -6.8692    4.0663 H   0  0  0  0  0  0  0  0  0  0  0  0
   -1.2269   -6.6409    2.3980 H   0  0  0  0  0  0  0  0  0  0  0  0
   -0.2005   -5.9122    3.4774 H   0  0  0  0  0  0  0  0  0  0  0  0
   -1.8089   -8.9890    2.7616 H   0  0  0  0  0  0  0  0  0  0  0  0
   -0.5159  -10.0445    2.4618 H   0  0  0  0  0  0  0  0  0  0  0  0
   -0.7397   -8.6408    1.4377 H   0  0  0  0  0  0  0  0  0  0  0  0
    1.6699   -3.8558    7.0022 H   0  0  0  0  0  0  0  0  0  0  0  0
    2.8491   -4.9777    7.4927 H   0  0  0  0  0  0  0  0  0  0  0  0
    1.2609   -5.2181    8.0198 H   0  0  0  0  0  0  0  0  0  0  0  0
   -0.1973   -4.4838    4.9907 H   0  0  0  0  0  0  0  0  0  0  0  0
   -0.3971   -4.6652    6.6675 H   0  0  0  0  0  0  0  0  0  0  0  0
   -0.8344   -5.9636    5.7351 H   0  0  0  0  0  0  0  0  0  0  0  0
  1  2  2  0
  1 37  1  0
  1 38  1  0
  2  3  1  0
  2 39  1  0
  3 27  1  0
  3  4  1  1
  3  5  1  0
  4 40  1  0
  4 41  1  0
  4 42  1  0
  5  6  1  0
  5 43  1  0
  5 44  1  0
  6 34  1  0
  6  7  1  6
  6  9  1  0
  7  8  1  0
  8 45  1  0
  8 46  1  0
  8 47  1  0
  9 10  1  0
  9 20  2  3
 10 11  1  0
 11 12  2  0
 11 13  1  0
 13 14  2  3
 13 48  1  0
 14 15  1  0
 14 49  1  0
 15 19  1  0
 15 16  2  0
 16 17  1  0
 16 50  1  0
 17 18  2  0
 17 51  1  0
 18 19  1  0
 18 52  1  0
 20 31  1  0
 20 21  1  0
 21 22  1  0
 21 23  1  0
 21 53  1  6
 22 54  1  0
 22 55  1  0
 22 56  1  0
 23 24  1  0
 23 57  1  0
 23 58  1  0
 24 30  1  0
 24 25  1  0
 24 59  1  1
 25 26  2  0
 25 60  1  0
 26 27  1  0
 26 61  1  0
 27 28  1  0
 27 62  1  6
 28 29  2  0
 28 34  1  0
 29 30  1  0
 29 63  1  0
 30 31  1  0
 30 64  1  1
 31 32  1  0
 31 33  1  0
 32 65  1  0
 32 66  1  0
 32 67  1  0
 33 68  1  0
 33 69  1  0
 33 70  1  0
 34 35  1  0
 34 36  1  0
 35 71  1  0
 35 72  1  0
 35 73  1  0
 36 74  1  0
 36 75  1  0
 36 76  1  0
M  END
>  <i_m_ct_stereo_status>  (197) 
1

>  <s_m_source_file>  (197) 
/var/tmp/pbs.5076255.sched01/tmphf7gnms3/50i7j3xhgh.sdf

>  <i_m_source_file_index>  (197) 
37

>  <i_lp_mmshare_version>  (197) 
48012

>  <i_f3d_flags>  (197) 
0

>  <s_epik_input>  (197) 
W0NIM11PQzEyW0NIMl1bQ0BdKFtDSDNdKShbQ0hdPVtDSDJdKVtDSF0zQyhDMihbQ0gzXSlbQ0gzXSk9W0NIXVtDQEBIXTRbQ0hdKFtDSF09W0NIXTMpW0NIMl1bQ0BIXShbQ0gzXSlcQyhDNChbQ0gzXSlbQ0gzXSk9Q1wxT0MoPU8pL1tDSF09W0NIXS9jNVtjSF1bY0hdW2NIXW81

>  <s_epik_cmdline>  (197) 
J2VwaWtfcHl0aG9uJywgJy1waHQnLCAnMi4wJywgJy1waCcsICc3LjAnLCAnLXRuJywgJzgnLCAnLW1hJywgJzIwMCcsICctaW1hZScsICc8aW5maWxlLm1hZT4nLCAnLW9tYWUnLCAnPG91dGZpbGUubWFlPic=

>  <r_lp_tautomer_probability>  (197) 
1

>  <r_epik_Ionization_Penalty>  (197) 
1.29585e-13

>  <r_epik_Ionization_Penalty_Charging>  (197) 
0

>  <r_epik_Ionization_Penalty_Neutral>  (197) 
1.29585e-13

>  <r_epik_State_Penalty>  (197) 
-0

>  <r_epik_Charging_Adjusted_Penalty>  (197) 
0

>  <i_epik_Tot_Q>  (197) 
0

>  <i_epik_Tot_abs_Q>  (197) 
0

>  <s_lp_Force_Field>  (197) 
OPLS3e

>  <r_lp_Energy>  (197) 
261.963

>  <b_lp_Chiralities_Consistent>  (197) 
1

>  <s_lp_Variant>  (197) 
52:0-7

>  <s_i_glide_gridfile>  (197) 
pfpi4k_grid

>  <i_i_glide_lignum>  (197) 
37

>  <i_i_glide_rotatable_bonds>  (197) 
6

>  <r_i_docking_score>  (197) 
-1.48378

>  <r_i_glide_ligand_efficiency>  (197) 
-0.0412161

>  <r_i_glide_ligand_efficiency_sa>  (197) 
-0.136092

>  <r_i_glide_ligand_efficiency_ln>  (197) 
-0.32372

>  <r_i_glide_gscore>  (197) 
-1.48378

>  <r_i_glide_lipo>  (197) 
-0.403896

>  <r_i_glide_hbond>  (197) 
0

>  <r_i_glide_metal>  (197) 
-0

>  <r_i_glide_rewards>  (197) 
-0.124216

>  <r_i_glide_evdw>  (197) 
-24.9319

>  <r_i_glide_ecoul>  (197) 
-0.331733

>  <r_i_glide_erotb>  (197) 
0.340689

>  <r_i_glide_esite>  (197) 
0

>  <r_i_glide_emodel>  (197) 
-24.3374

>  <r_i_glide_energy>  (197) 
-25.2637

>  <r_i_glide_einternal>  (197) 
1.20327

>  <r_i_glide_intrahb_reward>  (197) 
-0

>  <i_i_glide_confnum>  (197) 
3

>  <i_i_glide_posenum>  (197) 
20

>  <r_i_glide_eff_state_penalty>  (197) 
0

>  <ligand_id>  (197) 
52

>  <original_smiles>  (197) 
C=CC1(C)CC2(OC)C(OC(=O)C=Cc3ccco3)=C3C(C)CC4C=CC1C(=CC4C3(C)C)C2(C)C

>  <smiles>  (197) 
[H]C([H])=C([H])C1(C([H])([H])[H])C2([H])C([H])=C([H])C3([H])C([H])([H])C([H])(C([H])([H])[H])C4=C(OC(=O)C([H])=C([H])c5oc([H])c([H])c5[H])C(OC([H])([H])[H])(C1([H])[H])C(C([H])([H])[H])(C([H])([H])[H])C2=C([H])C3([H])C4(C([H])([H])[H])C([H])([H])[H]

$$$$
52:6:1
     RDKit          3D

 76 80  0  0  1  0  0  0  0  0999 V2000
    5.1959   -9.9793    3.6194 C   0  0  0  0  0  0  0  0  0  0  0  0
    5.7801   -9.0608    4.4093 C   0  0  0  0  0  0  0  0  0  0  0  0
    5.2214   -8.3007    5.6304 C   0  0  1  0  0  0  0  0  0  0  0  0
    6.2767   -8.5693    6.7360 C   0  0  0  0  0  0  0  0  0  0  0  0
    5.0882   -6.7702    5.1505 C   0  0  0  0  0  0  0  0  0  0  0  0
    3.6225   -6.0923    5.1772 C   0  0  1  0  0  0  0  0  0  0  0  0
    3.7100   -4.6473    5.0287 O   0  0  0  0  0  0  0  0  0  0  0  0
    4.5235   -4.0040    4.0611 C   0  0  0  0  0  0  0  0  0  0  0  0
    2.7726   -6.6958    3.9201 C   0  0  0  0  0  0  0  0  0  0  0  0
    3.6348   -6.7527    2.8541 O   0  0  0  0  0  0  0  0  0  0  0  0
    3.4638   -5.8313    1.8427 C   0  0  0  0  0  0  0  0  0  0  0  0
    2.5682   -4.9964    1.8013 O   0  0  0  0  0  0  0  0  0  0  0  0
    4.5414   -5.9797    0.8471 C   0  0  0  0  0  0  0  0  0  0  0  0
    4.9001   -5.0654   -0.0746 C   0  0  0  0  0  0  0  0  0  0  0  0
    4.4701   -3.7135   -0.3752 C   0  0  0  0  0  0  0  0  0  0  0  0
    3.6098   -2.8189    0.2109 C   0  0  0  0  0  0  0  0  0  0  0  0
    3.6207   -1.6411   -0.5730 C   0  0  0  0  0  0  0  0  0  0  0  0
    4.5254   -1.8642   -1.5857 C   0  0  0  0  0  0  0  0  0  0  0  0
    5.0626   -3.1171   -1.4715 O   0  0  0  0  0  0  0  0  0  0  0  0
    1.5102   -7.3004    3.7339 C   0  0  0  0  0  0  0  0  0  0  0  0
    1.1994   -8.4112    2.6494 C   0  0  1  0  0  0  0  0  0  0  0  0
    2.1937   -8.6421    1.5186 C   0  0  0  0  0  0  0  0  0  0  0  0
    0.9197   -9.8161    3.3508 C   0  0  0  0  0  0  0  0  0  0  0  0
    1.2668   -9.7581    4.8694 C   0  0  2  0  0  0  0  0  0  0  0  0
    2.2269  -10.7090    5.6066 C   0  0  0  0  0  0  0  0  0  0  0  0
    3.3844  -10.2776    6.1850 C   0  0  0  0  0  0  0  0  0  0  0  0
    3.8231   -8.7971    6.1529 C   0  0  1  0  0  0  0  0  0  0  0  0
    2.8159   -7.8232    6.8191 C   0  0  0  0  0  0  0  0  0  0  0  0
    1.5119   -8.1658    6.9361 C   0  0  0  0  0  0  0  0  0  0  0  0
    0.6681   -8.5341    5.6998 C   0  0  1  0  0  0  0  0  0  0  0  0
    0.3318   -7.3264    4.7349 C   0  0  0  0  0  0  0  0  0  0  0  0
    0.0578   -5.8923    5.2505 C   0  0  0  0  0  0  0  0  0  0  0  0
   -1.0941   -7.6118    4.1260 C   0  0  0  0  0  0  0  0  0  0  0  0
    3.1955   -6.3396    6.7231 C   0  0  0  0  0  0  0  0  0  0  0  0
    4.3194   -6.0535    7.7893 C   0  0  0  0  0  0  0  0  0  0  0  0
    2.1286   -5.3472    7.3342 C   0  0  0  0  0  0  0  0  0  0  0  0
    4.1815  -10.3169    3.7475 H   0  0  0  0  0  0  0  0  0  0  0  0
    5.7444  -10.4205    2.7980 H   0  0  0  0  0  0  0  0  0  0  0  0
    6.8020   -8.8080    4.1628 H   0  0  0  0  0  0  0  0  0  0  0  0
    5.8711   -8.4986    7.7439 H   0  0  0  0  0  0  0  0  0  0  0  0
    7.1336   -7.9007    6.6584 H   0  0  0  0  0  0  0  0  0  0  0  0
    6.6652   -9.5879    6.6782 H   0  0  0  0  0  0  0  0  0  0  0  0
    5.7876   -6.1611    5.7133 H   0  0  0  0  0  0  0  0  0  0  0  0
    5.5300   -6.6582    4.1595 H   0  0  0  0  0  0  0  0  0  0  0  0
    4.3546   -2.9248    4.1216 H   0  0  0  0  0  0  0  0  0  0  0  0
    4.2981   -4.1649    3.0723 H   0  0  0  0  0  0  0  0  0  0  0  0
    5.5732   -4.2491    4.2117 H   0  0  0  0  0  0  0  0  0  0  0  0
    5.0529   -6.9283    0.8450 H   0  0  0  0  0  0  0  0  0  0  0  0
    5.7085   -5.3908   -0.7265 H   0  0  0  0  0  0  0  0  0  0  0  0
    3.0005   -2.9704    1.0913 H   0  0  0  0  0  0  0  0  0  0  0  0
    3.0288   -0.7528   -0.4059 H   0  0  0  0  0  0  0  0  0  0  0  0
    4.8649   -1.2648   -2.4162 H   0  0  0  0  0  0  0  0  0  0  0  0
    0.3019   -8.0937    2.1176 H   0  0  0  0  0  0  0  0  0  0  0  0
    2.2330   -7.7247    0.9807 H   0  0  0  0  0  0  0  0  0  0  0  0
    1.8659   -9.4041    0.8220 H   0  0  0  0  0  0  0  0  0  0  0  0
    3.1985   -8.8827    1.8421 H   0  0  0  0  0  0  0  0  0  0  0  0
   -0.1022  -10.1474    3.1942 H   0  0  0  0  0  0  0  0  0  0  0  0
    1.5030  -10.5981    2.8614 H   0  0  0  0  0  0  0  0  0  0  0  0
    2.1587   -9.4616    4.3977 H   0  0  0  0  0  0  0  0  0  0  0  0
    1.9559  -11.7488    5.6648 H   0  0  0  0  0  0  0  0  0  0  0  0
    4.0180  -10.9775    6.7024 H   0  0  0  0  0  0  0  0  0  0  0  0
    3.5333   -8.5684    5.1748 H   0  0  0  0  0  0  0  0  0  0  0  0
    1.4336   -9.1047    7.4628 H   0  0  0  0  0  0  0  0  0  0  0  0
   -0.2725   -8.8846    6.1281 H   0  0  0  0  0  0  0  0  0  0  0  0
   -0.4438   -5.8775    6.2177 H   0  0  0  0  0  0  0  0  0  0  0  0
   -0.6141   -5.3393    4.5841 H   0  0  0  0  0  0  0  0  0  0  0  0
    0.9462   -5.2736    5.2296 H   0  0  0  0  0  0  0  0  0  0  0  0
   -1.8826   -7.3627    4.8334 H   0  0  0  0  0  0  0  0  0  0  0  0
   -1.3047   -8.6464    3.8849 H   0  0  0  0  0  0  0  0  0  0  0  0
   -1.2916   -7.0286    3.2288 H   0  0  0  0  0  0  0  0  0  0  0  0
    4.5516   -4.9931    7.8783 H   0  0  0  0  0  0  0  0  0  0  0  0
    5.2794   -6.5168    7.6703 H   0  0  0  0  0  0  0  0  0  0  0  0
    4.0072   -6.3925    8.7760 H   0  0  0  0  0  0  0  0  0  0  0  0
    2.0267   -4.4141    6.7812 H   0  0  0  0  0  0  0  0  0  0  0  0
    2.3607   -4.9979    8.3400 H   0  0  0  0  0  0  0  0  0  0  0  0
    1.1531   -5.7749    7.5096 H   0  0  0  0  0  0  0  0  0  0  0  0
  1  2  2  0
  1 37  1  0
  1 38  1  0
  2  3  1  0
  2 39  1  0
  3 27  1  0
  3  4  1  1
  3  5  1  0
  4 40  1  0
  4 41  1  0
  4 42  1  0
  5  6  1  0
  5 43  1  0
  5 44  1  0
  6 34  1  0
  6  7  1  6
  6  9  1  0
  7  8  1  0
  8 45  1  0
  8 46  1  0
  8 47  1  0
  9 10  1  0
  9 20  2  3
 10 11  1  0
 11 12  2  0
 11 13  1  0
 13 14  2  3
 13 48  1  0
 14 15  1  0
 14 49  1  0
 15 19  1  0
 15 16  2  0
 16 17  1  0
 16 50  1  0
 17 18  2  0
 17 51  1  0
 18 19  1  0
 18 52  1  0
 20 31  1  0
 20 21  1  0
 21 22  1  0
 21 23  1  0
 21 53  1  6
 22 54  1  0
 22 55  1  0
 22 56  1  0
 23 24  1  0
 23 57  1  0
 23 58  1  0
 24 30  1  0
 24 25  1  0
 24 59  1  1
 25 26  2  0
 25 60  1  0
 26 27  1  0
 26 61  1  0
 27 28  1  0
 27 62  1  6
 28 29  2  0
 28 34  1  0
 29 30  1  0
 29 63  1  0
 30 31  1  0
 30 64  1  1
 31 32  1  0
 31 33  1  0
 32 65  1  0
 32 66  1  0
 32 67  1  0
 33 68  1  0
 33 69  1  0
 33 70  1  0
 34 35  1  0
 34 36  1  0
 35 71  1  0
 35 72  1  0
 35 73  1  0
 36 74  1  0
 36 75  1  0
 36 76  1  0
M  END
>  <i_m_ct_stereo_status>  (198) 
1

>  <s_m_source_file>  (198) 
/var/tmp/pbs.5076255.sched01/tmphf7gnms3/50i7j3xhgh.sdf

>  <i_m_source_file_index>  (198) 
37

>  <i_lp_mmshare_version>  (198) 
48012

>  <i_f3d_flags>  (198) 
0

>  <s_epik_input>  (198) 
W0NIM11PQzEyW0NIMl1bQ0BdKFtDSDNdKShbQ0hdPVtDSDJdKVtDSF0zQyhDMihbQ0gzXSlbQ0gzXSk9W0NIXVtDQEBIXTRbQ0hdKFtDSF09W0NIXTMpW0NIMl1bQ0BIXShbQ0gzXSlcQyhDNChbQ0gzXSlbQ0gzXSk9Q1wxT0MoPU8pL1tDSF09W0NIXS9jNVtjSF1bY0hdW2NIXW81

>  <s_epik_cmdline>  (198) 
J2VwaWtfcHl0aG9uJywgJy1waHQnLCAnMi4wJywgJy1waCcsICc3LjAnLCAnLXRuJywgJzgnLCAnLW1hJywgJzIwMCcsICctaW1hZScsICc8aW5maWxlLm1hZT4nLCAnLW9tYWUnLCAnPG91dGZpbGUubWFlPic=

>  <r_lp_tautomer_probability>  (198) 
1

>  <r_epik_Ionization_Penalty>  (198) 
1.29585e-13

>  <r_epik_Ionization_Penalty_Charging>  (198) 
0

>  <r_epik_Ionization_Penalty_Neutral>  (198) 
1.29585e-13

>  <r_epik_State_Penalty>  (198) 
-0

>  <r_epik_Charging_Adjusted_Penalty>  (198) 
0

>  <i_epik_Tot_Q>  (198) 
0

>  <i_epik_Tot_abs_Q>  (198) 
0

>  <s_lp_Force_Field>  (198) 
OPLS3e

>  <r_lp_Energy>  (198) 
261.963

>  <b_lp_Chiralities_Consistent>  (198) 
1

>  <s_lp_Variant>  (198) 
52:0-7

>  <s_i_glide_gridfile>  (198) 
pfpi4k_grid

>  <i_i_glide_lignum>  (198) 
37

>  <i_i_glide_rotatable_bonds>  (198) 
6

>  <r_i_docking_score>  (198) 
-0.991209

>  <r_i_glide_ligand_efficiency>  (198) 
-0.0275336

>  <r_i_glide_ligand_efficiency_sa>  (198) 
-0.0909139

>  <r_i_glide_ligand_efficiency_ln>  (198) 
-0.216255

>  <r_i_glide_gscore>  (198) 
-0.991209

>  <r_i_glide_lipo>  (198) 
-0.139174

>  <r_i_glide_hbond>  (198) 
0

>  <r_i_glide_metal>  (198) 
-0

>  <r_i_glide_rewards>  (198) 
-0.101649

>  <r_i_glide_evdw>  (198) 
-21.8127

>  <r_i_glide_ecoul>  (198) 
-0.00293442

>  <r_i_glide_erotb>  (198) 
0.340689

>  <r_i_glide_esite>  (198) 
0

>  <r_i_glide_emodel>  (198) 
-20.9209

>  <r_i_glide_energy>  (198) 
-21.8156

>  <r_i_glide_einternal>  (198) 
1.24873

>  <r_i_glide_intrahb_reward>  (198) 
-0

>  <i_i_glide_confnum>  (198) 
3

>  <i_i_glide_posenum>  (198) 
17

>  <r_i_glide_eff_state_penalty>  (198) 
0

>  <ligand_id>  (198) 
52

>  <original_smiles>  (198) 
C=CC1(C)CC2(OC)C(OC(=O)C=Cc3ccco3)=C3C(C)CC4C=CC1C(=CC4C3(C)C)C2(C)C

>  <smiles>  (198) 
[H]C([H])=C([H])C1(C([H])([H])[H])C2([H])C([H])=C([H])C3([H])C([H])([H])C([H])(C([H])([H])[H])C4=C(OC(=O)C([H])=C([H])c5oc([H])c([H])c5[H])C(OC([H])([H])[H])(C1([H])[H])C(C([H])([H])[H])(C([H])([H])[H])C2=C([H])C3([H])C4(C([H])([H])[H])C([H])([H])[H]

$$$$
52:6:2
     RDKit          3D

 76 80  0  0  1  0  0  0  0  0999 V2000
    5.5996   -8.3480    4.8805 C   0  0  0  0  0  0  0  0  0  0  0  0
    5.4199   -7.1241    5.4108 C   0  0  0  0  0  0  0  0  0  0  0  0
    4.1752   -6.5072    6.0875 C   0  0  1  0  0  0  0  0  0  0  0  0
    4.7177   -6.0254    7.4637 C   0  0  0  0  0  0  0  0  0  0  0  0
    3.6861   -5.3449    5.0838 C   0  0  0  0  0  0  0  0  0  0  0  0
    2.1920   -5.4681    4.4764 C   0  0  1  0  0  0  0  0  0  0  0  0
    1.7210   -4.2552    3.8493 O   0  0  0  0  0  0  0  0  0  0  0  0
    2.5701   -3.5044    2.9480 C   0  0  0  0  0  0  0  0  0  0  0  0
    2.2026   -6.6171    3.3194 C   0  0  0  0  0  0  0  0  0  0  0  0
    3.3793   -6.4553    2.6148 O   0  0  0  0  0  0  0  0  0  0  0  0
    3.3108   -5.8866    1.3668 C   0  0  0  0  0  0  0  0  0  0  0  0
    2.2769   -5.5590    0.8236 O   0  0  0  0  0  0  0  0  0  0  0  0
    4.6948   -5.5430    0.9228 C   0  0  0  0  0  0  0  0  0  0  0  0
    5.0173   -4.7076   -0.1037 C   0  0  0  0  0  0  0  0  0  0  0  0
    4.2407   -3.8550   -0.9799 C   0  0  0  0  0  0  0  0  0  0  0  0
    2.9112   -3.5373   -1.0812 C   0  0  0  0  0  0  0  0  0  0  0  0
    2.7539   -2.6805   -2.1961 C   0  0  0  0  0  0  0  0  0  0  0  0
    4.0036   -2.5267   -2.7108 C   0  0  0  0  0  0  0  0  0  0  0  0
    4.9216   -3.2351   -1.9917 O   0  0  0  0  0  0  0  0  0  0  0  0
    1.4551   -7.7713    3.0296 C   0  0  0  0  0  0  0  0  0  0  0  0
    2.0484   -9.0675    2.3477 C   0  0  1  0  0  0  0  0  0  0  0  0
    3.4199   -8.9708    1.6516 C   0  0  0  0  0  0  0  0  0  0  0  0
    2.0661  -10.2863    3.3969 C   0  0  0  0  0  0  0  0  0  0  0  0
    1.7244   -9.7940    4.8405 C   0  0  2  0  0  0  0  0  0  0  0  0
    2.5887  -10.0178    6.1056 C   0  0  0  0  0  0  0  0  0  0  0  0
    3.1623   -8.9836    6.7878 C   0  0  0  0  0  0  0  0  0  0  0  0
    2.9831   -7.5040    6.3522 C   0  0  1  0  0  0  0  0  0  0  0  0
    1.5078   -7.0139    6.3275 C   0  0  0  0  0  0  0  0  0  0  0  0
    0.4999   -7.9059    6.1914 C   0  0  0  0  0  0  0  0  0  0  0  0
    0.4280   -8.8698    4.9906 C   0  0  1  0  0  0  0  0  0  0  0  0
    0.0723   -8.1746    3.6127 C   0  0  0  0  0  0  0  0  0  0  0  0
   -0.8909   -6.9690    3.5055 C   0  0  0  0  0  0  0  0  0  0  0  0
   -0.7593   -9.2238    2.7720 C   0  0  0  0  0  0  0  0  0  0  0  0
    1.3057   -5.5733    5.8318 C   0  0  0  0  0  0  0  0  0  0  0  0
    1.7166   -4.6003    7.0091 C   0  0  0  0  0  0  0  0  0  0  0  0
   -0.2105   -5.1227    5.7384 C   0  0  0  0  0  0  0  0  0  0  0  0
    4.8320   -9.1013    4.8587 H   0  0  0  0  0  0  0  0  0  0  0  0
    6.5501   -8.6150    4.4444 H   0  0  0  0  0  0  0  0  0  0  0  0
    6.2714   -6.4590    5.3598 H   0  0  0  0  0  0  0  0  0  0  0  0
    3.9493   -5.9650    8.2335 H   0  0  0  0  0  0  0  0  0  0  0  0
    5.2089   -5.0548    7.3939 H   0  0  0  0  0  0  0  0  0  0  0  0
    5.4525   -6.7201    7.8786 H   0  0  0  0  0  0  0  0  0  0  0  0
    3.8281   -4.3943    5.5886 H   0  0  0  0  0  0  0  0  0  0  0  0
    4.4089   -5.2100    4.2804 H   0  0  0  0  0  0  0  0  0  0  0  0
    2.0380   -2.6729    2.4883 H   0  0  0  0  0  0  0  0  0  0  0  0
    2.8163   -3.8976    2.1189 H   0  0  0  0  0  0  0  0  0  0  0  0
    3.5538   -3.2334    3.3492 H   0  0  0  0  0  0  0  0  0  0  0  0
    5.4605   -6.0327    1.4617 H   0  0  0  0  0  0  0  0  0  0  0  0
    6.0856   -4.6285   -0.2865 H   0  0  0  0  0  0  0  0  0  0  0  0
    2.0971   -3.8477   -0.4652 H   0  0  0  0  0  0  0  0  0  0  0  0
    1.8240   -2.2526   -2.5372 H   0  0  0  0  0  0  0  0  0  0  0  0
    4.3893   -1.9673   -3.5532 H   0  0  0  0  0  0  0  0  0  0  0  0
    1.3991   -9.3349    1.5177 H   0  0  0  0  0  0  0  0  0  0  0  0
    3.3990   -8.2878    0.8083 H   0  0  0  0  0  0  0  0  0  0  0  0
    3.7115   -9.9198    1.2157 H   0  0  0  0  0  0  0  0  0  0  0  0
    4.2134   -8.6731    2.3352 H   0  0  0  0  0  0  0  0  0  0  0  0
    1.3958  -11.0871    3.0961 H   0  0  0  0  0  0  0  0  0  0  0  0
    3.0420  -10.7802    3.3866 H   0  0  0  0  0  0  0  0  0  0  0  0
    2.5439   -9.2008    4.5562 H   0  0  0  0  0  0  0  0  0  0  0  0
    2.7402  -11.0347    6.4464 H   0  0  0  0  0  0  0  0  0  0  0  0
    3.7661   -9.1847    7.6630 H   0  0  0  0  0  0  0  0  0  0  0  0
    3.0433   -7.6315    5.3152 H   0  0  0  0  0  0  0  0  0  0  0  0
    0.5793   -8.6430    6.9748 H   0  0  0  0  0  0  0  0  0  0  0  0
   -0.3933   -9.5439    5.2408 H   0  0  0  0  0  0  0  0  0  0  0  0
   -1.7060   -7.0103    4.2249 H   0  0  0  0  0  0  0  0  0  0  0  0
   -1.3872   -6.9255    2.5347 H   0  0  0  0  0  0  0  0  0  0  0  0
   -0.3745   -6.0211    3.5023 H   0  0  0  0  0  0  0  0  0  0  0  0
   -1.7988   -9.2622    3.1012 H   0  0  0  0  0  0  0  0  0  0  0  0
   -0.4504  -10.2584    2.8573 H   0  0  0  0  0  0  0  0  0  0  0  0
   -0.7881   -8.9854    1.7078 H   0  0  0  0  0  0  0  0  0  0  0  0
    1.4748   -3.5596    6.7887 H   0  0  0  0  0  0  0  0  0  0  0  0
    2.7453   -4.5574    7.3181 H   0  0  0  0  0  0  0  0  0  0  0  0
    1.1877   -4.8522    7.9329 H   0  0  0  0  0  0  0  0  0  0  0  0
   -0.4187   -4.4778    4.8874 H   0  0  0  0  0  0  0  0  0  0  0  0
   -0.5650   -4.5219    6.5787 H   0  0  0  0  0  0  0  0  0  0  0  0
   -0.9343   -5.9232    5.7825 H   0  0  0  0  0  0  0  0  0  0  0  0
  1  2  2  0
  1 37  1  0
  1 38  1  0
  2  3  1  0
  2 39  1  0
  3 27  1  0
  3  4  1  1
  3  5  1  0
  4 40  1  0
  4 41  1  0
  4 42  1  0
  5  6  1  0
  5 43  1  0
  5 44  1  0
  6 34  1  0
  6  7  1  6
  6  9  1  0
  7  8  1  0
  8 45  1  0
  8 46  1  0
  8 47  1  0
  9 10  1  0
  9 20  2  3
 10 11  1  0
 11 12  2  0
 11 13  1  0
 13 14  2  3
 13 48  1  0
 14 15  1  0
 14 49  1  0
 15 19  1  0
 15 16  2  0
 16 17  1  0
 16 50  1  0
 17 18  2  0
 17 51  1  0
 18 19  1  0
 18 52  1  0
 20 31  1  0
 20 21  1  0
 21 22  1  0
 21 23  1  0
 21 53  1  6
 22 54  1  0
 22 55  1  0
 22 56  1  0
 23 24  1  0
 23 57  1  0
 23 58  1  0
 24 30  1  0
 24 25  1  0
 24 59  1  1
 25 26  2  0
 25 60  1  0
 26 27  1  0
 26 61  1  0
 27 28  1  0
 27 62  1  6
 28 29  2  0
 28 34  1  0
 29 30  1  0
 29 63  1  0
 30 31  1  0
 30 64  1  1
 31 32  1  0
 31 33  1  0
 32 65  1  0
 32 66  1  0
 32 67  1  0
 33 68  1  0
 33 69  1  0
 33 70  1  0
 34 35  1  0
 34 36  1  0
 35 71  1  0
 35 72  1  0
 35 73  1  0
 36 74  1  0
 36 75  1  0
 36 76  1  0
M  END
>  <i_m_ct_stereo_status>  (199) 
1

>  <s_m_source_file>  (199) 
/var/tmp/pbs.5076255.sched01/tmphf7gnms3/50i7j3xhgh.sdf

>  <i_m_source_file_index>  (199) 
37

>  <i_lp_mmshare_version>  (199) 
48012

>  <i_f3d_flags>  (199) 
0

>  <s_epik_input>  (199) 
W0NIM11PQzEyW0NIMl1bQ0BdKFtDSDNdKShbQ0hdPVtDSDJdKVtDSF0zQyhDMihbQ0gzXSlbQ0gzXSk9W0NIXVtDQEBIXTRbQ0hdKFtDSF09W0NIXTMpW0NIMl1bQ0BIXShbQ0gzXSlcQyhDNChbQ0gzXSlbQ0gzXSk9Q1wxT0MoPU8pL1tDSF09W0NIXS9jNVtjSF1bY0hdW2NIXW81

>  <s_epik_cmdline>  (199) 
J2VwaWtfcHl0aG9uJywgJy1waHQnLCAnMi4wJywgJy1waCcsICc3LjAnLCAnLXRuJywgJzgnLCAnLW1hJywgJzIwMCcsICctaW1hZScsICc8aW5maWxlLm1hZT4nLCAnLW9tYWUnLCAnPG91dGZpbGUubWFlPic=

>  <r_lp_tautomer_probability>  (199) 
1

>  <r_epik_Ionization_Penalty>  (199) 
1.29585e-13

>  <r_epik_Ionization_Penalty_Charging>  (199) 
0

>  <r_epik_Ionization_Penalty_Neutral>  (199) 
1.29585e-13

>  <r_epik_State_Penalty>  (199) 
-0

>  <r_epik_Charging_Adjusted_Penalty>  (199) 
0

>  <i_epik_Tot_Q>  (199) 
0

>  <i_epik_Tot_abs_Q>  (199) 
0

>  <s_lp_Force_Field>  (199) 
OPLS3e

>  <r_lp_Energy>  (199) 
261.963

>  <b_lp_Chiralities_Consistent>  (199) 
1

>  <s_lp_Variant>  (199) 
52:0-7

>  <s_i_glide_gridfile>  (199) 
pfpi4k_grid

>  <i_i_glide_lignum>  (199) 
37

>  <i_i_glide_rotatable_bonds>  (199) 
6

>  <r_i_docking_score>  (199) 
-0.889955

>  <r_i_glide_ligand_efficiency>  (199) 
-0.024721

>  <r_i_glide_ligand_efficiency_sa>  (199) 
-0.0816269

>  <r_i_glide_ligand_efficiency_ln>  (199) 
-0.194164

>  <r_i_glide_gscore>  (199) 
-0.889955

>  <r_i_glide_lipo>  (199) 
-0.285457

>  <r_i_glide_hbond>  (199) 
0

>  <r_i_glide_metal>  (199) 
-0

>  <r_i_glide_rewards>  (199) 
-0.121293

>  <r_i_glide_evdw>  (199) 
-26.5312

>  <r_i_glide_ecoul>  (199) 
0.0184243

>  <r_i_glide_erotb>  (199) 
0.340689

>  <r_i_glide_esite>  (199) 
0

>  <r_i_glide_emodel>  (199) 
-22.426

>  <r_i_glide_energy>  (199) 
-26.5128

>  <r_i_glide_einternal>  (199) 
1.22494

>  <r_i_glide_intrahb_reward>  (199) 
-0

>  <i_i_glide_confnum>  (199) 
3

>  <i_i_glide_posenum>  (199) 
7

>  <r_i_glide_eff_state_penalty>  (199) 
0

>  <ligand_id>  (199) 
52

>  <original_smiles>  (199) 
C=CC1(C)CC2(OC)C(OC(=O)C=Cc3ccco3)=C3C(C)CC4C=CC1C(=CC4C3(C)C)C2(C)C

>  <smiles>  (199) 
[H]C([H])=C([H])C1(C([H])([H])[H])C2([H])C([H])=C([H])C3([H])C([H])([H])C([H])(C([H])([H])[H])C4=C(OC(=O)C([H])=C([H])c5oc([H])c([H])c5[H])C(OC([H])([H])[H])(C1([H])[H])C(C([H])([H])[H])(C([H])([H])[H])C2=C([H])C3([H])C4(C([H])([H])[H])C([H])([H])[H]

$$$$
52:8:0
     RDKit          3D

 76 80  0  0  1  0  0  0  0  0999 V2000
   -1.0565   -9.4323    2.6050 C   0  0  0  0  0  0  0  0  0  0  0  0
   -0.2351   -9.3699    3.6689 C   0  0  0  0  0  0  0  0  0  0  0  0
    1.1341  -10.0584    3.8042 C   0  0  1  0  0  0  0  0  0  0  0  0
    0.8157  -11.5720    3.8612 C   0  0  0  0  0  0  0  0  0  0  0  0
    2.0513   -9.6560    2.5705 C   0  0  0  0  0  0  0  0  0  0  0  0
    3.2945   -8.7369    2.9265 C   0  0  1  0  0  0  0  0  0  0  0  0
    4.1121   -8.4595    1.7821 O   0  0  0  0  0  0  0  0  0  0  0  0
    4.4908   -9.4300    0.8206 C   0  0  0  0  0  0  0  0  0  0  0  0
    2.6899   -7.3138    3.3477 C   0  0  0  0  0  0  0  0  0  0  0  0
    1.8137   -6.9468    2.3513 O   0  0  0  0  0  0  0  0  0  0  0  0
    2.2363   -6.1600    1.3070 C   0  0  0  0  0  0  0  0  0  0  0  0
    1.4330   -5.8547    0.4204 O   0  0  0  0  0  0  0  0  0  0  0  0
    3.6684   -5.7347    1.3260 C   0  0  0  0  0  0  0  0  0  0  0  0
    4.2650   -4.9914    0.3813 C   0  0  0  0  0  0  0  0  0  0  0  0
    5.6442   -4.6434    0.4125 C   0  0  0  0  0  0  0  0  0  0  0  0
    6.3902   -3.8484   -0.3981 C   0  0  0  0  0  0  0  0  0  0  0  0
    7.7254   -3.8563    0.1320 C   0  0  0  0  0  0  0  0  0  0  0  0
    7.6898   -4.6619    1.2302 C   0  0  0  0  0  0  0  0  0  0  0  0
    6.4270   -5.1472    1.4195 O   0  0  0  0  0  0  0  0  0  0  0  0
    2.7063   -6.4939    4.4794 C   0  0  0  0  0  0  0  0  0  0  0  0
    1.4334   -5.7522    4.9680 C   0  0  1  0  0  0  0  0  0  0  0  0
    0.2604   -5.5046    4.0043 C   0  0  0  0  0  0  0  0  0  0  0  0
    0.8898   -6.4630    6.2529 C   0  0  0  0  0  0  0  0  0  0  0  0
    1.8567   -7.3624    7.1242 C   0  0  1  0  0  0  0  0  0  0  0  0
    1.1722   -8.7166    7.3814 C   0  0  0  0  0  0  0  0  0  0  0  0
    1.1242   -9.7236    6.4817 C   0  0  0  0  0  0  0  0  0  0  0  0
    1.8197   -9.6011    5.1403 C   0  0  1  0  0  0  0  0  0  0  0  0
    3.3580   -9.5153    5.2722 C   0  0  0  0  0  0  0  0  0  0  0  0
    3.8915   -8.8587    6.3160 C   0  0  0  0  0  0  0  0  0  0  0  0
    3.3808   -7.4624    6.6876 C   0  0  1  0  0  0  0  0  0  0  0  0
    3.7498   -6.3873    5.6350 C   0  0  0  0  0  0  0  0  0  0  0  0
    5.2039   -6.3626    5.1090 C   0  0  0  0  0  0  0  0  0  0  0  0
    3.7379   -5.0192    6.4134 C   0  0  0  0  0  0  0  0  0  0  0  0
    4.1275   -9.6052    3.9574 C   0  0  0  0  0  0  0  0  0  0  0  0
    4.2768  -11.1452    3.6741 C   0  0  0  0  0  0  0  0  0  0  0  0
    5.6330   -9.1960    3.9826 C   0  0  0  0  0  0  0  0  0  0  0  0
   -0.7994   -9.9981    1.7239 H   0  0  0  0  0  0  0  0  0  0  0  0
   -2.0043   -8.9153    2.6138 H   0  0  0  0  0  0  0  0  0  0  0  0
   -0.5773   -8.7912    4.5137 H   0  0  0  0  0  0  0  0  0  0  0  0
    1.5312  -12.1429    4.4483 H   0  0  0  0  0  0  0  0  0  0  0  0
    0.7434  -12.0117    2.8644 H   0  0  0  0  0  0  0  0  0  0  0  0
   -0.1347  -11.7499    4.3637 H   0  0  0  0  0  0  0  0  0  0  0  0
    2.3866  -10.5600    2.0700 H   0  0  0  0  0  0  0  0  0  0  0  0
    1.4552   -9.1894    1.7881 H   0  0  0  0  0  0  0  0  0  0  0  0
    5.0737   -8.8845    0.0768 H   0  0  0  0  0  0  0  0  0  0  0  0
    3.6296   -9.8531    0.2901 H   0  0  0  0  0  0  0  0  0  0  0  0
    5.1666  -10.1974    1.1724 H   0  0  0  0  0  0  0  0  0  0  0  0
    4.3284   -6.0384    2.1221 H   0  0  0  0  0  0  0  0  0  0  0  0
    3.6923   -4.6383   -0.4637 H   0  0  0  0  0  0  0  0  0  0  0  0
    6.0074   -3.3347   -1.2593 H   0  0  0  0  0  0  0  0  0  0  0  0
    8.5951   -3.3361   -0.2443 H   0  0  0  0  0  0  0  0  0  0  0  0
    8.4271   -4.9808    1.9654 H   0  0  0  0  0  0  0  0  0  0  0  0
    1.6961   -4.7268    5.2112 H   0  0  0  0  0  0  0  0  0  0  0  0
    0.5825   -4.8815    3.1691 H   0  0  0  0  0  0  0  0  0  0  0  0
   -0.5386   -4.9652    4.5143 H   0  0  0  0  0  0  0  0  0  0  0  0
   -0.1745   -6.4310    3.6275 H   0  0  0  0  0  0  0  0  0  0  0  0
    0.4076   -5.7242    6.8942 H   0  0  0  0  0  0  0  0  0  0  0  0
    0.0662   -7.1008    5.9271 H   0  0  0  0  0  0  0  0  0  0  0  0
    1.8733   -6.8949    8.1096 H   0  0  0  0  0  0  0  0  0  0  0  0
    0.6915   -8.8290    8.3397 H   0  0  0  0  0  0  0  0  0  0  0  0
    0.6095  -10.6513    6.6865 H   0  0  0  0  0  0  0  0  0  0  0  0
    1.5490   -8.5801    5.0228 H   0  0  0  0  0  0  0  0  0  0  0  0
    3.6585   -9.3528    7.2480 H   0  0  0  0  0  0  0  0  0  0  0  0
    3.9766   -7.2403    7.5745 H   0  0  0  0  0  0  0  0  0  0  0  0
    5.8210   -7.1407    5.5441 H   0  0  0  0  0  0  0  0  0  0  0  0
    5.7418   -5.4414    5.3379 H   0  0  0  0  0  0  0  0  0  0  0  0
    5.2324   -6.3843    4.0259 H   0  0  0  0  0  0  0  0  0  0  0  0
    4.5678   -4.9566    7.1183 H   0  0  0  0  0  0  0  0  0  0  0  0
    2.8571   -4.8588    7.0324 H   0  0  0  0  0  0  0  0  0  0  0  0
    3.8317   -4.1623    5.7434 H   0  0  0  0  0  0  0  0  0  0  0  0
    4.7178  -11.4287    2.7274 H   0  0  0  0  0  0  0  0  0  0  0  0
    3.3428  -11.6863    3.7066 H   0  0  0  0  0  0  0  0  0  0  0  0
    4.8960  -11.6054    4.4527 H   0  0  0  0  0  0  0  0  0  0  0  0
    5.8470   -8.2434    3.5165 H   0  0  0  0  0  0  0  0  0  0  0  0
    6.2399   -9.8668    3.3757 H   0  0  0  0  0  0  0  0  0  0  0  0
    6.0814   -9.2375    4.9705 H   0  0  0  0  0  0  0  0  0  0  0  0
  1  2  2  0
  1 37  1  0
  1 38  1  0
  2  3  1  0
  2 39  1  0
  3 27  1  0
  3  4  1  1
  3  5  1  0
  4 40  1  0
  4 41  1  0
  4 42  1  0
  5  6  1  0
  5 43  1  0
  5 44  1  0
  6 34  1  0
  6  7  1  6
  6  9  1  0
  7  8  1  0
  8 45  1  0
  8 46  1  0
  8 47  1  0
  9 10  1  0
  9 20  2  3
 10 11  1  0
 11 12  2  0
 11 13  1  0
 13 14  2  3
 13 48  1  0
 14 15  1  0
 14 49  1  0
 15 19  1  0
 15 16  2  0
 16 17  1  0
 16 50  1  0
 17 18  2  0
 17 51  1  0
 18 19  1  0
 18 52  1  0
 20 31  1  0
 20 21  1  0
 21 22  1  0
 21 23  1  0
 21 53  1  1
 22 54  1  0
 22 55  1  0
 22 56  1  0
 23 24  1  0
 23 57  1  0
 23 58  1  0
 24 30  1  0
 24 25  1  0
 24 59  1  1
 25 26  2  0
 25 60  1  0
 26 27  1  0
 26 61  1  0
 27 28  1  0
 27 62  1  6
 28 29  2  0
 28 34  1  0
 29 30  1  0
 29 63  1  0
 30 31  1  0
 30 64  1  1
 31 32  1  0
 31 33  1  0
 32 65  1  0
 32 66  1  0
 32 67  1  0
 33 68  1  0
 33 69  1  0
 33 70  1  0
 34 35  1  0
 34 36  1  0
 35 71  1  0
 35 72  1  0
 35 73  1  0
 36 74  1  0
 36 75  1  0
 36 76  1  0
M  END
>  <i_m_ct_stereo_status>  (200) 
1

>  <s_m_source_file>  (200) 
/var/tmp/pbs.5076255.sched01/tmphf7gnms3/50i7j3xhgh.sdf

>  <i_m_source_file_index>  (200) 
39

>  <i_lp_mmshare_version>  (200) 
48012

>  <i_f3d_flags>  (200) 
0

>  <s_epik_input>  (200) 
W0NIM11PQzEyW0NIMl1bQ0BdKFtDSDNdKShbQ0hdPVtDSDJdKVtDSF0zQyhDMihbQ0gzXSlbQ0gzXSk9W0NIXVtDQEBIXTRbQ0hdKFtDSF09W0NIXTMpW0NIMl1bQ0BIXShbQ0gzXSlcQyhDNChbQ0gzXSlbQ0gzXSk9Q1wxT0MoPU8pL1tDSF09W0NIXS9jNVtjSF1bY0hdW2NIXW81

>  <s_epik_cmdline>  (200) 
J2VwaWtfcHl0aG9uJywgJy1waHQnLCAnMi4wJywgJy1waCcsICc3LjAnLCAnLXRuJywgJzgnLCAnLW1hJywgJzIwMCcsICctaW1hZScsICc8aW5maWxlLm1hZT4nLCAnLW9tYWUnLCAnPG91dGZpbGUubWFlPic=

>  <r_lp_tautomer_probability>  (200) 
1

>  <r_epik_Ionization_Penalty>  (200) 
1.29585e-13

>  <r_epik_Ionization_Penalty_Charging>  (200) 
0

>  <r_epik_Ionization_Penalty_Neutral>  (200) 
1.29585e-13

>  <r_epik_State_Penalty>  (200) 
-0

>  <r_epik_Charging_Adjusted_Penalty>  (200) 
0

>  <i_epik_Tot_Q>  (200) 
0

>  <i_epik_Tot_abs_Q>  (200) 
0

>  <s_lp_Force_Field>  (200) 
OPLS3e

>  <r_lp_Energy>  (200) 
209.421

>  <b_lp_Chiralities_Consistent>  (200) 
1

>  <s_lp_Variant>  (200) 
52:0-9

>  <s_i_glide_gridfile>  (200) 
pfpi4k_grid

>  <i_i_glide_lignum>  (200) 
39

>  <i_i_glide_rotatable_bonds>  (200) 
6

>  <r_i_docking_score>  (200) 
-2.54911

>  <r_i_glide_ligand_efficiency>  (200) 
-0.0708086

>  <r_i_glide_ligand_efficiency_sa>  (200) 
-0.233805

>  <r_i_glide_ligand_efficiency_ln>  (200) 
-0.556147

>  <r_i_glide_gscore>  (200) 
-2.54911

>  <r_i_glide_lipo>  (200) 
-0.788449

>  <r_i_glide_hbond>  (200) 
-0.153835

>  <r_i_glide_metal>  (200) 
-0

>  <r_i_glide_rewards>  (200) 
-0.0773345

>  <r_i_glide_evdw>  (200) 
-26.0034

>  <r_i_glide_ecoul>  (200) 
-3.64128

>  <r_i_glide_erotb>  (200) 
0.340689

>  <r_i_glide_esite>  (200) 
-0.0238165

>  <r_i_glide_emodel>  (200) 
-29.6545

>  <r_i_glide_energy>  (200) 
-29.6447

>  <r_i_glide_einternal>  (200) 
8.58439

>  <r_i_glide_intrahb_reward>  (200) 
-0

>  <i_i_glide_confnum>  (200) 
1

>  <i_i_glide_posenum>  (200) 
6

>  <r_i_glide_eff_state_penalty>  (200) 
0

>  <ligand_id>  (200) 
52

>  <original_smiles>  (200) 
C=CC1(C)CC2(OC)C(OC(=O)C=Cc3ccco3)=C3C(C)CC4C=CC1C(=CC4C3(C)C)C2(C)C

>  <smiles>  (200) 
[H]C([H])=C([H])C1(C([H])([H])[H])C2([H])C([H])=C([H])C3([H])C([H])([H])C([H])(C([H])([H])[H])C4=C(OC(=O)C([H])=C([H])c5oc([H])c([H])c5[H])C(OC([H])([H])[H])(C1([H])[H])C(C([H])([H])[H])(C([H])([H])[H])C2=C([H])C3([H])C4(C([H])([H])[H])C([H])([H])[H]

$$$$
52:8:1
     RDKit          3D

 76 80  0  0  1  0  0  0  0  0999 V2000
   -0.8872   -9.7038    2.4767 C   0  0  0  0  0  0  0  0  0  0  0  0
   -0.1181   -9.4798    3.5634 C   0  0  0  0  0  0  0  0  0  0  0  0
    1.2336  -10.1450    3.8595 C   0  0  1  0  0  0  0  0  0  0  0  0
    0.9417  -11.6616    3.9357 C   0  0  0  0  0  0  0  0  0  0  0  0
    2.2585   -9.7627    2.7062 C   0  0  0  0  0  0  0  0  0  0  0  0
    3.4517   -8.8072    3.1478 C   0  0  1  0  0  0  0  0  0  0  0  0
    4.3894   -8.5501    2.0890 O   0  0  0  0  0  0  0  0  0  0  0  0
    4.7552   -9.5145    1.1185 C   0  0  0  0  0  0  0  0  0  0  0  0
    2.7881   -7.3791    3.4615 C   0  0  0  0  0  0  0  0  0  0  0  0
    2.0120   -7.0628    2.3672 O   0  0  0  0  0  0  0  0  0  0  0  0
    2.4805   -6.2174    1.3938 C   0  0  0  0  0  0  0  0  0  0  0  0
    1.7322   -5.8520    0.4890 O   0  0  0  0  0  0  0  0  0  0  0  0
    3.9153   -5.8093    1.5004 C   0  0  0  0  0  0  0  0  0  0  0  0
    4.5700   -5.0396    0.6232 C   0  0  0  0  0  0  0  0  0  0  0  0
    5.9536   -4.7405    0.7621 C   0  0  0  0  0  0  0  0  0  0  0  0
    6.9126   -5.1196    1.6608 C   0  0  0  0  0  0  0  0  0  0  0  0
    8.1238   -4.4750    1.2657 C   0  0  0  0  0  0  0  0  0  0  0  0
    7.8118   -3.7549    0.1470 C   0  0  0  0  0  0  0  0  0  0  0  0
    6.4883   -3.9011   -0.1704 O   0  0  0  0  0  0  0  0  0  0  0  0
    2.6834   -6.5277    4.5619 C   0  0  0  0  0  0  0  0  0  0  0  0
    1.3519   -5.7933    4.8903 C   0  0  1  0  0  0  0  0  0  0  0  0
    0.2717   -5.6041    3.8151 C   0  0  0  0  0  0  0  0  0  0  0  0
    0.6939   -6.4697    6.1396 C   0  0  0  0  0  0  0  0  0  0  0  0
    1.5799   -7.3246    7.1328 C   0  0  1  0  0  0  0  0  0  0  0  0
    0.8899   -8.6783    7.3706 C   0  0  0  0  0  0  0  0  0  0  0  0
    0.9483   -9.7185    6.5092 C   0  0  0  0  0  0  0  0  0  0  0  0
    1.7763   -9.6306    5.2415 C   0  0  1  0  0  0  0  0  0  0  0  0
    3.2918   -9.5110    5.5212 C   0  0  0  0  0  0  0  0  0  0  0  0
    3.7086   -8.8090    6.5915 C   0  0  0  0  0  0  0  0  0  0  0  0
    3.1407   -7.4088    6.8565 C   0  0  1  0  0  0  0  0  0  0  0  0
    3.5974   -6.3626    5.8082 C   0  0  0  0  0  0  0  0  0  0  0  0
    5.1010   -6.3296    5.4307 C   0  0  0  0  0  0  0  0  0  0  0  0
    3.4914   -4.9691    6.5326 C   0  0  0  0  0  0  0  0  0  0  0  0
    4.1867   -9.6222    4.2881 C   0  0  0  0  0  0  0  0  0  0  0  0
    4.4017  -11.1663    4.0720 C   0  0  0  0  0  0  0  0  0  0  0  0
    5.6823   -9.1894    4.4530 C   0  0  0  0  0  0  0  0  0  0  0  0
   -0.5837  -10.3892    1.7066 H   0  0  0  0  0  0  0  0  0  0  0  0
   -1.8335   -9.1940    2.3639 H   0  0  0  0  0  0  0  0  0  0  0  0
   -0.5026   -8.7843    4.2918 H   0  0  0  0  0  0  0  0  0  0  0  0
    1.6051  -12.1967    4.6109 H   0  0  0  0  0  0  0  0  0  0  0  0
    0.9764  -12.1355    2.9518 H   0  0  0  0  0  0  0  0  0  0  0  0
   -0.0512  -11.8424    4.3481 H   0  0  0  0  0  0  0  0  0  0  0  0
    2.6577  -10.6725    2.2646 H   0  0  0  0  0  0  0  0  0  0  0  0
    1.7264   -9.3341    1.8606 H   0  0  0  0  0  0  0  0  0  0  0  0
    5.4734   -9.0269    0.4558 H   0  0  0  0  0  0  0  0  0  0  0  0
    3.9119   -9.8408    0.5008 H   0  0  0  0  0  0  0  0  0  0  0  0
    5.2934  -10.3664    1.4975 H   0  0  0  0  0  0  0  0  0  0  0  0
    4.5384   -6.1484    2.3180 H   0  0  0  0  0  0  0  0  0  0  0  0
    4.0514   -4.6282   -0.2385 H   0  0  0  0  0  0  0  0  0  0  0  0
    6.7825   -5.7800    2.5097 H   0  0  0  0  0  0  0  0  0  0  0  0
    9.0988   -4.5197    1.7319 H   0  0  0  0  0  0  0  0  0  0  0  0
    8.3508   -3.1136   -0.5206 H   0  0  0  0  0  0  0  0  0  0  0  0
    1.5764   -4.7551    5.1207 H   0  0  0  0  0  0  0  0  0  0  0  0
    0.6359   -4.9822    2.9966 H   0  0  0  0  0  0  0  0  0  0  0  0
   -0.5761   -5.0775    4.2512 H   0  0  0  0  0  0  0  0  0  0  0  0
   -0.1035   -6.5486    3.4201 H   0  0  0  0  0  0  0  0  0  0  0  0
    0.1410   -5.7178    6.7005 H   0  0  0  0  0  0  0  0  0  0  0  0
   -0.0830   -7.1311    5.7581 H   0  0  0  0  0  0  0  0  0  0  0  0
    1.4888   -6.8207    8.0995 H   0  0  0  0  0  0  0  0  0  0  0  0
    0.3199   -8.7639    8.2772 H   0  0  0  0  0  0  0  0  0  0  0  0
    0.4364  -10.6472    6.7027 H   0  0  0  0  0  0  0  0  0  0  0  0
    1.5127   -8.6178    5.0591 H   0  0  0  0  0  0  0  0  0  0  0  0
    3.3879   -9.2747    7.5102 H   0  0  0  0  0  0  0  0  0  0  0  0
    3.6414   -7.1469    7.7896 H   0  0  0  0  0  0  0  0  0  0  0  0
    5.6799   -7.0827    5.9538 H   0  0  0  0  0  0  0  0  0  0  0  0
    5.5960   -5.3932    5.6792 H   0  0  0  0  0  0  0  0  0  0  0  0
    5.2307   -6.3900    4.3574 H   0  0  0  0  0  0  0  0  0  0  0  0
    4.2423   -4.8687    7.3140 H   0  0  0  0  0  0  0  0  0  0  0  0
    2.5477   -4.8055    7.0523 H   0  0  0  0  0  0  0  0  0  0  0  0
    3.6380   -4.1372    5.8441 H   0  0  0  0  0  0  0  0  0  0  0  0
    4.9591  -11.4499    3.1970 H   0  0  0  0  0  0  0  0  0  0  0  0
    3.4797  -11.7283    4.0164 H   0  0  0  0  0  0  0  0  0  0  0  0
    4.9398  -11.5868    4.9259 H   0  0  0  0  0  0  0  0  0  0  0  0
    5.9292   -8.2485    3.9790 H   0  0  0  0  0  0  0  0  0  0  0  0
    6.3547   -9.8678    3.9343 H   0  0  0  0  0  0  0  0  0  0  0  0
    6.0254   -9.1931    5.4831 H   0  0  0  0  0  0  0  0  0  0  0  0
  1  2  2  0
  1 37  1  0
  1 38  1  0
  2  3  1  0
  2 39  1  0
  3 27  1  0
  3  4  1  1
  3  5  1  0
  4 40  1  0
  4 41  1  0
  4 42  1  0
  5  6  1  0
  5 43  1  0
  5 44  1  0
  6 34  1  0
  6  7  1  6
  6  9  1  0
  7  8  1  0
  8 45  1  0
  8 46  1  0
  8 47  1  0
  9 10  1  0
  9 20  2  3
 10 11  1  0
 11 12  2  0
 11 13  1  0
 13 14  2  3
 13 48  1  0
 14 15  1  0
 14 49  1  0
 15 19  1  0
 15 16  2  0
 16 17  1  0
 16 50  1  0
 17 18  2  0
 17 51  1  0
 18 19  1  0
 18 52  1  0
 20 31  1  0
 20 21  1  0
 21 22  1  0
 21 23  1  0
 21 53  1  1
 22 54  1  0
 22 55  1  0
 22 56  1  0
 23 24  1  0
 23 57  1  0
 23 58  1  0
 24 30  1  0
 24 25  1  0
 24 59  1  1
 25 26  2  0
 25 60  1  0
 26 27  1  0
 26 61  1  0
 27 28  1  0
 27 62  1  6
 28 29  2  0
 28 34  1  0
 29 30  1  0
 29 63  1  0
 30 31  1  0
 30 64  1  1
 31 32  1  0
 31 33  1  0
 32 65  1  0
 32 66  1  0
 32 67  1  0
 33 68  1  0
 33 69  1  0
 33 70  1  0
 34 35  1  0
 34 36  1  0
 35 71  1  0
 35 72  1  0
 35 73  1  0
 36 74  1  0
 36 75  1  0
 36 76  1  0
M  END
>  <i_m_ct_stereo_status>  (201) 
1

>  <s_m_source_file>  (201) 
/var/tmp/pbs.5076255.sched01/tmphf7gnms3/50i7j3xhgh.sdf

>  <i_m_source_file_index>  (201) 
39

>  <i_lp_mmshare_version>  (201) 
48012

>  <i_f3d_flags>  (201) 
0

>  <s_epik_input>  (201) 
W0NIM11PQzEyW0NIMl1bQ0BdKFtDSDNdKShbQ0hdPVtDSDJdKVtDSF0zQyhDMihbQ0gzXSlbQ0gzXSk9W0NIXVtDQEBIXTRbQ0hdKFtDSF09W0NIXTMpW0NIMl1bQ0BIXShbQ0gzXSlcQyhDNChbQ0gzXSlbQ0gzXSk9Q1wxT0MoPU8pL1tDSF09W0NIXS9jNVtjSF1bY0hdW2NIXW81

>  <s_epik_cmdline>  (201) 
J2VwaWtfcHl0aG9uJywgJy1waHQnLCAnMi4wJywgJy1waCcsICc3LjAnLCAnLXRuJywgJzgnLCAnLW1hJywgJzIwMCcsICctaW1hZScsICc8aW5maWxlLm1hZT4nLCAnLW9tYWUnLCAnPG91dGZpbGUubWFlPic=

>  <r_lp_tautomer_probability>  (201) 
1

>  <r_epik_Ionization_Penalty>  (201) 
1.29585e-13

>  <r_epik_Ionization_Penalty_Charging>  (201) 
0

>  <r_epik_Ionization_Penalty_Neutral>  (201) 
1.29585e-13

>  <r_epik_State_Penalty>  (201) 
-0

>  <r_epik_Charging_Adjusted_Penalty>  (201) 
0

>  <i_epik_Tot_Q>  (201) 
0

>  <i_epik_Tot_abs_Q>  (201) 
0

>  <s_lp_Force_Field>  (201) 
OPLS3e

>  <r_lp_Energy>  (201) 
209.421

>  <b_lp_Chiralities_Consistent>  (201) 
1

>  <s_lp_Variant>  (201) 
52:0-9

>  <s_i_glide_gridfile>  (201) 
pfpi4k_grid

>  <i_i_glide_lignum>  (201) 
39

>  <i_i_glide_rotatable_bonds>  (201) 
6

>  <r_i_docking_score>  (201) 
-2.31353

>  <r_i_glide_ligand_efficiency>  (201) 
-0.0642647

>  <r_i_glide_ligand_efficiency_sa>  (201) 
-0.212197

>  <r_i_glide_ligand_efficiency_ln>  (201) 
-0.50475

>  <r_i_glide_gscore>  (201) 
-2.31353

>  <r_i_glide_lipo>  (201) 
-0.792836

>  <r_i_glide_hbond>  (201) 
-0.0889189

>  <r_i_glide_metal>  (201) 
-0

>  <r_i_glide_rewards>  (201) 
-0.0773345

>  <r_i_glide_evdw>  (201) 
-26.113

>  <r_i_glide_ecoul>  (201) 
-2.51767

>  <r_i_glide_erotb>  (201) 
0.340689

>  <r_i_glide_esite>  (201) 
-0.0118287

>  <r_i_glide_emodel>  (201) 
-28.1638

>  <r_i_glide_energy>  (201) 
-28.6307

>  <r_i_glide_einternal>  (201) 
8.26059

>  <r_i_glide_intrahb_reward>  (201) 
-0

>  <i_i_glide_confnum>  (201) 
1

>  <i_i_glide_posenum>  (201) 
1

>  <r_i_glide_eff_state_penalty>  (201) 
0

>  <ligand_id>  (201) 
52

>  <original_smiles>  (201) 
C=CC1(C)CC2(OC)C(OC(=O)C=Cc3ccco3)=C3C(C)CC4C=CC1C(=CC4C3(C)C)C2(C)C

>  <smiles>  (201) 
[H]C([H])=C([H])C1(C([H])([H])[H])C2([H])C([H])=C([H])C3([H])C([H])([H])C([H])(C([H])([H])[H])C4=C(OC(=O)C([H])=C([H])c5oc([H])c([H])c5[H])C(OC([H])([H])[H])(C1([H])[H])C(C([H])([H])[H])(C([H])([H])[H])C2=C([H])C3([H])C4(C([H])([H])[H])C([H])([H])[H]

$$$$
52:8:2
     RDKit          3D

 76 80  0  0  1  0  0  0  0  0999 V2000
   -1.4990   -8.5939    2.8396 C   0  0  0  0  0  0  0  0  0  0  0  0
   -0.1743   -8.3213    2.9483 C   0  0  0  0  0  0  0  0  0  0  0  0
    1.0239   -9.2451    3.2778 C   0  0  1  0  0  0  0  0  0  0  0  0
    0.5056  -10.7077    3.3272 C   0  0  0  0  0  0  0  0  0  0  0  0
    2.1372   -9.0140    2.1558 C   0  0  0  0  0  0  0  0  0  0  0  0
    3.4848   -8.3055    2.6342 C   0  0  1  0  0  0  0  0  0  0  0  0
    4.4487   -8.1928    1.5713 O   0  0  0  0  0  0  0  0  0  0  0  0
    4.8159   -9.2977    0.7434 C   0  0  0  0  0  0  0  0  0  0  0  0
    3.1129   -6.7930    2.9717 C   0  0  0  0  0  0  0  0  0  0  0  0
    2.4371   -6.3019    1.8685 O   0  0  0  0  0  0  0  0  0  0  0  0
    3.0488   -5.4215    1.0111 C   0  0  0  0  0  0  0  0  0  0  0  0
    2.3841   -4.8306    0.1573 O   0  0  0  0  0  0  0  0  0  0  0  0
    4.5102   -5.2352    1.1874 C   0  0  0  0  0  0  0  0  0  0  0  0
    5.2620   -4.4031    0.4435 C   0  0  0  0  0  0  0  0  0  0  0  0
    6.6574   -4.2586    0.6260 C   0  0  0  0  0  0  0  0  0  0  0  0
    7.5455   -4.8157    1.5093 C   0  0  0  0  0  0  0  0  0  0  0  0
    8.8321   -4.2837    1.1825 C   0  0  0  0  0  0  0  0  0  0  0  0
    8.6260   -3.4554    0.1173 C   0  0  0  0  0  0  0  0  0  0  0  0
    7.3090   -3.4224   -0.2313 O   0  0  0  0  0  0  0  0  0  0  0  0
    3.1505   -5.9508    4.0890 C   0  0  0  0  0  0  0  0  0  0  0  0
    1.9900   -4.9725    4.4155 C   0  0  1  0  0  0  0  0  0  0  0  0
    0.9965   -4.4984    3.3319 C   0  0  0  0  0  0  0  0  0  0  0  0
    1.1778   -5.5497    5.6242 C   0  0  0  0  0  0  0  0  0  0  0  0
    1.8558   -6.5789    6.6167 C   0  0  1  0  0  0  0  0  0  0  0  0
    0.9091   -7.7799    6.8103 C   0  0  0  0  0  0  0  0  0  0  0  0
    0.7863   -8.7981    5.9297 C   0  0  0  0  0  0  0  0  0  0  0  0
    1.6311   -8.8409    4.6692 C   0  0  1  0  0  0  0  0  0  0  0  0
    3.1410   -9.0200    4.9779 C   0  0  0  0  0  0  0  0  0  0  0  0
    3.6633   -8.4430    6.0748 C   0  0  0  0  0  0  0  0  0  0  0  0
    3.3775   -6.9652    6.3701 C   0  0  1  0  0  0  0  0  0  0  0  0
    4.0584   -6.0080    5.3572 C   0  0  0  0  0  0  0  0  0  0  0  0
    5.5452   -6.2674    5.0096 C   0  0  0  0  0  0  0  0  0  0  0  0
    4.2110   -4.6356    6.1150 C   0  0  0  0  0  0  0  0  0  0  0  0
    4.0323   -9.2852    3.7653 C   0  0  0  0  0  0  0  0  0  0  0  0
    3.9515  -10.8395    3.5121 C   0  0  0  0  0  0  0  0  0  0  0  0
    5.5776   -9.1620    3.9751 C   0  0  0  0  0  0  0  0  0  0  0  0
   -1.9138   -9.5757    2.9698 H   0  0  0  0  0  0  0  0  0  0  0  0
   -2.1920   -7.7842    2.6127 H   0  0  0  0  0  0  0  0  0  0  0  0
    0.1132   -7.3058    2.7827 H   0  0  0  0  0  0  0  0  0  0  0  0
    1.1058  -11.3736    3.9560 H   0  0  0  0  0  0  0  0  0  0  0  0
    0.4299  -11.1242    2.3156 H   0  0  0  0  0  0  0  0  0  0  0  0
   -0.4547  -10.7696    3.7898 H   0  0  0  0  0  0  0  0  0  0  0  0
    2.3765   -9.9653    1.6895 H   0  0  0  0  0  0  0  0  0  0  0  0
    1.7091   -8.4742    1.3133 H   0  0  0  0  0  0  0  0  0  0  0  0
    5.5852   -8.9435    0.0686 H   0  0  0  0  0  0  0  0  0  0  0  0
    3.9703   -9.6297    0.1235 H   0  0  0  0  0  0  0  0  0  0  0  0
    5.2951  -10.1097    1.2429 H   0  0  0  0  0  0  0  0  0  0  0  0
    5.0547   -5.7866    1.9415 H   0  0  0  0  0  0  0  0  0  0  0  0
    4.7996   -3.8089   -0.3367 H   0  0  0  0  0  0  0  0  0  0  0  0
    7.3175   -5.5179    2.2972 H   0  0  0  0  0  0  0  0  0  0  0  0
    9.7724   -4.4810    1.6746 H   0  0  0  0  0  0  0  0  0  0  0  0
    9.2599   -2.8249   -0.4913 H   0  0  0  0  0  0  0  0  0  0  0  0
    2.4178   -4.0135    4.6882 H   0  0  0  0  0  0  0  0  0  0  0  0
    1.4965   -3.9140    2.5592 H   0  0  0  0  0  0  0  0  0  0  0  0
    0.2414   -3.8351    3.7616 H   0  0  0  0  0  0  0  0  0  0  0  0
    0.4613   -5.3175    2.8688 H   0  0  0  0  0  0  0  0  0  0  0  0
    0.7643   -4.7187    6.1956 H   0  0  0  0  0  0  0  0  0  0  0  0
    0.3014   -6.0439    5.1996 H   0  0  0  0  0  0  0  0  0  0  0  0
    1.8468   -6.0843    7.5903 H   0  0  0  0  0  0  0  0  0  0  0  0
    0.3092   -7.7664    7.7053 H   0  0  0  0  0  0  0  0  0  0  0  0
    0.1065   -9.6198    6.1029 H   0  0  0  0  0  0  0  0  0  0  0  0
    1.5597   -7.7928    4.4977 H   0  0  0  0  0  0  0  0  0  0  0  0
    3.2380   -8.8568    6.9776 H   0  0  0  0  0  0  0  0  0  0  0  0
    3.8960   -6.8261    7.3202 H   0  0  0  0  0  0  0  0  0  0  0  0
    5.9546   -7.1289    5.5258 H   0  0  0  0  0  0  0  0  0  0  0  0
    6.2145   -5.4523    5.2874 H   0  0  0  0  0  0  0  0  0  0  0  0
    5.6888   -6.3346    3.9375 H   0  0  0  0  0  0  0  0  0  0  0  0
    4.9485   -4.6983    6.9141 H   0  0  0  0  0  0  0  0  0  0  0  0
    3.3062   -4.2987    6.6190 H   0  0  0  0  0  0  0  0  0  0  0  0
    4.5347   -3.8335    5.4489 H   0  0  0  0  0  0  0  0  0  0  0  0
    4.4178  -11.2268    2.6356 H   0  0  0  0  0  0  0  0  0  0  0  0
    2.9480  -11.2112    3.4401 H   0  0  0  0  0  0  0  0  0  0  0  0
    4.3649  -11.3812    4.3741 H   0  0  0  0  0  0  0  0  0  0  0  0
    6.0180   -8.2840    3.5258 H   0  0  0  0  0  0  0  0  0  0  0  0
    6.1180   -9.9562    3.4619 H   0  0  0  0  0  0  0  0  0  0  0  0
    5.8861   -9.2533    5.0122 H   0  0  0  0  0  0  0  0  0  0  0  0
  1  2  2  0
  1 37  1  0
  1 38  1  0
  2  3  1  0
  2 39  1  0
  3 27  1  0
  3  4  1  1
  3  5  1  0
  4 40  1  0
  4 41  1  0
  4 42  1  0
  5  6  1  0
  5 43  1  0
  5 44  1  0
  6 34  1  0
  6  7  1  6
  6  9  1  0
  7  8  1  0
  8 45  1  0
  8 46  1  0
  8 47  1  0
  9 10  1  0
  9 20  2  3
 10 11  1  0
 11 12  2  0
 11 13  1  0
 13 14  2  3
 13 48  1  0
 14 15  1  0
 14 49  1  0
 15 19  1  0
 15 16  2  0
 16 17  1  0
 16 50  1  0
 17 18  2  0
 17 51  1  0
 18 19  1  0
 18 52  1  0
 20 31  1  0
 20 21  1  0
 21 22  1  0
 21 23  1  0
 21 53  1  1
 22 54  1  0
 22 55  1  0
 22 56  1  0
 23 24  1  0
 23 57  1  0
 23 58  1  0
 24 30  1  0
 24 25  1  0
 24 59  1  1
 25 26  2  0
 25 60  1  0
 26 27  1  0
 26 61  1  0
 27 28  1  0
 27 62  1  6
 28 29  2  0
 28 34  1  0
 29 30  1  0
 29 63  1  0
 30 31  1  0
 30 64  1  1
 31 32  1  0
 31 33  1  0
 32 65  1  0
 32 66  1  0
 32 67  1  0
 33 68  1  0
 33 69  1  0
 33 70  1  0
 34 35  1  0
 34 36  1  0
 35 71  1  0
 35 72  1  0
 35 73  1  0
 36 74  1  0
 36 75  1  0
 36 76  1  0
M  END
>  <i_m_ct_stereo_status>  (202) 
1

>  <s_m_source_file>  (202) 
/var/tmp/pbs.5076255.sched01/tmphf7gnms3/50i7j3xhgh.sdf

>  <i_m_source_file_index>  (202) 
39

>  <i_lp_mmshare_version>  (202) 
48012

>  <i_f3d_flags>  (202) 
0

>  <s_epik_input>  (202) 
W0NIM11PQzEyW0NIMl1bQ0BdKFtDSDNdKShbQ0hdPVtDSDJdKVtDSF0zQyhDMihbQ0gzXSlbQ0gzXSk9W0NIXVtDQEBIXTRbQ0hdKFtDSF09W0NIXTMpW0NIMl1bQ0BIXShbQ0gzXSlcQyhDNChbQ0gzXSlbQ0gzXSk9Q1wxT0MoPU8pL1tDSF09W0NIXS9jNVtjSF1bY0hdW2NIXW81

>  <s_epik_cmdline>  (202) 
J2VwaWtfcHl0aG9uJywgJy1waHQnLCAnMi4wJywgJy1waCcsICc3LjAnLCAnLXRuJywgJzgnLCAnLW1hJywgJzIwMCcsICctaW1hZScsICc8aW5maWxlLm1hZT4nLCAnLW9tYWUnLCAnPG91dGZpbGUubWFlPic=

>  <r_lp_tautomer_probability>  (202) 
1

>  <r_epik_Ionization_Penalty>  (202) 
1.29585e-13

>  <r_epik_Ionization_Penalty_Charging>  (202) 
0

>  <r_epik_Ionization_Penalty_Neutral>  (202) 
1.29585e-13

>  <r_epik_State_Penalty>  (202) 
-0

>  <r_epik_Charging_Adjusted_Penalty>  (202) 
0

>  <i_epik_Tot_Q>  (202) 
0

>  <i_epik_Tot_abs_Q>  (202) 
0

>  <s_lp_Force_Field>  (202) 
OPLS3e

>  <r_lp_Energy>  (202) 
209.421

>  <b_lp_Chiralities_Consistent>  (202) 
1

>  <s_lp_Variant>  (202) 
52:0-9

>  <s_i_glide_gridfile>  (202) 
pfpi4k_grid

>  <i_i_glide_lignum>  (202) 
39

>  <i_i_glide_rotatable_bonds>  (202) 
6

>  <r_i_docking_score>  (202) 
-1.57402

>  <r_i_glide_ligand_efficiency>  (202) 
-0.0437229

>  <r_i_glide_ligand_efficiency_sa>  (202) 
-0.14437

>  <r_i_glide_ligand_efficiency_ln>  (202) 
-0.343409

>  <r_i_glide_gscore>  (202) 
-1.57402

>  <r_i_glide_lipo>  (202) 
-0.511925

>  <r_i_glide_hbond>  (202) 
0

>  <r_i_glide_metal>  (202) 
-0

>  <r_i_glide_rewards>  (202) 
-0.0773345

>  <r_i_glide_evdw>  (202) 
-25.662

>  <r_i_glide_ecoul>  (202) 
-0.20504

>  <r_i_glide_erotb>  (202) 
0.340689

>  <r_i_glide_esite>  (202) 
-0.0115962

>  <r_i_glide_emodel>  (202) 
-24.8786

>  <r_i_glide_energy>  (202) 
-25.8671

>  <r_i_glide_einternal>  (202) 
6.59614

>  <r_i_glide_intrahb_reward>  (202) 
-0

>  <i_i_glide_confnum>  (202) 
1

>  <i_i_glide_posenum>  (202) 
28

>  <r_i_glide_eff_state_penalty>  (202) 
0

>  <ligand_id>  (202) 
52

>  <original_smiles>  (202) 
C=CC1(C)CC2(OC)C(OC(=O)C=Cc3ccco3)=C3C(C)CC4C=CC1C(=CC4C3(C)C)C2(C)C

>  <smiles>  (202) 
[H]C([H])=C([H])C1(C([H])([H])[H])C2([H])C([H])=C([H])C3([H])C([H])([H])C([H])(C([H])([H])[H])C4=C(OC(=O)C([H])=C([H])c5oc([H])c([H])c5[H])C(OC([H])([H])[H])(C1([H])[H])C(C([H])([H])[H])(C([H])([H])[H])C2=C([H])C3([H])C4(C([H])([H])[H])C([H])([H])[H]

$$$$
52:10:0
     RDKit          3D

 76 80  0  0  1  0  0  0  0  0999 V2000
    1.9990   -5.0000    4.2621 C   0  0  0  0  0  0  0  0  0  0  0  0
    1.9690   -3.6614    4.5031 C   0  0  0  0  0  0  0  0  0  0  0  0
    2.3937   -2.4821    3.5773 C   0  0  1  0  0  0  0  0  0  0  0  0
    3.1207   -3.1020    2.3419 C   0  0  0  0  0  0  0  0  0  0  0  0
    1.0983   -1.6064    3.2480 C   0  0  0  0  0  0  0  0  0  0  0  0
    0.8731   -0.0262    3.7757 C   0  0  2  0  0  0  0  0  0  0  0  0
    0.1796   -0.9575    4.6036 O   0  0  0  0  0  0  0  0  0  0  0  0
   -1.2551   -0.8570    4.6932 C   0  0  0  0  0  0  0  0  0  0  0  0
    1.0525    0.8754    5.1070 C   0  0  0  0  0  0  0  0  0  0  0  0
    0.7486    2.2085    4.8868 O   0  0  0  0  0  0  0  0  0  0  0  0
   -0.4615    2.6150    4.3313 C   0  0  0  0  0  0  0  0  0  0  0  0
   -1.4369    1.9253    4.2069 O   0  0  0  0  0  0  0  0  0  0  0  0
   -0.3964    4.0329    3.9493 C   0  0  0  0  0  0  0  0  0  0  0  0
   -1.3790    4.6650    3.2699 C   0  0  0  0  0  0  0  0  0  0  0  0
   -2.6842    4.2989    2.7158 C   0  0  0  0  0  0  0  0  0  0  0  0
   -3.3794    3.1414    2.5066 C   0  0  0  0  0  0  0  0  0  0  0  0
   -4.6264    3.4781    1.8971 C   0  0  0  0  0  0  0  0  0  0  0  0
   -4.6040    4.8290    1.7258 C   0  0  0  0  0  0  0  0  0  0  0  0
   -3.4464    5.3537    2.2315 O   0  0  0  0  0  0  0  0  0  0  0  0
    1.6829    0.6454    6.3331 C   0  0  0  0  0  0  0  0  0  0  0  0
    1.6491   -0.5976    7.2622 C   0  0  1  0  0  0  0  0  0  0  0  0
    0.4417   -1.5662    7.2692 C   0  0  0  0  0  0  0  0  0  0  0  0
    3.0224   -1.2881    7.5364 C   0  0  0  0  0  0  0  0  0  0  0  0
    4.3113   -0.6097    6.9593 C   0  0  1  0  0  0  0  0  0  0  0  0
    5.0757   -1.6323    6.1193 C   0  0  0  0  0  0  0  0  0  0  0  0
    4.6270   -2.0873    4.9382 C   0  0  0  0  0  0  0  0  0  0  0  0
    3.3433   -1.5472    4.3472 C   0  0  1  0  0  0  0  0  0  0  0  0
    3.4898   -0.0865    3.9121 C   0  0  0  0  0  0  0  0  0  0  0  0
    4.1873    0.7838    4.6959 C   0  0  0  0  0  0  0  0  0  0  0  0
    4.1147    0.7970    6.2588 C   0  0  1  0  0  0  0  0  0  0  0  0
    2.8543    1.5753    6.7959 C   0  0  0  0  0  0  0  0  0  0  0  0
    2.8828    3.0451    6.2829 C   0  0  0  0  0  0  0  0  0  0  0  0
    2.9166    1.7875    8.3407 C   0  0  0  0  0  0  0  0  0  0  0  0
    2.3032    0.4133    3.0510 C   0  0  0  0  0  0  0  0  0  0  0  0
    2.5706    0.0620    1.5397 C   0  0  0  0  0  0  0  0  0  0  0  0
    2.4034    1.9542    2.7589 C   0  0  0  0  0  0  0  0  0  0  0  0
    2.3403   -5.4323    3.3235 H   0  0  0  0  0  0  0  0  0  0  0  0
    1.6548   -5.6483    5.0620 H   0  0  0  0  0  0  0  0  0  0  0  0
    1.6268   -3.3748    5.4910 H   0  0  0  0  0  0  0  0  0  0  0  0
    3.8768   -2.4344    1.9087 H   0  0  0  0  0  0  0  0  0  0  0  0
    2.4020   -3.3807    1.5665 H   0  0  0  0  0  0  0  0  0  0  0  0
    3.6642   -4.0078    2.6168 H   0  0  0  0  0  0  0  0  0  0  0  0
    0.9864   -1.5404    2.1780 H   0  0  0  0  0  0  0  0  0  0  0  0
    0.2724   -2.3479    3.2003 H   0  0  0  0  0  0  0  0  0  0  0  0
   -1.6849   -1.7805    5.0877 H   0  0  0  0  0  0  0  0  0  0  0  0
   -1.7161   -0.6385    3.7268 H   0  0  0  0  0  0  0  0  0  0  0  0
   -1.5244   -0.1083    5.4310 H   0  0  0  0  0  0  0  0  0  0  0  0
    0.4887    4.5994    4.2110 H   0  0  0  0  0  0  0  0  0  0  0  0
   -1.1290    5.6947    3.0639 H   0  0  0  0  0  0  0  0  0  0  0  0
   -3.0419    2.1422    2.7447 H   0  0  0  0  0  0  0  0  0  0  0  0
   -5.4074    2.7953    1.6179 H   0  0  0  0  0  0  0  0  0  0  0  0
   -5.3093    5.5313    1.2818 H   0  0  0  0  0  0  0  0  0  0  0  0
    1.4213   -0.1194    8.2055 H   0  0  0  0  0  0  0  0  0  0  0  0
   -0.4985   -0.9895    7.2981 H   0  0  0  0  0  0  0  0  0  0  0  0
    0.4705   -2.1683    8.1885 H   0  0  0  0  0  0  0  0  0  0  0  0
    0.4167   -2.2558    6.4449 H   0  0  0  0  0  0  0  0  0  0  0  0
    3.1475   -1.3998    8.6120 H   0  0  0  0  0  0  0  0  0  0  0  0
    2.9699   -2.3215    7.1864 H   0  0  0  0  0  0  0  0  0  0  0  0
    4.9639   -0.4253    7.8099 H   0  0  0  0  0  0  0  0  0  0  0  0
    5.9917   -2.0103    6.5412 H   0  0  0  0  0  0  0  0  0  0  0  0
    5.1762   -2.8165    4.3728 H   0  0  0  0  0  0  0  0  0  0  0  0
    2.6969   -1.4107    5.1823 H   0  0  0  0  0  0  0  0  0  0  0  0
    5.2436    0.5560    4.6135 H   0  0  0  0  0  0  0  0  0  0  0  0
    4.9743    1.4010    6.5402 H   0  0  0  0  0  0  0  0  0  0  0  0
    3.5579    3.6667    6.8697 H   0  0  0  0  0  0  0  0  0  0  0  0
    1.9165    3.5365    6.3704 H   0  0  0  0  0  0  0  0  0  0  0  0
    3.2634    3.1566    5.2787 H   0  0  0  0  0  0  0  0  0  0  0  0
    3.6995    2.4917    8.6209 H   0  0  0  0  0  0  0  0  0  0  0  0
    3.1502    0.8975    8.9108 H   0  0  0  0  0  0  0  0  0  0  0  0
    1.9698    2.1802    8.7095 H   0  0  0  0  0  0  0  0  0  0  0  0
    1.7613    0.4010    0.8947 H   0  0  0  0  0  0  0  0  0  0  0  0
    2.7133   -0.9601    1.2671 H   0  0  0  0  0  0  0  0  0  0  0  0
    3.4984    0.5060    1.1724 H   0  0  0  0  0  0  0  0  0  0  0  0
    1.6184    2.2893    2.0825 H   0  0  0  0  0  0  0  0  0  0  0  0
    3.3611    2.2193    2.3214 H   0  0  0  0  0  0  0  0  0  0  0  0
    2.4019    2.6283    3.5785 H   0  0  0  0  0  0  0  0  0  0  0  0
  1  2  2  0
  1 37  1  0
  1 38  1  0
  2  3  1  0
  2 39  1  0
  3 27  1  0
  3  4  1  6
  3  5  1  0
  4 40  1  0
  4 41  1  0
  4 42  1  0
  5  6  1  0
  5 43  1  0
  5 44  1  0
  6 34  1  0
  6  7  1  1
  6  9  1  0
  7  8  1  0
  8 45  1  0
  8 46  1  0
  8 47  1  0
  9 10  1  0
  9 20  2  3
 10 11  1  0
 11 12  2  0
 11 13  1  0
 13 14  2  3
 13 48  1  0
 14 15  1  0
 14 49  1  0
 15 19  1  0
 15 16  2  0
 16 17  1  0
 16 50  1  0
 17 18  2  0
 17 51  1  0
 18 19  1  0
 18 52  1  0
 20 31  1  0
 20 21  1  0
 21 22  1  0
 21 23  1  0
 21 53  1  1
 22 54  1  0
 22 55  1  0
 22 56  1  0
 23 24  1  0
 23 57  1  0
 23 58  1  0
 24 30  1  0
 24 25  1  0
 24 59  1  1
 25 26  2  0
 25 60  1  0
 26 27  1  0
 26 61  1  0
 27 28  1  0
 27 62  1  1
 28 29  2  0
 28 34  1  0
 29 30  1  0
 29 63  1  0
 30 31  1  0
 30 64  1  1
 31 32  1  0
 31 33  1  0
 32 65  1  0
 32 66  1  0
 32 67  1  0
 33 68  1  0
 33 69  1  0
 33 70  1  0
 34 35  1  0
 34 36  1  0
 35 71  1  0
 35 72  1  0
 35 73  1  0
 36 74  1  0
 36 75  1  0
 36 76  1  0
M  END
>  <i_m_ct_stereo_status>  (203) 
1

>  <s_m_source_file>  (203) 
/var/tmp/pbs.5076255.sched01/tmphf7gnms3/50i7j3xhgh.sdf

>  <i_m_source_file_index>  (203) 
41

>  <i_lp_mmshare_version>  (203) 
48012

>  <i_f3d_flags>  (203) 
0

>  <s_epik_input>  (203) 
W0NIM11PQzEyW0NIMl1bQ0BdKFtDSDNdKShbQ0hdPVtDSDJdKVtDSF0zQyhDMihbQ0gzXSlbQ0gzXSk9W0NIXVtDQEBIXTRbQ0hdKFtDSF09W0NIXTMpW0NIMl1bQ0BIXShbQ0gzXSlcQyhDNChbQ0gzXSlbQ0gzXSk9Q1wxT0MoPU8pL1tDSF09W0NIXS9jNVtjSF1bY0hdW2NIXW81

>  <s_epik_cmdline>  (203) 
J2VwaWtfcHl0aG9uJywgJy1waHQnLCAnMi4wJywgJy1waCcsICc3LjAnLCAnLXRuJywgJzgnLCAnLW1hJywgJzIwMCcsICctaW1hZScsICc8aW5maWxlLm1hZT4nLCAnLW9tYWUnLCAnPG91dGZpbGUubWFlPic=

>  <r_lp_tautomer_probability>  (203) 
1

>  <r_epik_Ionization_Penalty>  (203) 
1.29585e-13

>  <r_epik_Ionization_Penalty_Charging>  (203) 
0

>  <r_epik_Ionization_Penalty_Neutral>  (203) 
1.29585e-13

>  <r_epik_State_Penalty>  (203) 
-0

>  <r_epik_Charging_Adjusted_Penalty>  (203) 
0

>  <i_epik_Tot_Q>  (203) 
0

>  <i_epik_Tot_abs_Q>  (203) 
0

>  <s_lp_Force_Field>  (203) 
OPLS3e

>  <r_lp_Energy>  (203) 
349.564

>  <b_lp_Chiralities_Consistent>  (203) 
1

>  <s_lp_Variant>  (203) 
52:0-11

>  <s_i_glide_gridfile>  (203) 
pfpi4k_grid

>  <i_i_glide_lignum>  (203) 
41

>  <i_i_glide_rotatable_bonds>  (203) 
6

>  <r_i_docking_score>  (203) 
-1.52388

>  <r_i_glide_ligand_efficiency>  (203) 
-0.0423301

>  <r_i_glide_ligand_efficiency_sa>  (203) 
-0.139771

>  <r_i_glide_ligand_efficiency_ln>  (203) 
-0.33247

>  <r_i_glide_gscore>  (203) 
-1.52388

>  <r_i_glide_lipo>  (203) 
-0.385661

>  <r_i_glide_hbond>  (203) 
-0.0758958

>  <r_i_glide_metal>  (203) 
-0

>  <r_i_glide_rewards>  (203) 
-0.0773345

>  <r_i_glide_evdw>  (203) 
-22.0733

>  <r_i_glide_ecoul>  (203) 
-1.32163

>  <r_i_glide_erotb>  (203) 
0.340689

>  <r_i_glide_esite>  (203) 
-0.0237731

>  <r_i_glide_emodel>  (203) 
-23.3802

>  <r_i_glide_energy>  (203) 
-23.3949

>  <r_i_glide_einternal>  (203) 
2.36664

>  <r_i_glide_intrahb_reward>  (203) 
-0

>  <i_i_glide_confnum>  (203) 
2

>  <i_i_glide_posenum>  (203) 
9

>  <r_i_glide_eff_state_penalty>  (203) 
0

>  <ligand_id>  (203) 
52

>  <original_smiles>  (203) 
C=CC1(C)CC2(OC)C(OC(=O)C=Cc3ccco3)=C3C(C)CC4C=CC1C(=CC4C3(C)C)C2(C)C

>  <smiles>  (203) 
[H]C([H])=C([H])C1(C([H])([H])[H])C2([H])C([H])=C([H])C3([H])C([H])([H])C([H])(C([H])([H])[H])C4=C(OC(=O)C([H])=C([H])c5oc([H])c([H])c5[H])C(OC([H])([H])[H])(C1([H])[H])C(C([H])([H])[H])(C([H])([H])[H])C2=C([H])C3([H])C4(C([H])([H])[H])C([H])([H])[H]

$$$$
52:10:1
     RDKit          3D

 76 80  0  0  1  0  0  0  0  0999 V2000
   -0.5294    1.3293    1.7339 C   0  0  0  0  0  0  0  0  0  0  0  0
   -0.1573    2.2312    2.6570 C   0  0  0  0  0  0  0  0  0  0  0  0
   -0.9657    2.6546    3.8869 C   0  0  1  0  0  0  0  0  0  0  0  0
   -2.3383    3.1157    3.3298 C   0  0  0  0  0  0  0  0  0  0  0  0
   -1.0173    1.4338    4.8949 C   0  0  0  0  0  0  0  0  0  0  0  0
   -0.2520    1.4584    6.3742 C   0  0  2  0  0  0  0  0  0  0  0  0
    0.5276    0.7766    5.3990 O   0  0  0  0  0  0  0  0  0  0  0  0
    0.8251   -0.6125    5.6364 C   0  0  0  0  0  0  0  0  0  0  0  0
    1.1522    1.9125    7.0331 C   0  0  0  0  0  0  0  0  0  0  0  0
    1.2597    1.6072    8.3845 O   0  0  0  0  0  0  0  0  0  0  0  0
    0.7092    0.5066    8.9797 C   0  0  0  0  0  0  0  0  0  0  0  0
    0.0504   -0.3462    8.4031 O   0  0  0  0  0  0  0  0  0  0  0  0
    0.9228    0.5166   10.4369 C   0  0  0  0  0  0  0  0  0  0  0  0
    0.5325   -0.4623   11.2814 C   0  0  0  0  0  0  0  0  0  0  0  0
   -0.0990   -1.7525   11.1396 C   0  0  0  0  0  0  0  0  0  0  0  0
   -0.3809   -2.6089   10.1051 C   0  0  0  0  0  0  0  0  0  0  0  0
   -1.1174   -3.6990   10.6385 C   0  0  0  0  0  0  0  0  0  0  0  0
   -1.1934   -3.4782   11.9844 C   0  0  0  0  0  0  0  0  0  0  0  0
   -0.5807   -2.3071   12.2970 O   0  0  0  0  0  0  0  0  0  0  0  0
    2.2300    2.6483    6.5667 C   0  0  0  0  0  0  0  0  0  0  0  0
    2.9704    2.6278    5.1989 C   0  0  1  0  0  0  0  0  0  0  0  0
    2.9683    1.3725    4.3106 C   0  0  0  0  0  0  0  0  0  0  0  0
    2.9566    3.9540    4.3867 C   0  0  0  0  0  0  0  0  0  0  0  0
    2.2958    5.2070    5.0487 C   0  0  1  0  0  0  0  0  0  0  0  0
    1.2223    5.7470    4.1046 C   0  0  0  0  0  0  0  0  0  0  0  0
    0.0676    5.0987    3.8685 C   0  0  0  0  0  0  0  0  0  0  0  0
   -0.2538    3.8124    4.6068 C   0  0  1  0  0  0  0  0  0  0  0  0
   -0.5065    4.0533    6.0940 C   0  0  0  0  0  0  0  0  0  0  0  0
    0.2966    4.9199    6.7738 C   0  0  0  0  0  0  0  0  0  0  0  0
    1.8383    5.0513    6.5528 C   0  0  1  0  0  0  0  0  0  0  0  0
    2.6544    3.9523    7.3274 C   0  0  0  0  0  0  0  0  0  0  0  0
    2.3549    4.0498    8.8549 C   0  0  0  0  0  0  0  0  0  0  0  0
    4.1903    4.2322    7.2978 C   0  0  0  0  0  0  0  0  0  0  0  0
   -1.1043    2.8155    6.7974 C   0  0  0  0  0  0  0  0  0  0  0  0
   -2.6734    2.8384    6.6489 C   0  0  0  0  0  0  0  0  0  0  0  0
   -1.1794    3.0241    8.3540 C   0  0  0  0  0  0  0  0  0  0  0  0
   -1.4724    0.8101    1.7978 H   0  0  0  0  0  0  0  0  0  0  0  0
    0.1159    1.1115    0.8959 H   0  0  0  0  0  0  0  0  0  0  0  0
    0.7942    2.7177    2.5046 H   0  0  0  0  0  0  0  0  0  0  0  0
   -2.7789    3.9288    3.9034 H   0  0  0  0  0  0  0  0  0  0  0  0
   -3.0554    2.2966    3.2728 H   0  0  0  0  0  0  0  0  0  0  0  0
   -2.2426    3.5199    2.3185 H   0  0  0  0  0  0  0  0  0  0  0  0
   -2.0514    1.2001    5.1056 H   0  0  0  0  0  0  0  0  0  0  0  0
   -1.0512    0.5292    4.2553 H   0  0  0  0  0  0  0  0  0  0  0  0
    1.2201   -1.0645    4.7270 H   0  0  0  0  0  0  0  0  0  0  0  0
   -0.0617   -1.1790    5.9256 H   0  0  0  0  0  0  0  0  0  0  0  0
    1.5946   -0.7242    6.3983 H   0  0  0  0  0  0  0  0  0  0  0  0
    1.4155    1.3855   10.8483 H   0  0  0  0  0  0  0  0  0  0  0  0
    0.7452   -0.2231   12.3113 H   0  0  0  0  0  0  0  0  0  0  0  0
   -0.1032   -2.5019    9.0723 H   0  0  0  0  0  0  0  0  0  0  0  0
   -1.5167   -4.5409   10.1013 H   0  0  0  0  0  0  0  0  0  0  0  0
   -1.6220   -4.0341   12.8133 H   0  0  0  0  0  0  0  0  0  0  0  0
    3.9974    2.5304    5.5360 H   0  0  0  0  0  0  0  0  0  0  0  0
    3.1391    0.4717    4.8984 H   0  0  0  0  0  0  0  0  0  0  0  0
    3.7825    1.4285    3.5893 H   0  0  0  0  0  0  0  0  0  0  0  0
    2.0619    1.2614    3.7255 H   0  0  0  0  0  0  0  0  0  0  0  0
    3.9798    4.1953    4.1116 H   0  0  0  0  0  0  0  0  0  0  0  0
    2.4912    3.7576    3.4207 H   0  0  0  0  0  0  0  0  0  0  0  0
    3.0652    5.9743    5.0489 H   0  0  0  0  0  0  0  0  0  0  0  0
    1.4456    6.6651    3.5807 H   0  0  0  0  0  0  0  0  0  0  0  0
   -0.6468    5.4885    3.1611 H   0  0  0  0  0  0  0  0  0  0  0  0
    0.6806    3.3122    4.6700 H   0  0  0  0  0  0  0  0  0  0  0  0
    0.0349    5.9252    6.4770 H   0  0  0  0  0  0  0  0  0  0  0  0
    2.0777    5.9948    7.0395 H   0  0  0  0  0  0  0  0  0  0  0  0
    2.9179    4.8550    9.3294 H   0  0  0  0  0  0  0  0  0  0  0  0
    2.6490    3.1571    9.4031 H   0  0  0  0  0  0  0  0  0  0  0  0
    1.3327    4.3064    9.0913 H   0  0  0  0  0  0  0  0  0  0  0  0
    4.4537    5.1111    7.8907 H   0  0  0  0  0  0  0  0  0  0  0  0
    4.5932    4.4500    6.3133 H   0  0  0  0  0  0  0  0  0  0  0  0
    4.7450    3.3834    7.7031 H   0  0  0  0  0  0  0  0  0  0  0  0
   -3.1462    1.9842    7.1396 H   0  0  0  0  0  0  0  0  0  0  0  0
   -3.0817    2.8750    5.6541 H   0  0  0  0  0  0  0  0  0  0  0  0
   -3.1034    3.7417    7.0870 H   0  0  0  0  0  0  0  0  0  0  0  0
   -1.6857    2.1931    8.8472 H   0  0  0  0  0  0  0  0  0  0  0  0
   -1.7124    3.9374    8.6292 H   0  0  0  0  0  0  0  0  0  0  0  0
   -0.2578    3.1495    8.8773 H   0  0  0  0  0  0  0  0  0  0  0  0
  1  2  2  0
  1 37  1  0
  1 38  1  0
  2  3  1  0
  2 39  1  0
  3 27  1  0
  3  4  1  6
  3  5  1  0
  4 40  1  0
  4 41  1  0
  4 42  1  0
  5  6  1  0
  5 43  1  0
  5 44  1  0
  6 34  1  0
  6  7  1  6
  6  9  1  0
  7  8  1  0
  8 45  1  0
  8 46  1  0
  8 47  1  0
  9 10  1  0
  9 20  2  3
 10 11  1  0
 11 12  2  0
 11 13  1  0
 13 14  2  3
 13 48  1  0
 14 15  1  0
 14 49  1  0
 15 19  1  0
 15 16  2  0
 16 17  1  0
 16 50  1  0
 17 18  2  0
 17 51  1  0
 18 19  1  0
 18 52  1  0
 20 31  1  0
 20 21  1  0
 21 22  1  0
 21 23  1  0
 21 53  1  1
 22 54  1  0
 22 55  1  0
 22 56  1  0
 23 24  1  0
 23 57  1  0
 23 58  1  0
 24 30  1  0
 24 25  1  0
 24 59  1  1
 25 26  2  0
 25 60  1  0
 26 27  1  0
 26 61  1  0
 27 28  1  0
 27 62  1  1
 28 29  2  0
 28 34  1  0
 29 30  1  0
 29 63  1  0
 30 31  1  0
 30 64  1  1
 31 32  1  0
 31 33  1  0
 32 65  1  0
 32 66  1  0
 32 67  1  0
 33 68  1  0
 33 69  1  0
 33 70  1  0
 34 35  1  0
 34 36  1  0
 35 71  1  0
 35 72  1  0
 35 73  1  0
 36 74  1  0
 36 75  1  0
 36 76  1  0
M  END
>  <i_m_ct_stereo_status>  (204) 
1

>  <s_m_source_file>  (204) 
/var/tmp/pbs.5076255.sched01/tmphf7gnms3/50i7j3xhgh.sdf

>  <i_m_source_file_index>  (204) 
41

>  <i_lp_mmshare_version>  (204) 
48012

>  <i_f3d_flags>  (204) 
0

>  <s_epik_input>  (204) 
W0NIM11PQzEyW0NIMl1bQ0BdKFtDSDNdKShbQ0hdPVtDSDJdKVtDSF0zQyhDMihbQ0gzXSlbQ0gzXSk9W0NIXVtDQEBIXTRbQ0hdKFtDSF09W0NIXTMpW0NIMl1bQ0BIXShbQ0gzXSlcQyhDNChbQ0gzXSlbQ0gzXSk9Q1wxT0MoPU8pL1tDSF09W0NIXS9jNVtjSF1bY0hdW2NIXW81

>  <s_epik_cmdline>  (204) 
J2VwaWtfcHl0aG9uJywgJy1waHQnLCAnMi4wJywgJy1waCcsICc3LjAnLCAnLXRuJywgJzgnLCAnLW1hJywgJzIwMCcsICctaW1hZScsICc8aW5maWxlLm1hZT4nLCAnLW9tYWUnLCAnPG91dGZpbGUubWFlPic=

>  <r_lp_tautomer_probability>  (204) 
1

>  <r_epik_Ionization_Penalty>  (204) 
1.29585e-13

>  <r_epik_Ionization_Penalty_Charging>  (204) 
0

>  <r_epik_Ionization_Penalty_Neutral>  (204) 
1.29585e-13

>  <r_epik_State_Penalty>  (204) 
-0

>  <r_epik_Charging_Adjusted_Penalty>  (204) 
0

>  <i_epik_Tot_Q>  (204) 
0

>  <i_epik_Tot_abs_Q>  (204) 
0

>  <s_lp_Force_Field>  (204) 
OPLS3e

>  <r_lp_Energy>  (204) 
349.564

>  <b_lp_Chiralities_Consistent>  (204) 
1

>  <s_lp_Variant>  (204) 
52:0-11

>  <s_i_glide_gridfile>  (204) 
pfpi4k_grid

>  <i_i_glide_lignum>  (204) 
41

>  <i_i_glide_rotatable_bonds>  (204) 
6

>  <r_i_docking_score>  (204) 
-1.18696

>  <r_i_glide_ligand_efficiency>  (204) 
-0.0329712

>  <r_i_glide_ligand_efficiency_sa>  (204) 
-0.108869

>  <r_i_glide_ligand_efficiency_ln>  (204) 
-0.258963

>  <r_i_glide_gscore>  (204) 
-1.18696

>  <r_i_glide_lipo>  (204) 
-0.17931

>  <r_i_glide_hbond>  (204) 
0

>  <r_i_glide_metal>  (204) 
-0

>  <r_i_glide_rewards>  (204) 
-0.0773345

>  <r_i_glide_evdw>  (204) 
-21.7357

>  <r_i_glide_ecoul>  (204) 
-1.15033

>  <r_i_glide_erotb>  (204) 
0.340689

>  <r_i_glide_esite>  (204) 
-0.0116759

>  <r_i_glide_emodel>  (204) 
-22.8812

>  <r_i_glide_energy>  (204) 
-22.886

>  <r_i_glide_einternal>  (204) 
2.94169

>  <r_i_glide_intrahb_reward>  (204) 
-0

>  <i_i_glide_confnum>  (204) 
2

>  <i_i_glide_posenum>  (204) 
11

>  <r_i_glide_eff_state_penalty>  (204) 
0

>  <ligand_id>  (204) 
52

>  <original_smiles>  (204) 
C=CC1(C)CC2(OC)C(OC(=O)C=Cc3ccco3)=C3C(C)CC4C=CC1C(=CC4C3(C)C)C2(C)C

>  <smiles>  (204) 
[H]C([H])=C([H])C1(C([H])([H])[H])C2([H])C([H])=C([H])C3([H])C([H])([H])C([H])(C([H])([H])[H])C4=C(OC(=O)C([H])=C([H])c5oc([H])c([H])c5[H])C(OC([H])([H])[H])(C1([H])[H])C(C([H])([H])[H])(C([H])([H])[H])C2=C([H])C3([H])C4(C([H])([H])[H])C([H])([H])[H]

$$$$
52:10:2
     RDKit          3D

 76 80  0  0  1  0  0  0  0  0999 V2000
   -2.5387    1.3026    7.2556 C   0  0  0  0  0  0  0  0  0  0  0  0
   -1.4733    1.5414    8.1117 C   0  0  0  0  0  0  0  0  0  0  0  0
   -0.0178    1.1072    7.9153 C   0  0  1  0  0  0  0  0  0  0  0  0
    0.3727    0.4926    9.2963 C   0  0  0  0  0  0  0  0  0  0  0  0
    0.1651    0.1292    6.6680 C   0  0  0  0  0  0  0  0  0  0  0  0
    0.9934    0.5702    5.2737 C   0  0  2  0  0  0  0  0  0  0  0  0
   -0.4108    0.7638    5.1103 O   0  0  0  0  0  0  0  0  0  0  0  0
   -1.0601    0.0011    4.0722 C   0  0  0  0  0  0  0  0  0  0  0  0
    1.1743    1.8286    4.2774 C   0  0  0  0  0  0  0  0  0  0  0  0
    1.9764    1.5385    3.1840 O   0  0  0  0  0  0  0  0  0  0  0  0
    2.0490    0.3328    2.5596 C   0  0  0  0  0  0  0  0  0  0  0  0
    1.4049   -0.6686    2.8557 O   0  0  0  0  0  0  0  0  0  0  0  0
    3.0342    0.3546    1.4767 C   0  0  0  0  0  0  0  0  0  0  0  0
    3.4718   -0.7142    0.7625 C   0  0  0  0  0  0  0  0  0  0  0  0
    3.2261   -2.1394    0.8195 C   0  0  0  0  0  0  0  0  0  0  0  0
    2.5536   -2.9861    1.6762 C   0  0  0  0  0  0  0  0  0  0  0  0
    2.6655   -4.2955    1.1612 C   0  0  0  0  0  0  0  0  0  0  0  0
    3.4318   -4.1945    0.0330 C   0  0  0  0  0  0  0  0  0  0  0  0
    3.7766   -2.8884   -0.1933 O   0  0  0  0  0  0  0  0  0  0  0  0
    0.7836    3.1662    4.3102 C   0  0  0  0  0  0  0  0  0  0  0  0
   -0.5599    3.8539    4.7111 C   0  0  1  0  0  0  0  0  0  0  0  0
   -1.9010    3.1238    4.5925 C   0  0  0  0  0  0  0  0  0  0  0  0
   -0.4744    4.7825    5.9675 C   0  0  0  0  0  0  0  0  0  0  0  0
    0.9417    5.1071    6.5618 C   0  0  1  0  0  0  0  0  0  0  0  0
    0.9332    4.8006    8.0621 C   0  0  0  0  0  0  0  0  0  0  0  0
    0.8638    3.5477    8.5481 C   0  0  0  0  0  0  0  0  0  0  0  0
    0.8591    2.3511    7.6143 C   0  0  1  0  0  0  0  0  0  0  0  0
    2.2136    2.1883    6.9128 C   0  0  0  0  0  0  0  0  0  0  0  0
    2.8709    3.2904    6.4555 C   0  0  0  0  0  0  0  0  0  0  0  0
    2.1790    4.5129    5.7760 C   0  0  1  0  0  0  0  0  0  0  0  0
    1.8778    4.2773    4.2488 C   0  0  0  0  0  0  0  0  0  0  0  0
    3.1881    3.9520    3.4796 C   0  0  0  0  0  0  0  0  0  0  0  0
    1.3962    5.5729    3.5307 C   0  0  0  0  0  0  0  0  0  0  0  0
    2.3517    0.8357    6.1816 C   0  0  0  0  0  0  0  0  0  0  0  0
    2.8694   -0.2596    7.1951 C   0  0  0  0  0  0  0  0  0  0  0  0
    3.6642    0.7699    5.3167 C   0  0  0  0  0  0  0  0  0  0  0  0
   -2.4174    0.7443    6.3448 H   0  0  0  0  0  0  0  0  0  0  0  0
   -3.5071    1.6957    7.4541 H   0  0  0  0  0  0  0  0  0  0  0  0
   -1.7081    2.0697    9.0192 H   0  0  0  0  0  0  0  0  0  0  0  0
    1.4086    0.6889    9.5758 H   0  0  0  0  0  0  0  0  0  0  0  0
    0.1845   -0.5815    9.3315 H   0  0  0  0  0  0  0  0  0  0  0  0
   -0.1991    0.9366   10.1088 H   0  0  0  0  0  0  0  0  0  0  0  0
    0.6170   -0.7995    7.0089 H   0  0  0  0  0  0  0  0  0  0  0  0
   -0.7392   -0.5030    6.6098 H   0  0  0  0  0  0  0  0  0  0  0  0
   -2.1411    0.0650    4.1899 H   0  0  0  0  0  0  0  0  0  0  0  0
   -0.7982   -1.0597    4.1017 H   0  0  0  0  0  0  0  0  0  0  0  0
   -0.8436    0.3937    3.0787 H   0  0  0  0  0  0  0  0  0  0  0  0
    3.4382    1.3224    1.2373 H   0  0  0  0  0  0  0  0  0  0  0  0
    4.1698   -0.4497   -0.0222 H   0  0  0  0  0  0  0  0  0  0  0  0
    2.0207   -2.7480    2.5835 H   0  0  0  0  0  0  0  0  0  0  0  0
    2.2390   -5.1859    1.6044 H   0  0  0  0  0  0  0  0  0  0  0  0
    3.8025   -4.9300   -0.6741 H   0  0  0  0  0  0  0  0  0  0  0  0
   -0.7002    4.5212    3.8678 H   0  0  0  0  0  0  0  0  0  0  0  0
   -1.9747    2.5208    3.6796 H   0  0  0  0  0  0  0  0  0  0  0  0
   -2.7412    3.8332    4.6318 H   0  0  0  0  0  0  0  0  0  0  0  0
   -1.9128    2.5203    5.4633 H   0  0  0  0  0  0  0  0  0  0  0  0
   -0.9633    5.7249    5.7234 H   0  0  0  0  0  0  0  0  0  0  0  0
   -1.1090    4.3812    6.7595 H   0  0  0  0  0  0  0  0  0  0  0  0
    1.0481    6.1917    6.4967 H   0  0  0  0  0  0  0  0  0  0  0  0
    0.9457    5.6489    8.7307 H   0  0  0  0  0  0  0  0  0  0  0  0
    0.8554    3.3717    9.6123 H   0  0  0  0  0  0  0  0  0  0  0  0
    0.2743    2.6763    6.7846 H   0  0  0  0  0  0  0  0  0  0  0  0
    3.2883    3.8187    7.3028 H   0  0  0  0  0  0  0  0  0  0  0  0
    2.9439    5.2834    5.7940 H   0  0  0  0  0  0  0  0  0  0  0  0
    3.7377    4.8568    3.2435 H   0  0  0  0  0  0  0  0  0  0  0  0
    3.0092    3.4816    2.5152 H   0  0  0  0  0  0  0  0  0  0  0  0
    3.8933    3.3711    4.0505 H   0  0  0  0  0  0  0  0  0  0  0  0
    2.1876    6.3037    3.4339 H   0  0  0  0  0  0  0  0  0  0  0  0
    0.6076    6.1144    4.0417 H   0  0  0  0  0  0  0  0  0  0  0  0
    1.0314    5.3488    2.5276 H   0  0  0  0  0  0  0  0  0  0  0  0
    2.9722   -1.2362    6.7181 H   0  0  0  0  0  0  0  0  0  0  0  0
    2.2891   -0.4325    8.0814 H   0  0  0  0  0  0  0  0  0  0  0  0
    3.8392    0.0011    7.6210 H   0  0  0  0  0  0  0  0  0  0  0  0
    3.7993   -0.2165    4.8687 H   0  0  0  0  0  0  0  0  0  0  0  0
    4.5650    0.9852    5.8921 H   0  0  0  0  0  0  0  0  0  0  0  0
    3.7500    1.4547    4.5025 H   0  0  0  0  0  0  0  0  0  0  0  0
  1  2  2  0
  1 37  1  0
  1 38  1  0
  2  3  1  0
  2 39  1  0
  3 27  1  0
  3  4  1  1
  3  5  1  0
  4 40  1  0
  4 41  1  0
  4 42  1  0
  5  6  1  0
  5 43  1  0
  5 44  1  0
  6 34  1  0
  6  7  1  1
  6  9  1  0
  7  8  1  0
  8 45  1  0
  8 46  1  0
  8 47  1  0
  9 10  1  0
  9 20  2  3
 10 11  1  0
 11 12  2  0
 11 13  1  0
 13 14  2  3
 13 48  1  0
 14 15  1  0
 14 49  1  0
 15 19  1  0
 15 16  2  0
 16 17  1  0
 16 50  1  0
 17 18  2  0
 17 51  1  0
 18 19  1  0
 18 52  1  0
 20 31  1  0
 20 21  1  0
 21 22  1  0
 21 23  1  0
 21 53  1  6
 22 54  1  0
 22 55  1  0
 22 56  1  0
 23 24  1  0
 23 57  1  0
 23 58  1  0
 24 30  1  0
 24 25  1  0
 24 59  1  1
 25 26  2  0
 25 60  1  0
 26 27  1  0
 26 61  1  0
 27 28  1  0
 27 62  1  6
 28 29  2  0
 28 34  1  0
 29 30  1  0
 29 63  1  0
 30 31  1  0
 30 64  1  6
 31 32  1  0
 31 33  1  0
 32 65  1  0
 32 66  1  0
 32 67  1  0
 33 68  1  0
 33 69  1  0
 33 70  1  0
 34 35  1  0
 34 36  1  0
 35 71  1  0
 35 72  1  0
 35 73  1  0
 36 74  1  0
 36 75  1  0
 36 76  1  0
M  END
>  <i_m_ct_stereo_status>  (205) 
1

>  <s_m_source_file>  (205) 
/var/tmp/pbs.5076255.sched01/tmphf7gnms3/50i7j3xhgh.sdf

>  <i_m_source_file_index>  (205) 
41

>  <i_lp_mmshare_version>  (205) 
48012

>  <i_f3d_flags>  (205) 
0

>  <s_epik_input>  (205) 
W0NIM11PQzEyW0NIMl1bQ0BdKFtDSDNdKShbQ0hdPVtDSDJdKVtDSF0zQyhDMihbQ0gzXSlbQ0gzXSk9W0NIXVtDQEBIXTRbQ0hdKFtDSF09W0NIXTMpW0NIMl1bQ0BIXShbQ0gzXSlcQyhDNChbQ0gzXSlbQ0gzXSk9Q1wxT0MoPU8pL1tDSF09W0NIXS9jNVtjSF1bY0hdW2NIXW81

>  <s_epik_cmdline>  (205) 
J2VwaWtfcHl0aG9uJywgJy1waHQnLCAnMi4wJywgJy1waCcsICc3LjAnLCAnLXRuJywgJzgnLCAnLW1hJywgJzIwMCcsICctaW1hZScsICc8aW5maWxlLm1hZT4nLCAnLW9tYWUnLCAnPG91dGZpbGUubWFlPic=

>  <r_lp_tautomer_probability>  (205) 
1

>  <r_epik_Ionization_Penalty>  (205) 
1.29585e-13

>  <r_epik_Ionization_Penalty_Charging>  (205) 
0

>  <r_epik_Ionization_Penalty_Neutral>  (205) 
1.29585e-13

>  <r_epik_State_Penalty>  (205) 
-0

>  <r_epik_Charging_Adjusted_Penalty>  (205) 
0

>  <i_epik_Tot_Q>  (205) 
0

>  <i_epik_Tot_abs_Q>  (205) 
0

>  <s_lp_Force_Field>  (205) 
OPLS3e

>  <r_lp_Energy>  (205) 
349.564

>  <b_lp_Chiralities_Consistent>  (205) 
1

>  <s_lp_Variant>  (205) 
52:0-11

>  <s_i_glide_gridfile>  (205) 
pfpi4k_grid

>  <i_i_glide_lignum>  (205) 
41

>  <i_i_glide_rotatable_bonds>  (205) 
6

>  <r_i_docking_score>  (205) 
-1.12702

>  <r_i_glide_ligand_efficiency>  (205) 
-0.031306

>  <r_i_glide_ligand_efficiency_sa>  (205) 
-0.10337

>  <r_i_glide_ligand_efficiency_ln>  (205) 
-0.245885

>  <r_i_glide_gscore>  (205) 
-1.12702

>  <r_i_glide_lipo>  (205) 
-0.0834056

>  <r_i_glide_hbond>  (205) 
0

>  <r_i_glide_metal>  (205) 
-0

>  <r_i_glide_rewards>  (205) 
-0.0773345

>  <r_i_glide_evdw>  (205) 
-23.5079

>  <r_i_glide_ecoul>  (205) 
-0.759309

>  <r_i_glide_erotb>  (205) 
0.340689

>  <r_i_glide_esite>  (205) 
-0.0176758

>  <r_i_glide_emodel>  (205) 
-23.4834

>  <r_i_glide_energy>  (205) 
-24.2672

>  <r_i_glide_einternal>  (205) 
1.88414

>  <r_i_glide_intrahb_reward>  (205) 
-0

>  <i_i_glide_confnum>  (205) 
2

>  <i_i_glide_posenum>  (205) 
23

>  <r_i_glide_eff_state_penalty>  (205) 
0

>  <ligand_id>  (205) 
52

>  <original_smiles>  (205) 
C=CC1(C)CC2(OC)C(OC(=O)C=Cc3ccco3)=C3C(C)CC4C=CC1C(=CC4C3(C)C)C2(C)C

>  <smiles>  (205) 
[H]C([H])=C([H])C1(C([H])([H])[H])C2([H])C([H])=C([H])C3([H])C([H])([H])C([H])(C([H])([H])[H])C4=C(OC(=O)C([H])=C([H])c5oc([H])c([H])c5[H])C(OC([H])([H])[H])(C1([H])[H])C(C([H])([H])[H])(C([H])([H])[H])C2=C([H])C3([H])C4(C([H])([H])[H])C([H])([H])[H]

$$$$
52:11:0
     RDKit          3D

 76 80  0  0  1  0  0  0  0  0999 V2000
    0.5570   -6.2484    0.1267 C   0  0  0  0  0  0  0  0  0  0  0  0
    0.8768   -6.4853    1.4124 C   0  0  0  0  0  0  0  0  0  0  0  0
    2.1242   -6.0238    2.2020 C   0  0  1  0  0  0  0  0  0  0  0  0
    3.1403   -5.4817    1.1609 C   0  0  0  0  0  0  0  0  0  0  0  0
    1.6633   -4.9956    3.3306 C   0  0  0  0  0  0  0  0  0  0  0  0
    2.3154   -5.0736    4.7871 C   0  0  1  0  0  0  0  0  0  0  0  0
    2.4254   -3.7124    5.2517 O   0  0  0  0  0  0  0  0  0  0  0  0
    1.2294   -2.9394    5.3891 C   0  0  0  0  0  0  0  0  0  0  0  0
    1.5733   -5.9219    5.9167 C   0  0  0  0  0  0  0  0  0  0  0  0
    1.8610   -5.3066    7.1170 O   0  0  0  0  0  0  0  0  0  0  0  0
    0.8555   -5.1894    8.0305 C   0  0  0  0  0  0  0  0  0  0  0  0
   -0.2670   -5.5867    7.8567 O   0  0  0  0  0  0  0  0  0  0  0  0
    1.3628   -4.5471    9.2655 C   0  0  0  0  0  0  0  0  0  0  0  0
    0.5869   -4.0984   10.2731 C   0  0  0  0  0  0  0  0  0  0  0  0
   -0.8351   -4.0207   10.5017 C   0  0  0  0  0  0  0  0  0  0  0  0
   -1.9540   -4.2602    9.7543 C   0  0  0  0  0  0  0  0  0  0  0  0
   -3.0785   -4.0566   10.6106 C   0  0  0  0  0  0  0  0  0  0  0  0
   -2.5713   -3.6548   11.8119 C   0  0  0  0  0  0  0  0  0  0  0  0
   -1.2133   -3.6313   11.7613 O   0  0  0  0  0  0  0  0  0  0  0  0
    1.2975   -7.2734    5.9395 C   0  0  0  0  0  0  0  0  0  0  0  0
    0.1037   -7.9376    5.2256 C   0  0  1  0  0  0  0  0  0  0  0  0
   -0.9639   -7.0049    4.6309 C   0  0  0  0  0  0  0  0  0  0  0  0
    0.4977   -9.1484    4.3254 C   0  0  0  0  0  0  0  0  0  0  0  0
    1.9825   -9.6720    4.3978 C   0  0  1  0  0  0  0  0  0  0  0  0
    2.5687   -9.6918    2.9809 C   0  0  0  0  0  0  0  0  0  0  0  0
    2.8984   -8.5719    2.3088 C   0  0  0  0  0  0  0  0  0  0  0  0
    2.7425   -7.2149    2.9662 C   0  0  1  0  0  0  0  0  0  0  0  0
    3.7566   -6.9922    4.1064 C   0  0  0  0  0  0  0  0  0  0  0  0
    4.0292   -8.0414    4.9276 C   0  0  0  0  0  0  0  0  0  0  0  0
    2.9341   -9.0047    5.4811 C   0  0  1  0  0  0  0  0  0  0  0  0
    2.1447   -8.3643    6.6695 C   0  0  0  0  0  0  0  0  0  0  0  0
    3.1265   -7.9028    7.7902 C   0  0  0  0  0  0  0  0  0  0  0  0
    1.2766   -9.4331    7.4093 C   0  0  0  0  0  0  0  0  0  0  0  0
    3.8157   -5.5414    4.6565 C   0  0  0  0  0  0  0  0  0  0  0  0
    4.6628   -4.6338    3.7206 C   0  0  0  0  0  0  0  0  0  0  0  0
    4.6134   -5.4114    5.9944 C   0  0  0  0  0  0  0  0  0  0  0  0
    1.1753   -5.6669   -0.5414 H   0  0  0  0  0  0  0  0  0  0  0  0
   -0.3784   -6.6527   -0.2390 H   0  0  0  0  0  0  0  0  0  0  0  0
    0.1744   -7.1121    1.9418 H   0  0  0  0  0  0  0  0  0  0  0  0
    4.1806   -5.5446    1.4745 H   0  0  0  0  0  0  0  0  0  0  0  0
    2.9189   -4.4477    0.8892 H   0  0  0  0  0  0  0  0  0  0  0  0
    3.1275   -6.0669    0.2414 H   0  0  0  0  0  0  0  0  0  0  0  0
    1.8580   -3.9984    2.9392 H   0  0  0  0  0  0  0  0  0  0  0  0
    0.5858   -4.9768    3.4556 H   0  0  0  0  0  0  0  0  0  0  0  0
    0.8732   -2.5701    4.4263 H   0  0  0  0  0  0  0  0  0  0  0  0
    1.4407   -2.0657    6.0081 H   0  0  0  0  0  0  0  0  0  0  0  0
    0.4056   -3.4735    5.8656 H   0  0  0  0  0  0  0  0  0  0  0  0
    2.4268   -4.4428    9.3648 H   0  0  0  0  0  0  0  0  0  0  0  0
    1.1609   -3.7011   11.0967 H   0  0  0  0  0  0  0  0  0  0  0  0
   -2.0125   -4.5777    8.7338 H   0  0  0  0  0  0  0  0  0  0  0  0
   -4.1098   -4.1944   10.3500 H   0  0  0  0  0  0  0  0  0  0  0  0
   -3.0254   -3.3551   12.7562 H   0  0  0  0  0  0  0  0  0  0  0  0
   -0.4689   -8.3682    6.0360 H   0  0  0  0  0  0  0  0  0  0  0  0
   -1.1869   -6.1695    5.2969 H   0  0  0  0  0  0  0  0  0  0  0  0
   -1.8914   -7.5557    4.4700 H   0  0  0  0  0  0  0  0  0  0  0  0
   -0.6758   -6.6006    3.6708 H   0  0  0  0  0  0  0  0  0  0  0  0
   -0.1769   -9.9774    4.5317 H   0  0  0  0  0  0  0  0  0  0  0  0
    0.2602   -8.9020    3.2908 H   0  0  0  0  0  0  0  0  0  0  0  0
    1.9124  -10.7232    4.6760 H   0  0  0  0  0  0  0  0  0  0  0  0
    2.6965  -10.6616    2.5217 H   0  0  0  0  0  0  0  0  0  0  0  0
    3.3126   -8.6151    1.3149 H   0  0  0  0  0  0  0  0  0  0  0  0
    1.8666   -7.3667    3.5450 H   0  0  0  0  0  0  0  0  0  0  0  0
    4.5932   -8.7842    4.3805 H   0  0  0  0  0  0  0  0  0  0  0  0
    3.5136   -9.8168    5.9152 H   0  0  0  0  0  0  0  0  0  0  0  0
    3.3447   -8.7112    8.4881 H   0  0  0  0  0  0  0  0  0  0  0  0
    2.7354   -7.1094    8.4167 H   0  0  0  0  0  0  0  0  0  0  0  0
    4.1121   -7.6373    7.4314 H   0  0  0  0  0  0  0  0  0  0  0  0
    1.8939  -10.1545    7.9455 H   0  0  0  0  0  0  0  0  0  0  0  0
    0.6682  -10.0542    6.7579 H   0  0  0  0  0  0  0  0  0  0  0  0
    0.6106   -8.9676    8.1378 H   0  0  0  0  0  0  0  0  0  0  0  0
    5.2027   -3.8446    4.2366 H   0  0  0  0  0  0  0  0  0  0  0  0
    4.0739   -4.0766    3.0035 H   0  0  0  0  0  0  0  0  0  0  0  0
    5.4162   -5.2230    3.2020 H   0  0  0  0  0  0  0  0  0  0  0  0
    4.8799   -4.3776    6.2119 H   0  0  0  0  0  0  0  0  0  0  0  0
    5.5373   -5.9829    5.9689 H   0  0  0  0  0  0  0  0  0  0  0  0
    4.0828   -5.6974    6.8811 H   0  0  0  0  0  0  0  0  0  0  0  0
  1  2  2  0
  1 37  1  0
  1 38  1  0
  2  3  1  0
  2 39  1  0
  3 27  1  0
  3  4  1  6
  3  5  1  0
  4 40  1  0
  4 41  1  0
  4 42  1  0
  5  6  1  0
  5 43  1  0
  5 44  1  0
  6 34  1  0
  6  7  1  1
  6  9  1  0
  7  8  1  0
  8 45  1  0
  8 46  1  0
  8 47  1  0
  9 10  1  0
  9 20  2  3
 10 11  1  0
 11 12  2  0
 11 13  1  0
 13 14  2  3
 13 48  1  0
 14 15  1  0
 14 49  1  0
 15 19  1  0
 15 16  2  0
 16 17  1  0
 16 50  1  0
 17 18  2  0
 17 51  1  0
 18 19  1  0
 18 52  1  0
 20 31  1  0
 20 21  1  0
 21 22  1  0
 21 23  1  0
 21 53  1  1
 22 54  1  0
 22 55  1  0
 22 56  1  0
 23 24  1  0
 23 57  1  0
 23 58  1  0
 24 30  1  0
 24 25  1  0
 24 59  1  1
 25 26  2  0
 25 60  1  0
 26 27  1  0
 26 61  1  0
 27 28  1  0
 27 62  1  1
 28 29  2  0
 28 34  1  0
 29 30  1  0
 29 63  1  0
 30 31  1  0
 30 64  1  1
 31 32  1  0
 31 33  1  0
 32 65  1  0
 32 66  1  0
 32 67  1  0
 33 68  1  0
 33 69  1  0
 33 70  1  0
 34 35  1  0
 34 36  1  0
 35 71  1  0
 35 72  1  0
 35 73  1  0
 36 74  1  0
 36 75  1  0
 36 76  1  0
M  END
>  <i_m_ct_stereo_status>  (206) 
1

>  <s_m_source_file>  (206) 
/var/tmp/pbs.5076255.sched01/tmphf7gnms3/50i7j3xhgh.sdf

>  <i_m_source_file_index>  (206) 
42

>  <i_lp_mmshare_version>  (206) 
48012

>  <i_f3d_flags>  (206) 
0

>  <s_epik_input>  (206) 
W0NIM11PQzEyW0NIMl1bQ0BdKFtDSDNdKShbQ0hdPVtDSDJdKVtDSF0zQyhDMihbQ0gzXSlbQ0gzXSk9W0NIXVtDQEBIXTRbQ0hdKFtDSF09W0NIXTMpW0NIMl1bQ0BIXShbQ0gzXSlcQyhDNChbQ0gzXSlbQ0gzXSk9Q1wxT0MoPU8pL1tDSF09W0NIXS9jNVtjSF1bY0hdW2NIXW81

>  <s_epik_cmdline>  (206) 
J2VwaWtfcHl0aG9uJywgJy1waHQnLCAnMi4wJywgJy1waCcsICc3LjAnLCAnLXRuJywgJzgnLCAnLW1hJywgJzIwMCcsICctaW1hZScsICc8aW5maWxlLm1hZT4nLCAnLW9tYWUnLCAnPG91dGZpbGUubWFlPic=

>  <r_lp_tautomer_probability>  (206) 
1

>  <r_epik_Ionization_Penalty>  (206) 
1.29585e-13

>  <r_epik_Ionization_Penalty_Charging>  (206) 
0

>  <r_epik_Ionization_Penalty_Neutral>  (206) 
1.29585e-13

>  <r_epik_State_Penalty>  (206) 
-0

>  <r_epik_Charging_Adjusted_Penalty>  (206) 
0

>  <i_epik_Tot_Q>  (206) 
0

>  <i_epik_Tot_abs_Q>  (206) 
0

>  <s_lp_Force_Field>  (206) 
OPLS3e

>  <r_lp_Energy>  (206) 
224.031

>  <b_lp_Chiralities_Consistent>  (206) 
1

>  <s_lp_Variant>  (206) 
52:0-12

>  <s_i_glide_gridfile>  (206) 
pfpi4k_grid

>  <i_i_glide_lignum>  (206) 
42

>  <i_i_glide_rotatable_bonds>  (206) 
6

>  <r_i_docking_score>  (206) 
-1.23794

>  <r_i_glide_ligand_efficiency>  (206) 
-0.0343873

>  <r_i_glide_ligand_efficiency_sa>  (206) 
-0.113544

>  <r_i_glide_ligand_efficiency_ln>  (206) 
-0.270086

>  <r_i_glide_gscore>  (206) 
-1.23794

>  <r_i_glide_lipo>  (206) 
-0.00334035

>  <r_i_glide_hbond>  (206) 
0

>  <r_i_glide_metal>  (206) 
-0

>  <r_i_glide_rewards>  (206) 
-0.0773345

>  <r_i_glide_evdw>  (206) 
-22.5332

>  <r_i_glide_ecoul>  (206) 
-2.46958

>  <r_i_glide_erotb>  (206) 
0.340689

>  <r_i_glide_esite>  (206) 
-0.000861307

>  <r_i_glide_emodel>  (206) 
-25.1916

>  <r_i_glide_energy>  (206) 
-25.0028

>  <r_i_glide_einternal>  (206) 
2.34674

>  <r_i_glide_intrahb_reward>  (206) 
-0

>  <i_i_glide_confnum>  (206) 
2

>  <i_i_glide_posenum>  (206) 
1

>  <r_i_glide_eff_state_penalty>  (206) 
0

>  <ligand_id>  (206) 
52

>  <original_smiles>  (206) 
C=CC1(C)CC2(OC)C(OC(=O)C=Cc3ccco3)=C3C(C)CC4C=CC1C(=CC4C3(C)C)C2(C)C

>  <smiles>  (206) 
[H]C([H])=C([H])C1(C([H])([H])[H])C2([H])C([H])=C([H])C3([H])C([H])([H])C([H])(C([H])([H])[H])C4=C(OC(=O)C([H])=C([H])c5oc([H])c([H])c5[H])C(OC([H])([H])[H])(C1([H])[H])C(C([H])([H])[H])(C([H])([H])[H])C2=C([H])C3([H])C4(C([H])([H])[H])C([H])([H])[H]

$$$$
52:11:1
     RDKit          3D

 76 80  0  0  1  0  0  0  0  0999 V2000
    1.5875   -8.4215    1.5578 C   0  0  0  0  0  0  0  0  0  0  0  0
    2.8004   -8.2819    2.1311 C   0  0  0  0  0  0  0  0  0  0  0  0
    3.9234   -7.3138    1.7183 C   0  0  1  0  0  0  0  0  0  0  0  0
    4.8825   -8.2209    0.9006 C   0  0  0  0  0  0  0  0  0  0  0  0
    3.3242   -6.0459    0.9583 C   0  0  0  0  0  0  0  0  0  0  0  0
    3.9051   -4.6128    1.2701 C   0  0  1  0  0  0  0  0  0  0  0  0
    3.8322   -3.8876    0.0263 O   0  0  0  0  0  0  0  0  0  0  0  0
    2.5364   -3.6149   -0.5309 C   0  0  0  0  0  0  0  0  0  0  0  0
    3.2000   -3.7374    2.3997 C   0  0  0  0  0  0  0  0  0  0  0  0
    3.3162   -2.4264    2.0056 O   0  0  0  0  0  0  0  0  0  0  0  0
    2.3349   -1.5529    2.3413 C   0  0  0  0  0  0  0  0  0  0  0  0
    1.3282   -1.9078    2.9341 O   0  0  0  0  0  0  0  0  0  0  0  0
    2.6901   -0.1705    1.9278 C   0  0  0  0  0  0  0  0  0  0  0  0
    2.0072    0.9713    2.1595 C   0  0  0  0  0  0  0  0  0  0  0  0
    0.7670    1.2964    2.8223 C   0  0  0  0  0  0  0  0  0  0  0  0
    0.1375    2.4617    3.1138 C   0  0  0  0  0  0  0  0  0  0  0  0
   -1.0603    2.1261    3.8219 C   0  0  0  0  0  0  0  0  0  0  0  0
   -1.0440    0.7706    3.9302 C   0  0  0  0  0  0  0  0  0  0  0  0
    0.0496    0.2612    3.3173 O   0  0  0  0  0  0  0  0  0  0  0  0
    3.0895   -4.0074    3.7495 C   0  0  0  0  0  0  0  0  0  0  0  0
    2.0238   -4.9196    4.3876 C   0  0  1  0  0  0  0  0  0  0  0  0
    0.9171   -5.4442    3.4775 C   0  0  0  0  0  0  0  0  0  0  0  0
    2.5899   -5.9927    5.3552 C   0  0  0  0  0  0  0  0  0  0  0  0
    4.1138   -5.8937    5.7222 C   0  0  1  0  0  0  0  0  0  0  0  0
    4.7805   -7.2330    5.4023 C   0  0  0  0  0  0  0  0  0  0  0  0
    5.0157   -7.6517    4.1410 C   0  0  0  0  0  0  0  0  0  0  0  0
    4.6598   -6.7642    2.9633 C   0  0  1  0  0  0  0  0  0  0  0  0
    5.5765   -5.5311    2.8662 C   0  0  0  0  0  0  0  0  0  0  0  0
    5.9161   -4.9102    4.0231 C   0  0  0  0  0  0  0  0  0  0  0  0
    4.9168   -4.6337    5.1857 C   0  0  1  0  0  0  0  0  0  0  0  0
    3.9978   -3.4157    4.8689 C   0  0  0  0  0  0  0  0  0  0  0  0
    4.8627   -2.1598    4.5559 C   0  0  0  0  0  0  0  0  0  0  0  0
    3.2097   -2.9557    6.1347 C   0  0  0  0  0  0  0  0  0  0  0  0
    5.4339   -4.7289    1.5488 C   0  0  0  0  0  0  0  0  0  0  0  0
    6.2230   -5.4208    0.4130 C   0  0  0  0  0  0  0  0  0  0  0  0
    6.1166   -3.3329    1.5597 C   0  0  0  0  0  0  0  0  0  0  0  0
    1.2748   -7.8413    0.7068 H   0  0  0  0  0  0  0  0  0  0  0  0
    0.8743   -9.1347    1.9473 H   0  0  0  0  0  0  0  0  0  0  0  0
    3.0215   -8.9211    2.9705 H   0  0  0  0  0  0  0  0  0  0  0  0
    5.9257   -7.9197    0.9615 H   0  0  0  0  0  0  0  0  0  0  0  0
    4.5931   -8.2710   -0.1512 H   0  0  0  0  0  0  0  0  0  0  0  0
    4.8818   -9.2476    1.2756 H   0  0  0  0  0  0  0  0  0  0  0  0
    3.4197   -6.2334   -0.1121 H   0  0  0  0  0  0  0  0  0  0  0  0
    2.2576   -5.9200    1.1038 H   0  0  0  0  0  0  0  0  0  0  0  0
    2.0776   -4.4962   -0.9870 H   0  0  0  0  0  0  0  0  0  0  0  0
    2.6464   -2.8574   -1.3076 H   0  0  0  0  0  0  0  0  0  0  0  0
    1.8147   -3.2106    0.1791 H   0  0  0  0  0  0  0  0  0  0  0  0
    3.6110   -0.0659    1.3832 H   0  0  0  0  0  0  0  0  0  0  0  0
    2.4936    1.8424    1.7700 H   0  0  0  0  0  0  0  0  0  0  0  0
    0.4887    3.4440    2.8534 H   0  0  0  0  0  0  0  0  0  0  0  0
   -1.8375    2.7478    4.2143 H   0  0  0  0  0  0  0  0  0  0  0  0
   -1.6854    0.0107    4.3606 H   0  0  0  0  0  0  0  0  0  0  0  0
    1.4371   -4.2411    4.9969 H   0  0  0  0  0  0  0  0  0  0  0  0
    0.6195   -4.6698    2.7766 H   0  0  0  0  0  0  0  0  0  0  0  0
    0.0409   -5.7499    4.0567 H   0  0  0  0  0  0  0  0  0  0  0  0
    1.2365   -6.3118    2.9235 H   0  0  0  0  0  0  0  0  0  0  0  0
    1.9951   -5.9901    6.2707 H   0  0  0  0  0  0  0  0  0  0  0  0
    2.3856   -6.9793    4.9273 H   0  0  0  0  0  0  0  0  0  0  0  0
    4.1532   -5.8351    6.8087 H   0  0  0  0  0  0  0  0  0  0  0  0
    5.0426   -7.8450    6.2525 H   0  0  0  0  0  0  0  0  0  0  0  0
    5.4988   -8.5996    3.9489 H   0  0  0  0  0  0  0  0  0  0  0  0
    3.7715   -6.3147    3.3206 H   0  0  0  0  0  0  0  0  0  0  0  0
    6.6022   -5.5279    4.5822 H   0  0  0  0  0  0  0  0  0  0  0  0
    5.5669   -4.3137    5.9974 H   0  0  0  0  0  0  0  0  0  0  0  0
    5.1401   -1.6184    5.4622 H   0  0  0  0  0  0  0  0  0  0  0  0
    4.3784   -1.4082    3.9512 H   0  0  0  0  0  0  0  0  0  0  0  0
    5.8181   -2.3971    4.1071 H   0  0  0  0  0  0  0  0  0  0  0  0
    3.8657   -2.5111    6.8866 H   0  0  0  0  0  0  0  0  0  0  0  0
    2.7097   -3.7567    6.6755 H   0  0  0  0  0  0  0  0  0  0  0  0
    2.4553   -2.2068    5.8777 H   0  0  0  0  0  0  0  0  0  0  0  0
    6.6414   -4.7154   -0.2994 H   0  0  0  0  0  0  0  0  0  0  0  0
    5.6199   -6.0660   -0.2097 H   0  0  0  0  0  0  0  0  0  0  0  0
    7.0675   -5.9812    0.8132 H   0  0  0  0  0  0  0  0  0  0  0  0
    6.1953   -2.9004    0.5591 H   0  0  0  0  0  0  0  0  0  0  0  0
    7.1349   -3.4160    1.9201 H   0  0  0  0  0  0  0  0  0  0  0  0
    5.6009   -2.5634    2.1069 H   0  0  0  0  0  0  0  0  0  0  0  0
  1  2  2  0
  1 37  1  0
  1 38  1  0
  2  3  1  0
  2 39  1  0
  3 27  1  0
  3  4  1  6
  3  5  1  0
  4 40  1  0
  4 41  1  0
  4 42  1  0
  5  6  1  0
  5 43  1  0
  5 44  1  0
  6 34  1  0
  6  7  1  6
  6  9  1  0
  7  8  1  0
  8 45  1  0
  8 46  1  0
  8 47  1  0
  9 10  1  0
  9 20  2  3
 10 11  1  0
 11 12  2  0
 11 13  1  0
 13 14  2  3
 13 48  1  0
 14 15  1  0
 14 49  1  0
 15 19  1  0
 15 16  2  0
 16 17  1  0
 16 50  1  0
 17 18  2  0
 17 51  1  0
 18 19  1  0
 18 52  1  0
 20 31  1  0
 20 21  1  0
 21 22  1  0
 21 23  1  0
 21 53  1  1
 22 54  1  0
 22 55  1  0
 22 56  1  0
 23 24  1  0
 23 57  1  0
 23 58  1  0
 24 30  1  0
 24 25  1  0
 24 59  1  1
 25 26  2  0
 25 60  1  0
 26 27  1  0
 26 61  1  0
 27 28  1  0
 27 62  1  1
 28 29  2  0
 28 34  1  0
 29 30  1  0
 29 63  1  0
 30 31  1  0
 30 64  1  1
 31 32  1  0
 31 33  1  0
 32 65  1  0
 32 66  1  0
 32 67  1  0
 33 68  1  0
 33 69  1  0
 33 70  1  0
 34 35  1  0
 34 36  1  0
 35 71  1  0
 35 72  1  0
 35 73  1  0
 36 74  1  0
 36 75  1  0
 36 76  1  0
M  END
>  <i_m_ct_stereo_status>  (207) 
1

>  <s_m_source_file>  (207) 
/var/tmp/pbs.5076255.sched01/tmphf7gnms3/50i7j3xhgh.sdf

>  <i_m_source_file_index>  (207) 
42

>  <i_lp_mmshare_version>  (207) 
48012

>  <i_f3d_flags>  (207) 
0

>  <s_epik_input>  (207) 
W0NIM11PQzEyW0NIMl1bQ0BdKFtDSDNdKShbQ0hdPVtDSDJdKVtDSF0zQyhDMihbQ0gzXSlbQ0gzXSk9W0NIXVtDQEBIXTRbQ0hdKFtDSF09W0NIXTMpW0NIMl1bQ0BIXShbQ0gzXSlcQyhDNChbQ0gzXSlbQ0gzXSk9Q1wxT0MoPU8pL1tDSF09W0NIXS9jNVtjSF1bY0hdW2NIXW81

>  <s_epik_cmdline>  (207) 
J2VwaWtfcHl0aG9uJywgJy1waHQnLCAnMi4wJywgJy1waCcsICc3LjAnLCAnLXRuJywgJzgnLCAnLW1hJywgJzIwMCcsICctaW1hZScsICc8aW5maWxlLm1hZT4nLCAnLW9tYWUnLCAnPG91dGZpbGUubWFlPic=

>  <r_lp_tautomer_probability>  (207) 
1

>  <r_epik_Ionization_Penalty>  (207) 
1.29585e-13

>  <r_epik_Ionization_Penalty_Charging>  (207) 
0

>  <r_epik_Ionization_Penalty_Neutral>  (207) 
1.29585e-13

>  <r_epik_State_Penalty>  (207) 
-0

>  <r_epik_Charging_Adjusted_Penalty>  (207) 
0

>  <i_epik_Tot_Q>  (207) 
0

>  <i_epik_Tot_abs_Q>  (207) 
0

>  <s_lp_Force_Field>  (207) 
OPLS3e

>  <r_lp_Energy>  (207) 
224.031

>  <b_lp_Chiralities_Consistent>  (207) 
1

>  <s_lp_Variant>  (207) 
52:0-12

>  <s_i_glide_gridfile>  (207) 
pfpi4k_grid

>  <i_i_glide_lignum>  (207) 
42

>  <i_i_glide_rotatable_bonds>  (207) 
6

>  <r_i_docking_score>  (207) 
-1.15662

>  <r_i_glide_ligand_efficiency>  (207) 
-0.0321282

>  <r_i_glide_ligand_efficiency_sa>  (207) 
-0.106085

>  <r_i_glide_ligand_efficiency_ln>  (207) 
-0.252342

>  <r_i_glide_gscore>  (207) 
-1.15662

>  <r_i_glide_lipo>  (207) 
-0.384849

>  <r_i_glide_hbond>  (207) 
0

>  <r_i_glide_metal>  (207) 
-0

>  <r_i_glide_rewards>  (207) 
-0.0773345

>  <r_i_glide_evdw>  (207) 
-23.3073

>  <r_i_glide_ecoul>  (207) 
0.999255

>  <r_i_glide_erotb>  (207) 
0.340689

>  <r_i_glide_esite>  (207) 
-0.0196444

>  <r_i_glide_emodel>  (207) 
-22.605

>  <r_i_glide_energy>  (207) 
-22.3081

>  <r_i_glide_einternal>  (207) 
1.74874

>  <r_i_glide_intrahb_reward>  (207) 
-0

>  <i_i_glide_confnum>  (207) 
1

>  <i_i_glide_posenum>  (207) 
2

>  <r_i_glide_eff_state_penalty>  (207) 
0

>  <ligand_id>  (207) 
52

>  <original_smiles>  (207) 
C=CC1(C)CC2(OC)C(OC(=O)C=Cc3ccco3)=C3C(C)CC4C=CC1C(=CC4C3(C)C)C2(C)C

>  <smiles>  (207) 
[H]C([H])=C([H])C1(C([H])([H])[H])C2([H])C([H])=C([H])C3([H])C([H])([H])C([H])(C([H])([H])[H])C4=C(OC(=O)C([H])=C([H])c5oc([H])c([H])c5[H])C(OC([H])([H])[H])(C1([H])[H])C(C([H])([H])[H])(C([H])([H])[H])C2=C([H])C3([H])C4(C([H])([H])[H])C([H])([H])[H]

$$$$
52:11:2
     RDKit          3D

 76 80  0  0  1  0  0  0  0  0999 V2000
   -0.2684   -6.8157    3.9120 C   0  0  0  0  0  0  0  0  0  0  0  0
    0.3507   -5.7625    4.4844 C   0  0  0  0  0  0  0  0  0  0  0  0
    1.8223   -5.3020    4.3291 C   0  0  1  0  0  0  0  0  0  0  0  0
    2.6628   -6.5312    3.9001 C   0  0  0  0  0  0  0  0  0  0  0  0
    1.8580   -4.0609    3.3289 C   0  0  0  0  0  0  0  0  0  0  0  0
    2.8198   -2.8269    3.6501 C   0  0  1  0  0  0  0  0  0  0  0  0
    3.3068   -2.3688    2.3669 O   0  0  0  0  0  0  0  0  0  0  0  0
    2.3465   -1.8559    1.4402 C   0  0  0  0  0  0  0  0  0  0  0  0
    2.2051   -1.5709    4.4355 C   0  0  0  0  0  0  0  0  0  0  0  0
    2.8091   -0.4537    3.9316 O   0  0  0  0  0  0  0  0  0  0  0  0
    2.1505    0.7432    3.9154 C   0  0  0  0  0  0  0  0  0  0  0  0
    1.0407    0.9434    4.3713 O   0  0  0  0  0  0  0  0  0  0  0  0
    2.8995    1.7468    3.1578 C   0  0  0  0  0  0  0  0  0  0  0  0
    2.6063    3.0592    3.1312 C   0  0  0  0  0  0  0  0  0  0  0  0
    1.6082    3.8982    3.7484 C   0  0  0  0  0  0  0  0  0  0  0  0
    0.5888    3.7164    4.6356 C   0  0  0  0  0  0  0  0  0  0  0  0
   -0.0258    5.0006    4.8215 C   0  0  0  0  0  0  0  0  0  0  0  0
    0.6701    5.8861    4.0434 C   0  0  0  0  0  0  0  0  0  0  0  0
    1.6552    5.2120    3.3963 O   0  0  0  0  0  0  0  0  0  0  0  0
    1.7079   -1.5373    5.7240 C   0  0  0  0  0  0  0  0  0  0  0  0
    0.2764   -1.9496    6.0914 C   0  0  1  0  0  0  0  0  0  0  0  0
   -0.6952   -2.2175    4.9352 C   0  0  0  0  0  0  0  0  0  0  0  0
    0.1780   -2.9491    7.2810 C   0  0  0  0  0  0  0  0  0  0  0  0
    1.5049   -3.2718    8.0629 C   0  0  1  0  0  0  0  0  0  0  0  0
    1.7115   -4.7855    8.0601 C   0  0  0  0  0  0  0  0  0  0  0  0
    2.0840   -5.4794    6.9659 C   0  0  0  0  0  0  0  0  0  0  0  0
    2.3597   -4.7558    5.6696 C   0  0  1  0  0  0  0  0  0  0  0  0
    3.6515   -3.9151    5.7425 C   0  0  0  0  0  0  0  0  0  0  0  0
    3.8989   -3.2190    6.8881 C   0  0  0  0  0  0  0  0  0  0  0  0
    2.8013   -2.4388    7.6775 C   0  0  1  0  0  0  0  0  0  0  0  0
    2.4720   -1.0699    7.0064 C   0  0  0  0  0  0  0  0  0  0  0  0
    3.7692   -0.2170    6.8573 C   0  0  0  0  0  0  0  0  0  0  0  0
    1.6028   -0.1745    7.9501 C   0  0  0  0  0  0  0  0  0  0  0  0
    4.1167   -3.3437    4.3785 C   0  0  0  0  0  0  0  0  0  0  0  0
    4.8851   -4.4060    3.5558 C   0  0  0  0  0  0  0  0  0  0  0  0
    5.1965   -2.2303    4.5075 C   0  0  0  0  0  0  0  0  0  0  0  0
    0.2293   -7.4819    3.2213 H   0  0  0  0  0  0  0  0  0  0  0  0
   -1.3121   -7.0138    4.1401 H   0  0  0  0  0  0  0  0  0  0  0  0
   -0.2585   -5.1677    5.1572 H   0  0  0  0  0  0  0  0  0  0  0  0
    3.7120   -6.4850    4.1912 H   0  0  0  0  0  0  0  0  0  0  0  0
    2.6027   -6.6985    2.8220 H   0  0  0  0  0  0  0  0  0  0  0  0
    2.3208   -7.4353    4.4037 H   0  0  0  0  0  0  0  0  0  0  0  0
    2.1537   -4.4396    2.3536 H   0  0  0  0  0  0  0  0  0  0  0  0
    0.8616   -3.6754    3.1299 H   0  0  0  0  0  0  0  0  0  0  0  0
    1.8212   -2.6660    0.9372 H   0  0  0  0  0  0  0  0  0  0  0  0
    2.8816   -1.2899    0.6796 H   0  0  0  0  0  0  0  0  0  0  0  0
    1.5975   -1.1791    1.8603 H   0  0  0  0  0  0  0  0  0  0  0  0
    3.7327    1.3899    2.5813 H   0  0  0  0  0  0  0  0  0  0  0  0
    3.2738    3.6169    2.5178 H   0  0  0  0  0  0  0  0  0  0  0  0
    0.3051    2.7853    5.1131 H   0  0  0  0  0  0  0  0  0  0  0  0
   -0.8574    5.2367    5.4513 H   0  0  0  0  0  0  0  0  0  0  0  0
    0.6171    6.9554    3.8363 H   0  0  0  0  0  0  0  0  0  0  0  0
   -0.1385   -1.0267    6.4567 H   0  0  0  0  0  0  0  0  0  0  0  0
   -0.5884   -1.4760    4.1397 H   0  0  0  0  0  0  0  0  0  0  0  0
   -1.7218   -2.1668    5.2963 H   0  0  0  0  0  0  0  0  0  0  0  0
   -0.5486   -3.1991    4.5118 H   0  0  0  0  0  0  0  0  0  0  0  0
   -0.5535   -2.5794    7.9920 H   0  0  0  0  0  0  0  0  0  0  0  0
   -0.2679   -3.8818    6.9314 H   0  0  0  0  0  0  0  0  0  0  0  0
    1.2905   -3.0537    9.1115 H   0  0  0  0  0  0  0  0  0  0  0  0
    1.5421   -5.2719    9.0053 H   0  0  0  0  0  0  0  0  0  0  0  0
    2.2518   -6.5419    6.9959 H   0  0  0  0  0  0  0  0  0  0  0  0
    1.6291   -3.9894    5.7050 H   0  0  0  0  0  0  0  0  0  0  0  0
    4.1616   -3.8980    7.6865 H   0  0  0  0  0  0  0  0  0  0  0  0
    3.2973   -2.1963    8.6154 H   0  0  0  0  0  0  0  0  0  0  0  0
    3.9609    0.3523    7.7742 H   0  0  0  0  0  0  0  0  0  0  0  0
    3.7096    0.5301    6.0697 H   0  0  0  0  0  0  0  0  0  0  0  0
    4.6660   -0.8208    6.7465 H   0  0  0  0  0  0  0  0  0  0  0  0
    2.1689    0.1696    8.8172 H   0  0  0  0  0  0  0  0  0  0  0  0
    0.7380   -0.6690    8.3908 H   0  0  0  0  0  0  0  0  0  0  0  0
    1.2461    0.7138    7.4228 H   0  0  0  0  0  0  0  0  0  0  0  0
    5.6663   -3.9904    2.9278 H   0  0  0  0  0  0  0  0  0  0  0  0
    4.2588   -4.9285    2.8442 H   0  0  0  0  0  0  0  0  0  0  0  0
    5.3650   -5.1028    4.2354 H   0  0  0  0  0  0  0  0  0  0  0  0
    5.7093   -2.0567    3.5616 H   0  0  0  0  0  0  0  0  0  0  0  0
    5.9379   -2.5222    5.2450 H   0  0  0  0  0  0  0  0  0  0  0  0
    4.8323   -1.2473    4.7578 H   0  0  0  0  0  0  0  0  0  0  0  0
  1  2  2  0
  1 37  1  0
  1 38  1  0
  2  3  1  0
  2 39  1  0
  3 27  1  0
  3  4  1  6
  3  5  1  0
  4 40  1  0
  4 41  1  0
  4 42  1  0
  5  6  1  0
  5 43  1  0
  5 44  1  0
  6 34  1  0
  6  7  1  6
  6  9  1  0
  7  8  1  0
  8 45  1  0
  8 46  1  0
  8 47  1  0
  9 10  1  0
  9 20  2  3
 10 11  1  0
 11 12  2  0
 11 13  1  0
 13 14  2  3
 13 48  1  0
 14 15  1  0
 14 49  1  0
 15 19  1  0
 15 16  2  0
 16 17  1  0
 16 50  1  0
 17 18  2  0
 17 51  1  0
 18 19  1  0
 18 52  1  0
 20 31  1  0
 20 21  1  0
 21 22  1  0
 21 23  1  0
 21 53  1  1
 22 54  1  0
 22 55  1  0
 22 56  1  0
 23 24  1  0
 23 57  1  0
 23 58  1  0
 24 30  1  0
 24 25  1  0
 24 59  1  1
 25 26  2  0
 25 60  1  0
 26 27  1  0
 26 61  1  0
 27 28  1  0
 27 62  1  1
 28 29  2  0
 28 34  1  0
 29 30  1  0
 29 63  1  0
 30 31  1  0
 30 64  1  1
 31 32  1  0
 31 33  1  0
 32 65  1  0
 32 66  1  0
 32 67  1  0
 33 68  1  0
 33 69  1  0
 33 70  1  0
 34 35  1  0
 34 36  1  0
 35 71  1  0
 35 72  1  0
 35 73  1  0
 36 74  1  0
 36 75  1  0
 36 76  1  0
M  END
>  <i_m_ct_stereo_status>  (208) 
1

>  <s_m_source_file>  (208) 
/var/tmp/pbs.5076255.sched01/tmphf7gnms3/50i7j3xhgh.sdf

>  <i_m_source_file_index>  (208) 
42

>  <i_lp_mmshare_version>  (208) 
48012

>  <i_f3d_flags>  (208) 
0

>  <s_epik_input>  (208) 
W0NIM11PQzEyW0NIMl1bQ0BdKFtDSDNdKShbQ0hdPVtDSDJdKVtDSF0zQyhDMihbQ0gzXSlbQ0gzXSk9W0NIXVtDQEBIXTRbQ0hdKFtDSF09W0NIXTMpW0NIMl1bQ0BIXShbQ0gzXSlcQyhDNChbQ0gzXSlbQ0gzXSk9Q1wxT0MoPU8pL1tDSF09W0NIXS9jNVtjSF1bY0hdW2NIXW81

>  <s_epik_cmdline>  (208) 
J2VwaWtfcHl0aG9uJywgJy1waHQnLCAnMi4wJywgJy1waCcsICc3LjAnLCAnLXRuJywgJzgnLCAnLW1hJywgJzIwMCcsICctaW1hZScsICc8aW5maWxlLm1hZT4nLCAnLW9tYWUnLCAnPG91dGZpbGUubWFlPic=

>  <r_lp_tautomer_probability>  (208) 
1

>  <r_epik_Ionization_Penalty>  (208) 
1.29585e-13

>  <r_epik_Ionization_Penalty_Charging>  (208) 
0

>  <r_epik_Ionization_Penalty_Neutral>  (208) 
1.29585e-13

>  <r_epik_State_Penalty>  (208) 
-0

>  <r_epik_Charging_Adjusted_Penalty>  (208) 
0

>  <i_epik_Tot_Q>  (208) 
0

>  <i_epik_Tot_abs_Q>  (208) 
0

>  <s_lp_Force_Field>  (208) 
OPLS3e

>  <r_lp_Energy>  (208) 
224.031

>  <b_lp_Chiralities_Consistent>  (208) 
1

>  <s_lp_Variant>  (208) 
52:0-12

>  <s_i_glide_gridfile>  (208) 
pfpi4k_grid

>  <i_i_glide_lignum>  (208) 
42

>  <i_i_glide_rotatable_bonds>  (208) 
6

>  <r_i_docking_score>  (208) 
-0.894567

>  <r_i_glide_ligand_efficiency>  (208) 
-0.0248491

>  <r_i_glide_ligand_efficiency_sa>  (208) 
-0.0820499

>  <r_i_glide_ligand_efficiency_ln>  (208) 
-0.19517

>  <r_i_glide_gscore>  (208) 
-0.894567

>  <r_i_glide_lipo>  (208) 
-0.0492621

>  <r_i_glide_hbond>  (208) 
0

>  <r_i_glide_metal>  (208) 
-0

>  <r_i_glide_rewards>  (208) 
-0.0773345

>  <r_i_glide_evdw>  (208) 
-18.3904

>  <r_i_glide_ecoul>  (208) 
-1.246

>  <r_i_glide_erotb>  (208) 
0.340689

>  <r_i_glide_esite>  (208) 
-0.00223915

>  <r_i_glide_emodel>  (208) 
-19.4239

>  <r_i_glide_energy>  (208) 
-19.6364

>  <r_i_glide_einternal>  (208) 
1.52299

>  <r_i_glide_intrahb_reward>  (208) 
-0

>  <i_i_glide_confnum>  (208) 
2

>  <i_i_glide_posenum>  (208) 
11

>  <r_i_glide_eff_state_penalty>  (208) 
0

>  <ligand_id>  (208) 
52

>  <original_smiles>  (208) 
C=CC1(C)CC2(OC)C(OC(=O)C=Cc3ccco3)=C3C(C)CC4C=CC1C(=CC4C3(C)C)C2(C)C

>  <smiles>  (208) 
[H]C([H])=C([H])C1(C([H])([H])[H])C2([H])C([H])=C([H])C3([H])C([H])([H])C([H])(C([H])([H])[H])C4=C(OC(=O)C([H])=C([H])c5oc([H])c([H])c5[H])C(OC([H])([H])[H])(C1([H])[H])C(C([H])([H])[H])(C([H])([H])[H])C2=C([H])C3([H])C4(C([H])([H])[H])C([H])([H])[H]

$$$$
52:13:0
     RDKit          3D

 76 80  0  0  1  0  0  0  0  0999 V2000
   -0.9262   -7.9074    1.9770 C   0  0  0  0  0  0  0  0  0  0  0  0
    0.3573   -8.0152    2.3852 C   0  0  0  0  0  0  0  0  0  0  0  0
    1.1579   -9.2511    2.8618 C   0  0  1  0  0  0  0  0  0  0  0  0
    0.2283  -10.4971    2.7386 C   0  0  0  0  0  0  0  0  0  0  0  0
    2.5123   -9.3380    1.9821 C   0  0  0  0  0  0  0  0  0  0  0  0
    3.9270   -9.0717    2.7284 C   0  0  1  0  0  0  0  0  0  0  0  0
    5.0348   -9.3650    1.8121 O   0  0  0  0  0  0  0  0  0  0  0  0
    6.3643   -8.8043    1.9640 C   0  0  0  0  0  0  0  0  0  0  0  0
    3.9142   -7.5115    3.0487 C   0  0  0  0  0  0  0  0  0  0  0  0
    3.5596   -6.9005    1.8441 O   0  0  0  0  0  0  0  0  0  0  0  0
    4.4276   -6.0320    1.2876 C   0  0  0  0  0  0  0  0  0  0  0  0
    5.4584   -5.6542    1.8435 O   0  0  0  0  0  0  0  0  0  0  0  0
    3.8954   -5.4329    0.0338 C   0  0  0  0  0  0  0  0  0  0  0  0
    4.5314   -4.5475   -0.7522 C   0  0  0  0  0  0  0  0  0  0  0  0
    5.8219   -3.8935   -0.7478 C   0  0  0  0  0  0  0  0  0  0  0  0
    6.5280   -3.1682   -1.6788 C   0  0  0  0  0  0  0  0  0  0  0  0
    7.8140   -2.8630   -1.1116 C   0  0  0  0  0  0  0  0  0  0  0  0
    7.7893   -3.4398    0.1347 C   0  0  0  0  0  0  0  0  0  0  0  0
    6.6034   -4.0325    0.3698 O   0  0  0  0  0  0  0  0  0  0  0  0
    3.9694   -6.7480    4.2065 C   0  0  0  0  0  0  0  0  0  0  0  0
    3.0962   -5.4701    4.4012 C   0  0  1  0  0  0  0  0  0  0  0  0
    2.4820   -4.7135    3.2032 C   0  0  0  0  0  0  0  0  0  0  0  0
    1.9410   -5.8038    5.4143 C   0  0  0  0  0  0  0  0  0  0  0  0
    2.0977   -6.9931    6.4393 C   0  0  1  0  0  0  0  0  0  0  0  0
    0.8189   -7.8568    6.4004 C   0  0  0  0  0  0  0  0  0  0  0  0
    0.5724   -8.7786    5.4380 C   0  0  0  0  0  0  0  0  0  0  0  0
    1.5940   -9.0563    4.3488 C   0  0  1  0  0  0  0  0  0  0  0  0
    2.8803   -9.7053    4.9089 C   0  0  0  0  0  0  0  0  0  0  0  0
    3.3430   -9.3015    6.1141 C   0  0  0  0  0  0  0  0  0  0  0  0
    3.4528   -7.8056    6.4341 C   0  0  1  0  0  0  0  0  0  0  0  0
    4.5651   -7.0831    5.6252 C   0  0  0  0  0  0  0  0  0  0  0  0
    5.9478   -7.7772    5.5446 C   0  0  0  0  0  0  0  0  0  0  0  0
    4.9682   -5.8317    6.4884 C   0  0  0  0  0  0  0  0  0  0  0  0
    3.9020  -10.1869    3.8611 C   0  0  0  0  0  0  0  0  0  0  0  0
    3.4138  -11.6193    3.4311 C   0  0  0  0  0  0  0  0  0  0  0  0
    5.2830  -10.6328    4.4349 C   0  0  0  0  0  0  0  0  0  0  0  0
   -1.6014   -8.7470    1.8993 H   0  0  0  0  0  0  0  0  0  0  0  0
   -1.3254   -6.9377    1.7124 H   0  0  0  0  0  0  0  0  0  0  0  0
    0.9273   -7.1087    2.4007 H   0  0  0  0  0  0  0  0  0  0  0  0
    0.4822  -11.3096    3.4108 H   0  0  0  0  0  0  0  0  0  0  0  0
    0.2078  -10.8682    1.7203 H   0  0  0  0  0  0  0  0  0  0  0  0
   -0.7945  -10.2772    3.0257 H   0  0  0  0  0  0  0  0  0  0  0  0
    2.5708  -10.2972    1.4956 H   0  0  0  0  0  0  0  0  0  0  0  0
    2.4045   -8.7170    1.0959 H   0  0  0  0  0  0  0  0  0  0  0  0
    6.9830   -9.0276    1.0937 H   0  0  0  0  0  0  0  0  0  0  0  0
    6.9424   -9.0791    2.8307 H   0  0  0  0  0  0  0  0  0  0  0  0
    6.3376   -7.7648    2.0758 H   0  0  0  0  0  0  0  0  0  0  0  0
    2.8923   -5.7451   -0.2367 H   0  0  0  0  0  0  0  0  0  0  0  0
    3.9220   -4.2268   -1.6010 H   0  0  0  0  0  0  0  0  0  0  0  0
    6.1579   -2.9139   -2.6737 H   0  0  0  0  0  0  0  0  0  0  0  0
    8.6514   -2.3301   -1.5453 H   0  0  0  0  0  0  0  0  0  0  0  0
    8.5014   -3.5248    0.9467 H   0  0  0  0  0  0  0  0  0  0  0  0
    3.7237   -4.6806    4.8079 H   0  0  0  0  0  0  0  0  0  0  0  0
    3.2530   -4.2631    2.5825 H   0  0  0  0  0  0  0  0  0  0  0  0
    1.8849   -3.8603    3.5302 H   0  0  0  0  0  0  0  0  0  0  0  0
    1.8389   -5.3321    2.5850 H   0  0  0  0  0  0  0  0  0  0  0  0
    1.6822   -4.8961    5.9502 H   0  0  0  0  0  0  0  0  0  0  0  0
    1.0596   -6.0194    4.8072 H   0  0  0  0  0  0  0  0  0  0  0  0
    2.0648   -6.5223    7.4288 H   0  0  0  0  0  0  0  0  0  0  0  0
    0.1046   -7.6835    7.1747 H   0  0  0  0  0  0  0  0  0  0  0  0
   -0.3327   -9.3695    5.4524 H   0  0  0  0  0  0  0  0  0  0  0  0
    1.8970   -8.0399    4.2279 H   0  0  0  0  0  0  0  0  0  0  0  0
    2.6617   -9.5993    6.8948 H   0  0  0  0  0  0  0  0  0  0  0  0
    3.8060   -7.8491    7.4686 H   0  0  0  0  0  0  0  0  0  0  0  0
    5.9747   -8.7399    6.0615 H   0  0  0  0  0  0  0  0  0  0  0  0
    6.7679   -7.2088    5.9901 H   0  0  0  0  0  0  0  0  0  0  0  0
    6.2387   -7.8539    4.5101 H   0  0  0  0  0  0  0  0  0  0  0  0
    5.4987   -6.1182    7.3998 H   0  0  0  0  0  0  0  0  0  0  0  0
    4.1225   -5.2437    6.8467 H   0  0  0  0  0  0  0  0  0  0  0  0
    5.6272   -5.1566    5.9360 H   0  0  0  0  0  0  0  0  0  0  0  0
    3.9708  -12.0109    2.5817 H   0  0  0  0  0  0  0  0  0  0  0  0
    2.3786  -11.7120    3.1481 H   0  0  0  0  0  0  0  0  0  0  0  0
    3.5069  -12.3229    4.2493 H   0  0  0  0  0  0  0  0  0  0  0  0
    6.0685   -9.8968    4.3081 H   0  0  0  0  0  0  0  0  0  0  0  0
    5.6815  -11.4986    3.8991 H   0  0  0  0  0  0  0  0  0  0  0  0
    5.2725  -10.8971    5.4818 H   0  0  0  0  0  0  0  0  0  0  0  0
  1  2  2  0
  1 37  1  0
  1 38  1  0
  2  3  1  0
  2 39  1  0
  3 27  1  0
  3  4  1  1
  3  5  1  0
  4 40  1  0
  4 41  1  0
  4 42  1  0
  5  6  1  0
  5 43  1  0
  5 44  1  0
  6 34  1  0
  6  7  1  6
  6  9  1  0
  7  8  1  0
  8 45  1  0
  8 46  1  0
  8 47  1  0
  9 10  1  0
  9 20  2  3
 10 11  1  0
 11 12  2  0
 11 13  1  0
 13 14  2  3
 13 48  1  0
 14 15  1  0
 14 49  1  0
 15 19  1  0
 15 16  2  0
 16 17  1  0
 16 50  1  0
 17 18  2  0
 17 51  1  0
 18 19  1  0
 18 52  1  0
 20 31  1  0
 20 21  1  0
 21 22  1  0
 21 23  1  0
 21 53  1  1
 22 54  1  0
 22 55  1  0
 22 56  1  0
 23 24  1  0
 23 57  1  0
 23 58  1  0
 24 30  1  0
 24 25  1  0
 24 59  1  1
 25 26  2  0
 25 60  1  0
 26 27  1  0
 26 61  1  0
 27 28  1  0
 27 62  1  6
 28 29  2  0
 28 34  1  0
 29 30  1  0
 29 63  1  0
 30 31  1  0
 30 64  1  1
 31 32  1  0
 31 33  1  0
 32 65  1  0
 32 66  1  0
 32 67  1  0
 33 68  1  0
 33 69  1  0
 33 70  1  0
 34 35  1  0
 34 36  1  0
 35 71  1  0
 35 72  1  0
 35 73  1  0
 36 74  1  0
 36 75  1  0
 36 76  1  0
M  END
>  <i_m_ct_stereo_status>  (209) 
1

>  <s_m_source_file>  (209) 
/var/tmp/pbs.5076255.sched01/tmphf7gnms3/50i7j3xhgh.sdf

>  <i_m_source_file_index>  (209) 
44

>  <i_lp_mmshare_version>  (209) 
48012

>  <i_f3d_flags>  (209) 
0

>  <s_epik_input>  (209) 
W0NIM11PQzEyW0NIMl1bQ0BdKFtDSDNdKShbQ0hdPVtDSDJdKVtDSF0zQyhDMihbQ0gzXSlbQ0gzXSk9W0NIXVtDQEBIXTRbQ0hdKFtDSF09W0NIXTMpW0NIMl1bQ0BIXShbQ0gzXSlcQyhDNChbQ0gzXSlbQ0gzXSk9Q1wxT0MoPU8pL1tDSF09W0NIXS9jNVtjSF1bY0hdW2NIXW81

>  <s_epik_cmdline>  (209) 
J2VwaWtfcHl0aG9uJywgJy1waHQnLCAnMi4wJywgJy1waCcsICc3LjAnLCAnLXRuJywgJzgnLCAnLW1hJywgJzIwMCcsICctaW1hZScsICc8aW5maWxlLm1hZT4nLCAnLW9tYWUnLCAnPG91dGZpbGUubWFlPic=

>  <r_lp_tautomer_probability>  (209) 
1

>  <r_epik_Ionization_Penalty>  (209) 
1.29585e-13

>  <r_epik_Ionization_Penalty_Charging>  (209) 
0

>  <r_epik_Ionization_Penalty_Neutral>  (209) 
1.29585e-13

>  <r_epik_State_Penalty>  (209) 
-0

>  <r_epik_Charging_Adjusted_Penalty>  (209) 
0

>  <i_epik_Tot_Q>  (209) 
0

>  <i_epik_Tot_abs_Q>  (209) 
0

>  <s_lp_Force_Field>  (209) 
OPLS3e

>  <r_lp_Energy>  (209) 
215.349

>  <b_lp_Chiralities_Consistent>  (209) 
1

>  <s_lp_Variant>  (209) 
52:0-14

>  <s_i_glide_gridfile>  (209) 
pfpi4k_grid

>  <i_i_glide_lignum>  (209) 
44

>  <i_i_glide_rotatable_bonds>  (209) 
6

>  <r_i_docking_score>  (209) 
-1.79075

>  <r_i_glide_ligand_efficiency>  (209) 
-0.049743

>  <r_i_glide_ligand_efficiency_sa>  (209) 
-0.164248

>  <r_i_glide_ligand_efficiency_ln>  (209) 
-0.390693

>  <r_i_glide_gscore>  (209) 
-1.79075

>  <r_i_glide_lipo>  (209) 
-0.54842

>  <r_i_glide_hbond>  (209) 
0

>  <r_i_glide_metal>  (209) 
-0

>  <r_i_glide_rewards>  (209) 
-0.165281

>  <r_i_glide_evdw>  (209) 
-26.7459

>  <r_i_glide_ecoul>  (209) 
-0.536263

>  <r_i_glide_erotb>  (209) 
0.340689

>  <r_i_glide_esite>  (209) 
0

>  <r_i_glide_emodel>  (209) 
-26.174

>  <r_i_glide_energy>  (209) 
-27.2822

>  <r_i_glide_einternal>  (209) 
2.87091

>  <r_i_glide_intrahb_reward>  (209) 
-0

>  <i_i_glide_confnum>  (209) 
2

>  <i_i_glide_posenum>  (209) 
5

>  <r_i_glide_eff_state_penalty>  (209) 
0

>  <ligand_id>  (209) 
52

>  <original_smiles>  (209) 
C=CC1(C)CC2(OC)C(OC(=O)C=Cc3ccco3)=C3C(C)CC4C=CC1C(=CC4C3(C)C)C2(C)C

>  <smiles>  (209) 
[H]C([H])=C([H])C1(C([H])([H])[H])C2([H])C([H])=C([H])C3([H])C([H])([H])C([H])(C([H])([H])[H])C4=C(OC(=O)C([H])=C([H])c5oc([H])c([H])c5[H])C(OC([H])([H])[H])(C1([H])[H])C(C([H])([H])[H])(C([H])([H])[H])C2=C([H])C3([H])C4(C([H])([H])[H])C([H])([H])[H]

$$$$
52:13:1
     RDKit          3D

 76 80  0  0  1  0  0  0  0  0999 V2000
   -1.4772   -8.4791    2.6377 C   0  0  0  0  0  0  0  0  0  0  0  0
   -0.1629   -8.2896    2.8991 C   0  0  0  0  0  0  0  0  0  0  0  0
    0.9742   -9.2922    3.2263 C   0  0  1  0  0  0  0  0  0  0  0  0
    0.3982  -10.7201    3.1153 C   0  0  0  0  0  0  0  0  0  0  0  0
    2.1847   -9.0221    2.2282 C   0  0  0  0  0  0  0  0  0  0  0  0
    3.5249   -8.4445    2.8726 C   0  0  1  0  0  0  0  0  0  0  0  0
    4.5813   -8.2709    1.8982 O   0  0  0  0  0  0  0  0  0  0  0  0
    4.9736   -9.3046    1.0080 C   0  0  0  0  0  0  0  0  0  0  0  0
    3.1600   -6.9534    3.3226 C   0  0  0  0  0  0  0  0  0  0  0  0
    2.5798   -6.3752    2.2258 O   0  0  0  0  0  0  0  0  0  0  0  0
    3.2935   -5.4029    1.5739 C   0  0  0  0  0  0  0  0  0  0  0  0
    4.3477   -4.9474    1.9868 O   0  0  0  0  0  0  0  0  0  0  0  0
    2.5890   -5.0008    0.3357 C   0  0  0  0  0  0  0  0  0  0  0  0
    2.8594   -3.9444   -0.4733 C   0  0  0  0  0  0  0  0  0  0  0  0
    3.8349   -2.8935   -0.4579 C   0  0  0  0  0  0  0  0  0  0  0  0
    4.0578   -1.8199   -1.2737 C   0  0  0  0  0  0  0  0  0  0  0  0
    5.1837   -1.1348   -0.7275 C   0  0  0  0  0  0  0  0  0  0  0  0
    5.5452   -1.8314    0.3851 C   0  0  0  0  0  0  0  0  0  0  0  0
    4.7314   -2.8973    0.5560 O   0  0  0  0  0  0  0  0  0  0  0  0
    3.1498   -6.2282    4.5236 C   0  0  0  0  0  0  0  0  0  0  0  0
    2.0099   -5.2157    4.8527 C   0  0  1  0  0  0  0  0  0  0  0  0
    1.1325   -4.5823    3.7449 C   0  0  0  0  0  0  0  0  0  0  0  0
    1.0817   -5.8689    5.9268 C   0  0  0  0  0  0  0  0  0  0  0  0
    1.6206   -7.0172    6.8704 C   0  0  1  0  0  0  0  0  0  0  0  0
    0.6157   -8.1787    6.8639 C   0  0  0  0  0  0  0  0  0  0  0  0
    0.5251   -9.0949    5.8764 C   0  0  0  0  0  0  0  0  0  0  0  0
    1.4761   -9.0513    4.6973 C   0  0  1  0  0  0  0  0  0  0  0  0
    2.9403   -9.3536    5.1093 C   0  0  0  0  0  0  0  0  0  0  0  0
    3.3891   -8.9115    6.2990 C   0  0  0  0  0  0  0  0  0  0  0  0
    3.1443   -7.4562    6.7058 C   0  0  1  0  0  0  0  0  0  0  0  0
    3.9485   -6.4409    5.8520 C   0  0  0  0  0  0  0  0  0  0  0  0
    5.4460   -6.7463    5.5964 C   0  0  0  0  0  0  0  0  0  0  0  0
    4.0962   -5.1642    6.7589 C   0  0  0  0  0  0  0  0  0  0  0  0
    3.9233   -9.5560    3.9437 C   0  0  0  0  0  0  0  0  0  0  0  0
    3.7797  -11.0647    3.5448 C   0  0  0  0  0  0  0  0  0  0  0  0
    5.4376   -9.5298    4.2978 C   0  0  0  0  0  0  0  0  0  0  0  0
   -1.9412   -9.4610    2.6093 H   0  0  0  0  0  0  0  0  0  0  0  0
   -2.1173   -7.6212    2.4594 H   0  0  0  0  0  0  0  0  0  0  0  0
    0.1728   -7.2718    2.8913 H   0  0  0  0  0  0  0  0  0  0  0  0
    0.9051  -11.4874    3.7029 H   0  0  0  0  0  0  0  0  0  0  0  0
    0.3303  -11.0466    2.0753 H   0  0  0  0  0  0  0  0  0  0  0  0
   -0.5847  -10.7145    3.5537 H   0  0  0  0  0  0  0  0  0  0  0  0
    2.4241   -9.9355    1.6985 H   0  0  0  0  0  0  0  0  0  0  0  0
    1.8437   -8.3937    1.4058 H   0  0  0  0  0  0  0  0  0  0  0  0
    5.7934   -8.9135    0.4083 H   0  0  0  0  0  0  0  0  0  0  0  0
    4.1729   -9.5725    0.3200 H   0  0  0  0  0  0  0  0  0  0  0  0
    5.3786  -10.1842    1.4908 H   0  0  0  0  0  0  0  0  0  0  0  0
    1.7628   -5.6111    0.0379 H   0  0  0  0  0  0  0  0  0  0  0  0
    2.1929   -3.8634   -1.3152 H   0  0  0  0  0  0  0  0  0  0  0  0
    3.4791   -1.5473   -2.1546 H   0  0  0  0  0  0  0  0  0  0  0  0
    5.6774   -0.2466   -1.0920 H   0  0  0  0  0  0  0  0  0  0  0  0
    6.3147   -1.7213    1.1337 H   0  0  0  0  0  0  0  0  0  0  0  0
    2.4579   -4.3143    5.2613 H   0  0  0  0  0  0  0  0  0  0  0  0
    1.7189   -3.9428    3.0843 H   0  0  0  0  0  0  0  0  0  0  0  0
    0.3730   -3.9331    4.1920 H   0  0  0  0  0  0  0  0  0  0  0  0
    0.6007   -5.3193    3.1532 H   0  0  0  0  0  0  0  0  0  0  0  0
    0.6546   -5.0787    6.5438 H   0  0  0  0  0  0  0  0  0  0  0  0
    0.2227   -6.2741    5.3882 H   0  0  0  0  0  0  0  0  0  0  0  0
    1.5504   -6.6190    7.8824 H   0  0  0  0  0  0  0  0  0  0  0  0
   -0.0541   -8.2287    7.7114 H   0  0  0  0  0  0  0  0  0  0  0  0
   -0.1922   -9.9025    5.9225 H   0  0  0  0  0  0  0  0  0  0  0  0
    1.4750   -7.9916    4.6174 H   0  0  0  0  0  0  0  0  0  0  0  0
    2.8649   -9.3919    7.1152 H   0  0  0  0  0  0  0  0  0  0  0  0
    3.5795   -7.4374    7.7048 H   0  0  0  0  0  0  0  0  0  0  0  0
    5.7707   -7.6747    6.0584 H   0  0  0  0  0  0  0  0  0  0  0  0
    6.1272   -5.9989    6.0127 H   0  0  0  0  0  0  0  0  0  0  0  0
    5.6705   -6.7102    4.5332 H   0  0  0  0  0  0  0  0  0  0  0  0
    4.7623   -5.3472    7.6071 H   0  0  0  0  0  0  0  0  0  0  0  0
    3.1669   -4.8342    7.2212 H   0  0  0  0  0  0  0  0  0  0  0  0
    4.5114   -4.3177    6.2058 H   0  0  0  0  0  0  0  0  0  0  0  0
    4.3084  -11.3833    2.6499 H   0  0  0  0  0  0  0  0  0  0  0  0
    2.7793  -11.3742    3.3681 H   0  0  0  0  0  0  0  0  0  0  0  0
    4.0975  -11.7028    4.3771 H   0  0  0  0  0  0  0  0  0  0  0  0
    5.9570   -8.6385    3.9717 H   0  0  0  0  0  0  0  0  0  0  0  0
    5.9820  -10.3063    3.7557 H   0  0  0  0  0  0  0  0  0  0  0  0
    5.6528   -9.7322    5.3462 H   0  0  0  0  0  0  0  0  0  0  0  0
  1  2  2  0
  1 37  1  0
  1 38  1  0
  2  3  1  0
  2 39  1  0
  3 27  1  0
  3  4  1  1
  3  5  1  0
  4 40  1  0
  4 41  1  0
  4 42  1  0
  5  6  1  0
  5 43  1  0
  5 44  1  0
  6 34  1  0
  6  7  1  6
  6  9  1  0
  7  8  1  0
  8 45  1  0
  8 46  1  0
  8 47  1  0
  9 10  1  0
  9 20  2  3
 10 11  1  0
 11 12  2  0
 11 13  1  0
 13 14  2  3
 13 48  1  0
 14 15  1  0
 14 49  1  0
 15 19  1  0
 15 16  2  0
 16 17  1  0
 16 50  1  0
 17 18  2  0
 17 51  1  0
 18 19  1  0
 18 52  1  0
 20 31  1  0
 20 21  1  0
 21 22  1  0
 21 23  1  0
 21 53  1  1
 22 54  1  0
 22 55  1  0
 22 56  1  0
 23 24  1  0
 23 57  1  0
 23 58  1  0
 24 30  1  0
 24 25  1  0
 24 59  1  1
 25 26  2  0
 25 60  1  0
 26 27  1  0
 26 61  1  0
 27 28  1  0
 27 62  1  6
 28 29  2  0
 28 34  1  0
 29 30  1  0
 29 63  1  0
 30 31  1  0
 30 64  1  1
 31 32  1  0
 31 33  1  0
 32 65  1  0
 32 66  1  0
 32 67  1  0
 33 68  1  0
 33 69  1  0
 33 70  1  0
 34 35  1  0
 34 36  1  0
 35 71  1  0
 35 72  1  0
 35 73  1  0
 36 74  1  0
 36 75  1  0
 36 76  1  0
M  END
>  <i_m_ct_stereo_status>  (210) 
1

>  <s_m_source_file>  (210) 
/var/tmp/pbs.5076255.sched01/tmphf7gnms3/50i7j3xhgh.sdf

>  <i_m_source_file_index>  (210) 
44

>  <i_lp_mmshare_version>  (210) 
48012

>  <i_f3d_flags>  (210) 
0

>  <s_epik_input>  (210) 
W0NIM11PQzEyW0NIMl1bQ0BdKFtDSDNdKShbQ0hdPVtDSDJdKVtDSF0zQyhDMihbQ0gzXSlbQ0gzXSk9W0NIXVtDQEBIXTRbQ0hdKFtDSF09W0NIXTMpW0NIMl1bQ0BIXShbQ0gzXSlcQyhDNChbQ0gzXSlbQ0gzXSk9Q1wxT0MoPU8pL1tDSF09W0NIXS9jNVtjSF1bY0hdW2NIXW81

>  <s_epik_cmdline>  (210) 
J2VwaWtfcHl0aG9uJywgJy1waHQnLCAnMi4wJywgJy1waCcsICc3LjAnLCAnLXRuJywgJzgnLCAnLW1hJywgJzIwMCcsICctaW1hZScsICc8aW5maWxlLm1hZT4nLCAnLW9tYWUnLCAnPG91dGZpbGUubWFlPic=

>  <r_lp_tautomer_probability>  (210) 
1

>  <r_epik_Ionization_Penalty>  (210) 
1.29585e-13

>  <r_epik_Ionization_Penalty_Charging>  (210) 
0

>  <r_epik_Ionization_Penalty_Neutral>  (210) 
1.29585e-13

>  <r_epik_State_Penalty>  (210) 
-0

>  <r_epik_Charging_Adjusted_Penalty>  (210) 
0

>  <i_epik_Tot_Q>  (210) 
0

>  <i_epik_Tot_abs_Q>  (210) 
0

>  <s_lp_Force_Field>  (210) 
OPLS3e

>  <r_lp_Energy>  (210) 
215.349

>  <b_lp_Chiralities_Consistent>  (210) 
1

>  <s_lp_Variant>  (210) 
52:0-14

>  <s_i_glide_gridfile>  (210) 
pfpi4k_grid

>  <i_i_glide_lignum>  (210) 
44

>  <i_i_glide_rotatable_bonds>  (210) 
6

>  <r_i_docking_score>  (210) 
-1.20058

>  <r_i_glide_ligand_efficiency>  (210) 
-0.0333494

>  <r_i_glide_ligand_efficiency_sa>  (210) 
-0.110117

>  <r_i_glide_ligand_efficiency_ln>  (210) 
-0.261934

>  <r_i_glide_gscore>  (210) 
-1.20058

>  <r_i_glide_lipo>  (210) 
-0.129265

>  <r_i_glide_hbond>  (210) 
0

>  <r_i_glide_metal>  (210) 
-0

>  <r_i_glide_rewards>  (210) 
-0.0874079

>  <r_i_glide_evdw>  (210) 
-26.4992

>  <r_i_glide_ecoul>  (210) 
0.00243515

>  <r_i_glide_erotb>  (210) 
0.340689

>  <r_i_glide_esite>  (210) 
0

>  <r_i_glide_emodel>  (210) 
-26.5632

>  <r_i_glide_energy>  (210) 
-26.4968

>  <r_i_glide_einternal>  (210) 
2.19735

>  <r_i_glide_intrahb_reward>  (210) 
-0

>  <i_i_glide_confnum>  (210) 
2

>  <i_i_glide_posenum>  (210) 
1

>  <r_i_glide_eff_state_penalty>  (210) 
0

>  <ligand_id>  (210) 
52

>  <original_smiles>  (210) 
C=CC1(C)CC2(OC)C(OC(=O)C=Cc3ccco3)=C3C(C)CC4C=CC1C(=CC4C3(C)C)C2(C)C

>  <smiles>  (210) 
[H]C([H])=C([H])C1(C([H])([H])[H])C2([H])C([H])=C([H])C3([H])C([H])([H])C([H])(C([H])([H])[H])C4=C(OC(=O)C([H])=C([H])c5oc([H])c([H])c5[H])C(OC([H])([H])[H])(C1([H])[H])C(C([H])([H])[H])(C([H])([H])[H])C2=C([H])C3([H])C4(C([H])([H])[H])C([H])([H])[H]

$$$$
52:13:2
     RDKit          3D

 76 80  0  0  1  0  0  0  0  0999 V2000
   -0.8672   -9.8546    2.3857 C   0  0  0  0  0  0  0  0  0  0  0  0
   -0.0775   -9.5555    3.4273 C   0  0  0  0  0  0  0  0  0  0  0  0
    1.2199  -10.2832    3.8183 C   0  0  1  0  0  0  0  0  0  0  0  0
    0.8885  -11.7950    3.8137 C   0  0  0  0  0  0  0  0  0  0  0  0
    2.3399   -9.8793    2.7765 C   0  0  0  0  0  0  0  0  0  0  0  0
    3.5098   -8.9759    3.3383 C   0  0  1  0  0  0  0  0  0  0  0  0
    4.5947   -8.8785    2.3781 O   0  0  0  0  0  0  0  0  0  0  0  0
    4.4130   -8.7796    0.9579 C   0  0  0  0  0  0  0  0  0  0  0  0
    2.8760   -7.5474    3.6485 C   0  0  0  0  0  0  0  0  0  0  0  0
    2.1574   -7.1923    2.5470 O   0  0  0  0  0  0  0  0  0  0  0  0
    2.6119   -6.1119    1.8405 C   0  0  0  0  0  0  0  0  0  0  0  0
    3.5744   -5.4347    2.1850 O   0  0  0  0  0  0  0  0  0  0  0  0
    1.7950   -5.9160    0.6319 C   0  0  0  0  0  0  0  0  0  0  0  0
    1.8880   -4.9283   -0.3155 C   0  0  0  0  0  0  0  0  0  0  0  0
    2.7205   -3.7896   -0.4655 C   0  0  0  0  0  0  0  0  0  0  0  0
    2.8375   -2.8501   -1.4623 C   0  0  0  0  0  0  0  0  0  0  0  0
    3.8751   -1.9490   -1.0587 C   0  0  0  0  0  0  0  0  0  0  0  0
    4.2979   -2.4269    0.1622 C   0  0  0  0  0  0  0  0  0  0  0  0
    3.5890   -3.5130    0.5305 O   0  0  0  0  0  0  0  0  0  0  0  0
    2.6968   -6.7439    4.7949 C   0  0  0  0  0  0  0  0  0  0  0  0
    1.3683   -5.9734    5.0501 C   0  0  1  0  0  0  0  0  0  0  0  0
    0.3299   -5.6676    3.9435 C   0  0  0  0  0  0  0  0  0  0  0  0
    0.5961   -6.6885    6.2014 C   0  0  0  0  0  0  0  0  0  0  0  0
    1.3622   -7.6087    7.2243 C   0  0  1  0  0  0  0  0  0  0  0  0
    0.6067   -8.9363    7.3248 C   0  0  0  0  0  0  0  0  0  0  0  0
    0.6972   -9.9247    6.4115 C   0  0  0  0  0  0  0  0  0  0  0  0
    1.6521   -9.8241    5.2466 C   0  0  1  0  0  0  0  0  0  0  0  0
    3.1354   -9.8013    5.6787 C   0  0  0  0  0  0  0  0  0  0  0  0
    3.4677   -9.1576    6.8170 C   0  0  0  0  0  0  0  0  0  0  0  0
    2.9343   -7.7469    7.0744 C   0  0  1  0  0  0  0  0  0  0  0  0
    3.5188   -6.6801    6.1175 C   0  0  0  0  0  0  0  0  0  0  0  0
    5.0450   -6.6844    5.8788 C   0  0  0  0  0  0  0  0  0  0  0  0
    3.4004   -5.3180    6.8969 C   0  0  0  0  0  0  0  0  0  0  0  0
    4.1248   -9.8540    4.5135 C   0  0  0  0  0  0  0  0  0  0  0  0
    4.3270  -11.3625    4.1894 C   0  0  0  0  0  0  0  0  0  0  0  0
    5.6137   -9.5063    4.8442 C   0  0  0  0  0  0  0  0  0  0  0  0
   -0.6184  -10.6475    1.6963 H   0  0  0  0  0  0  0  0  0  0  0  0
   -1.7779   -9.2975    2.2130 H   0  0  0  0  0  0  0  0  0  0  0  0
   -0.3930   -8.7388    4.0557 H   0  0  0  0  0  0  0  0  0  0  0  0
    1.4789  -12.3681    4.5246 H   0  0  0  0  0  0  0  0  0  0  0  0
    0.9860  -12.2452    2.8249 H   0  0  0  0  0  0  0  0  0  0  0  0
   -0.1395  -11.9525    4.1326 H   0  0  0  0  0  0  0  0  0  0  0  0
    2.7964  -10.7553    2.3227 H   0  0  0  0  0  0  0  0  0  0  0  0
    1.8575   -9.4152    1.9167 H   0  0  0  0  0  0  0  0  0  0  0  0
    5.4135   -8.6396    0.5282 H   0  0  0  0  0  0  0  0  0  0  0  0
    3.8439   -7.9314    0.6126 H   0  0  0  0  0  0  0  0  0  0  0  0
    3.9648   -9.6879    0.5440 H   0  0  0  0  0  0  0  0  0  0  0  0
    1.0278   -6.6341    0.4626 H   0  0  0  0  0  0  0  0  0  0  0  0
    1.1793   -5.0323   -1.1075 H   0  0  0  0  0  0  0  0  0  0  0  0
    2.2397   -2.8314   -2.3586 H   0  0  0  0  0  0  0  0  0  0  0  0
    4.2639   -1.0741   -1.5474 H   0  0  0  0  0  0  0  0  0  0  0  0
    5.0426   -2.1192    0.8804 H   0  0  0  0  0  0  0  0  0  0  0  0
    1.6151   -4.9580    5.3530 H   0  0  0  0  0  0  0  0  0  0  0  0
    0.7095   -4.9203    3.2445 H   0  0  0  0  0  0  0  0  0  0  0  0
   -0.5642   -5.2135    4.3882 H   0  0  0  0  0  0  0  0  0  0  0  0
    0.0093   -6.5696    3.4162 H   0  0  0  0  0  0  0  0  0  0  0  0
    0.0252   -5.9367    6.7431 H   0  0  0  0  0  0  0  0  0  0  0  0
   -0.1674   -7.3077    5.7223 H   0  0  0  0  0  0  0  0  0  0  0  0
    1.1862   -7.1559    8.2013 H   0  0  0  0  0  0  0  0  0  0  0  0
   -0.0431   -9.0372    8.1782 H   0  0  0  0  0  0  0  0  0  0  0  0
    0.1306  -10.8383    6.4985 H   0  0  0  0  0  0  0  0  0  0  0  0
    1.4745   -8.7941    5.0740 H   0  0  0  0  0  0  0  0  0  0  0  0
    3.0488   -9.6503    7.6827 H   0  0  0  0  0  0  0  0  0  0  0  0
    3.3538   -7.5438    8.0554 H   0  0  0  0  0  0  0  0  0  0  0  0
    5.5495   -7.4763    6.4258 H   0  0  0  0  0  0  0  0  0  0  0  0
    5.5502   -5.7745    6.2161 H   0  0  0  0  0  0  0  0  0  0  0  0
    5.2638   -6.7039    4.8131 H   0  0  0  0  0  0  0  0  0  0  0  0
    4.0875   -5.2854    7.7497 H   0  0  0  0  0  0  0  0  0  0  0  0
    2.4190   -5.1410    7.3367 H   0  0  0  0  0  0  0  0  0  0  0  0
    3.6409   -4.4648    6.2527 H   0  0  0  0  0  0  0  0  0  0  0  0
    4.9304  -11.5186    3.2909 H   0  0  0  0  0  0  0  0  0  0  0  0
    3.4173  -11.9259    4.0525 H   0  0  0  0  0  0  0  0  0  0  0  0
    4.8220  -11.8559    5.0257 H   0  0  0  0  0  0  0  0  0  0  0  0
    5.9580   -8.5665    4.4374 H   0  0  0  0  0  0  0  0  0  0  0  0
    6.3023  -10.2025    4.3657 H   0  0  0  0  0  0  0  0  0  0  0  0
    5.8516   -9.5828    5.9032 H   0  0  0  0  0  0  0  0  0  0  0  0
  1  2  2  0
  1 37  1  0
  1 38  1  0
  2  3  1  0
  2 39  1  0
  3 27  1  0
  3  4  1  1
  3  5  1  0
  4 40  1  0
  4 41  1  0
  4 42  1  0
  5  6  1  0
  5 43  1  0
  5 44  1  0
  6 34  1  0
  6  7  1  6
  6  9  1  0
  7  8  1  0
  8 45  1  0
  8 46  1  0
  8 47  1  0
  9 10  1  0
  9 20  2  3
 10 11  1  0
 11 12  2  0
 11 13  1  0
 13 14  2  3
 13 48  1  0
 14 15  1  0
 14 49  1  0
 15 19  1  0
 15 16  2  0
 16 17  1  0
 16 50  1  0
 17 18  2  0
 17 51  1  0
 18 19  1  0
 18 52  1  0
 20 31  1  0
 20 21  1  0
 21 22  1  0
 21 23  1  0
 21 53  1  1
 22 54  1  0
 22 55  1  0
 22 56  1  0
 23 24  1  0
 23 57  1  0
 23 58  1  0
 24 30  1  0
 24 25  1  0
 24 59  1  1
 25 26  2  0
 25 60  1  0
 26 27  1  0
 26 61  1  0
 27 28  1  0
 27 62  1  6
 28 29  2  0
 28 34  1  0
 29 30  1  0
 29 63  1  0
 30 31  1  0
 30 64  1  1
 31 32  1  0
 31 33  1  0
 32 65  1  0
 32 66  1  0
 32 67  1  0
 33 68  1  0
 33 69  1  0
 33 70  1  0
 34 35  1  0
 34 36  1  0
 35 71  1  0
 35 72  1  0
 35 73  1  0
 36 74  1  0
 36 75  1  0
 36 76  1  0
M  END
>  <i_m_ct_stereo_status>  (211) 
1

>  <s_m_source_file>  (211) 
/var/tmp/pbs.5076255.sched01/tmphf7gnms3/50i7j3xhgh.sdf

>  <i_m_source_file_index>  (211) 
44

>  <i_lp_mmshare_version>  (211) 
48012

>  <i_f3d_flags>  (211) 
0

>  <s_epik_input>  (211) 
W0NIM11PQzEyW0NIMl1bQ0BdKFtDSDNdKShbQ0hdPVtDSDJdKVtDSF0zQyhDMihbQ0gzXSlbQ0gzXSk9W0NIXVtDQEBIXTRbQ0hdKFtDSF09W0NIXTMpW0NIMl1bQ0BIXShbQ0gzXSlcQyhDNChbQ0gzXSlbQ0gzXSk9Q1wxT0MoPU8pL1tDSF09W0NIXS9jNVtjSF1bY0hdW2NIXW81

>  <s_epik_cmdline>  (211) 
J2VwaWtfcHl0aG9uJywgJy1waHQnLCAnMi4wJywgJy1waCcsICc3LjAnLCAnLXRuJywgJzgnLCAnLW1hJywgJzIwMCcsICctaW1hZScsICc8aW5maWxlLm1hZT4nLCAnLW9tYWUnLCAnPG91dGZpbGUubWFlPic=

>  <r_lp_tautomer_probability>  (211) 
1

>  <r_epik_Ionization_Penalty>  (211) 
1.29585e-13

>  <r_epik_Ionization_Penalty_Charging>  (211) 
0

>  <r_epik_Ionization_Penalty_Neutral>  (211) 
1.29585e-13

>  <r_epik_State_Penalty>  (211) 
-0

>  <r_epik_Charging_Adjusted_Penalty>  (211) 
0

>  <i_epik_Tot_Q>  (211) 
0

>  <i_epik_Tot_abs_Q>  (211) 
0

>  <s_lp_Force_Field>  (211) 
OPLS3e

>  <r_lp_Energy>  (211) 
215.349

>  <b_lp_Chiralities_Consistent>  (211) 
1

>  <s_lp_Variant>  (211) 
52:0-14

>  <s_i_glide_gridfile>  (211) 
pfpi4k_grid

>  <i_i_glide_lignum>  (211) 
44

>  <i_i_glide_rotatable_bonds>  (211) 
6

>  <r_i_docking_score>  (211) 
-1.16781

>  <r_i_glide_ligand_efficiency>  (211) 
-0.0324391

>  <r_i_glide_ligand_efficiency_sa>  (211) 
-0.107112

>  <r_i_glide_ligand_efficiency_ln>  (211) 
-0.254784

>  <r_i_glide_gscore>  (211) 
-1.16781

>  <r_i_glide_lipo>  (211) 
-0.177252

>  <r_i_glide_hbond>  (211) 
0

>  <r_i_glide_metal>  (211) 
-0

>  <r_i_glide_rewards>  (211) 
-0.0773345

>  <r_i_glide_evdw>  (211) 
-27.1157

>  <r_i_glide_ecoul>  (211) 
0.728484

>  <r_i_glide_erotb>  (211) 
0.340689

>  <r_i_glide_esite>  (211) 
-0.00739944

>  <r_i_glide_emodel>  (211) 
-25.9921

>  <r_i_glide_energy>  (211) 
-26.3872

>  <r_i_glide_einternal>  (211) 
2.47338

>  <r_i_glide_intrahb_reward>  (211) 
-0

>  <i_i_glide_confnum>  (211) 
2

>  <i_i_glide_posenum>  (211) 
23

>  <r_i_glide_eff_state_penalty>  (211) 
0

>  <ligand_id>  (211) 
52

>  <original_smiles>  (211) 
C=CC1(C)CC2(OC)C(OC(=O)C=Cc3ccco3)=C3C(C)CC4C=CC1C(=CC4C3(C)C)C2(C)C

>  <smiles>  (211) 
[H]C([H])=C([H])C1(C([H])([H])[H])C2([H])C([H])=C([H])C3([H])C([H])([H])C([H])(C([H])([H])[H])C4=C(OC(=O)C([H])=C([H])c5oc([H])c([H])c5[H])C(OC([H])([H])[H])(C1([H])[H])C(C([H])([H])[H])(C([H])([H])[H])C2=C([H])C3([H])C4(C([H])([H])[H])C([H])([H])[H]

$$$$
52:17:0
     RDKit          3D

 76 80  0  0  1  0  0  0  0  0999 V2000
    5.7856   -1.1708    2.7725 C   0  0  0  0  0  0  0  0  0  0  0  0
    5.0323   -1.3037    3.8934 C   0  0  0  0  0  0  0  0  0  0  0  0
    4.9658   -0.3967    5.1659 C   0  0  1  0  0  0  0  0  0  0  0  0
    6.2559    0.5204    5.0463 C   0  0  0  0  0  0  0  0  0  0  0  0
    3.5995    0.5413    5.0984 C   0  0  0  0  0  0  0  0  0  0  0  0
    2.6260    0.1020    6.2757 C   0  0  2  0  0  0  0  0  0  0  0  0
    2.6414   -1.0881    5.4245 O   0  0  0  0  0  0  0  0  0  0  0  0
    1.8406   -1.3475    4.2387 C   0  0  0  0  0  0  0  0  0  0  0  0
    1.0850   -0.0791    6.6973 C   0  0  0  0  0  0  0  0  0  0  0  0
    0.2357    0.4445    5.7717 O   0  0  0  0  0  0  0  0  0  0  0  0
    0.3107    1.7707    5.5361 C   0  0  0  0  0  0  0  0  0  0  0  0
    0.9226    2.5513    6.2669 O   0  0  0  0  0  0  0  0  0  0  0  0
   -0.3563    2.1300    4.2594 C   0  0  0  0  0  0  0  0  0  0  0  0
   -0.5022    3.3532    3.7111 C   0  0  0  0  0  0  0  0  0  0  0  0
   -0.1383    4.6869    4.1483 C   0  0  0  0  0  0  0  0  0  0  0  0
   -0.0036    5.8993    3.4996 C   0  0  0  0  0  0  0  0  0  0  0  0
    0.4378    6.8335    4.4642 C   0  0  0  0  0  0  0  0  0  0  0  0
    0.5530    6.1350    5.6371 C   0  0  0  0  0  0  0  0  0  0  0  0
    0.1636    4.8323    5.4717 O   0  0  0  0  0  0  0  0  0  0  0  0
    0.6191   -1.0928    7.5558 C   0  0  0  0  0  0  0  0  0  0  0  0
   -0.0536   -2.3297    6.8909 C   0  0  1  0  0  0  0  0  0  0  0  0
   -1.0047   -2.0967    5.6988 C   0  0  0  0  0  0  0  0  0  0  0  0
    0.9760   -3.5538    6.8092 C   0  0  0  0  0  0  0  0  0  0  0  0
    2.3880   -3.2788    7.4600 C   0  0  2  0  0  0  0  0  0  0  0  0
    3.6965   -3.6965    6.7571 C   0  0  0  0  0  0  0  0  0  0  0  0
    4.7377   -2.8896    6.3541 C   0  0  0  0  0  0  0  0  0  0  0  0
    5.0042   -1.3580    6.5510 C   0  0  2  0  0  0  0  0  0  0  0  0
    4.1883   -0.8593    7.8092 C   0  0  0  0  0  0  0  0  0  0  0  0
    3.8150   -1.6865    8.8174 C   0  0  0  0  0  0  0  0  0  0  0  0
    2.4846   -2.4630    8.7839 C   0  0  1  0  0  0  0  0  0  0  0  0
    1.1637   -1.6409    8.9816 C   0  0  0  0  0  0  0  0  0  0  0  0
    1.2121   -0.6110   10.1434 C   0  0  0  0  0  0  0  0  0  0  0  0
    0.1687   -2.6523    9.6754 C   0  0  0  0  0  0  0  0  0  0  0  0
    3.5398    0.4798    7.5352 C   0  0  0  0  0  0  0  0  0  0  0  0
    4.7851    1.4541    7.5372 C   0  0  0  0  0  0  0  0  0  0  0  0
    2.7737    1.3435    8.5769 C   0  0  0  0  0  0  0  0  0  0  0  0
    6.4549   -0.3675    2.6096 H   0  0  0  0  0  0  0  0  0  0  0  0
    5.6865   -1.9421    1.9709 H   0  0  0  0  0  0  0  0  0  0  0  0
    4.3937   -2.1735    3.9286 H   0  0  0  0  0  0  0  0  0  0  0  0
    7.0816    0.0909    5.6494 H   0  0  0  0  0  0  0  0  0  0  0  0
    6.0731    1.5443    5.4326 H   0  0  0  0  0  0  0  0  0  0  0  0
    6.6209    0.7104    4.0648 H   0  0  0  0  0  0  0  0  0  0  0  0
    3.8260    1.5918    5.2145 H   0  0  0  0  0  0  0  0  0  0  0  0
    3.1676    0.6013    4.0988 H   0  0  0  0  0  0  0  0  0  0  0  0
    1.3301   -2.2932    4.3240 H   0  0  0  0  0  0  0  0  0  0  0  0
    2.4686   -1.4610    3.3611 H   0  0  0  0  0  0  0  0  0  0  0  0
    1.1382   -0.5688    3.9552 H   0  0  0  0  0  0  0  0  0  0  0  0
   -0.7731    1.3051    3.6951 H   0  0  0  0  0  0  0  0  0  0  0  0
   -0.9833    3.3664    2.7513 H   0  0  0  0  0  0  0  0  0  0  0  0
   -0.1816    6.0636    2.4452 H   0  0  0  0  0  0  0  0  0  0  0  0
    0.6773    7.8744    4.3429 H   0  0  0  0  0  0  0  0  0  0  0  0
    0.8832    6.3703    6.6472 H   0  0  0  0  0  0  0  0  0  0  0  0
   -0.8353   -2.6612    7.5566 H   0  0  0  0  0  0  0  0  0  0  0  0
   -1.8824   -1.5299    6.0068 H   0  0  0  0  0  0  0  0  0  0  0  0
   -1.3633   -3.0495    5.3296 H   0  0  0  0  0  0  0  0  0  0  0  0
   -0.6071   -1.5750    4.8419 H   0  0  0  0  0  0  0  0  0  0  0  0
    0.5330   -4.4470    7.2529 H   0  0  0  0  0  0  0  0  0  0  0  0
    1.1225   -3.8493    5.7752 H   0  0  0  0  0  0  0  0  0  0  0  0
    2.4761   -2.4283    6.9081 H   0  0  0  0  0  0  0  0  0  0  0  0
    3.7718   -4.7576    6.5529 H   0  0  0  0  0  0  0  0  0  0  0  0
    5.5559   -3.3895    5.8643 H   0  0  0  0  0  0  0  0  0  0  0  0
    6.0257   -1.3483    6.9155 H   0  0  0  0  0  0  0  0  0  0  0  0
    4.5301   -2.4853    8.9798 H   0  0  0  0  0  0  0  0  0  0  0  0
    2.5699   -3.1624    9.6166 H   0  0  0  0  0  0  0  0  0  0  0  0
    2.2093   -0.2712   10.3659 H   0  0  0  0  0  0  0  0  0  0  0  0
    0.9172   -1.0018   11.1242 H   0  0  0  0  0  0  0  0  0  0  0  0
    0.5226    0.2171    9.9979 H   0  0  0  0  0  0  0  0  0  0  0  0
    0.4840   -2.9405   10.6810 H   0  0  0  0  0  0  0  0  0  0  0  0
    0.0714   -3.6176    9.2038 H   0  0  0  0  0  0  0  0  0  0  0  0
   -0.8325   -2.2369    9.7951 H   0  0  0  0  0  0  0  0  0  0  0  0
    4.6887    2.3560    6.9271 H   0  0  0  0  0  0  0  0  0  0  0  0
    5.7343    0.9796    7.3753 H   0  0  0  0  0  0  0  0  0  0  0  0
    5.0254    1.8393    8.5345 H   0  0  0  0  0  0  0  0  0  0  0  0
    1.7168    1.2195    8.6493 H   0  0  0  0  0  0  0  0  0  0  0  0
    2.8034    2.4032    8.2825 H   0  0  0  0  0  0  0  0  0  0  0  0
    3.2258    1.3294    9.5687 H   0  0  0  0  0  0  0  0  0  0  0  0
  1  2  2  0
  1 37  1  0
  1 38  1  0
  2  3  1  0
  2 39  1  0
  3 27  1  0
  3  4  1  1
  3  5  1  0
  4 40  1  0
  4 41  1  0
  4 42  1  0
  5  6  1  0
  5 43  1  0
  5 44  1  0
  6 34  1  0
  6  7  1  6
  6  9  1  0
  7  8  1  0
  8 45  1  0
  8 46  1  0
  8 47  1  0
  9 10  1  0
  9 20  2  3
 10 11  1  0
 11 12  2  0
 11 13  1  0
 13 14  2  3
 13 48  1  0
 14 15  1  0
 14 49  1  0
 15 19  1  0
 15 16  2  0
 16 17  1  0
 16 50  1  0
 17 18  2  0
 17 51  1  0
 18 19  1  0
 18 52  1  0
 20 31  1  0
 20 21  1  0
 21 22  1  0
 21 23  1  0
 21 53  1  1
 22 54  1  0
 22 55  1  0
 22 56  1  0
 23 24  1  0
 23 57  1  0
 23 58  1  0
 24 30  1  0
 24 25  1  0
 24 59  1  1
 25 26  2  0
 25 60  1  0
 26 27  1  0
 26 61  1  0
 27 28  1  0
 27 62  1  1
 28 29  2  0
 28 34  1  0
 29 30  1  0
 29 63  1  0
 30 31  1  0
 30 64  1  1
 31 32  1  0
 31 33  1  0
 32 65  1  0
 32 66  1  0
 32 67  1  0
 33 68  1  0
 33 69  1  0
 33 70  1  0
 34 35  1  0
 34 36  1  0
 35 71  1  0
 35 72  1  0
 35 73  1  0
 36 74  1  0
 36 75  1  0
 36 76  1  0
M  END
>  <i_m_ct_stereo_status>  (212) 
1

>  <s_m_source_file>  (212) 
/var/tmp/pbs.5076255.sched01/tmphf7gnms3/50i7j3xhgh.sdf

>  <i_m_source_file_index>  (212) 
48

>  <i_lp_mmshare_version>  (212) 
48012

>  <i_f3d_flags>  (212) 
0

>  <s_epik_input>  (212) 
W0NIM11PQzEyW0NIMl1bQ0BdKFtDSDNdKShbQ0hdPVtDSDJdKVtDSF0zQyhDMihbQ0gzXSlbQ0gzXSk9W0NIXVtDQEBIXTRbQ0hdKFtDSF09W0NIXTMpW0NIMl1bQ0BIXShbQ0gzXSlcQyhDNChbQ0gzXSlbQ0gzXSk9Q1wxT0MoPU8pL1tDSF09W0NIXS9jNVtjSF1bY0hdW2NIXW81

>  <s_epik_cmdline>  (212) 
J2VwaWtfcHl0aG9uJywgJy1waHQnLCAnMi4wJywgJy1waCcsICc3LjAnLCAnLXRuJywgJzgnLCAnLW1hJywgJzIwMCcsICctaW1hZScsICc8aW5maWxlLm1hZT4nLCAnLW9tYWUnLCAnPG91dGZpbGUubWFlPic=

>  <r_lp_tautomer_probability>  (212) 
1

>  <r_epik_Ionization_Penalty>  (212) 
1.29585e-13

>  <r_epik_Ionization_Penalty_Charging>  (212) 
0

>  <r_epik_Ionization_Penalty_Neutral>  (212) 
1.29585e-13

>  <r_epik_State_Penalty>  (212) 
-0

>  <r_epik_Charging_Adjusted_Penalty>  (212) 
0

>  <i_epik_Tot_Q>  (212) 
0

>  <i_epik_Tot_abs_Q>  (212) 
0

>  <s_lp_Force_Field>  (212) 
OPLS3e

>  <r_lp_Energy>  (212) 
360.178

>  <b_lp_Chiralities_Consistent>  (212) 
1

>  <s_lp_Variant>  (212) 
52:0-18

>  <s_i_glide_gridfile>  (212) 
pfpi4k_grid

>  <i_i_glide_lignum>  (212) 
48

>  <i_i_glide_rotatable_bonds>  (212) 
6

>  <r_i_docking_score>  (212) 
-1.23215

>  <r_i_glide_ligand_efficiency>  (212) 
-0.0342265

>  <r_i_glide_ligand_efficiency_sa>  (212) 
-0.113013

>  <r_i_glide_ligand_efficiency_ln>  (212) 
-0.268822

>  <r_i_glide_gscore>  (212) 
-1.23215

>  <r_i_glide_lipo>  (212) 
-0.367885

>  <r_i_glide_hbond>  (212) 
0

>  <r_i_glide_metal>  (212) 
-0

>  <r_i_glide_rewards>  (212) 
-0.0773345

>  <r_i_glide_evdw>  (212) 
-16.4982

>  <r_i_glide_ecoul>  (212) 
-2.00457

>  <r_i_glide_erotb>  (212) 
0.340689

>  <r_i_glide_esite>  (212) 
-0.00202314

>  <r_i_glide_emodel>  (212) 
-16.1447

>  <r_i_glide_energy>  (212) 
-18.5028

>  <r_i_glide_einternal>  (212) 
5.56384

>  <r_i_glide_intrahb_reward>  (212) 
-0

>  <i_i_glide_confnum>  (212) 
1

>  <i_i_glide_posenum>  (212) 
13

>  <r_i_glide_eff_state_penalty>  (212) 
0

>  <ligand_id>  (212) 
52

>  <original_smiles>  (212) 
C=CC1(C)CC2(OC)C(OC(=O)C=Cc3ccco3)=C3C(C)CC4C=CC1C(=CC4C3(C)C)C2(C)C

>  <smiles>  (212) 
[H]C([H])=C([H])C1(C([H])([H])[H])C2([H])C([H])=C([H])C3([H])C([H])([H])C([H])(C([H])([H])[H])C4=C(OC(=O)C([H])=C([H])c5oc([H])c([H])c5[H])C(OC([H])([H])[H])(C1([H])[H])C(C([H])([H])[H])(C([H])([H])[H])C2=C([H])C3([H])C4(C([H])([H])[H])C([H])([H])[H]

$$$$
52:17:1
     RDKit          3D

 76 80  0  0  1  0  0  0  0  0999 V2000
    1.8864   -2.1912    2.6349 C   0  0  0  0  0  0  0  0  0  0  0  0
    2.3940   -3.4348    2.8488 C   0  0  0  0  0  0  0  0  0  0  0  0
    2.7602   -4.1631    4.1918 C   0  0  1  0  0  0  0  0  0  0  0  0
    1.8512   -3.4863    5.2790 C   0  0  0  0  0  0  0  0  0  0  0  0
    2.3191   -5.7589    4.1283 C   0  0  0  0  0  0  0  0  0  0  0  0
    3.6165   -6.6581    4.1558 C   0  0  2  0  0  0  0  0  0  0  0  0
    3.6700   -5.9968    2.8323 O   0  0  0  0  0  0  0  0  0  0  0  0
    3.0654   -6.4832    1.5988 C   0  0  0  0  0  0  0  0  0  0  0  0
    4.3040   -8.0400    3.6968 C   0  0  0  0  0  0  0  0  0  0  0  0
    3.4359   -8.9886    3.2210 O   0  0  0  0  0  0  0  0  0  0  0  0
    2.2625   -9.2798    3.8415 C   0  0  0  0  0  0  0  0  0  0  0  0
    1.9484   -8.9245    4.9687 O   0  0  0  0  0  0  0  0  0  0  0  0
    1.4576  -10.1381    2.9556 C   0  0  0  0  0  0  0  0  0  0  0  0
    0.1229  -10.0453    2.7502 C   0  0  0  0  0  0  0  0  0  0  0  0
   -0.8276   -9.0783    3.1852 C   0  0  0  0  0  0  0  0  0  0  0  0
   -2.1485   -8.9197    2.8272 C   0  0  0  0  0  0  0  0  0  0  0  0
   -2.6057   -7.8197    3.5840 C   0  0  0  0  0  0  0  0  0  0  0  0
   -1.5529   -7.3652    4.3241 C   0  0  0  0  0  0  0  0  0  0  0  0
   -0.4394   -8.1142    4.0823 O   0  0  0  0  0  0  0  0  0  0  0  0
    5.6505   -8.1886    3.3676 C   0  0  0  0  0  0  0  0  0  0  0  0
    6.0062   -8.1475    1.8545 C   0  0  1  0  0  0  0  0  0  0  0  0
    5.0318   -8.8772    0.8991 C   0  0  0  0  0  0  0  0  0  0  0  0
    6.5614   -6.7007    1.4316 C   0  0  0  0  0  0  0  0  0  0  0  0
    6.6336   -5.6808    2.6360 C   0  0  0  0  0  0  0  0  0  0  0  0
    6.1706   -4.2165    2.4771 C   0  0  0  0  0  0  0  0  0  0  0  0
    5.2282   -3.5562    3.2075 C   0  0  0  0  0  0  0  0  0  0  0  0
    4.3982   -3.9709    4.4717 C   0  0  2  0  0  0  0  0  0  0  0  0
    5.1596   -5.1288    5.2119 C   0  0  0  0  0  0  0  0  0  0  0  0
    6.4998   -5.3003    5.1547 C   0  0  0  0  0  0  0  0  0  0  0  0
    7.1519   -6.1360    4.0318 C   0  0  1  0  0  0  0  0  0  0  0  0
    7.0009   -7.6890    4.1126 C   0  0  0  0  0  0  0  0  0  0  0  0
    7.2564   -8.2789    5.5233 C   0  0  0  0  0  0  0  0  0  0  0  0
    8.3177   -8.2591    3.4572 C   0  0  0  0  0  0  0  0  0  0  0  0
    4.2103   -6.2337    5.5904 C   0  0  0  0  0  0  0  0  0  0  0  0
    3.4116   -5.5726    6.7813 C   0  0  0  0  0  0  0  0  0  0  0  0
    4.5754   -7.4645    6.4769 C   0  0  0  0  0  0  0  0  0  0  0  0
    1.6924   -1.4503    3.3901 H   0  0  0  0  0  0  0  0  0  0  0  0
    1.6567   -1.9264    1.6127 H   0  0  0  0  0  0  0  0  0  0  0  0
    2.5978   -4.0122    1.9385 H   0  0  0  0  0  0  0  0  0  0  0  0
    2.3425   -2.6077    5.7054 H   0  0  0  0  0  0  0  0  0  0  0  0
    1.5539   -4.1259    6.1190 H   0  0  0  0  0  0  0  0  0  0  0  0
    0.8704   -3.1940    4.8951 H   0  0  0  0  0  0  0  0  0  0  0  0
    1.7142   -6.0315    4.9787 H   0  0  0  0  0  0  0  0  0  0  0  0
    1.5810   -5.9351    3.3483 H   0  0  0  0  0  0  0  0  0  0  0  0
    3.8689   -6.5287    0.8699 H   0  0  0  0  0  0  0  0  0  0  0  0
    2.2948   -5.8152    1.1781 H   0  0  0  0  0  0  0  0  0  0  0  0
    2.5721   -7.4451    1.7436 H   0  0  0  0  0  0  0  0  0  0  0  0
    1.9288  -10.9048    2.4014 H   0  0  0  0  0  0  0  0  0  0  0  0
   -0.3261  -10.8017    2.1462 H   0  0  0  0  0  0  0  0  0  0  0  0
   -2.7052   -9.5758    2.1671 H   0  0  0  0  0  0  0  0  0  0  0  0
   -3.5877   -7.4310    3.6701 H   0  0  0  0  0  0  0  0  0  0  0  0
   -1.4740   -6.6182    5.1115 H   0  0  0  0  0  0  0  0  0  0  0  0
    6.8449   -8.8129    1.7034 H   0  0  0  0  0  0  0  0  0  0  0  0
    5.1625   -9.9513    1.0022 H   0  0  0  0  0  0  0  0  0  0  0  0
    5.2648   -8.6522   -0.1383 H   0  0  0  0  0  0  0  0  0  0  0  0
    3.9679   -8.7128    1.0092 H   0  0  0  0  0  0  0  0  0  0  0  0
    7.5418   -6.7830    0.9467 H   0  0  0  0  0  0  0  0  0  0  0  0
    5.9601   -6.2669    0.6332 H   0  0  0  0  0  0  0  0  0  0  0  0
    5.6696   -5.8867    2.8861 H   0  0  0  0  0  0  0  0  0  0  0  0
    6.6652   -3.6835    1.6714 H   0  0  0  0  0  0  0  0  0  0  0  0
    4.9988   -2.5385    2.9234 H   0  0  0  0  0  0  0  0  0  0  0  0
    4.5202   -3.1112    5.1248 H   0  0  0  0  0  0  0  0  0  0  0  0
    7.0145   -4.3595    5.0958 H   0  0  0  0  0  0  0  0  0  0  0  0
    8.2165   -5.8979    4.1126 H   0  0  0  0  0  0  0  0  0  0  0  0
    7.0509   -7.5776    6.3199 H   0  0  0  0  0  0  0  0  0  0  0  0
    8.2987   -8.5351    5.7362 H   0  0  0  0  0  0  0  0  0  0  0  0
    6.7397   -9.2258    5.6483 H   0  0  0  0  0  0  0  0  0  0  0  0
    9.2221   -8.0152    4.0294 H   0  0  0  0  0  0  0  0  0  0  0  0
    8.5783   -7.8530    2.4843 H   0  0  0  0  0  0  0  0  0  0  0  0
    8.2692   -9.3501    3.3808 H   0  0  0  0  0  0  0  0  0  0  0  0
    2.4057   -5.9717    6.9448 H   0  0  0  0  0  0  0  0  0  0  0  0
    3.4278   -4.4938    6.7835 H   0  0  0  0  0  0  0  0  0  0  0  0
    3.9110   -5.6987    7.7470 H   0  0  0  0  0  0  0  0  0  0  0  0
    4.8880   -8.3680    5.9935 H   0  0  0  0  0  0  0  0  0  0  0  0
    3.6730   -7.8313    6.9861 H   0  0  0  0  0  0  0  0  0  0  0  0
    5.2670   -7.2135    7.2804 H   0  0  0  0  0  0  0  0  0  0  0  0
  1  2  2  0
  1 37  1  0
  1 38  1  0
  2  3  1  0
  2 39  1  0
  3 27  1  0
  3  4  1  1
  3  5  1  0
  4 40  1  0
  4 41  1  0
  4 42  1  0
  5  6  1  0
  5 43  1  0
  5 44  1  0
  6 34  1  0
  6  7  1  6
  6  9  1  0
  7  8  1  0
  8 45  1  0
  8 46  1  0
  8 47  1  0
  9 10  1  0
  9 20  2  3
 10 11  1  0
 11 12  2  0
 11 13  1  0
 13 14  2  3
 13 48  1  0
 14 15  1  0
 14 49  1  0
 15 19  1  0
 15 16  2  0
 16 17  1  0
 16 50  1  0
 17 18  2  0
 17 51  1  0
 18 19  1  0
 18 52  1  0
 20 31  1  0
 20 21  1  0
 21 22  1  0
 21 23  1  0
 21 53  1  1
 22 54  1  0
 22 55  1  0
 22 56  1  0
 23 24  1  0
 23 57  1  0
 23 58  1  0
 24 30  1  0
 24 25  1  0
 24 59  1  0
 25 26  2  0
 25 60  1  0
 26 27  1  0
 26 61  1  0
 27 28  1  0
 27 62  1  1
 28 29  2  0
 28 34  1  0
 29 30  1  0
 29 63  1  0
 30 31  1  0
 30 64  1  6
 31 32  1  0
 31 33  1  0
 32 65  1  0
 32 66  1  0
 32 67  1  0
 33 68  1  0
 33 69  1  0
 33 70  1  0
 34 35  1  0
 34 36  1  0
 35 71  1  0
 35 72  1  0
 35 73  1  0
 36 74  1  0
 36 75  1  0
 36 76  1  0
M  END
>  <i_m_ct_stereo_status>  (213) 
1

>  <s_m_source_file>  (213) 
/var/tmp/pbs.5076255.sched01/tmphf7gnms3/50i7j3xhgh.sdf

>  <i_m_source_file_index>  (213) 
48

>  <i_lp_mmshare_version>  (213) 
48012

>  <i_f3d_flags>  (213) 
0

>  <s_epik_input>  (213) 
W0NIM11PQzEyW0NIMl1bQ0BdKFtDSDNdKShbQ0hdPVtDSDJdKVtDSF0zQyhDMihbQ0gzXSlbQ0gzXSk9W0NIXVtDQEBIXTRbQ0hdKFtDSF09W0NIXTMpW0NIMl1bQ0BIXShbQ0gzXSlcQyhDNChbQ0gzXSlbQ0gzXSk9Q1wxT0MoPU8pL1tDSF09W0NIXS9jNVtjSF1bY0hdW2NIXW81

>  <s_epik_cmdline>  (213) 
J2VwaWtfcHl0aG9uJywgJy1waHQnLCAnMi4wJywgJy1waCcsICc3LjAnLCAnLXRuJywgJzgnLCAnLW1hJywgJzIwMCcsICctaW1hZScsICc8aW5maWxlLm1hZT4nLCAnLW9tYWUnLCAnPG91dGZpbGUubWFlPic=

>  <r_lp_tautomer_probability>  (213) 
1

>  <r_epik_Ionization_Penalty>  (213) 
1.29585e-13

>  <r_epik_Ionization_Penalty_Charging>  (213) 
0

>  <r_epik_Ionization_Penalty_Neutral>  (213) 
1.29585e-13

>  <r_epik_State_Penalty>  (213) 
-0

>  <r_epik_Charging_Adjusted_Penalty>  (213) 
0

>  <i_epik_Tot_Q>  (213) 
0

>  <i_epik_Tot_abs_Q>  (213) 
0

>  <s_lp_Force_Field>  (213) 
OPLS3e

>  <r_lp_Energy>  (213) 
360.178

>  <b_lp_Chiralities_Consistent>  (213) 
1

>  <s_lp_Variant>  (213) 
52:0-18

>  <s_i_glide_gridfile>  (213) 
pfpi4k_grid

>  <i_i_glide_lignum>  (213) 
48

>  <i_i_glide_rotatable_bonds>  (213) 
6

>  <r_i_docking_score>  (213) 
-0.956664

>  <r_i_glide_ligand_efficiency>  (213) 
-0.026574

>  <r_i_glide_ligand_efficiency_sa>  (213) 
-0.0877455

>  <r_i_glide_ligand_efficiency_ln>  (213) 
-0.208718

>  <r_i_glide_gscore>  (213) 
-0.956664

>  <r_i_glide_lipo>  (213) 
-0.455428

>  <r_i_glide_hbond>  (213) 
0

>  <r_i_glide_metal>  (213) 
-0

>  <r_i_glide_rewards>  (213) 
-0.0773345

>  <r_i_glide_evdw>  (213) 
-16.9481

>  <r_i_glide_ecoul>  (213) 
0.615633

>  <r_i_glide_erotb>  (213) 
0.340689

>  <r_i_glide_esite>  (213) 
-0.00953302

>  <r_i_glide_emodel>  (213) 
-11.9147

>  <r_i_glide_energy>  (213) 
-16.3324

>  <r_i_glide_einternal>  (213) 
9.05455

>  <r_i_glide_intrahb_reward>  (213) 
-0

>  <i_i_glide_confnum>  (213) 
1

>  <i_i_glide_posenum>  (213) 
34

>  <r_i_glide_eff_state_penalty>  (213) 
0

>  <ligand_id>  (213) 
52

>  <original_smiles>  (213) 
C=CC1(C)CC2(OC)C(OC(=O)C=Cc3ccco3)=C3C(C)CC4C=CC1C(=CC4C3(C)C)C2(C)C

>  <smiles>  (213) 
[H]C([H])=C([H])C1(C([H])([H])[H])C2([H])C([H])=C([H])C3([H])C([H])([H])C([H])(C([H])([H])[H])C4=C(OC(=O)C([H])=C([H])c5oc([H])c([H])c5[H])C(OC([H])([H])[H])(C1([H])[H])C(C([H])([H])[H])(C([H])([H])[H])C2=C([H])C3([H])C4(C([H])([H])[H])C([H])([H])[H]

$$$$
52:17:2
     RDKit          3D

 76 80  0  0  1  0  0  0  0  0999 V2000
   -0.8163   -5.2055    6.8811 C   0  0  0  0  0  0  0  0  0  0  0  0
    0.2528   -5.5056    6.1118 C   0  0  0  0  0  0  0  0  0  0  0  0
    1.7227   -5.0982    6.3899 C   0  0  1  0  0  0  0  0  0  0  0  0
    1.9594   -5.8533    7.7368 C   0  0  0  0  0  0  0  0  0  0  0  0
    2.7226   -5.7296    5.2323 C   0  0  0  0  0  0  0  0  0  0  0  0
    3.3524   -4.5180    4.4293 C   0  0  2  0  0  0  0  0  0  0  0  0
    1.9357   -4.4107    4.0853 O   0  0  0  0  0  0  0  0  0  0  0  0
    1.2037   -5.1723    3.0964 C   0  0  0  0  0  0  0  0  0  0  0  0
    3.8388   -4.0182    2.9931 C   0  0  0  0  0  0  0  0  0  0  0  0
    3.8638   -5.0393    2.0760 O   0  0  0  0  0  0  0  0  0  0  0  0
    4.7192   -6.0678    2.2912 C   0  0  0  0  0  0  0  0  0  0  0  0
    5.5637   -6.0623    3.1746 O   0  0  0  0  0  0  0  0  0  0  0  0
    4.4935   -7.1606    1.3162 C   0  0  0  0  0  0  0  0  0  0  0  0
    5.0507   -8.3994    1.3168 C   0  0  0  0  0  0  0  0  0  0  0  0
    5.9871   -9.0701    2.1738 C   0  0  0  0  0  0  0  0  0  0  0  0
    6.5206  -10.3426    2.1891 C   0  0  0  0  0  0  0  0  0  0  0  0
    7.4036  -10.4064    3.3095 C   0  0  0  0  0  0  0  0  0  0  0  0
    7.3400   -9.1761    3.8928 C   0  0  0  0  0  0  0  0  0  0  0  0
    6.4903   -8.3663    3.2210 O   0  0  0  0  0  0  0  0  0  0  0  0
    3.7738   -2.6880    2.5261 C   0  0  0  0  0  0  0  0  0  0  0  0
    2.6260   -2.3530    1.5348 C   0  0  1  0  0  0  0  0  0  0  0  0
    2.2787   -3.3901    0.4337 C   0  0  0  0  0  0  0  0  0  0  0  0
    1.4308   -1.6454    2.3295 C   0  0  0  0  0  0  0  0  0  0  0  0
    1.6839   -1.4052    3.8675 C   0  0  2  0  0  0  0  0  0  0  0  0
    0.6007   -1.7031    4.9241 C   0  0  0  0  0  0  0  0  0  0  0  0
    0.6858   -2.5654    5.9910 C   0  0  0  0  0  0  0  0  0  0  0  0
    1.8786   -3.4240    6.5489 C   0  0  2  0  0  0  0  0  0  0  0  0
    3.2358   -2.7780    6.0744 C   0  0  0  0  0  0  0  0  0  0  0  0
    3.3535   -1.4634    5.7684 C   0  0  0  0  0  0  0  0  0  0  0  0
    3.0775   -0.9305    4.3475 C   0  0  1  0  0  0  0  0  0  0  0  0
    4.1139   -1.2721    3.2348 C   0  0  0  0  0  0  0  0  0  0  0  0
    5.5820   -1.0559    3.6637 C   0  0  0  0  0  0  0  0  0  0  0  0
    4.0580   -0.0535    2.2324 C   0  0  0  0  0  0  0  0  0  0  0  0
    4.1965   -3.8446    5.6157 C   0  0  0  0  0  0  0  0  0  0  0  0
    4.6137   -4.5354    6.9818 C   0  0  0  0  0  0  0  0  0  0  0  0
    5.6806   -3.5929    5.2034 C   0  0  0  0  0  0  0  0  0  0  0  0
   -0.7536   -4.6396    7.8080 H   0  0  0  0  0  0  0  0  0  0  0  0
   -1.7867   -5.5334    6.5747 H   0  0  0  0  0  0  0  0  0  0  0  0
    0.0749   -6.1173    5.2596 H   0  0  0  0  0  0  0  0  0  0  0  0
    1.8032   -5.2032    8.5995 H   0  0  0  0  0  0  0  0  0  0  0  0
    2.9393   -6.3171    7.8269 H   0  0  0  0  0  0  0  0  0  0  0  0
    1.2763   -6.6976    7.8642 H   0  0  0  0  0  0  0  0  0  0  0  0
    3.5230   -6.3277    5.6512 H   0  0  0  0  0  0  0  0  0  0  0  0
    2.2655   -6.5427    4.6700 H   0  0  0  0  0  0  0  0  0  0  0  0
    0.7643   -4.4648    2.4199 H   0  0  0  0  0  0  0  0  0  0  0  0
    0.3442   -5.6380    3.4949 H   0  0  0  0  0  0  0  0  0  0  0  0
    1.7798   -5.9253    2.5528 H   0  0  0  0  0  0  0  0  0  0  0  0
    3.8076   -6.9423    0.5200 H   0  0  0  0  0  0  0  0  0  0  0  0
    4.7268   -9.0228    0.5037 H   0  0  0  0  0  0  0  0  0  0  0  0
    6.2937  -11.1285    1.4791 H   0  0  0  0  0  0  0  0  0  0  0  0
    8.0053  -11.2335    3.6577 H   0  0  0  0  0  0  0  0  0  0  0  0
    7.7992   -8.7134    4.7572 H   0  0  0  0  0  0  0  0  0  0  0  0
    2.9988   -1.6133    0.8405 H   0  0  0  0  0  0  0  0  0  0  0  0
    3.1274   -3.5046   -0.2409 H   0  0  0  0  0  0  0  0  0  0  0  0
    1.4672   -3.0524   -0.2074 H   0  0  0  0  0  0  0  0  0  0  0  0
    2.0305   -4.3865    0.7763 H   0  0  0  0  0  0  0  0  0  0  0  0
    1.1331   -0.7237    1.8294 H   0  0  0  0  0  0  0  0  0  0  0  0
    0.5561   -2.2597    2.2703 H   0  0  0  0  0  0  0  0  0  0  0  0
    1.9290   -2.3894    3.9774 H   0  0  0  0  0  0  0  0  0  0  0  0
   -0.3322   -1.1741    4.7781 H   0  0  0  0  0  0  0  0  0  0  0  0
   -0.1949   -2.6337    6.6047 H   0  0  0  0  0  0  0  0  0  0  0  0
    1.8614   -3.2026    7.6139 H   0  0  0  0  0  0  0  0  0  0  0  0
    2.6806   -0.8520    6.3547 H   0  0  0  0  0  0  0  0  0  0  0  0
    3.0561    0.1527    4.4672 H   0  0  0  0  0  0  0  0  0  0  0  0
    5.7526   -1.1723    4.7245 H   0  0  0  0  0  0  0  0  0  0  0  0
    6.0011   -0.0590    3.4992 H   0  0  0  0  0  0  0  0  0  0  0  0
    6.2049   -1.7047    3.0527 H   0  0  0  0  0  0  0  0  0  0  0  0
    4.3713    0.8762    2.7063 H   0  0  0  0  0  0  0  0  0  0  0  0
    3.0726    0.2252    1.8834 H   0  0  0  0  0  0  0  0  0  0  0  0
    4.6902   -0.2094    1.3533 H   0  0  0  0  0  0  0  0  0  0  0  0
    4.9326   -5.5767    6.9104 H   0  0  0  0  0  0  0  0  0  0  0  0
    3.9010   -4.4175    7.7842 H   0  0  0  0  0  0  0  0  0  0  0  0
    5.4618   -4.0380    7.4622 H   0  0  0  0  0  0  0  0  0  0  0  0
    5.8486   -3.4047    4.1634 H   0  0  0  0  0  0  0  0  0  0  0  0
    6.2777   -4.5050    5.3371 H   0  0  0  0  0  0  0  0  0  0  0  0
    6.1865   -2.8480    5.8214 H   0  0  0  0  0  0  0  0  0  0  0  0
  1  2  2  0
  1 37  1  0
  1 38  1  0
  2  3  1  0
  2 39  1  0
  3 27  1  0
  3  4  1  1
  3  5  1  0
  4 40  1  0
  4 41  1  0
  4 42  1  0
  5  6  1  0
  5 43  1  0
  5 44  1  0
  6 34  1  0
  6  7  1  1
  6  9  1  0
  7  8  1  0
  8 45  1  0
  8 46  1  0
  8 47  1  0
  9 10  1  0
  9 20  2  3
 10 11  1  0
 11 12  2  0
 11 13  1  0
 13 14  2  3
 13 48  1  0
 14 15  1  0
 14 49  1  0
 15 19  1  0
 15 16  2  0
 16 17  1  0
 16 50  1  0
 17 18  2  0
 17 51  1  0
 18 19  1  0
 18 52  1  0
 20 31  1  0
 20 21  1  0
 21 22  1  0
 21 23  1  0
 21 53  1  6
 22 54  1  0
 22 55  1  0
 22 56  1  0
 23 24  1  0
 23 57  1  0
 23 58  1  0
 24 30  1  0
 24 25  1  0
 24 59  1  6
 25 26  2  0
 25 60  1  0
 26 27  1  0
 26 61  1  0
 27 28  1  0
 27 62  1  1
 28 29  2  0
 28 34  1  0
 29 30  1  0
 29 63  1  0
 30 31  1  0
 30 64  1  1
 31 32  1  0
 31 33  1  0
 32 65  1  0
 32 66  1  0
 32 67  1  0
 33 68  1  0
 33 69  1  0
 33 70  1  0
 34 35  1  0
 34 36  1  0
 35 71  1  0
 35 72  1  0
 35 73  1  0
 36 74  1  0
 36 75  1  0
 36 76  1  0
M  END
>  <i_m_ct_stereo_status>  (214) 
1

>  <s_m_source_file>  (214) 
/var/tmp/pbs.5076255.sched01/tmphf7gnms3/50i7j3xhgh.sdf

>  <i_m_source_file_index>  (214) 
48

>  <i_lp_mmshare_version>  (214) 
48012

>  <i_f3d_flags>  (214) 
0

>  <s_epik_input>  (214) 
W0NIM11PQzEyW0NIMl1bQ0BdKFtDSDNdKShbQ0hdPVtDSDJdKVtDSF0zQyhDMihbQ0gzXSlbQ0gzXSk9W0NIXVtDQEBIXTRbQ0hdKFtDSF09W0NIXTMpW0NIMl1bQ0BIXShbQ0gzXSlcQyhDNChbQ0gzXSlbQ0gzXSk9Q1wxT0MoPU8pL1tDSF09W0NIXS9jNVtjSF1bY0hdW2NIXW81

>  <s_epik_cmdline>  (214) 
J2VwaWtfcHl0aG9uJywgJy1waHQnLCAnMi4wJywgJy1waCcsICc3LjAnLCAnLXRuJywgJzgnLCAnLW1hJywgJzIwMCcsICctaW1hZScsICc8aW5maWxlLm1hZT4nLCAnLW9tYWUnLCAnPG91dGZpbGUubWFlPic=

>  <r_lp_tautomer_probability>  (214) 
1

>  <r_epik_Ionization_Penalty>  (214) 
1.29585e-13

>  <r_epik_Ionization_Penalty_Charging>  (214) 
0

>  <r_epik_Ionization_Penalty_Neutral>  (214) 
1.29585e-13

>  <r_epik_State_Penalty>  (214) 
-0

>  <r_epik_Charging_Adjusted_Penalty>  (214) 
0

>  <i_epik_Tot_Q>  (214) 
0

>  <i_epik_Tot_abs_Q>  (214) 
0

>  <s_lp_Force_Field>  (214) 
OPLS3e

>  <r_lp_Energy>  (214) 
360.178

>  <b_lp_Chiralities_Consistent>  (214) 
1

>  <s_lp_Variant>  (214) 
52:0-18

>  <s_i_glide_gridfile>  (214) 
pfpi4k_grid

>  <i_i_glide_lignum>  (214) 
48

>  <i_i_glide_rotatable_bonds>  (214) 
6

>  <r_i_docking_score>  (214) 
-0.761478

>  <r_i_glide_ligand_efficiency>  (214) 
-0.0211522

>  <r_i_glide_ligand_efficiency_sa>  (214) 
-0.0698429

>  <r_i_glide_ligand_efficiency_ln>  (214) 
-0.166134

>  <r_i_glide_gscore>  (214) 
-0.761478

>  <r_i_glide_lipo>  (214) 
-0.371694

>  <r_i_glide_hbond>  (214) 
0

>  <r_i_glide_metal>  (214) 
-0

>  <r_i_glide_rewards>  (214) 
-0.0851563

>  <r_i_glide_evdw>  (214) 
-15.3558

>  <r_i_glide_ecoul>  (214) 
0.81648

>  <r_i_glide_erotb>  (214) 
0.340689

>  <r_i_glide_esite>  (214) 
0

>  <r_i_glide_emodel>  (214) 
-11.1687

>  <r_i_glide_energy>  (214) 
-14.5393

>  <r_i_glide_einternal>  (214) 
6.83855

>  <r_i_glide_intrahb_reward>  (214) 
-0

>  <i_i_glide_confnum>  (214) 
1

>  <i_i_glide_posenum>  (214) 
8

>  <r_i_glide_eff_state_penalty>  (214) 
0

>  <ligand_id>  (214) 
52

>  <original_smiles>  (214) 
C=CC1(C)CC2(OC)C(OC(=O)C=Cc3ccco3)=C3C(C)CC4C=CC1C(=CC4C3(C)C)C2(C)C

>  <smiles>  (214) 
[H]C([H])=C([H])C1(C([H])([H])[H])C2([H])C([H])=C([H])C3([H])C([H])([H])C([H])(C([H])([H])[H])C4=C(OC(=O)C([H])=C([H])c5oc([H])c([H])c5[H])C(OC([H])([H])[H])(C1([H])[H])C(C([H])([H])[H])(C([H])([H])[H])C2=C([H])C3([H])C4(C([H])([H])[H])C([H])([H])[H]

$$$$
52:21:0
     RDKit          3D

 76 80  0  0  1  0  0  0  0  0999 V2000
    6.1255   -8.3346    5.3414 C   0  0  0  0  0  0  0  0  0  0  0  0
    4.8704   -7.8631    5.1947 C   0  0  0  0  0  0  0  0  0  0  0  0
    4.1386   -6.7977    6.0406 C   0  0  1  0  0  0  0  0  0  0  0  0
    5.1461   -6.2790    7.1073 C   0  0  0  0  0  0  0  0  0  0  0  0
    3.8101   -5.5973    5.0518 C   0  0  0  0  0  0  0  0  0  0  0  0
    2.3753   -5.5449    4.3919 C   0  0  1  0  0  0  0  0  0  0  0  0
    2.1272   -4.2474    3.7686 O   0  0  0  0  0  0  0  0  0  0  0  0
    3.1150   -3.4354    3.1731 C   0  0  0  0  0  0  0  0  0  0  0  0
    2.3162   -6.6884    3.2898 C   0  0  0  0  0  0  0  0  0  0  0  0
    3.4555   -6.5203    2.5063 O   0  0  0  0  0  0  0  0  0  0  0  0
    3.3119   -5.8995    1.2947 C   0  0  0  0  0  0  0  0  0  0  0  0
    2.2317   -5.6047    0.7921 O   0  0  0  0  0  0  0  0  0  0  0  0
    4.6303   -5.5205    0.7833 C   0  0  0  0  0  0  0  0  0  0  0  0
    4.8939   -4.6407   -0.2648 C   0  0  0  0  0  0  0  0  0  0  0  0
    4.0548   -3.8681   -1.1353 C   0  0  0  0  0  0  0  0  0  0  0  0
    2.7168   -3.6294   -1.2183 C   0  0  0  0  0  0  0  0  0  0  0  0
    2.5212   -2.7553   -2.3426 C   0  0  0  0  0  0  0  0  0  0  0  0
    3.7563   -2.4965   -2.8440 C   0  0  0  0  0  0  0  0  0  0  0  0
    4.7183   -3.1668   -2.1123 O   0  0  0  0  0  0  0  0  0  0  0  0
    1.5534   -7.8151    2.9613 C   0  0  0  0  0  0  0  0  0  0  0  0
    2.2029   -9.1241    2.4247 C   0  0  1  0  0  0  0  0  0  0  0  0
    3.5391   -9.0710    1.6370 C   0  0  0  0  0  0  0  0  0  0  0  0
    2.2945  -10.1736    3.6107 C   0  0  0  0  0  0  0  0  0  0  0  0
    1.8361   -9.5201    4.9512 C   0  0  2  0  0  0  0  0  0  0  0  0
    2.4946   -9.8773    6.2882 C   0  0  0  0  0  0  0  0  0  0  0  0
    2.9558   -8.8994    7.1024 C   0  0  0  0  0  0  0  0  0  0  0  0
    2.8626   -7.3765    6.8400 C   0  0  2  0  0  0  0  0  0  0  0  0
    1.4684   -6.9374    6.2747 C   0  0  0  0  0  0  0  0  0  0  0  0
    0.4279   -7.7952    6.1379 C   0  0  0  0  0  0  0  0  0  0  0  0
    0.4505   -8.7977    4.9790 C   0  0  1  0  0  0  0  0  0  0  0  0
    0.1538   -8.1921    3.5607 C   0  0  0  0  0  0  0  0  0  0  0  0
   -0.8393   -7.0299    3.3986 C   0  0  0  0  0  0  0  0  0  0  0  0
   -0.6182   -9.3027    2.7643 C   0  0  0  0  0  0  0  0  0  0  0  0
    1.4170   -5.5296    5.6870 C   0  0  0  0  0  0  0  0  0  0  0  0
    1.8575   -4.5416    6.8211 C   0  0  0  0  0  0  0  0  0  0  0  0
   -0.0441   -4.9628    5.4623 C   0  0  0  0  0  0  0  0  0  0  0  0
    6.8089   -8.0051    6.1063 H   0  0  0  0  0  0  0  0  0  0  0  0
    6.4763   -9.1009    4.6594 H   0  0  0  0  0  0  0  0  0  0  0  0
    4.3322   -8.2896    4.3721 H   0  0  0  0  0  0  0  0  0  0  0  0
    4.7791   -5.4375    7.6892 H   0  0  0  0  0  0  0  0  0  0  0  0
    6.0778   -5.9421    6.6495 H   0  0  0  0  0  0  0  0  0  0  0  0
    5.4012   -7.0634    7.8235 H   0  0  0  0  0  0  0  0  0  0  0  0
    3.9976   -4.6594    5.5550 H   0  0  0  0  0  0  0  0  0  0  0  0
    4.5839   -5.5639    4.2833 H   0  0  0  0  0  0  0  0  0  0  0  0
    2.6121   -2.6148    2.6692 H   0  0  0  0  0  0  0  0  0  0  0  0
    3.7060   -3.8969    2.4203 H   0  0  0  0  0  0  0  0  0  0  0  0
    3.8025   -3.0400    3.9017 H   0  0  0  0  0  0  0  0  0  0  0  0
    5.4849   -5.9894    1.2158 H   0  0  0  0  0  0  0  0  0  0  0  0
    5.9358   -4.5410   -0.4660 H   0  0  0  0  0  0  0  0  0  0  0  0
    1.9205   -4.0055   -0.6129 H   0  0  0  0  0  0  0  0  0  0  0  0
    1.5706   -2.4000   -2.7027 H   0  0  0  0  0  0  0  0  0  0  0  0
    4.1101   -1.8960   -3.6758 H   0  0  0  0  0  0  0  0  0  0  0  0
    1.5426   -9.5232    1.6567 H   0  0  0  0  0  0  0  0  0  0  0  0
    3.4342   -8.4765    0.7340 H   0  0  0  0  0  0  0  0  0  0  0  0
    3.8281  -10.0611    1.2951 H   0  0  0  0  0  0  0  0  0  0  0  0
    4.3746   -8.6888    2.2205 H   0  0  0  0  0  0  0  0  0  0  0  0
    1.7091  -11.0609    3.3887 H   0  0  0  0  0  0  0  0  0  0  0  0
    3.3151  -10.5313    3.7094 H   0  0  0  0  0  0  0  0  0  0  0  0
    2.5029   -8.7032    4.8543 H   0  0  0  0  0  0  0  0  0  0  0  0
    2.6301  -10.9116    6.5424 H   0  0  0  0  0  0  0  0  0  0  0  0
    3.4356   -9.1879    8.0300 H   0  0  0  0  0  0  0  0  0  0  0  0
    2.8588   -6.9381    7.8363 H   0  0  0  0  0  0  0  0  0  0  0  0
    0.4050   -8.5020    6.9521 H   0  0  0  0  0  0  0  0  0  0  0  0
   -0.3245   -9.5287    5.2241 H   0  0  0  0  0  0  0  0  0  0  0  0
   -1.3985   -7.0895    2.4635 H   0  0  0  0  0  0  0  0  0  0  0  0
   -0.3152   -6.0898    3.2987 H   0  0  0  0  0  0  0  0  0  0  0  0
   -1.5934   -7.0128    4.1878 H   0  0  0  0  0  0  0  0  0  0  0  0
   -1.6472   -9.3962    3.1155 H   0  0  0  0  0  0  0  0  0  0  0  0
   -0.2102  -10.3033    2.8694 H   0  0  0  0  0  0  0  0  0  0  0  0
   -0.6664   -9.0819    1.7000 H   0  0  0  0  0  0  0  0  0  0  0  0
    1.9218   -3.5122    6.4718 H   0  0  0  0  0  0  0  0  0  0  0  0
    2.8052   -4.7592    7.3035 H   0  0  0  0  0  0  0  0  0  0  0  0
    1.1627   -4.5570    7.6610 H   0  0  0  0  0  0  0  0  0  0  0  0
   -0.3243   -4.1864    6.1740 H   0  0  0  0  0  0  0  0  0  0  0  0
   -0.8359   -5.6869    5.6072 H   0  0  0  0  0  0  0  0  0  0  0  0
   -0.1732   -4.4514    4.5129 H   0  0  0  0  0  0  0  0  0  0  0  0
  1  2  2  0
  1 37  1  0
  1 38  1  0
  2  3  1  0
  2 39  1  0
  3 27  1  0
  3  4  1  1
  3  5  1  0
  4 40  1  0
  4 41  1  0
  4 42  1  0
  5  6  1  0
  5 43  1  0
  5 44  1  0
  6 34  1  0
  6  7  1  6
  6  9  1  0
  7  8  1  0
  8 45  1  0
  8 46  1  0
  8 47  1  0
  9 10  1  0
  9 20  2  3
 10 11  1  0
 11 12  2  0
 11 13  1  0
 13 14  2  3
 13 48  1  0
 14 15  1  0
 14 49  1  0
 15 19  1  0
 15 16  2  0
 16 17  1  0
 16 50  1  0
 17 18  2  0
 17 51  1  0
 18 19  1  0
 18 52  1  0
 20 31  1  0
 20 21  1  0
 21 22  1  0
 21 23  1  0
 21 53  1  6
 22 54  1  0
 22 55  1  0
 22 56  1  0
 23 24  1  0
 23 57  1  0
 23 58  1  0
 24 30  1  0
 24 25  1  0
 24 59  1  6
 25 26  2  0
 25 60  1  0
 26 27  1  0
 26 61  1  0
 27 28  1  0
 27 62  1  1
 28 29  2  0
 28 34  1  0
 29 30  1  0
 29 63  1  0
 30 31  1  0
 30 64  1  1
 31 32  1  0
 31 33  1  0
 32 65  1  0
 32 66  1  0
 32 67  1  0
 33 68  1  0
 33 69  1  0
 33 70  1  0
 34 35  1  0
 34 36  1  0
 35 71  1  0
 35 72  1  0
 35 73  1  0
 36 74  1  0
 36 75  1  0
 36 76  1  0
M  END
>  <i_m_ct_stereo_status>  (215) 
1

>  <s_m_source_file>  (215) 
/var/tmp/pbs.5076255.sched01/tmp2a9bgmzv/100_xx7n39i.sdf

>  <i_m_source_file_index>  (215) 
2

>  <i_lp_mmshare_version>  (215) 
48012

>  <i_f3d_flags>  (215) 
0

>  <s_epik_input>  (215) 
W0NIM11PQzEyW0NIMl1bQ0BdKFtDSDNdKShbQ0hdPVtDSDJdKVtDSF0zQyhDMihbQ0gzXSlbQ0gzXSk9W0NIXVtDQEBIXTRbQ0hdKFtDSF09W0NIXTMpW0NIMl1bQ0BIXShbQ0gzXSlcQyhDNChbQ0gzXSlbQ0gzXSk9Q1wxT0MoPU8pL1tDSF09W0NIXS9jNVtjSF1bY0hdW2NIXW81

>  <s_epik_cmdline>  (215) 
J2VwaWtfcHl0aG9uJywgJy1waHQnLCAnMi4wJywgJy1waCcsICc3LjAnLCAnLXRuJywgJzgnLCAnLW1hJywgJzIwMCcsICctaW1hZScsICc8aW5maWxlLm1hZT4nLCAnLW9tYWUnLCAnPG91dGZpbGUubWFlPic=

>  <r_lp_tautomer_probability>  (215) 
1

>  <r_epik_Ionization_Penalty>  (215) 
1.29585e-13

>  <r_epik_Ionization_Penalty_Charging>  (215) 
0

>  <r_epik_Ionization_Penalty_Neutral>  (215) 
1.29585e-13

>  <r_epik_State_Penalty>  (215) 
-0

>  <r_epik_Charging_Adjusted_Penalty>  (215) 
0

>  <i_epik_Tot_Q>  (215) 
0

>  <i_epik_Tot_abs_Q>  (215) 
0

>  <s_lp_Force_Field>  (215) 
OPLS3e

>  <r_lp_Energy>  (215) 
212.446

>  <b_lp_Chiralities_Consistent>  (215) 
1

>  <s_lp_Variant>  (215) 
52:0-22

>  <s_i_glide_gridfile>  (215) 
pfpi4k_grid

>  <i_i_glide_lignum>  (215) 
2

>  <i_i_glide_rotatable_bonds>  (215) 
6

>  <r_i_docking_score>  (215) 
-1.22505

>  <r_i_glide_ligand_efficiency>  (215) 
-0.0340291

>  <r_i_glide_ligand_efficiency_sa>  (215) 
-0.112362

>  <r_i_glide_ligand_efficiency_ln>  (215) 
-0.267272

>  <r_i_glide_gscore>  (215) 
-1.22505

>  <r_i_glide_lipo>  (215) 
-0.181906

>  <r_i_glide_hbond>  (215) 
0

>  <r_i_glide_metal>  (215) 
-0

>  <r_i_glide_rewards>  (215) 
-0.115034

>  <r_i_glide_evdw>  (215) 
-25.6016

>  <r_i_glide_ecoul>  (215) 
0.0752114

>  <r_i_glide_erotb>  (215) 
0.340689

>  <r_i_glide_esite>  (215) 
0

>  <r_i_glide_emodel>  (215) 
-25.2771

>  <r_i_glide_energy>  (215) 
-25.5264

>  <r_i_glide_einternal>  (215) 
1.63564

>  <r_i_glide_intrahb_reward>  (215) 
-0

>  <i_i_glide_confnum>  (215) 
2

>  <i_i_glide_posenum>  (215) 
23

>  <r_i_glide_eff_state_penalty>  (215) 
0

>  <ligand_id>  (215) 
52

>  <original_smiles>  (215) 
C=CC1(C)CC2(OC)C(OC(=O)C=Cc3ccco3)=C3C(C)CC4C=CC1C(=CC4C3(C)C)C2(C)C

>  <smiles>  (215) 
[H]C([H])=C([H])C1(C([H])([H])[H])C2([H])C([H])=C([H])C3([H])C([H])([H])C([H])(C([H])([H])[H])C4=C(OC(=O)C([H])=C([H])c5oc([H])c([H])c5[H])C(OC([H])([H])[H])(C1([H])[H])C(C([H])([H])[H])(C([H])([H])[H])C2=C([H])C3([H])C4(C([H])([H])[H])C([H])([H])[H]

$$$$
52:23:0
     RDKit          3D

 76 80  0  0  1  0  0  0  0  0999 V2000
   -1.8371   -7.5385    3.8416 C   0  0  0  0  0  0  0  0  0  0  0  0
   -0.4970   -7.3947    4.0293 C   0  0  0  0  0  0  0  0  0  0  0  0
    0.6822   -8.3508    3.6462 C   0  0  1  0  0  0  0  0  0  0  0  0
   -0.0370   -9.7103    3.4061 C   0  0  0  0  0  0  0  0  0  0  0  0
    1.4486   -7.7486    2.3051 C   0  0  0  0  0  0  0  0  0  0  0  0
    2.9573   -7.4378    2.6793 C   0  0  2  0  0  0  0  0  0  0  0  0
    2.4452   -6.4309    3.6001 O   0  0  0  0  0  0  0  0  0  0  0  0
    1.7651   -5.2149    3.1515 C   0  0  0  0  0  0  0  0  0  0  0  0
    4.1813   -6.5531    2.1946 C   0  0  0  0  0  0  0  0  0  0  0  0
    3.8176   -5.9121    1.0231 O   0  0  0  0  0  0  0  0  0  0  0  0
    4.7262   -5.1876    0.3041 C   0  0  0  0  0  0  0  0  0  0  0  0
    5.9483   -5.2008    0.4450 O   0  0  0  0  0  0  0  0  0  0  0  0
    4.0495   -4.3250   -0.6850 C   0  0  0  0  0  0  0  0  0  0  0  0
    4.6633   -3.2949   -1.2673 C   0  0  0  0  0  0  0  0  0  0  0  0
    4.1293   -2.4647   -2.3070 C   0  0  0  0  0  0  0  0  0  0  0  0
    3.0591   -2.5977   -3.1208 C   0  0  0  0  0  0  0  0  0  0  0  0
    3.0005   -1.4244   -3.9207 C   0  0  0  0  0  0  0  0  0  0  0  0
    4.0531   -0.6354   -3.5157 C   0  0  0  0  0  0  0  0  0  0  0  0
    4.7516   -1.2750   -2.5162 O   0  0  0  0  0  0  0  0  0  0  0  0
    5.0467   -5.9964    3.1473 C   0  0  0  0  0  0  0  0  0  0  0  0
    4.8102   -4.5911    3.7753 C   0  0  1  0  0  0  0  0  0  0  0  0
    4.3641   -3.3969    2.8796 C   0  0  0  0  0  0  0  0  0  0  0  0
    4.1637   -4.7076    5.2290 C   0  0  0  0  0  0  0  0  0  0  0  0
    4.0285   -6.1496    5.9177 C   0  0  1  0  0  0  0  0  0  0  0  0
    2.5709   -6.5168    6.3641 C   0  0  0  0  0  0  0  0  0  0  0  0
    1.6626   -7.4722    5.9808 C   0  0  0  0  0  0  0  0  0  0  0  0
    1.7010   -8.6020    4.9090 C   0  0  2  0  0  0  0  0  0  0  0  0
    3.1727   -8.9328    4.5371 C   0  0  0  0  0  0  0  0  0  0  0  0
    4.1766   -8.6543    5.3997 C   0  0  0  0  0  0  0  0  0  0  0  0
    4.9492   -7.3116    5.3892 C   0  0  1  0  0  0  0  0  0  0  0  0
    5.9071   -6.7813    4.2334 C   0  0  0  0  0  0  0  0  0  0  0  0
    7.0279   -7.6416    3.5595 C   0  0  0  0  0  0  0  0  0  0  0  0
    6.9505   -5.9154    5.0561 C   0  0  0  0  0  0  0  0  0  0  0  0
    3.4344   -8.9255    3.0530 C   0  0  0  0  0  0  0  0  0  0  0  0
    2.7997  -10.1880    2.3277 C   0  0  0  0  0  0  0  0  0  0  0  0
    4.8752   -9.3925    2.6596 C   0  0  0  0  0  0  0  0  0  0  0  0
   -2.2796   -8.4187    3.3854 H   0  0  0  0  0  0  0  0  0  0  0  0
   -2.4997   -6.7515    4.1462 H   0  0  0  0  0  0  0  0  0  0  0  0
   -0.2184   -6.4885    4.5336 H   0  0  0  0  0  0  0  0  0  0  0  0
    0.5595  -10.5941    3.5937 H   0  0  0  0  0  0  0  0  0  0  0  0
   -0.4738   -9.8152    2.4057 H   0  0  0  0  0  0  0  0  0  0  0  0
   -0.8590   -9.7995    4.0989 H   0  0  0  0  0  0  0  0  0  0  0  0
    1.3944   -8.3833    1.4282 H   0  0  0  0  0  0  0  0  0  0  0  0
    0.8716   -6.9431    1.8684 H   0  0  0  0  0  0  0  0  0  0  0  0
    2.1319   -4.3403    3.6803 H   0  0  0  0  0  0  0  0  0  0  0  0
    0.7051   -5.2020    3.3484 H   0  0  0  0  0  0  0  0  0  0  0  0
    1.8816   -5.0437    2.0759 H   0  0  0  0  0  0  0  0  0  0  0  0
    3.0267   -4.5646   -0.9404 H   0  0  0  0  0  0  0  0  0  0  0  0
    5.6748   -3.0529   -0.9758 H   0  0  0  0  0  0  0  0  0  0  0  0
    2.3768   -3.4464   -3.1501 H   0  0  0  0  0  0  0  0  0  0  0  0
    2.2764   -1.1393   -4.6620 H   0  0  0  0  0  0  0  0  0  0  0  0
    4.3932    0.3411   -3.7923 H   0  0  0  0  0  0  0  0  0  0  0  0
    5.8003   -4.1881    3.9444 H   0  0  0  0  0  0  0  0  0  0  0  0
    5.1719   -3.1378    2.1905 H   0  0  0  0  0  0  0  0  0  0  0  0
    4.1758   -2.5063    3.4765 H   0  0  0  0  0  0  0  0  0  0  0  0
    3.4921   -3.5790    2.2598 H   0  0  0  0  0  0  0  0  0  0  0  0
    4.7853   -4.0947    5.8891 H   0  0  0  0  0  0  0  0  0  0  0  0
    3.2187   -4.1737    5.3297 H   0  0  0  0  0  0  0  0  0  0  0  0
    4.4585   -5.9680    6.9074 H   0  0  0  0  0  0  0  0  0  0  0  0
    2.2383   -5.8767    7.1634 H   0  0  0  0  0  0  0  0  0  0  0  0
    0.7208   -7.4732    6.5125 H   0  0  0  0  0  0  0  0  0  0  0  0
    1.3438   -9.4789    5.4529 H   0  0  0  0  0  0  0  0  0  0  0  0
    3.8926   -8.7833    6.4348 H   0  0  0  0  0  0  0  0  0  0  0  0
    5.6340   -7.5469    6.2067 H   0  0  0  0  0  0  0  0  0  0  0  0
    7.2766   -8.5386    4.1342 H   0  0  0  0  0  0  0  0  0  0  0  0
    7.9830   -7.1328    3.4464 H   0  0  0  0  0  0  0  0  0  0  0  0
    6.8401   -7.8677    2.5169 H   0  0  0  0  0  0  0  0  0  0  0  0
    7.6337   -6.5526    5.6286 H   0  0  0  0  0  0  0  0  0  0  0  0
    6.5423   -5.2495    5.8138 H   0  0  0  0  0  0  0  0  0  0  0  0
    7.5819   -5.3081    4.4092 H   0  0  0  0  0  0  0  0  0  0  0  0
    3.1833  -10.2864    1.3159 H   0  0  0  0  0  0  0  0  0  0  0  0
    1.7658  -10.2478    2.0599 H   0  0  0  0  0  0  0  0  0  0  0  0
    3.0105  -11.1029    2.8974 H   0  0  0  0  0  0  0  0  0  0  0  0
    5.2473   -8.8502    1.7931 H   0  0  0  0  0  0  0  0  0  0  0  0
    5.0005  -10.4291    2.3386 H   0  0  0  0  0  0  0  0  0  0  0  0
    5.5378   -9.4543    3.5049 H   0  0  0  0  0  0  0  0  0  0  0  0
  1  2  2  0
  1 37  1  0
  1 38  1  0
  2  3  1  0
  2 39  1  0
  3 27  1  0
  3  4  1  6
  3  5  1  0
  4 40  1  0
  4 41  1  0
  4 42  1  0
  5  6  1  0
  5 43  1  0
  5 44  1  0
  6 34  1  0
  6  7  1  1
  6  9  1  0
  7  8  1  0
  8 45  1  0
  8 46  1  0
  8 47  1  0
  9 10  1  0
  9 20  2  3
 10 11  1  0
 11 12  2  0
 11 13  1  0
 13 14  2  3
 13 48  1  0
 14 15  1  0
 14 49  1  0
 15 19  1  0
 15 16  2  0
 16 17  1  0
 16 50  1  0
 17 18  2  0
 17 51  1  0
 18 19  1  0
 18 52  1  0
 20 31  1  0
 20 21  1  0
 21 22  1  0
 21 23  1  0
 21 53  1  1
 22 54  1  0
 22 55  1  0
 22 56  1  0
 23 24  1  0
 23 57  1  0
 23 58  1  0
 24 30  1  0
 24 25  1  0
 24 59  1  1
 25 26  2  0
 25 60  1  0
 26 27  1  0
 26 61  1  0
 27 28  1  0
 27 62  1  1
 28 29  2  0
 28 34  1  0
 29 30  1  0
 29 63  1  0
 30 31  1  0
 30 64  1  1
 31 32  1  0
 31 33  1  0
 32 65  1  0
 32 66  1  0
 32 67  1  0
 33 68  1  0
 33 69  1  0
 33 70  1  0
 34 35  1  0
 34 36  1  0
 35 71  1  0
 35 72  1  0
 35 73  1  0
 36 74  1  0
 36 75  1  0
 36 76  1  0
M  END
>  <i_m_ct_stereo_status>  (216) 
1

>  <s_m_source_file>  (216) 
/var/tmp/pbs.5076255.sched01/tmp2a9bgmzv/100_xx7n39i.sdf

>  <i_m_source_file_index>  (216) 
4

>  <i_lp_mmshare_version>  (216) 
48012

>  <i_f3d_flags>  (216) 
0

>  <s_epik_input>  (216) 
W0NIM11PQzEyW0NIMl1bQ0BdKFtDSDNdKShbQ0hdPVtDSDJdKVtDSF0zQyhDMihbQ0gzXSlbQ0gzXSk9W0NIXVtDQEBIXTRbQ0hdKFtDSF09W0NIXTMpW0NIMl1bQ0BIXShbQ0gzXSlcQyhDNChbQ0gzXSlbQ0gzXSk9Q1wxT0MoPU8pL1tDSF09W0NIXS9jNVtjSF1bY0hdW2NIXW81

>  <s_epik_cmdline>  (216) 
J2VwaWtfcHl0aG9uJywgJy1waHQnLCAnMi4wJywgJy1waCcsICc3LjAnLCAnLXRuJywgJzgnLCAnLW1hJywgJzIwMCcsICctaW1hZScsICc8aW5maWxlLm1hZT4nLCAnLW9tYWUnLCAnPG91dGZpbGUubWFlPic=

>  <r_lp_tautomer_probability>  (216) 
1

>  <r_epik_Ionization_Penalty>  (216) 
1.29585e-13

>  <r_epik_Ionization_Penalty_Charging>  (216) 
0

>  <r_epik_Ionization_Penalty_Neutral>  (216) 
1.29585e-13

>  <r_epik_State_Penalty>  (216) 
-0

>  <r_epik_Charging_Adjusted_Penalty>  (216) 
0

>  <i_epik_Tot_Q>  (216) 
0

>  <i_epik_Tot_abs_Q>  (216) 
0

>  <s_lp_Force_Field>  (216) 
OPLS3e

>  <r_lp_Energy>  (216) 
331.418

>  <b_lp_Chiralities_Consistent>  (216) 
1

>  <s_lp_Variant>  (216) 
52:0-24

>  <s_i_glide_gridfile>  (216) 
pfpi4k_grid

>  <i_i_glide_lignum>  (216) 
4

>  <i_i_glide_rotatable_bonds>  (216) 
6

>  <r_i_docking_score>  (216) 
-2.05544

>  <r_i_glide_ligand_efficiency>  (216) 
-0.0570955

>  <r_i_glide_ligand_efficiency_sa>  (216) 
-0.188525

>  <r_i_glide_ligand_efficiency_ln>  (216) 
-0.448441

>  <r_i_glide_gscore>  (216) 
-2.05544

>  <r_i_glide_lipo>  (216) 
-0.502071

>  <r_i_glide_hbond>  (216) 
0

>  <r_i_glide_metal>  (216) 
-0

>  <r_i_glide_rewards>  (216) 
-0.15608

>  <r_i_glide_evdw>  (216) 
-27.2199

>  <r_i_glide_ecoul>  (216) 
-2.5132

>  <r_i_glide_erotb>  (216) 
0.340689

>  <r_i_glide_esite>  (216) 
0

>  <r_i_glide_emodel>  (216) 
-30.3539

>  <r_i_glide_energy>  (216) 
-29.7331

>  <r_i_glide_einternal>  (216) 
4.31769

>  <r_i_glide_intrahb_reward>  (216) 
-0

>  <i_i_glide_confnum>  (216) 
1

>  <i_i_glide_posenum>  (216) 
23

>  <r_i_glide_eff_state_penalty>  (216) 
0

>  <ligand_id>  (216) 
52

>  <original_smiles>  (216) 
C=CC1(C)CC2(OC)C(OC(=O)C=Cc3ccco3)=C3C(C)CC4C=CC1C(=CC4C3(C)C)C2(C)C

>  <smiles>  (216) 
[H]C([H])=C([H])C1(C([H])([H])[H])C2([H])C([H])=C([H])C3([H])C([H])([H])C([H])(C([H])([H])[H])C4=C(OC(=O)C([H])=C([H])c5oc([H])c([H])c5[H])C(OC([H])([H])[H])(C1([H])[H])C(C([H])([H])[H])(C([H])([H])[H])C2=C([H])C3([H])C4(C([H])([H])[H])C([H])([H])[H]

$$$$
52:23:1
     RDKit          3D

 76 80  0  0  1  0  0  0  0  0999 V2000
   -1.1531   -7.9858    2.4468 C   0  0  0  0  0  0  0  0  0  0  0  0
   -0.3419   -8.4632    3.4142 C   0  0  0  0  0  0  0  0  0  0  0  0
    1.0891   -9.0077    3.2240 C   0  0  1  0  0  0  0  0  0  0  0  0
    0.7260  -10.4748    2.8282 C   0  0  0  0  0  0  0  0  0  0  0  0
    1.8715   -8.1331    2.0533 C   0  0  0  0  0  0  0  0  0  0  0  0
    3.1457   -7.4608    2.7057 C   0  0  2  0  0  0  0  0  0  0  0  0
    2.2490   -6.7224    3.5851 O   0  0  0  0  0  0  0  0  0  0  0  0
    1.2861   -5.7310    3.1079 C   0  0  0  0  0  0  0  0  0  0  0  0
    4.0946   -6.2312    2.4597 C   0  0  0  0  0  0  0  0  0  0  0  0
    3.6988   -5.6068    1.2986 O   0  0  0  0  0  0  0  0  0  0  0  0
    4.5256   -4.7102    0.6858 C   0  0  0  0  0  0  0  0  0  0  0  0
    5.6884   -4.4657    1.0120 O   0  0  0  0  0  0  0  0  0  0  0  0
    3.8348   -4.0383   -0.4285 C   0  0  0  0  0  0  0  0  0  0  0  0
    4.4004   -3.0340   -1.1249 C   0  0  0  0  0  0  0  0  0  0  0  0
    3.8382   -2.3517   -2.2446 C   0  0  0  0  0  0  0  0  0  0  0  0
    2.6931   -2.5382   -2.9643 C   0  0  0  0  0  0  0  0  0  0  0  0
    2.6759   -1.5234   -3.9621 C   0  0  0  0  0  0  0  0  0  0  0  0
    3.8035   -0.7804   -3.7687 C   0  0  0  0  0  0  0  0  0  0  0  0
    4.5270   -1.2812   -2.7285 O   0  0  0  0  0  0  0  0  0  0  0  0
    4.6158   -5.5398    3.5691 C   0  0  0  0  0  0  0  0  0  0  0  0
    3.8942   -4.3139    4.1856 C   0  0  1  0  0  0  0  0  0  0  0  0
    3.2682   -3.2513    3.2462 C   0  0  0  0  0  0  0  0  0  0  0  0
    3.0982   -4.7251    5.5087 C   0  0  0  0  0  0  0  0  0  0  0  0
    3.2848   -6.1927    6.1197 C   0  0  1  0  0  0  0  0  0  0  0  0
    1.9530   -6.9895    6.3141 C   0  0  0  0  0  0  0  0  0  0  0  0
    1.4273   -8.1258    5.7512 C   0  0  0  0  0  0  0  0  0  0  0  0
    1.9366   -9.0980    4.6375 C   0  0  2  0  0  0  0  0  0  0  0  0
    3.4872   -8.9844    4.5069 C   0  0  0  0  0  0  0  0  0  0  0  0
    4.2255   -8.5038    5.5331 C   0  0  0  0  0  0  0  0  0  0  0  0
    4.5699   -7.0068    5.7060 C   0  0  1  0  0  0  0  0  0  0  0  0
    5.4922   -6.1362    4.7457 C   0  0  0  0  0  0  0  0  0  0  0  0
    6.9018   -6.5940    4.2336 C   0  0  0  0  0  0  0  0  0  0  0  0
    6.1072   -5.0752    5.7612 C   0  0  0  0  0  0  0  0  0  0  0  0
    3.9513   -8.7910    3.0887 C   0  0  0  0  0  0  0  0  0  0  0  0
    3.7981  -10.1247    2.2344 C   0  0  0  0  0  0  0  0  0  0  0  0
    5.5004   -8.7990    2.9198 C   0  0  0  0  0  0  0  0  0  0  0  0
   -0.8514   -7.9604    1.4121 H   0  0  0  0  0  0  0  0  0  0  0  0
   -2.1387   -7.6200    2.6858 H   0  0  0  0  0  0  0  0  0  0  0  0
   -0.7492   -8.4824    4.4128 H   0  0  0  0  0  0  0  0  0  0  0  0
    1.4694  -11.2134    3.1290 H   0  0  0  0  0  0  0  0  0  0  0  0
    0.5528  -10.5777    1.7572 H   0  0  0  0  0  0  0  0  0  0  0  0
   -0.1831  -10.8256    3.3243 H   0  0  0  0  0  0  0  0  0  0  0  0
    2.1165   -8.7196    1.1761 H   0  0  0  0  0  0  0  0  0  0  0  0
    1.2268   -7.4506    1.5202 H   0  0  0  0  0  0  0  0  0  0  0  0
    1.2601   -4.8248    3.6867 H   0  0  0  0  0  0  0  0  0  0  0  0
    0.2626   -6.0601    3.2141 H   0  0  0  0  0  0  0  0  0  0  0  0
    1.4217   -5.4415    2.0673 H   0  0  0  0  0  0  0  0  0  0  0  0
    2.8415   -4.3785   -0.6876 H   0  0  0  0  0  0  0  0  0  0  0  0
    5.3858   -2.6994   -0.8304 H   0  0  0  0  0  0  0  0  0  0  0  0
    1.9680   -3.3148   -2.7944 H   0  0  0  0  0  0  0  0  0  0  0  0
    1.9279   -1.3396   -4.7156 H   0  0  0  0  0  0  0  0  0  0  0  0
    4.2148    0.0845   -4.2579 H   0  0  0  0  0  0  0  0  0  0  0  0
    4.6821   -3.6556    4.5326 H   0  0  0  0  0  0  0  0  0  0  0  0
    4.0571   -2.7453    2.6868 H   0  0  0  0  0  0  0  0  0  0  0  0
    2.7544   -2.4757    3.8143 H   0  0  0  0  0  0  0  0  0  0  0  0
    2.5782   -3.6229    2.4977 H   0  0  0  0  0  0  0  0  0  0  0  0
    3.4022   -4.0153    6.2796 H   0  0  0  0  0  0  0  0  0  0  0  0
    2.0403   -4.4857    5.4790 H   0  0  0  0  0  0  0  0  0  0  0  0
    3.4913   -5.9785    7.1700 H   0  0  0  0  0  0  0  0  0  0  0  0
    1.3293   -6.5346    7.0702 H   0  0  0  0  0  0  0  0  0  0  0  0
    0.4718   -8.4347    6.1518 H   0  0  0  0  0  0  0  0  0  0  0  0
    1.7680  -10.0826    5.0775 H   0  0  0  0  0  0  0  0  0  0  0  0
    3.8433   -8.8015    6.4981 H   0  0  0  0  0  0  0  0  0  0  0  0
    5.1636   -7.1090    6.6158 H   0  0  0  0  0  0  0  0  0  0  0  0
    7.3076   -7.4351    4.7960 H   0  0  0  0  0  0  0  0  0  0  0  0
    7.6801   -5.8305    4.3005 H   0  0  0  0  0  0  0  0  0  0  0  0
    6.9397   -6.7710    3.1668 H   0  0  0  0  0  0  0  0  0  0  0  0
    6.8569   -5.5299    6.4137 H   0  0  0  0  0  0  0  0  0  0  0  0
    5.4152   -4.6254    6.4664 H   0  0  0  0  0  0  0  0  0  0  0  0
    6.6127   -4.2442    5.2639 H   0  0  0  0  0  0  0  0  0  0  0  0
    4.3615  -10.0802    1.2977 H   0  0  0  0  0  0  0  0  0  0  0  0
    2.8565  -10.4577    1.8500 H   0  0  0  0  0  0  0  0  0  0  0  0
    4.1677  -10.9873    2.7967 H   0  0  0  0  0  0  0  0  0  0  0  0
    5.8234   -8.0977    2.1544 H   0  0  0  0  0  0  0  0  0  0  0  0
    5.9639   -9.7301    2.5807 H   0  0  0  0  0  0  0  0  0  0  0  0
    6.0203   -8.7432    3.8583 H   0  0  0  0  0  0  0  0  0  0  0  0
  1  2  2  0
  1 37  1  0
  1 38  1  0
  2  3  1  0
  2 39  1  0
  3 27  1  0
  3  4  1  6
  3  5  1  0
  4 40  1  0
  4 41  1  0
  4 42  1  0
  5  6  1  0
  5 43  1  0
  5 44  1  0
  6 34  1  0
  6  7  1  1
  6  9  1  0
  7  8  1  0
  8 45  1  0
  8 46  1  0
  8 47  1  0
  9 10  1  0
  9 20  2  3
 10 11  1  0
 11 12  2  0
 11 13  1  0
 13 14  2  3
 13 48  1  0
 14 15  1  0
 14 49  1  0
 15 19  1  0
 15 16  2  0
 16 17  1  0
 16 50  1  0
 17 18  2  0
 17 51  1  0
 18 19  1  0
 18 52  1  0
 20 31  1  0
 20 21  1  0
 21 22  1  0
 21 23  1  0
 21 53  1  1
 22 54  1  0
 22 55  1  0
 22 56  1  0
 23 24  1  0
 23 57  1  0
 23 58  1  0
 24 30  1  0
 24 25  1  0
 24 59  1  1
 25 26  2  0
 25 60  1  0
 26 27  1  0
 26 61  1  0
 27 28  1  0
 27 62  1  1
 28 29  2  0
 28 34  1  0
 29 30  1  0
 29 63  1  0
 30 31  1  0
 30 64  1  1
 31 32  1  0
 31 33  1  0
 32 65  1  0
 32 66  1  0
 32 67  1  0
 33 68  1  0
 33 69  1  0
 33 70  1  0
 34 35  1  0
 34 36  1  0
 35 71  1  0
 35 72  1  0
 35 73  1  0
 36 74  1  0
 36 75  1  0
 36 76  1  0
M  END
>  <i_m_ct_stereo_status>  (217) 
1

>  <s_m_source_file>  (217) 
/var/tmp/pbs.5076255.sched01/tmp2a9bgmzv/100_xx7n39i.sdf

>  <i_m_source_file_index>  (217) 
4

>  <i_lp_mmshare_version>  (217) 
48012

>  <i_f3d_flags>  (217) 
0

>  <s_epik_input>  (217) 
W0NIM11PQzEyW0NIMl1bQ0BdKFtDSDNdKShbQ0hdPVtDSDJdKVtDSF0zQyhDMihbQ0gzXSlbQ0gzXSk9W0NIXVtDQEBIXTRbQ0hdKFtDSF09W0NIXTMpW0NIMl1bQ0BIXShbQ0gzXSlcQyhDNChbQ0gzXSlbQ0gzXSk9Q1wxT0MoPU8pL1tDSF09W0NIXS9jNVtjSF1bY0hdW2NIXW81

>  <s_epik_cmdline>  (217) 
J2VwaWtfcHl0aG9uJywgJy1waHQnLCAnMi4wJywgJy1waCcsICc3LjAnLCAnLXRuJywgJzgnLCAnLW1hJywgJzIwMCcsICctaW1hZScsICc8aW5maWxlLm1hZT4nLCAnLW9tYWUnLCAnPG91dGZpbGUubWFlPic=

>  <r_lp_tautomer_probability>  (217) 
1

>  <r_epik_Ionization_Penalty>  (217) 
1.29585e-13

>  <r_epik_Ionization_Penalty_Charging>  (217) 
0

>  <r_epik_Ionization_Penalty_Neutral>  (217) 
1.29585e-13

>  <r_epik_State_Penalty>  (217) 
-0

>  <r_epik_Charging_Adjusted_Penalty>  (217) 
0

>  <i_epik_Tot_Q>  (217) 
0

>  <i_epik_Tot_abs_Q>  (217) 
0

>  <s_lp_Force_Field>  (217) 
OPLS3e

>  <r_lp_Energy>  (217) 
331.418

>  <b_lp_Chiralities_Consistent>  (217) 
1

>  <s_lp_Variant>  (217) 
52:0-24

>  <s_i_glide_gridfile>  (217) 
pfpi4k_grid

>  <i_i_glide_lignum>  (217) 
4

>  <i_i_glide_rotatable_bonds>  (217) 
6

>  <r_i_docking_score>  (217) 
-1.85192

>  <r_i_glide_ligand_efficiency>  (217) 
-0.0514423

>  <r_i_glide_ligand_efficiency_sa>  (217) 
-0.169859

>  <r_i_glide_ligand_efficiency_ln>  (217) 
-0.40404

>  <r_i_glide_gscore>  (217) 
-1.85192

>  <r_i_glide_lipo>  (217) 
-0.425763

>  <r_i_glide_hbond>  (217) 
0

>  <r_i_glide_metal>  (217) 
-0

>  <r_i_glide_rewards>  (217) 
-0.134835

>  <r_i_glide_evdw>  (217) 
-27.6589

>  <r_i_glide_ecoul>  (217) 
-1.66046

>  <r_i_glide_erotb>  (217) 
0.340689

>  <r_i_glide_esite>  (217) 
0

>  <r_i_glide_emodel>  (217) 
-31.224

>  <r_i_glide_energy>  (217) 
-29.3194

>  <r_i_glide_einternal>  (217) 
2.33381

>  <r_i_glide_intrahb_reward>  (217) 
-0

>  <i_i_glide_confnum>  (217) 
1

>  <i_i_glide_posenum>  (217) 
6

>  <r_i_glide_eff_state_penalty>  (217) 
0

>  <ligand_id>  (217) 
52

>  <original_smiles>  (217) 
C=CC1(C)CC2(OC)C(OC(=O)C=Cc3ccco3)=C3C(C)CC4C=CC1C(=CC4C3(C)C)C2(C)C

>  <smiles>  (217) 
[H]C([H])=C([H])C1(C([H])([H])[H])C2([H])C([H])=C([H])C3([H])C([H])([H])C([H])(C([H])([H])[H])C4=C(OC(=O)C([H])=C([H])c5oc([H])c([H])c5[H])C(OC([H])([H])[H])(C1([H])[H])C(C([H])([H])[H])(C([H])([H])[H])C2=C([H])C3([H])C4(C([H])([H])[H])C([H])([H])[H]

$$$$
52:23:2
     RDKit          3D

 76 80  0  0  1  0  0  0  0  0999 V2000
    4.8883   -5.3241   -0.2837 C   0  0  0  0  0  0  0  0  0  0  0  0
    5.0405   -6.4991    0.3612 C   0  0  0  0  0  0  0  0  0  0  0  0
    5.3558   -6.6743    1.8573 C   0  0  1  0  0  0  0  0  0  0  0  0
    6.8783   -6.3184    1.8328 C   0  0  0  0  0  0  0  0  0  0  0  0
    4.4071   -5.6339    2.7277 C   0  0  0  0  0  0  0  0  0  0  0  0
    3.4934   -6.4918    3.6937 C   0  0  2  0  0  0  0  0  0  0  0  0
    2.8860   -7.0899    2.5125 O   0  0  0  0  0  0  0  0  0  0  0  0
    2.1071   -6.3335    1.5311 C   0  0  0  0  0  0  0  0  0  0  0  0
    2.1293   -6.3603    4.4628 C   0  0  0  0  0  0  0  0  0  0  0  0
    1.6293   -5.1009    4.2334 O   0  0  0  0  0  0  0  0  0  0  0  0
    0.7167   -4.5625    5.0928 C   0  0  0  0  0  0  0  0  0  0  0  0
    0.2590   -5.1109    6.0957 O   0  0  0  0  0  0  0  0  0  0  0  0
    0.3337   -3.2092    4.6561 C   0  0  0  0  0  0  0  0  0  0  0  0
   -0.4119   -2.3930    5.4232 C   0  0  0  0  0  0  0  0  0  0  0  0
   -0.8260   -1.0647    5.1068 C   0  0  0  0  0  0  0  0  0  0  0  0
   -0.6526   -0.2784    4.0019 C   0  0  0  0  0  0  0  0  0  0  0  0
   -1.2819    0.9678    4.2837 C   0  0  0  0  0  0  0  0  0  0  0  0
   -1.7784    0.8582    5.5529 C   0  0  0  0  0  0  0  0  0  0  0  0
   -1.5129   -0.3809    6.0659 O   0  0  0  0  0  0  0  0  0  0  0  0
    1.3103   -7.4961    4.6058 C   0  0  0  0  0  0  0  0  0  0  0  0
    0.2026   -7.8402    3.5813 C   0  0  1  0  0  0  0  0  0  0  0  0
   -0.6821   -6.7023    3.0294 C   0  0  0  0  0  0  0  0  0  0  0  0
    0.6897   -8.9795    2.5774 C   0  0  0  0  0  0  0  0  0  0  0  0
    2.0727   -9.7353    2.8499 C   0  0  1  0  0  0  0  0  0  0  0  0
    3.0791   -9.6948    1.6560 C   0  0  0  0  0  0  0  0  0  0  0  0
    4.3144   -9.1320    1.4628 C   0  0  0  0  0  0  0  0  0  0  0  0
    5.2347   -8.2413    2.3604 C   0  0  2  0  0  0  0  0  0  0  0  0
    4.8562   -8.4409    3.8604 C   0  0  0  0  0  0  0  0  0  0  0  0
    4.2086   -9.5609    4.2560 C   0  0  0  0  0  0  0  0  0  0  0  0
    2.6688   -9.6827    4.3071 C   0  0  1  0  0  0  0  0  0  0  0  0
    1.6943   -8.8776    5.2719 C   0  0  0  0  0  0  0  0  0  0  0  0
    1.9181   -8.7277    6.8159 C   0  0  0  0  0  0  0  0  0  0  0  0
    0.4971   -9.9057    5.4522 C   0  0  0  0  0  0  0  0  0  0  0  0
    4.6461   -7.1450    4.5971 C   0  0  0  0  0  0  0  0  0  0  0  0
    6.0231   -6.3863    4.8621 C   0  0  0  0  0  0  0  0  0  0  0  0
    4.3879   -7.3221    6.1235 C   0  0  0  0  0  0  0  0  0  0  0  0
    4.9816   -4.3788    0.2251 H   0  0  0  0  0  0  0  0  0  0  0  0
    4.6671   -5.3031   -1.3396 H   0  0  0  0  0  0  0  0  0  0  0  0
    4.9354   -7.3823   -0.2448 H   0  0  0  0  0  0  0  0  0  0  0  0
    7.4621   -6.8397    2.5913 H   0  0  0  0  0  0  0  0  0  0  0  0
    7.0523   -5.2463    1.9396 H   0  0  0  0  0  0  0  0  0  0  0  0
    7.3639   -6.6218    0.9022 H   0  0  0  0  0  0  0  0  0  0  0  0
    4.9685   -4.8777    3.2629 H   0  0  0  0  0  0  0  0  0  0  0  0
    3.8844   -4.9256    2.0995 H   0  0  0  0  0  0  0  0  0  0  0  0
    1.1949   -6.8134    1.2244 H   0  0  0  0  0  0  0  0  0  0  0  0
    2.6136   -6.2311    0.5802 H   0  0  0  0  0  0  0  0  0  0  0  0
    1.8417   -5.3291    1.8558 H   0  0  0  0  0  0  0  0  0  0  0  0
    0.6770   -2.8784    3.6859 H   0  0  0  0  0  0  0  0  0  0  0  0
   -0.7382   -2.7574    6.3839 H   0  0  0  0  0  0  0  0  0  0  0  0
   -0.1361   -0.5637    3.0991 H   0  0  0  0  0  0  0  0  0  0  0  0
   -1.3542    1.8355    3.6454 H   0  0  0  0  0  0  0  0  0  0  0  0
   -2.3213    1.5320    6.1991 H   0  0  0  0  0  0  0  0  0  0  0  0
   -0.6025   -8.2995    4.1426 H   0  0  0  0  0  0  0  0  0  0  0  0
   -1.2856   -6.2948    3.8422 H   0  0  0  0  0  0  0  0  0  0  0  0
   -1.3783   -7.0806    2.2794 H   0  0  0  0  0  0  0  0  0  0  0  0
   -0.1468   -5.8638    2.6060 H   0  0  0  0  0  0  0  0  0  0  0  0
   -0.0943   -9.7400    2.5626 H   0  0  0  0  0  0  0  0  0  0  0  0
    0.6519   -8.6747    1.5409 H   0  0  0  0  0  0  0  0  0  0  0  0
    1.7828  -10.7850    2.7685 H   0  0  0  0  0  0  0  0  0  0  0  0
    2.7058  -10.2555    0.8118 H   0  0  0  0  0  0  0  0  0  0  0  0
    4.7598   -9.3514    0.5023 H   0  0  0  0  0  0  0  0  0  0  0  0
    6.2131   -8.7116    2.2548 H   0  0  0  0  0  0  0  0  0  0  0  0
    4.5206  -10.4415    3.7142 H   0  0  0  0  0  0  0  0  0  0  0  0
    2.6231  -10.7063    4.6848 H   0  0  0  0  0  0  0  0  0  0  0  0
    2.6476   -9.4364    7.2077 H   0  0  0  0  0  0  0  0  0  0  0  0
    1.0274   -8.9063    7.4227 H   0  0  0  0  0  0  0  0  0  0  0  0
    2.1310   -7.7138    7.1271 H   0  0  0  0  0  0  0  0  0  0  0  0
    0.7852  -10.7491    6.0786 H   0  0  0  0  0  0  0  0  0  0  0  0
    0.1464  -10.4061    4.5556 H   0  0  0  0  0  0  0  0  0  0  0  0
   -0.3863   -9.4644    5.9232 H   0  0  0  0  0  0  0  0  0  0  0  0
    5.9274   -5.5954    5.6129 H   0  0  0  0  0  0  0  0  0  0  0  0
    6.5297   -5.8358    4.0968 H   0  0  0  0  0  0  0  0  0  0  0  0
    6.7784   -7.0901    5.2245 H   0  0  0  0  0  0  0  0  0  0  0  0
    3.6724   -6.5933    6.4963 H   0  0  0  0  0  0  0  0  0  0  0  0
    5.2366   -7.1708    6.7975 H   0  0  0  0  0  0  0  0  0  0  0  0
    4.2008   -8.3448    6.3972 H   0  0  0  0  0  0  0  0  0  0  0  0
  1  2  2  0
  1 37  1  0
  1 38  1  0
  2  3  1  0
  2 39  1  0
  3 27  1  0
  3  4  1  6
  3  5  1  0
  4 40  1  0
  4 41  1  0
  4 42  1  0
  5  6  1  0
  5 43  1  0
  5 44  1  0
  6 34  1  0
  6  7  1  6
  6  9  1  0
  7  8  1  0
  8 45  1  0
  8 46  1  0
  8 47  1  0
  9 10  1  0
  9 20  2  3
 10 11  1  0
 11 12  2  0
 11 13  1  0
 13 14  2  3
 13 48  1  0
 14 15  1  0
 14 49  1  0
 15 19  1  0
 15 16  2  0
 16 17  1  0
 16 50  1  0
 17 18  2  0
 17 51  1  0
 18 19  1  0
 18 52  1  0
 20 31  1  0
 20 21  1  0
 21 22  1  0
 21 23  1  0
 21 53  1  1
 22 54  1  0
 22 55  1  0
 22 56  1  0
 23 24  1  0
 23 57  1  0
 23 58  1  0
 24 30  1  0
 24 25  1  0
 24 59  1  1
 25 26  2  0
 25 60  1  0
 26 27  1  0
 26 61  1  0
 27 28  1  0
 27 62  1  1
 28 29  2  0
 28 34  1  0
 29 30  1  0
 29 63  1  0
 30 31  1  0
 30 64  1  1
 31 32  1  0
 31 33  1  0
 32 65  1  0
 32 66  1  0
 32 67  1  0
 33 68  1  0
 33 69  1  0
 33 70  1  0
 34 35  1  0
 34 36  1  0
 35 71  1  0
 35 72  1  0
 35 73  1  0
 36 74  1  0
 36 75  1  0
 36 76  1  0
M  END
>  <i_m_ct_stereo_status>  (218) 
1

>  <s_m_source_file>  (218) 
/var/tmp/pbs.5076255.sched01/tmp2a9bgmzv/100_xx7n39i.sdf

>  <i_m_source_file_index>  (218) 
4

>  <i_lp_mmshare_version>  (218) 
48012

>  <i_f3d_flags>  (218) 
0

>  <s_epik_input>  (218) 
W0NIM11PQzEyW0NIMl1bQ0BdKFtDSDNdKShbQ0hdPVtDSDJdKVtDSF0zQyhDMihbQ0gzXSlbQ0gzXSk9W0NIXVtDQEBIXTRbQ0hdKFtDSF09W0NIXTMpW0NIMl1bQ0BIXShbQ0gzXSlcQyhDNChbQ0gzXSlbQ0gzXSk9Q1wxT0MoPU8pL1tDSF09W0NIXS9jNVtjSF1bY0hdW2NIXW81

>  <s_epik_cmdline>  (218) 
J2VwaWtfcHl0aG9uJywgJy1waHQnLCAnMi4wJywgJy1waCcsICc3LjAnLCAnLXRuJywgJzgnLCAnLW1hJywgJzIwMCcsICctaW1hZScsICc8aW5maWxlLm1hZT4nLCAnLW9tYWUnLCAnPG91dGZpbGUubWFlPic=

>  <r_lp_tautomer_probability>  (218) 
1

>  <r_epik_Ionization_Penalty>  (218) 
1.29585e-13

>  <r_epik_Ionization_Penalty_Charging>  (218) 
0

>  <r_epik_Ionization_Penalty_Neutral>  (218) 
1.29585e-13

>  <r_epik_State_Penalty>  (218) 
-0

>  <r_epik_Charging_Adjusted_Penalty>  (218) 
0

>  <i_epik_Tot_Q>  (218) 
0

>  <i_epik_Tot_abs_Q>  (218) 
0

>  <s_lp_Force_Field>  (218) 
OPLS3e

>  <r_lp_Energy>  (218) 
331.418

>  <b_lp_Chiralities_Consistent>  (218) 
1

>  <s_lp_Variant>  (218) 
52:0-24

>  <s_i_glide_gridfile>  (218) 
pfpi4k_grid

>  <i_i_glide_lignum>  (218) 
4

>  <i_i_glide_rotatable_bonds>  (218) 
6

>  <r_i_docking_score>  (218) 
-1.82498

>  <r_i_glide_ligand_efficiency>  (218) 
-0.0506939

>  <r_i_glide_ligand_efficiency_sa>  (218) 
-0.167388

>  <r_i_glide_ligand_efficiency_ln>  (218) 
-0.398161

>  <r_i_glide_gscore>  (218) 
-1.82498

>  <r_i_glide_lipo>  (218) 
-0.311936

>  <r_i_glide_hbond>  (218) 
-0.116404

>  <r_i_glide_metal>  (218) 
-0

>  <r_i_glide_rewards>  (218) 
-0.0773345

>  <r_i_glide_evdw>  (218) 
-25.8135

>  <r_i_glide_ecoul>  (218) 
-2.4444

>  <r_i_glide_erotb>  (218) 
0.340689

>  <r_i_glide_esite>  (218) 
-0.00266277

>  <r_i_glide_emodel>  (218) 
-29.9954

>  <r_i_glide_energy>  (218) 
-28.2579

>  <r_i_glide_einternal>  (218) 
2.68903

>  <r_i_glide_intrahb_reward>  (218) 
-0

>  <i_i_glide_confnum>  (218) 
1

>  <i_i_glide_posenum>  (218) 
24

>  <r_i_glide_eff_state_penalty>  (218) 
0

>  <ligand_id>  (218) 
52

>  <original_smiles>  (218) 
C=CC1(C)CC2(OC)C(OC(=O)C=Cc3ccco3)=C3C(C)CC4C=CC1C(=CC4C3(C)C)C2(C)C

>  <smiles>  (218) 
[H]C([H])=C([H])C1(C([H])([H])[H])C2([H])C([H])=C([H])C3([H])C([H])([H])C([H])(C([H])([H])[H])C4=C(OC(=O)C([H])=C([H])c5oc([H])c([H])c5[H])C(OC([H])([H])[H])(C1([H])[H])C(C([H])([H])[H])(C([H])([H])[H])C2=C([H])C3([H])C4(C([H])([H])[H])C([H])([H])[H]

$$$$
52:25:0
     RDKit          3D

 76 80  0  0  1  0  0  0  0  0999 V2000
   -1.5577   -9.2474    2.6300 C   0  0  0  0  0  0  0  0  0  0  0  0
   -0.7901   -9.1013    3.7286 C   0  0  0  0  0  0  0  0  0  0  0  0
    0.7530   -9.0808    3.7705 C   0  0  1  0  0  0  0  0  0  0  0  0
    1.1069  -10.1915    2.7247 C   0  0  0  0  0  0  0  0  0  0  0  0
    1.2244   -7.5561    3.3578 C   0  0  0  0  0  0  0  0  0  0  0  0
    1.9683   -6.9256    4.6067 C   0  0  2  0  0  0  0  0  0  0  0  0
    0.7113   -7.0411    5.3447 O   0  0  0  0  0  0  0  0  0  0  0  0
   -0.4860   -6.2760    4.9824 C   0  0  0  0  0  0  0  0  0  0  0  0
    2.3027   -5.5158    5.2062 C   0  0  0  0  0  0  0  0  0  0  0  0
    1.7539   -4.5714    4.3877 O   0  0  0  0  0  0  0  0  0  0  0  0
    2.5889   -3.6587    3.8798 C   0  0  0  0  0  0  0  0  0  0  0  0
    3.7681   -3.5779    4.2089 O   0  0  0  0  0  0  0  0  0  0  0  0
    1.9077   -2.8133    2.8785 C   0  0  0  0  0  0  0  0  0  0  0  0
    2.4940   -1.9667    2.0036 C   0  0  0  0  0  0  0  0  0  0  0  0
    3.8466   -1.5545    1.7496 C   0  0  0  0  0  0  0  0  0  0  0  0
    5.0380   -1.6408    2.4088 C   0  0  0  0  0  0  0  0  0  0  0  0
    6.0352   -1.0773    1.5694 C   0  0  0  0  0  0  0  0  0  0  0  0
    5.3858   -0.6557    0.4503 C   0  0  0  0  0  0  0  0  0  0  0  0
    4.0563   -0.9457    0.5420 O   0  0  0  0  0  0  0  0  0  0  0  0
    2.3335   -5.3382    6.6028 C   0  0  0  0  0  0  0  0  0  0  0  0
    1.0809   -4.8660    7.3687 C   0  0  1  0  0  0  0  0  0  0  0  0
    0.2246   -3.7237    6.7666 C   0  0  0  0  0  0  0  0  0  0  0  0
    0.3533   -6.1106    8.0563 C   0  0  0  0  0  0  0  0  0  0  0  0
    1.0774   -7.5377    8.0765 C   0  0  1  0  0  0  0  0  0  0  0  0
    0.2239   -8.7058    7.4932 C   0  0  0  0  0  0  0  0  0  0  0  0
    0.3415   -9.5123    6.3937 C   0  0  0  0  0  0  0  0  0  0  0  0
    1.3649   -9.5750    5.2206 C   0  0  2  0  0  0  0  0  0  0  0  0
    2.7123   -8.9196    5.6605 C   0  0  0  0  0  0  0  0  0  0  0  0
    3.0177   -8.8072    6.9728 C   0  0  0  0  0  0  0  0  0  0  0  0
    2.6326   -7.5854    7.8331 C   0  0  1  0  0  0  0  0  0  0  0  0
    3.2111   -6.1207    7.6673 C   0  0  0  0  0  0  0  0  0  0  0  0
    4.7447   -5.8265    7.5276 C   0  0  0  0  0  0  0  0  0  0  0  0
    3.1454   -5.5643    9.1561 C   0  0  0  0  0  0  0  0  0  0  0  0
    3.2311   -7.9146    4.6695 C   0  0  0  0  0  0  0  0  0  0  0  0
    3.7915   -8.6314    3.3681 C   0  0  0  0  0  0  0  0  0  0  0  0
    4.6324   -7.3176    5.0104 C   0  0  0  0  0  0  0  0  0  0  0  0
   -1.1269   -9.3391    1.6506 H   0  0  0  0  0  0  0  0  0  0  0  0
   -2.6303   -9.2848    2.7000 H   0  0  0  0  0  0  0  0  0  0  0  0
   -1.3266   -9.0013    4.6575 H   0  0  0  0  0  0  0  0  0  0  0  0
    2.0230  -10.7378    2.9387 H   0  0  0  0  0  0  0  0  0  0  0  0
    1.1668   -9.7979    1.7090 H   0  0  0  0  0  0  0  0  0  0  0  0
    0.3693  -10.9941    2.7143 H   0  0  0  0  0  0  0  0  0  0  0  0
    1.8440   -7.5120    2.4683 H   0  0  0  0  0  0  0  0  0  0  0  0
    0.4019   -6.9832    2.9446 H   0  0  0  0  0  0  0  0  0  0  0  0
   -1.0020   -5.8482    5.8232 H   0  0  0  0  0  0  0  0  0  0  0  0
   -1.2523   -6.8744    4.5151 H   0  0  0  0  0  0  0  0  0  0  0  0
   -0.3229   -5.4740    4.2685 H   0  0  0  0  0  0  0  0  0  0  0  0
    0.8328   -2.8996    2.8451 H   0  0  0  0  0  0  0  0  0  0  0  0
    1.7909   -1.4782    1.3506 H   0  0  0  0  0  0  0  0  0  0  0  0
    5.2298   -2.0425    3.3875 H   0  0  0  0  0  0  0  0  0  0  0  0
    7.0834   -0.9898    1.7772 H   0  0  0  0  0  0  0  0  0  0  0  0
    5.7048   -0.1574   -0.4487 H   0  0  0  0  0  0  0  0  0  0  0  0
    1.4423   -4.2662    8.1960 H   0  0  0  0  0  0  0  0  0  0  0  0
    0.7950   -2.7927    6.7743 H   0  0  0  0  0  0  0  0  0  0  0  0
   -0.6633   -3.5599    7.3744 H   0  0  0  0  0  0  0  0  0  0  0  0
   -0.1030   -3.8501    5.7425 H   0  0  0  0  0  0  0  0  0  0  0  0
    0.1805   -5.8227    9.0934 H   0  0  0  0  0  0  0  0  0  0  0  0
   -0.6743   -6.2418    7.7417 H   0  0  0  0  0  0  0  0  0  0  0  0
    1.0156   -7.8108    9.1317 H   0  0  0  0  0  0  0  0  0  0  0  0
   -0.6267   -8.9259    8.1155 H   0  0  0  0  0  0  0  0  0  0  0  0
   -0.4219  -10.2647    6.2916 H   0  0  0  0  0  0  0  0  0  0  0  0
    1.5894  -10.6380    5.1481 H   0  0  0  0  0  0  0  0  0  0  0  0
    2.6737   -9.6530    7.5519 H   0  0  0  0  0  0  0  0  0  0  0  0
    3.0687   -7.9329    8.7693 H   0  0  0  0  0  0  0  0  0  0  0  0
    5.3613   -6.6885    7.7792 H   0  0  0  0  0  0  0  0  0  0  0  0
    5.1211   -5.0378    8.1839 H   0  0  0  0  0  0  0  0  0  0  0  0
    5.0219   -5.3969    6.5738 H   0  0  0  0  0  0  0  0  0  0  0  0
    3.8978   -6.0331    9.7922 H   0  0  0  0  0  0  0  0  0  0  0  0
    2.2238   -5.7499    9.6960 H   0  0  0  0  0  0  0  0  0  0  0  0
    3.3256   -4.4880    9.2156 H   0  0  0  0  0  0  0  0  0  0  0  0
    4.3369   -7.9460    2.7156 H   0  0  0  0  0  0  0  0  0  0  0  0
    3.1428   -9.0878    2.6584 H   0  0  0  0  0  0  0  0  0  0  0  0
    4.4697   -9.4401    3.6482 H   0  0  0  0  0  0  0  0  0  0  0  0
    4.6912   -6.2555    4.7931 H   0  0  0  0  0  0  0  0  0  0  0  0
    5.4878   -7.6917    4.4422 H   0  0  0  0  0  0  0  0  0  0  0  0
    4.9782   -7.6199    5.9833 H   0  0  0  0  0  0  0  0  0  0  0  0
  1  2  2  0
  1 37  1  0
  1 38  1  0
  2  3  1  0
  2 39  1  0
  3 27  1  0
  3  4  1  6
  3  5  1  0
  4 40  1  0
  4 41  1  0
  4 42  1  0
  5  6  1  0
  5 43  1  0
  5 44  1  0
  6 34  1  0
  6  7  1  1
  6  9  1  0
  7  8  1  0
  8 45  1  0
  8 46  1  0
  8 47  1  0
  9 10  1  0
  9 20  2  3
 10 11  1  0
 11 12  2  0
 11 13  1  0
 13 14  2  3
 13 48  1  0
 14 15  1  0
 14 49  1  0
 15 19  1  0
 15 16  2  0
 16 17  1  0
 16 50  1  0
 17 18  2  0
 17 51  1  0
 18 19  1  0
 18 52  1  0
 20 31  1  0
 20 21  1  0
 21 22  1  0
 21 23  1  0
 21 53  1  1
 22 54  1  0
 22 55  1  0
 22 56  1  0
 23 24  1  0
 23 57  1  0
 23 58  1  0
 24 30  1  0
 24 25  1  0
 24 59  1  1
 25 26  2  0
 25 60  1  0
 26 27  1  0
 26 61  1  0
 27 28  1  0
 27 62  1  6
 28 29  2  0
 28 34  1  0
 29 30  1  0
 29 63  1  0
 30 31  1  0
 30 64  1  1
 31 32  1  0
 31 33  1  0
 32 65  1  0
 32 66  1  0
 32 67  1  0
 33 68  1  0
 33 69  1  0
 33 70  1  0
 34 35  1  0
 34 36  1  0
 35 71  1  0
 35 72  1  0
 35 73  1  0
 36 74  1  0
 36 75  1  0
 36 76  1  0
M  END
>  <i_m_ct_stereo_status>  (219) 
1

>  <s_m_source_file>  (219) 
/var/tmp/pbs.5076255.sched01/tmp2a9bgmzv/100_xx7n39i.sdf

>  <i_m_source_file_index>  (219) 
6

>  <i_lp_mmshare_version>  (219) 
48012

>  <i_f3d_flags>  (219) 
0

>  <s_epik_input>  (219) 
W0NIM11PQzEyW0NIMl1bQ0BdKFtDSDNdKShbQ0hdPVtDSDJdKVtDSF0zQyhDMihbQ0gzXSlbQ0gzXSk9W0NIXVtDQEBIXTRbQ0hdKFtDSF09W0NIXTMpW0NIMl1bQ0BIXShbQ0gzXSlcQyhDNChbQ0gzXSlbQ0gzXSk9Q1wxT0MoPU8pL1tDSF09W0NIXS9jNVtjSF1bY0hdW2NIXW81

>  <s_epik_cmdline>  (219) 
J2VwaWtfcHl0aG9uJywgJy1waHQnLCAnMi4wJywgJy1waCcsICc3LjAnLCAnLXRuJywgJzgnLCAnLW1hJywgJzIwMCcsICctaW1hZScsICc8aW5maWxlLm1hZT4nLCAnLW9tYWUnLCAnPG91dGZpbGUubWFlPic=

>  <r_lp_tautomer_probability>  (219) 
1

>  <r_epik_Ionization_Penalty>  (219) 
1.29585e-13

>  <r_epik_Ionization_Penalty_Charging>  (219) 
0

>  <r_epik_Ionization_Penalty_Neutral>  (219) 
1.29585e-13

>  <r_epik_State_Penalty>  (219) 
-0

>  <r_epik_Charging_Adjusted_Penalty>  (219) 
0

>  <i_epik_Tot_Q>  (219) 
0

>  <i_epik_Tot_abs_Q>  (219) 
0

>  <s_lp_Force_Field>  (219) 
OPLS3e

>  <r_lp_Energy>  (219) 
333.487

>  <b_lp_Chiralities_Consistent>  (219) 
1

>  <s_lp_Variant>  (219) 
52:0-26

>  <s_i_glide_gridfile>  (219) 
pfpi4k_grid

>  <i_i_glide_lignum>  (219) 
6

>  <i_i_glide_rotatable_bonds>  (219) 
6

>  <r_i_docking_score>  (219) 
-1.90803

>  <r_i_glide_ligand_efficiency>  (219) 
-0.0530008

>  <r_i_glide_ligand_efficiency_sa>  (219) 
-0.175005

>  <r_i_glide_ligand_efficiency_ln>  (219) 
-0.416281

>  <r_i_glide_gscore>  (219) 
-1.90803

>  <r_i_glide_lipo>  (219) 
-0.659598

>  <r_i_glide_hbond>  (219) 
0

>  <r_i_glide_metal>  (219) 
-0

>  <r_i_glide_rewards>  (219) 
-0.0783817

>  <r_i_glide_evdw>  (219) 
-23.3949

>  <r_i_glide_ecoul>  (219) 
-2.27331

>  <r_i_glide_erotb>  (219) 
0.340689

>  <r_i_glide_esite>  (219) 
0

>  <r_i_glide_emodel>  (219) 
-25.4946

>  <r_i_glide_energy>  (219) 
-25.6682

>  <r_i_glide_einternal>  (219) 
6.06626

>  <r_i_glide_intrahb_reward>  (219) 
-0

>  <i_i_glide_confnum>  (219) 
3

>  <i_i_glide_posenum>  (219) 
33

>  <r_i_glide_eff_state_penalty>  (219) 
0

>  <ligand_id>  (219) 
52

>  <original_smiles>  (219) 
C=CC1(C)CC2(OC)C(OC(=O)C=Cc3ccco3)=C3C(C)CC4C=CC1C(=CC4C3(C)C)C2(C)C

>  <smiles>  (219) 
[H]C([H])=C([H])C1(C([H])([H])[H])C2([H])C([H])=C([H])C3([H])C([H])([H])C([H])(C([H])([H])[H])C4=C(OC(=O)C([H])=C([H])c5oc([H])c([H])c5[H])C(OC([H])([H])[H])(C1([H])[H])C(C([H])([H])[H])(C([H])([H])[H])C2=C([H])C3([H])C4(C([H])([H])[H])C([H])([H])[H]

$$$$
52:25:1
     RDKit          3D

 76 80  0  0  1  0  0  0  0  0999 V2000
    4.5770   -4.9603    0.0451 C   0  0  0  0  0  0  0  0  0  0  0  0
    4.8365   -6.2300    0.4174 C   0  0  0  0  0  0  0  0  0  0  0  0
    5.3062   -6.6999    1.8092 C   0  0  1  0  0  0  0  0  0  0  0  0
    6.8281   -6.3996    1.6490 C   0  0  0  0  0  0  0  0  0  0  0  0
    4.5339   -5.8166    2.9746 C   0  0  0  0  0  0  0  0  0  0  0  0
    3.6687   -6.8177    3.8194 C   0  0  2  0  0  0  0  0  0  0  0  0
    2.9031   -7.1137    2.6107 O   0  0  0  0  0  0  0  0  0  0  0  0
    2.0689   -6.1185    1.9344 C   0  0  0  0  0  0  0  0  0  0  0  0
    2.4003   -6.7956    4.7222 C   0  0  0  0  0  0  0  0  0  0  0  0
    2.0179   -5.4824    4.8520 O   0  0  0  0  0  0  0  0  0  0  0  0
    1.1092   -5.1323    5.7951 C   0  0  0  0  0  0  0  0  0  0  0  0
    0.4565   -5.9292    6.4498 O   0  0  0  0  0  0  0  0  0  0  0  0
    0.9956   -3.6818    5.9170 C   0  0  0  0  0  0  0  0  0  0  0  0
    0.5061   -3.0379    6.9854 C   0  0  0  0  0  0  0  0  0  0  0  0
   -0.0624   -3.4532    8.2552 C   0  0  0  0  0  0  0  0  0  0  0  0
   -0.5036   -4.6194    8.8124 C   0  0  0  0  0  0  0  0  0  0  0  0
   -0.9124   -4.3325   10.1396 C   0  0  0  0  0  0  0  0  0  0  0  0
   -0.6959   -2.9973   10.3305 C   0  0  0  0  0  0  0  0  0  0  0  0
   -0.1821   -2.4428    9.1929 O   0  0  0  0  0  0  0  0  0  0  0  0
    1.5203   -7.8890    4.7294 C   0  0  0  0  0  0  0  0  0  0  0  0
    0.2827   -7.9737    3.7867 C   0  0  1  0  0  0  0  0  0  0  0  0
   -0.5977   -6.7211    3.5579 C   0  0  0  0  0  0  0  0  0  0  0  0
    0.6146   -8.8921    2.5306 C   0  0  0  0  0  0  0  0  0  0  0  0
    1.9686   -9.7394    2.5288 C   0  0  1  0  0  0  0  0  0  0  0  0
    2.8653   -9.5145    1.2781 C   0  0  0  0  0  0  0  0  0  0  0  0
    4.1119   -8.9878    1.0811 C   0  0  0  0  0  0  0  0  0  0  0  0
    5.1498   -8.3297    2.0314 C   0  0  2  0  0  0  0  0  0  0  0  0
    4.8991   -8.8135    3.4940 C   0  0  0  0  0  0  0  0  0  0  0  0
    4.2272   -9.9643    3.7311 C   0  0  0  0  0  0  0  0  0  0  0  0
    2.6951  -10.0294    3.8947 C   0  0  1  0  0  0  0  0  0  0  0  0
    1.8680   -9.3984    5.0834 C   0  0  0  0  0  0  0  0  0  0  0  0
    2.2584   -9.5937    6.5872 C   0  0  0  0  0  0  0  0  0  0  0  0
    0.6347  -10.3913    5.1845 C   0  0  0  0  0  0  0  0  0  0  0  0
    4.8410   -7.6803    4.4813 C   0  0  0  0  0  0  0  0  0  0  0  0
    6.2810   -7.0621    4.7309 C   0  0  0  0  0  0  0  0  0  0  0  0
    4.6979   -8.1064    5.9734 C   0  0  0  0  0  0  0  0  0  0  0  0
    4.6777   -4.1296    0.7244 H   0  0  0  0  0  0  0  0  0  0  0  0
    4.2449   -4.7400   -0.9603 H   0  0  0  0  0  0  0  0  0  0  0  0
    4.7189   -6.9816   -0.3429 H   0  0  0  0  0  0  0  0  0  0  0  0
    7.4711   -7.0941    2.1881 H   0  0  0  0  0  0  0  0  0  0  0  0
    7.0777   -5.3815    1.9474 H   0  0  0  0  0  0  0  0  0  0  0  0
    7.1638   -6.5152    0.6183 H   0  0  0  0  0  0  0  0  0  0  0  0
    5.2038   -5.2324    3.5960 H   0  0  0  0  0  0  0  0  0  0  0  0
    3.9790   -4.9676    2.6014 H   0  0  0  0  0  0  0  0  0  0  0  0
    1.1130   -6.4945    1.6197 H   0  0  0  0  0  0  0  0  0  0  0  0
    2.4786   -5.8088    0.9873 H   0  0  0  0  0  0  0  0  0  0  0  0
    1.8991   -5.2029    2.5042 H   0  0  0  0  0  0  0  0  0  0  0  0
    1.3532   -3.0911    5.0739 H   0  0  0  0  0  0  0  0  0  0  0  0
    0.5343   -1.9589    6.8704 H   0  0  0  0  0  0  0  0  0  0  0  0
   -0.5643   -5.5973    8.3723 H   0  0  0  0  0  0  0  0  0  0  0  0
   -1.3255   -5.0299   10.8567 H   0  0  0  0  0  0  0  0  0  0  0  0
   -0.8751   -2.3275   11.1647 H   0  0  0  0  0  0  0  0  0  0  0  0
   -0.4844   -8.5137    4.3323 H   0  0  0  0  0  0  0  0  0  0  0  0
   -1.1469   -6.4822    4.4714 H   0  0  0  0  0  0  0  0  0  0  0  0
   -1.3568   -6.9093    2.7969 H   0  0  0  0  0  0  0  0  0  0  0  0
   -0.0562   -5.8179    3.3000 H   0  0  0  0  0  0  0  0  0  0  0  0
   -0.2144   -9.5975    2.4329 H   0  0  0  0  0  0  0  0  0  0  0  0
    0.5195   -8.3774    1.5806 H   0  0  0  0  0  0  0  0  0  0  0  0
    1.5907  -10.7299    2.2852 H   0  0  0  0  0  0  0  0  0  0  0  0
    2.3964   -9.8909    0.3904 H   0  0  0  0  0  0  0  0  0  0  0  0
    4.4683   -9.0367    0.0708 H   0  0  0  0  0  0  0  0  0  0  0  0
    6.0862   -8.8086    1.7491 H   0  0  0  0  0  0  0  0  0  0  0  0
    4.4322  -10.7335    2.9988 H   0  0  0  0  0  0  0  0  0  0  0  0
    2.6151  -11.1051    4.0540 H   0  0  0  0  0  0  0  0  0  0  0  0
    2.9956  -10.3805    6.7327 H   0  0  0  0  0  0  0  0  0  0  0  0
    1.4336   -9.8952    7.2348 H   0  0  0  0  0  0  0  0  0  0  0  0
    2.5308   -8.6783    7.0911 H   0  0  0  0  0  0  0  0  0  0  0  0
    0.9210  -11.3599    5.5962 H   0  0  0  0  0  0  0  0  0  0  0  0
    0.1510  -10.6566    4.2513 H   0  0  0  0  0  0  0  0  0  0  0  0
   -0.1445  -10.0026    5.8424 H   0  0  0  0  0  0  0  0  0  0  0  0
    6.2895   -6.3623    5.5710 H   0  0  0  0  0  0  0  0  0  0  0  0
    6.7731   -6.4859    3.9829 H   0  0  0  0  0  0  0  0  0  0  0  0
    6.9900   -7.8598    4.9496 H   0  0  0  0  0  0  0  0  0  0  0  0
    4.0157   -7.4617    6.5222 H   0  0  0  0  0  0  0  0  0  0  0  0
    5.5916   -8.0406    6.5971 H   0  0  0  0  0  0  0  0  0  0  0  0
    4.5332   -9.1640    6.0792 H   0  0  0  0  0  0  0  0  0  0  0  0
  1  2  2  0
  1 37  1  0
  1 38  1  0
  2  3  1  0
  2 39  1  0
  3 27  1  0
  3  4  1  6
  3  5  1  0
  4 40  1  0
  4 41  1  0
  4 42  1  0
  5  6  1  0
  5 43  1  0
  5 44  1  0
  6 34  1  0
  6  7  1  6
  6  9  1  0
  7  8  1  0
  8 45  1  0
  8 46  1  0
  8 47  1  0
  9 10  1  0
  9 20  2  3
 10 11  1  0
 11 12  2  0
 11 13  1  0
 13 14  2  3
 13 48  1  0
 14 15  1  0
 14 49  1  0
 15 19  1  0
 15 16  2  0
 16 17  1  0
 16 50  1  0
 17 18  2  0
 17 51  1  0
 18 19  1  0
 18 52  1  0
 20 31  1  0
 20 21  1  0
 21 22  1  0
 21 23  1  0
 21 53  1  1
 22 54  1  0
 22 55  1  0
 22 56  1  0
 23 24  1  0
 23 57  1  0
 23 58  1  0
 24 30  1  0
 24 25  1  0
 24 59  1  6
 25 26  2  0
 25 60  1  0
 26 27  1  0
 26 61  1  0
 27 28  1  0
 27 62  1  6
 28 29  2  0
 28 34  1  0
 29 30  1  0
 29 63  1  0
 30 31  1  0
 30 64  1  1
 31 32  1  0
 31 33  1  0
 32 65  1  0
 32 66  1  0
 32 67  1  0
 33 68  1  0
 33 69  1  0
 33 70  1  0
 34 35  1  0
 34 36  1  0
 35 71  1  0
 35 72  1  0
 35 73  1  0
 36 74  1  0
 36 75  1  0
 36 76  1  0
M  END
>  <i_m_ct_stereo_status>  (220) 
1

>  <s_m_source_file>  (220) 
/var/tmp/pbs.5076255.sched01/tmp2a9bgmzv/100_xx7n39i.sdf

>  <i_m_source_file_index>  (220) 
6

>  <i_lp_mmshare_version>  (220) 
48012

>  <i_f3d_flags>  (220) 
0

>  <s_epik_input>  (220) 
W0NIM11PQzEyW0NIMl1bQ0BdKFtDSDNdKShbQ0hdPVtDSDJdKVtDSF0zQyhDMihbQ0gzXSlbQ0gzXSk9W0NIXVtDQEBIXTRbQ0hdKFtDSF09W0NIXTMpW0NIMl1bQ0BIXShbQ0gzXSlcQyhDNChbQ0gzXSlbQ0gzXSk9Q1wxT0MoPU8pL1tDSF09W0NIXS9jNVtjSF1bY0hdW2NIXW81

>  <s_epik_cmdline>  (220) 
J2VwaWtfcHl0aG9uJywgJy1waHQnLCAnMi4wJywgJy1waCcsICc3LjAnLCAnLXRuJywgJzgnLCAnLW1hJywgJzIwMCcsICctaW1hZScsICc8aW5maWxlLm1hZT4nLCAnLW9tYWUnLCAnPG91dGZpbGUubWFlPic=

>  <r_lp_tautomer_probability>  (220) 
1

>  <r_epik_Ionization_Penalty>  (220) 
1.29585e-13

>  <r_epik_Ionization_Penalty_Charging>  (220) 
0

>  <r_epik_Ionization_Penalty_Neutral>  (220) 
1.29585e-13

>  <r_epik_State_Penalty>  (220) 
-0

>  <r_epik_Charging_Adjusted_Penalty>  (220) 
0

>  <i_epik_Tot_Q>  (220) 
0

>  <i_epik_Tot_abs_Q>  (220) 
0

>  <s_lp_Force_Field>  (220) 
OPLS3e

>  <r_lp_Energy>  (220) 
333.487

>  <b_lp_Chiralities_Consistent>  (220) 
1

>  <s_lp_Variant>  (220) 
52:0-26

>  <s_i_glide_gridfile>  (220) 
pfpi4k_grid

>  <i_i_glide_lignum>  (220) 
6

>  <i_i_glide_rotatable_bonds>  (220) 
6

>  <r_i_docking_score>  (220) 
-1.76432

>  <r_i_glide_ligand_efficiency>  (220) 
-0.0490088

>  <r_i_glide_ligand_efficiency_sa>  (220) 
-0.161823

>  <r_i_glide_ligand_efficiency_ln>  (220) 
-0.384926

>  <r_i_glide_gscore>  (220) 
-1.76432

>  <r_i_glide_lipo>  (220) 
-0.375856

>  <r_i_glide_hbond>  (220) 
-0.16

>  <r_i_glide_metal>  (220) 
-0

>  <r_i_glide_rewards>  (220) 
-0.0773345

>  <r_i_glide_evdw>  (220) 
-23.8511

>  <r_i_glide_ecoul>  (220) 
-1.99488

>  <r_i_glide_erotb>  (220) 
0.340689

>  <r_i_glide_esite>  (220) 
-2.79331e-05

>  <r_i_glide_emodel>  (220) 
-25.8481

>  <r_i_glide_energy>  (220) 
-25.846

>  <r_i_glide_einternal>  (220) 
3.72006

>  <r_i_glide_intrahb_reward>  (220) 
-0

>  <i_i_glide_confnum>  (220) 
3

>  <i_i_glide_posenum>  (220) 
10

>  <r_i_glide_eff_state_penalty>  (220) 
0

>  <ligand_id>  (220) 
52

>  <original_smiles>  (220) 
C=CC1(C)CC2(OC)C(OC(=O)C=Cc3ccco3)=C3C(C)CC4C=CC1C(=CC4C3(C)C)C2(C)C

>  <smiles>  (220) 
[H]C([H])=C([H])C1(C([H])([H])[H])C2([H])C([H])=C([H])C3([H])C([H])([H])C([H])(C([H])([H])[H])C4=C(OC(=O)C([H])=C([H])c5oc([H])c([H])c5[H])C(OC([H])([H])[H])(C1([H])[H])C(C([H])([H])[H])(C([H])([H])[H])C2=C([H])C3([H])C4(C([H])([H])[H])C([H])([H])[H]

$$$$
52:25:2
     RDKit          3D

 76 80  0  0  1  0  0  0  0  0999 V2000
   -2.0347   -7.4092    3.6327 C   0  0  0  0  0  0  0  0  0  0  0  0
   -0.7785   -7.5482    4.1111 C   0  0  0  0  0  0  0  0  0  0  0  0
    0.3743   -8.4110    3.5243 C   0  0  1  0  0  0  0  0  0  0  0  0
   -0.4074   -9.5815    2.8398 C   0  0  0  0  0  0  0  0  0  0  0  0
    1.2465   -7.4513    2.4972 C   0  0  0  0  0  0  0  0  0  0  0  0
    2.7219   -7.3065    3.0760 C   0  0  2  0  0  0  0  0  0  0  0  0
    2.1309   -6.6375    4.2259 O   0  0  0  0  0  0  0  0  0  0  0  0
    1.4748   -5.3315    4.1191 C   0  0  0  0  0  0  0  0  0  0  0  0
    3.9592   -6.3310    2.9947 C   0  0  0  0  0  0  0  0  0  0  0  0
    3.6931   -5.3734    2.0653 O   0  0  0  0  0  0  0  0  0  0  0  0
    4.6824   -4.5676    1.5650 C   0  0  0  0  0  0  0  0  0  0  0  0
    5.8599   -4.5754    1.9304 O   0  0  0  0  0  0  0  0  0  0  0  0
    4.1349   -3.7229    0.4898 C   0  0  0  0  0  0  0  0  0  0  0  0
    4.8600   -2.9574   -0.3381 C   0  0  0  0  0  0  0  0  0  0  0  0
    6.2664   -2.6851   -0.3866 C   0  0  0  0  0  0  0  0  0  0  0  0
    7.1630   -2.1567    0.4975 C   0  0  0  0  0  0  0  0  0  0  0  0
    8.4189   -2.1368   -0.1655 C   0  0  0  0  0  0  0  0  0  0  0  0
    8.1851   -2.6751   -1.4019 C   0  0  0  0  0  0  0  0  0  0  0  0
    6.8747   -2.9804   -1.5621 O   0  0  0  0  0  0  0  0  0  0  0  0
    4.7631   -6.1364    4.1358 C   0  0  0  0  0  0  0  0  0  0  0  0
    4.4643   -5.0001    5.1465 C   0  0  1  0  0  0  0  0  0  0  0  0
    4.0906   -3.5943    4.6177 C   0  0  0  0  0  0  0  0  0  0  0  0
    3.6866   -5.5627    6.4214 C   0  0  0  0  0  0  0  0  0  0  0  0
    3.5255   -7.1433    6.6147 C   0  0  1  0  0  0  0  0  0  0  0  0
    2.0536   -7.6279    6.8192 C   0  0  0  0  0  0  0  0  0  0  0  0
    1.1893   -8.3985    6.0827 C   0  0  0  0  0  0  0  0  0  0  0  0
    1.3081   -9.0975    4.6985 C   0  0  2  0  0  0  0  0  0  0  0  0
    2.8113   -9.3167    4.3448 C   0  0  0  0  0  0  0  0  0  0  0  0
    3.7457   -9.3428    5.3209 C   0  0  0  0  0  0  0  0  0  0  0  0
    4.4921   -8.0933    5.8168 C   0  0  1  0  0  0  0  0  0  0  0  0
    5.5345   -7.2456    4.9762 C   0  0  0  0  0  0  0  0  0  0  0  0
    6.7003   -7.8984    4.1629 C   0  0  0  0  0  0  0  0  0  0  0  0
    6.5041   -6.6876    6.1041 C   0  0  0  0  0  0  0  0  0  0  0  0
    3.1742   -8.8339    2.9627 C   0  0  0  0  0  0  0  0  0  0  0  0
    2.5784   -9.8061    1.8592 C   0  0  0  0  0  0  0  0  0  0  0  0
    4.6320   -9.1524    2.5188 C   0  0  0  0  0  0  0  0  0  0  0  0
   -2.3846   -7.8900    2.7392 H   0  0  0  0  0  0  0  0  0  0  0  0
   -2.7502   -6.7845    4.1493 H   0  0  0  0  0  0  0  0  0  0  0  0
   -0.5641   -7.0058    5.0148 H   0  0  0  0  0  0  0  0  0  0  0  0
    0.1257  -10.5394    2.8228 H   0  0  0  0  0  0  0  0  0  0  0  0
   -0.7138   -9.3298    1.8240 H   0  0  0  0  0  0  0  0  0  0  0  0
   -1.3034   -9.8600    3.3821 H   0  0  0  0  0  0  0  0  0  0  0  0
    1.2594   -7.8142    1.4737 H   0  0  0  0  0  0  0  0  0  0  0  0
    0.7110   -6.5345    2.2750 H   0  0  0  0  0  0  0  0  0  0  0  0
    1.7197   -4.6583    4.9188 H   0  0  0  0  0  0  0  0  0  0  0  0
    0.3942   -5.3750    4.1917 H   0  0  0  0  0  0  0  0  0  0  0  0
    1.6569   -4.8228    3.1747 H   0  0  0  0  0  0  0  0  0  0  0  0
    3.0617   -3.7389    0.3560 H   0  0  0  0  0  0  0  0  0  0  0  0
    4.3065   -2.4491   -1.0956 H   0  0  0  0  0  0  0  0  0  0  0  0
    6.9298   -1.8130    1.4987 H   0  0  0  0  0  0  0  0  0  0  0  0
    9.3802   -1.7952    0.1827 H   0  0  0  0  0  0  0  0  0  0  0  0
    8.8212   -2.8811   -2.2599 H   0  0  0  0  0  0  0  0  0  0  0  0
    5.4256   -4.6829    5.5291 H   0  0  0  0  0  0  0  0  0  0  0  0
    4.9503   -3.1469    4.1185 H   0  0  0  0  0  0  0  0  0  0  0  0
    3.8318   -2.9184    5.4366 H   0  0  0  0  0  0  0  0  0  0  0  0
    3.2864   -3.5553    3.8936 H   0  0  0  0  0  0  0  0  0  0  0  0
    4.2211   -5.1861    7.2960 H   0  0  0  0  0  0  0  0  0  0  0  0
    2.7281   -5.0892    6.5961 H   0  0  0  0  0  0  0  0  0  0  0  0
    3.8789   -7.2841    7.6361 H   0  0  0  0  0  0  0  0  0  0  0  0
    1.6566   -7.2773    7.7603 H   0  0  0  0  0  0  0  0  0  0  0  0
    0.2202   -8.5702    6.5287 H   0  0  0  0  0  0  0  0  0  0  0  0
    0.9221  -10.0952    4.8937 H   0  0  0  0  0  0  0  0  0  0  0  0
    3.3895   -9.8136    6.2259 H   0  0  0  0  0  0  0  0  0  0  0  0
    5.1106   -8.5872    6.5684 H   0  0  0  0  0  0  0  0  0  0  0  0
    6.8574   -8.9448    4.4182 H   0  0  0  0  0  0  0  0  0  0  0  0
    7.6856   -7.4419    4.3250 H   0  0  0  0  0  0  0  0  0  0  0  0
    6.6257   -7.7490    3.0975 H   0  0  0  0  0  0  0  0  0  0  0  0
    7.1441   -7.4778    6.5122 H   0  0  0  0  0  0  0  0  0  0  0  0
    6.0315   -6.2789    6.9894 H   0  0  0  0  0  0  0  0  0  0  0  0
    7.1844   -5.9124    5.7332 H   0  0  0  0  0  0  0  0  0  0  0  0
    2.9715   -9.6041    0.8540 H   0  0  0  0  0  0  0  0  0  0  0  0
    1.5439   -9.8353    1.6345 H   0  0  0  0  0  0  0  0  0  0  0  0
    2.8182  -10.8469    2.1019 H   0  0  0  0  0  0  0  0  0  0  0  0
    5.0797   -8.3371    1.9593 H   0  0  0  0  0  0  0  0  0  0  0  0
    4.7835   -9.9822    1.8139 H   0  0  0  0  0  0  0  0  0  0  0  0
    5.2267   -9.5580    3.3165 H   0  0  0  0  0  0  0  0  0  0  0  0
  1  2  2  0
  1 37  1  0
  1 38  1  0
  2  3  1  0
  2 39  1  0
  3 27  1  0
  3  4  1  6
  3  5  1  0
  4 40  1  0
  4 41  1  0
  4 42  1  0
  5  6  1  0
  5 43  1  0
  5 44  1  0
  6 34  1  0
  6  7  1  1
  6  9  1  0
  7  8  1  0
  8 45  1  0
  8 46  1  0
  8 47  1  0
  9 10  1  0
  9 20  2  3
 10 11  1  0
 11 12  2  0
 11 13  1  0
 13 14  2  3
 13 48  1  0
 14 15  1  0
 14 49  1  0
 15 19  1  0
 15 16  2  0
 16 17  1  0
 16 50  1  0
 17 18  2  0
 17 51  1  0
 18 19  1  0
 18 52  1  0
 20 31  1  0
 20 21  1  0
 21 22  1  0
 21 23  1  0
 21 53  1  1
 22 54  1  0
 22 55  1  0
 22 56  1  0
 23 24  1  0
 23 57  1  0
 23 58  1  0
 24 30  1  0
 24 25  1  0
 24 59  1  1
 25 26  2  0
 25 60  1  0
 26 27  1  0
 26 61  1  0
 27 28  1  0
 27 62  1  1
 28 29  2  0
 28 34  1  0
 29 30  1  0
 29 63  1  0
 30 31  1  0
 30 64  1  1
 31 32  1  0
 31 33  1  0
 32 65  1  0
 32 66  1  0
 32 67  1  0
 33 68  1  0
 33 69  1  0
 33 70  1  0
 34 35  1  0
 34 36  1  0
 35 71  1  0
 35 72  1  0
 35 73  1  0
 36 74  1  0
 36 75  1  0
 36 76  1  0
M  END
>  <i_m_ct_stereo_status>  (221) 
1

>  <s_m_source_file>  (221) 
/var/tmp/pbs.5076255.sched01/tmp2a9bgmzv/100_xx7n39i.sdf

>  <i_m_source_file_index>  (221) 
6

>  <i_lp_mmshare_version>  (221) 
48012

>  <i_f3d_flags>  (221) 
0

>  <s_epik_input>  (221) 
W0NIM11PQzEyW0NIMl1bQ0BdKFtDSDNdKShbQ0hdPVtDSDJdKVtDSF0zQyhDMihbQ0gzXSlbQ0gzXSk9W0NIXVtDQEBIXTRbQ0hdKFtDSF09W0NIXTMpW0NIMl1bQ0BIXShbQ0gzXSlcQyhDNChbQ0gzXSlbQ0gzXSk9Q1wxT0MoPU8pL1tDSF09W0NIXS9jNVtjSF1bY0hdW2NIXW81

>  <s_epik_cmdline>  (221) 
J2VwaWtfcHl0aG9uJywgJy1waHQnLCAnMi4wJywgJy1waCcsICc3LjAnLCAnLXRuJywgJzgnLCAnLW1hJywgJzIwMCcsICctaW1hZScsICc8aW5maWxlLm1hZT4nLCAnLW9tYWUnLCAnPG91dGZpbGUubWFlPic=

>  <r_lp_tautomer_probability>  (221) 
1

>  <r_epik_Ionization_Penalty>  (221) 
1.29585e-13

>  <r_epik_Ionization_Penalty_Charging>  (221) 
0

>  <r_epik_Ionization_Penalty_Neutral>  (221) 
1.29585e-13

>  <r_epik_State_Penalty>  (221) 
-0

>  <r_epik_Charging_Adjusted_Penalty>  (221) 
0

>  <i_epik_Tot_Q>  (221) 
0

>  <i_epik_Tot_abs_Q>  (221) 
0

>  <s_lp_Force_Field>  (221) 
OPLS3e

>  <r_lp_Energy>  (221) 
333.487

>  <b_lp_Chiralities_Consistent>  (221) 
1

>  <s_lp_Variant>  (221) 
52:0-26

>  <s_i_glide_gridfile>  (221) 
pfpi4k_grid

>  <i_i_glide_lignum>  (221) 
6

>  <i_i_glide_rotatable_bonds>  (221) 
6

>  <r_i_docking_score>  (221) 
-1.51894

>  <r_i_glide_ligand_efficiency>  (221) 
-0.0421928

>  <r_i_glide_ligand_efficiency_sa>  (221) 
-0.139317

>  <r_i_glide_ligand_efficiency_ln>  (221) 
-0.331392

>  <r_i_glide_gscore>  (221) 
-1.51894

>  <r_i_glide_lipo>  (221) 
-0.105485

>  <r_i_glide_hbond>  (221) 
0

>  <r_i_glide_metal>  (221) 
-0

>  <r_i_glide_rewards>  (221) 
-0.112467

>  <r_i_glide_evdw>  (221) 
-24.1005

>  <r_i_glide_ecoul>  (221) 
-2.91103

>  <r_i_glide_erotb>  (221) 
0.340689

>  <r_i_glide_esite>  (221) 
0

>  <r_i_glide_emodel>  (221) 
-25.0822

>  <r_i_glide_energy>  (221) 
-27.0115

>  <r_i_glide_einternal>  (221) 
8.15977

>  <r_i_glide_intrahb_reward>  (221) 
-0

>  <i_i_glide_confnum>  (221) 
3

>  <i_i_glide_posenum>  (221) 
22

>  <r_i_glide_eff_state_penalty>  (221) 
0

>  <ligand_id>  (221) 
52

>  <original_smiles>  (221) 
C=CC1(C)CC2(OC)C(OC(=O)C=Cc3ccco3)=C3C(C)CC4C=CC1C(=CC4C3(C)C)C2(C)C

>  <smiles>  (221) 
[H]C([H])=C([H])C1(C([H])([H])[H])C2([H])C([H])=C([H])C3([H])C([H])([H])C([H])(C([H])([H])[H])C4=C(OC(=O)C([H])=C([H])c5oc([H])c([H])c5[H])C(OC([H])([H])[H])(C1([H])[H])C(C([H])([H])[H])(C([H])([H])[H])C2=C([H])C3([H])C4(C([H])([H])[H])C([H])([H])[H]

$$$$
52:27:0
     RDKit          3D

 76 80  0  0  1  0  0  0  0  0999 V2000
    5.7646   -8.0876    4.5674 C   0  0  0  0  0  0  0  0  0  0  0  0
    4.5142   -7.6701    4.8389 C   0  0  0  0  0  0  0  0  0  0  0  0
    4.0355   -6.6793    5.9088 C   0  0  1  0  0  0  0  0  0  0  0  0
    5.2484   -6.3170    6.8070 C   0  0  0  0  0  0  0  0  0  0  0  0
    3.5651   -5.3711    5.1545 C   0  0  0  0  0  0  0  0  0  0  0  0
    2.0384   -5.2952    4.7587 C   0  0  1  0  0  0  0  0  0  0  0  0
    1.6782   -3.9681    4.2864 O   0  0  0  0  0  0  0  0  0  0  0  0
    2.4962   -3.2249    3.3664 C   0  0  0  0  0  0  0  0  0  0  0  0
    1.8384   -6.3891    3.5919 C   0  0  0  0  0  0  0  0  0  0  0  0
    2.8447   -6.1872    2.6895 O   0  0  0  0  0  0  0  0  0  0  0  0
    2.5608   -5.7804    1.4250 C   0  0  0  0  0  0  0  0  0  0  0  0
    1.4388   -5.7963    0.8995 O   0  0  0  0  0  0  0  0  0  0  0  0
    3.7170   -5.1914    0.7503 C   0  0  0  0  0  0  0  0  0  0  0  0
    4.9271   -5.0996    1.3308 C   0  0  0  0  0  0  0  0  0  0  0  0
    6.1014   -4.5258    0.7800 C   0  0  0  0  0  0  0  0  0  0  0  0
    7.4121   -4.4525    1.2236 C   0  0  0  0  0  0  0  0  0  0  0  0
    8.1175   -3.7467    0.2138 C   0  0  0  0  0  0  0  0  0  0  0  0
    7.2113   -3.4343   -0.7457 C   0  0  0  0  0  0  0  0  0  0  0  0
    5.9705   -3.8802   -0.4060 O   0  0  0  0  0  0  0  0  0  0  0  0
    1.0626   -7.5407    3.4520 C   0  0  0  0  0  0  0  0  0  0  0  0
    1.5616   -8.8353    2.7322 C   0  0  1  0  0  0  0  0  0  0  0  0
    2.7441   -8.8395    1.7312 C   0  0  0  0  0  0  0  0  0  0  0  0
    1.7955   -9.9295    3.8061 C   0  0  0  0  0  0  0  0  0  0  0  0
    1.2152   -9.7210    5.2527 C   0  0  1  0  0  0  0  0  0  0  0  0
    2.3453   -9.8305    6.2778 C   0  0  0  0  0  0  0  0  0  0  0  0
    3.0509   -8.8708    6.9095 C   0  0  0  0  0  0  0  0  0  0  0  0
    2.9165   -7.3469    6.8272 C   0  0  2  0  0  0  0  0  0  0  0  0
    1.4667   -6.8772    6.5854 C   0  0  0  0  0  0  0  0  0  0  0  0
    0.4149   -7.7074    6.6714 C   0  0  0  0  0  0  0  0  0  0  0  0
    0.1118   -8.6065    5.4839 C   0  0  1  0  0  0  0  0  0  0  0  0
   -0.2807   -7.9047    4.1538 C   0  0  0  0  0  0  0  0  0  0  0  0
   -1.2389   -6.7024    4.1768 C   0  0  0  0  0  0  0  0  0  0  0  0
   -1.1937   -8.9350    3.4011 C   0  0  0  0  0  0  0  0  0  0  0  0
    1.3200   -5.4121    6.1811 C   0  0  0  0  0  0  0  0  0  0  0  0
    1.9658   -4.5520    7.3290 C   0  0  0  0  0  0  0  0  0  0  0  0
   -0.1381   -4.8261    6.2597 C   0  0  0  0  0  0  0  0  0  0  0  0
    6.6323   -7.7548    5.1162 H   0  0  0  0  0  0  0  0  0  0  0  0
    5.9321   -8.7986    3.7718 H   0  0  0  0  0  0  0  0  0  0  0  0
    3.7246   -8.0840    4.2430 H   0  0  0  0  0  0  0  0  0  0  0  0
    4.9819   -5.6584    7.6302 H   0  0  0  0  0  0  0  0  0  0  0  0
    6.0358   -5.8172    6.2416 H   0  0  0  0  0  0  0  0  0  0  0  0
    5.6868   -7.2103    7.2568 H   0  0  0  0  0  0  0  0  0  0  0  0
    3.8176   -4.4874    5.7287 H   0  0  0  0  0  0  0  0  0  0  0  0
    4.2086   -5.2274    4.2944 H   0  0  0  0  0  0  0  0  0  0  0  0
    1.9644   -2.2668    3.1833 H   0  0  0  0  0  0  0  0  0  0  0  0
    2.6357   -3.6685    2.4285 H   0  0  0  0  0  0  0  0  0  0  0  0
    3.4590   -2.9693    3.8502 H   0  0  0  0  0  0  0  0  0  0  0  0
    3.5957   -4.8954   -0.2839 H   0  0  0  0  0  0  0  0  0  0  0  0
    5.0696   -5.4906    2.3302 H   0  0  0  0  0  0  0  0  0  0  0  0
    7.7895   -4.8815    2.1324 H   0  0  0  0  0  0  0  0  0  0  0  0
    9.1762   -3.5284    0.1633 H   0  0  0  0  0  0  0  0  0  0  0  0
    7.2568   -2.9462   -1.7099 H   0  0  0  0  0  0  0  0  0  0  0  0
    0.7691   -9.1556    2.0587 H   0  0  0  0  0  0  0  0  0  0  0  0
    2.4581   -8.2539    0.8534 H   0  0  0  0  0  0  0  0  0  0  0  0
    2.9419   -9.8552    1.3503 H   0  0  0  0  0  0  0  0  0  0  0  0
    3.6807   -8.4537    2.1404 H   0  0  0  0  0  0  0  0  0  0  0  0
    1.4253  -10.8734    3.3984 H   0  0  0  0  0  0  0  0  0  0  0  0
    2.8704  -10.0931    3.8907 H   0  0  0  0  0  0  0  0  0  0  0  0
    0.6702  -10.6461    5.4393 H   0  0  0  0  0  0  0  0  0  0  0  0
    2.6117  -10.8476    6.4908 H   0  0  0  0  0  0  0  0  0  0  0  0
    3.8226   -9.1940    7.5852 H   0  0  0  0  0  0  0  0  0  0  0  0
    3.1029   -7.0237    7.8518 H   0  0  0  0  0  0  0  0  0  0  0  0
    0.5470   -8.4753    7.4251 H   0  0  0  0  0  0  0  0  0  0  0  0
   -0.7777   -9.1226    5.8423 H   0  0  0  0  0  0  0  0  0  0  0  0
   -1.9020   -6.6952    5.0379 H   0  0  0  0  0  0  0  0  0  0  0  0
   -1.8970   -6.6958    3.3064 H   0  0  0  0  0  0  0  0  0  0  0  0
   -0.6890   -5.7836    4.0778 H   0  0  0  0  0  0  0  0  0  0  0  0
   -2.1683   -9.0084    3.8830 H   0  0  0  0  0  0  0  0  0  0  0  0
   -0.7986   -9.9488    3.3982 H   0  0  0  0  0  0  0  0  0  0  0  0
   -1.3658   -8.6498    2.3644 H   0  0  0  0  0  0  0  0  0  0  0  0
    1.9750   -3.4893    7.0876 H   0  0  0  0  0  0  0  0  0  0  0  0
    2.9714   -4.8149    7.6204 H   0  0  0  0  0  0  0  0  0  0  0  0
    1.4101   -4.6745    8.2560 H   0  0  0  0  0  0  0  0  0  0  0  0
   -0.4225   -4.2379    5.3912 H   0  0  0  0  0  0  0  0  0  0  0  0
   -0.2654   -4.1009    7.0635 H   0  0  0  0  0  0  0  0  0  0  0  0
   -0.9034   -5.5575    6.4818 H   0  0  0  0  0  0  0  0  0  0  0  0
  1  2  2  0
  1 37  1  0
  1 38  1  0
  2  3  1  0
  2 39  1  0
  3 27  1  0
  3  4  1  1
  3  5  1  0
  4 40  1  0
  4 41  1  0
  4 42  1  0
  5  6  1  0
  5 43  1  0
  5 44  1  0
  6 34  1  0
  6  7  1  6
  6  9  1  0
  7  8  1  0
  8 45  1  0
  8 46  1  0
  8 47  1  0
  9 10  1  0
  9 20  2  3
 10 11  1  0
 11 12  2  0
 11 13  1  0
 13 14  2  3
 13 48  1  0
 14 15  1  0
 14 49  1  0
 15 19  1  0
 15 16  2  0
 16 17  1  0
 16 50  1  0
 17 18  2  0
 17 51  1  0
 18 19  1  0
 18 52  1  0
 20 31  1  0
 20 21  1  0
 21 22  1  0
 21 23  1  0
 21 53  1  6
 22 54  1  0
 22 55  1  0
 22 56  1  0
 23 24  1  0
 23 57  1  0
 23 58  1  0
 24 30  1  0
 24 25  1  0
 24 59  1  1
 25 26  2  0
 25 60  1  0
 26 27  1  0
 26 61  1  0
 27 28  1  0
 27 62  1  1
 28 29  2  0
 28 34  1  0
 29 30  1  0
 29 63  1  0
 30 31  1  0
 30 64  1  1
 31 32  1  0
 31 33  1  0
 32 65  1  0
 32 66  1  0
 32 67  1  0
 33 68  1  0
 33 69  1  0
 33 70  1  0
 34 35  1  0
 34 36  1  0
 35 71  1  0
 35 72  1  0
 35 73  1  0
 36 74  1  0
 36 75  1  0
 36 76  1  0
M  END
>  <i_m_ct_stereo_status>  (222) 
1

>  <s_m_source_file>  (222) 
/var/tmp/pbs.5076255.sched01/tmp2a9bgmzv/100_xx7n39i.sdf

>  <i_m_source_file_index>  (222) 
8

>  <i_lp_mmshare_version>  (222) 
48012

>  <i_f3d_flags>  (222) 
0

>  <s_epik_input>  (222) 
W0NIM11PQzEyW0NIMl1bQ0BdKFtDSDNdKShbQ0hdPVtDSDJdKVtDSF0zQyhDMihbQ0gzXSlbQ0gzXSk9W0NIXVtDQEBIXTRbQ0hdKFtDSF09W0NIXTMpW0NIMl1bQ0BIXShbQ0gzXSlcQyhDNChbQ0gzXSlbQ0gzXSk9Q1wxT0MoPU8pL1tDSF09W0NIXS9jNVtjSF1bY0hdW2NIXW81

>  <s_epik_cmdline>  (222) 
J2VwaWtfcHl0aG9uJywgJy1waHQnLCAnMi4wJywgJy1waCcsICc3LjAnLCAnLXRuJywgJzgnLCAnLW1hJywgJzIwMCcsICctaW1hZScsICc8aW5maWxlLm1hZT4nLCAnLW9tYWUnLCAnPG91dGZpbGUubWFlPic=

>  <r_lp_tautomer_probability>  (222) 
1

>  <r_epik_Ionization_Penalty>  (222) 
1.29585e-13

>  <r_epik_Ionization_Penalty_Charging>  (222) 
0

>  <r_epik_Ionization_Penalty_Neutral>  (222) 
1.29585e-13

>  <r_epik_State_Penalty>  (222) 
-0

>  <r_epik_Charging_Adjusted_Penalty>  (222) 
0

>  <i_epik_Tot_Q>  (222) 
0

>  <i_epik_Tot_abs_Q>  (222) 
0

>  <s_lp_Force_Field>  (222) 
OPLS3e

>  <r_lp_Energy>  (222) 
190.558

>  <b_lp_Chiralities_Consistent>  (222) 
1

>  <s_lp_Variant>  (222) 
52:0-28

>  <s_i_glide_gridfile>  (222) 
pfpi4k_grid

>  <i_i_glide_lignum>  (222) 
8

>  <i_i_glide_rotatable_bonds>  (222) 
6

>  <r_i_docking_score>  (222) 
-2.1518

>  <r_i_glide_ligand_efficiency>  (222) 
-0.0597722

>  <r_i_glide_ligand_efficiency_sa>  (222) 
-0.197363

>  <r_i_glide_ligand_efficiency_ln>  (222) 
-0.469464

>  <r_i_glide_gscore>  (222) 
-2.1518

>  <r_i_glide_lipo>  (222) 
-0.634386

>  <r_i_glide_hbond>  (222) 
-0.148492

>  <r_i_glide_metal>  (222) 
-0

>  <r_i_glide_rewards>  (222) 
-0.0773345

>  <r_i_glide_evdw>  (222) 
-23.5668

>  <r_i_glide_ecoul>  (222) 
-2.92354

>  <r_i_glide_erotb>  (222) 
0.340689

>  <r_i_glide_esite>  (222) 
-0.0154034

>  <r_i_glide_emodel>  (222) 
-28.9078

>  <r_i_glide_energy>  (222) 
-26.4904

>  <r_i_glide_einternal>  (222) 
1.43531

>  <r_i_glide_intrahb_reward>  (222) 
-0

>  <i_i_glide_confnum>  (222) 
2

>  <i_i_glide_posenum>  (222) 
27

>  <r_i_glide_eff_state_penalty>  (222) 
0

>  <ligand_id>  (222) 
52

>  <original_smiles>  (222) 
C=CC1(C)CC2(OC)C(OC(=O)C=Cc3ccco3)=C3C(C)CC4C=CC1C(=CC4C3(C)C)C2(C)C

>  <smiles>  (222) 
[H]C([H])=C([H])C1(C([H])([H])[H])C2([H])C([H])=C([H])C3([H])C([H])([H])C([H])(C([H])([H])[H])C4=C(OC(=O)C([H])=C([H])c5oc([H])c([H])c5[H])C(OC([H])([H])[H])(C1([H])[H])C(C([H])([H])[H])(C([H])([H])[H])C2=C([H])C3([H])C4(C([H])([H])[H])C([H])([H])[H]

$$$$
52:27:1
     RDKit          3D

 76 80  0  0  1  0  0  0  0  0999 V2000
    5.9101   -7.9808    4.9143 C   0  0  0  0  0  0  0  0  0  0  0  0
    4.6155   -7.6326    5.0380 C   0  0  0  0  0  0  0  0  0  0  0  0
    3.9585   -6.6855    6.0506 C   0  0  1  0  0  0  0  0  0  0  0  0
    5.0373   -6.2570    7.0809 C   0  0  0  0  0  0  0  0  0  0  0  0
    3.4870   -5.4017    5.2544 C   0  0  0  0  0  0  0  0  0  0  0  0
    2.0140   -5.4268    4.6935 C   0  0  1  0  0  0  0  0  0  0  0  0
    1.6067   -4.1174    4.2241 O   0  0  0  0  0  0  0  0  0  0  0  0
    2.4757   -3.2727    3.4371 C   0  0  0  0  0  0  0  0  0  0  0  0
    1.9905   -6.5060    3.5081 C   0  0  0  0  0  0  0  0  0  0  0  0
    3.0827   -6.2241    2.7056 O   0  0  0  0  0  0  0  0  0  0  0  0
    2.8663   -5.7160    1.4767 C   0  0  0  0  0  0  0  0  0  0  0  0
    1.8241   -5.8172    0.8272 O   0  0  0  0  0  0  0  0  0  0  0  0
    4.1125   -5.1397    0.9748 C   0  0  0  0  0  0  0  0  0  0  0  0
    4.2207   -4.5212   -0.2196 C   0  0  0  0  0  0  0  0  0  0  0  0
    5.3669   -3.8725   -0.7597 C   0  0  0  0  0  0  0  0  0  0  0  0
    5.6191   -3.2680   -1.9569 C   0  0  0  0  0  0  0  0  0  0  0  0
    6.9773   -2.8129   -1.9141 C   0  0  0  0  0  0  0  0  0  0  0  0
    7.4316   -3.1565   -0.6760 C   0  0  0  0  0  0  0  0  0  0  0  0
    6.4763   -3.7918    0.0479 O   0  0  0  0  0  0  0  0  0  0  0  0
    1.3296   -7.7045    3.2717 C   0  0  0  0  0  0  0  0  0  0  0  0
    1.9886   -8.9445    2.6002 C   0  0  1  0  0  0  0  0  0  0  0  0
    3.2629   -8.8423    1.7230 C   0  0  0  0  0  0  0  0  0  0  0  0
    2.1895  -10.0354    3.6861 C   0  0  0  0  0  0  0  0  0  0  0  0
    1.4454   -9.8965    5.0675 C   0  0  1  0  0  0  0  0  0  0  0  0
    2.4598   -9.9477    6.2121 C   0  0  0  0  0  0  0  0  0  0  0  0
    3.0238   -8.9511    6.9233 C   0  0  0  0  0  0  0  0  0  0  0  0
    2.7995   -7.4390    6.8380 C   0  0  2  0  0  0  0  0  0  0  0  0
    1.3566   -7.0646    6.4447 C   0  0  0  0  0  0  0  0  0  0  0  0
    0.3634   -7.9680    6.4155 C   0  0  0  0  0  0  0  0  0  0  0  0
    0.2519   -8.8630    5.1929 C   0  0  1  0  0  0  0  0  0  0  0  0
   -0.0494   -8.1693    3.8368 C   0  0  0  0  0  0  0  0  0  0  0  0
   -1.0888   -7.0421    3.7598 C   0  0  0  0  0  0  0  0  0  0  0  0
   -0.8051   -9.2538    2.9857 C   0  0  0  0  0  0  0  0  0  0  0  0
    1.1541   -5.6131    6.0337 C   0  0  0  0  0  0  0  0  0  0  0  0
    1.6093   -4.7284    7.2542 C   0  0  0  0  0  0  0  0  0  0  0  0
   -0.3418   -5.1255    5.9685 C   0  0  0  0  0  0  0  0  0  0  0  0
    6.6847   -7.6210    5.5752 H   0  0  0  0  0  0  0  0  0  0  0  0
    6.2083   -8.6618    4.1369 H   0  0  0  0  0  0  0  0  0  0  0  0
    3.9255   -8.0726    4.3424 H   0  0  0  0  0  0  0  0  0  0  0  0
    4.6407   -5.6332    7.8775 H   0  0  0  0  0  0  0  0  0  0  0  0
    5.8479   -5.7028    6.6091 H   0  0  0  0  0  0  0  0  0  0  0  0
    5.4858   -7.1287    7.5717 H   0  0  0  0  0  0  0  0  0  0  0  0
    3.6181   -4.5141    5.8560 H   0  0  0  0  0  0  0  0  0  0  0  0
    4.2059   -5.2180    4.4665 H   0  0  0  0  0  0  0  0  0  0  0  0
    1.8915   -2.3642    3.1774 H   0  0  0  0  0  0  0  0  0  0  0  0
    2.8053   -3.6779    2.5048 H   0  0  0  0  0  0  0  0  0  0  0  0
    3.3391   -2.9520    4.0511 H   0  0  0  0  0  0  0  0  0  0  0  0
    5.0009   -5.2493    1.5736 H   0  0  0  0  0  0  0  0  0  0  0  0
    3.3405   -4.4882   -0.8578 H   0  0  0  0  0  0  0  0  0  0  0  0
    4.9170   -3.1976   -2.7769 H   0  0  0  0  0  0  0  0  0  0  0  0
    7.5448   -2.3419   -2.6794 H   0  0  0  0  0  0  0  0  0  0  0  0
    8.3980   -3.0533   -0.1720 H   0  0  0  0  0  0  0  0  0  0  0  0
    1.2982   -9.3080    1.8500 H   0  0  0  0  0  0  0  0  0  0  0  0
    3.0612   -8.2988    0.8020 H   0  0  0  0  0  0  0  0  0  0  0  0
    3.5634   -9.8242    1.3495 H   0  0  0  0  0  0  0  0  0  0  0  0
    4.1237   -8.4072    2.2371 H   0  0  0  0  0  0  0  0  0  0  0  0
    1.9270  -11.0001    3.2379 H   0  0  0  0  0  0  0  0  0  0  0  0
    3.2534  -10.1321    3.8884 H   0  0  0  0  0  0  0  0  0  0  0  0
    0.9480  -10.8549    5.1916 H   0  0  0  0  0  0  0  0  0  0  0  0
    2.7601  -10.9471    6.4579 H   0  0  0  0  0  0  0  0  0  0  0  0
    3.7325   -9.2339    7.6781 H   0  0  0  0  0  0  0  0  0  0  0  0
    2.8490   -7.1257    7.8816 H   0  0  0  0  0  0  0  0  0  0  0  0
    0.4549   -8.7422    7.1703 H   0  0  0  0  0  0  0  0  0  0  0  0
   -0.6236   -9.4514    5.4543 H   0  0  0  0  0  0  0  0  0  0  0  0
   -1.8344   -7.0956    4.5498 H   0  0  0  0  0  0  0  0  0  0  0  0
   -1.6600   -7.0756    2.8243 H   0  0  0  0  0  0  0  0  0  0  0  0
   -0.6064   -6.0824    3.7118 H   0  0  0  0  0  0  0  0  0  0  0  0
   -1.8147   -9.4194    3.3562 H   0  0  0  0  0  0  0  0  0  0  0  0
   -0.3398  -10.2361    3.0151 H   0  0  0  0  0  0  0  0  0  0  0  0
   -0.8902   -8.9671    1.9407 H   0  0  0  0  0  0  0  0  0  0  0  0
    1.5702   -3.6617    7.0309 H   0  0  0  0  0  0  0  0  0  0  0  0
    2.5888   -4.9254    7.6561 H   0  0  0  0  0  0  0  0  0  0  0  0
    0.9670   -4.9038    8.1196 H   0  0  0  0  0  0  0  0  0  0  0  0
   -0.5668   -4.5455    5.0839 H   0  0  0  0  0  0  0  0  0  0  0  0
   -0.6027   -4.4227    6.7649 H   0  0  0  0  0  0  0  0  0  0  0  0
   -1.0728   -5.9053    6.0978 H   0  0  0  0  0  0  0  0  0  0  0  0
  1  2  2  0
  1 37  1  0
  1 38  1  0
  2  3  1  0
  2 39  1  0
  3 27  1  0
  3  4  1  1
  3  5  1  0
  4 40  1  0
  4 41  1  0
  4 42  1  0
  5  6  1  0
  5 43  1  0
  5 44  1  0
  6 34  1  0
  6  7  1  6
  6  9  1  0
  7  8  1  0
  8 45  1  0
  8 46  1  0
  8 47  1  0
  9 10  1  0
  9 20  2  3
 10 11  1  0
 11 12  2  0
 11 13  1  0
 13 14  2  3
 13 48  1  0
 14 15  1  0
 14 49  1  0
 15 19  1  0
 15 16  2  0
 16 17  1  0
 16 50  1  0
 17 18  2  0
 17 51  1  0
 18 19  1  0
 18 52  1  0
 20 31  1  0
 20 21  1  0
 21 22  1  0
 21 23  1  0
 21 53  1  6
 22 54  1  0
 22 55  1  0
 22 56  1  0
 23 24  1  0
 23 57  1  0
 23 58  1  0
 24 30  1  0
 24 25  1  0
 24 59  1  1
 25 26  2  0
 25 60  1  0
 26 27  1  0
 26 61  1  0
 27 28  1  0
 27 62  1  1
 28 29  2  0
 28 34  1  0
 29 30  1  0
 29 63  1  0
 30 31  1  0
 30 64  1  1
 31 32  1  0
 31 33  1  0
 32 65  1  0
 32 66  1  0
 32 67  1  0
 33 68  1  0
 33 69  1  0
 33 70  1  0
 34 35  1  0
 34 36  1  0
 35 71  1  0
 35 72  1  0
 35 73  1  0
 36 74  1  0
 36 75  1  0
 36 76  1  0
M  END
>  <i_m_ct_stereo_status>  (223) 
1

>  <s_m_source_file>  (223) 
/var/tmp/pbs.5076255.sched01/tmp2a9bgmzv/100_xx7n39i.sdf

>  <i_m_source_file_index>  (223) 
8

>  <i_lp_mmshare_version>  (223) 
48012

>  <i_f3d_flags>  (223) 
0

>  <s_epik_input>  (223) 
W0NIM11PQzEyW0NIMl1bQ0BdKFtDSDNdKShbQ0hdPVtDSDJdKVtDSF0zQyhDMihbQ0gzXSlbQ0gzXSk9W0NIXVtDQEBIXTRbQ0hdKFtDSF09W0NIXTMpW0NIMl1bQ0BIXShbQ0gzXSlcQyhDNChbQ0gzXSlbQ0gzXSk9Q1wxT0MoPU8pL1tDSF09W0NIXS9jNVtjSF1bY0hdW2NIXW81

>  <s_epik_cmdline>  (223) 
J2VwaWtfcHl0aG9uJywgJy1waHQnLCAnMi4wJywgJy1waCcsICc3LjAnLCAnLXRuJywgJzgnLCAnLW1hJywgJzIwMCcsICctaW1hZScsICc8aW5maWxlLm1hZT4nLCAnLW9tYWUnLCAnPG91dGZpbGUubWFlPic=

>  <r_lp_tautomer_probability>  (223) 
1

>  <r_epik_Ionization_Penalty>  (223) 
1.29585e-13

>  <r_epik_Ionization_Penalty_Charging>  (223) 
0

>  <r_epik_Ionization_Penalty_Neutral>  (223) 
1.29585e-13

>  <r_epik_State_Penalty>  (223) 
-0

>  <r_epik_Charging_Adjusted_Penalty>  (223) 
0

>  <i_epik_Tot_Q>  (223) 
0

>  <i_epik_Tot_abs_Q>  (223) 
0

>  <s_lp_Force_Field>  (223) 
OPLS3e

>  <r_lp_Energy>  (223) 
190.558

>  <b_lp_Chiralities_Consistent>  (223) 
1

>  <s_lp_Variant>  (223) 
52:0-28

>  <s_i_glide_gridfile>  (223) 
pfpi4k_grid

>  <i_i_glide_lignum>  (223) 
8

>  <i_i_glide_rotatable_bonds>  (223) 
6

>  <r_i_docking_score>  (223) 
-1.87538

>  <r_i_glide_ligand_efficiency>  (223) 
-0.0520939

>  <r_i_glide_ligand_efficiency_sa>  (223) 
-0.17201

>  <r_i_glide_ligand_efficiency_ln>  (223) 
-0.409157

>  <r_i_glide_gscore>  (223) 
-1.87538

>  <r_i_glide_lipo>  (223) 
-0.377474

>  <r_i_glide_hbond>  (223) 
-0.0682031

>  <r_i_glide_metal>  (223) 
-0

>  <r_i_glide_rewards>  (223) 
-0.0773345

>  <r_i_glide_evdw>  (223) 
-25.4507

>  <r_i_glide_ecoul>  (223) 
-2.77702

>  <r_i_glide_erotb>  (223) 
0.340689

>  <r_i_glide_esite>  (223) 
-0.0039691

>  <r_i_glide_emodel>  (223) 
-28.8796

>  <r_i_glide_energy>  (223) 
-28.2277

>  <r_i_glide_einternal>  (223) 
1.79251

>  <r_i_glide_intrahb_reward>  (223) 
-0

>  <i_i_glide_confnum>  (223) 
2

>  <i_i_glide_posenum>  (223) 
1

>  <r_i_glide_eff_state_penalty>  (223) 
0

>  <ligand_id>  (223) 
52

>  <original_smiles>  (223) 
C=CC1(C)CC2(OC)C(OC(=O)C=Cc3ccco3)=C3C(C)CC4C=CC1C(=CC4C3(C)C)C2(C)C

>  <smiles>  (223) 
[H]C([H])=C([H])C1(C([H])([H])[H])C2([H])C([H])=C([H])C3([H])C([H])([H])C([H])(C([H])([H])[H])C4=C(OC(=O)C([H])=C([H])c5oc([H])c([H])c5[H])C(OC([H])([H])[H])(C1([H])[H])C(C([H])([H])[H])(C([H])([H])[H])C2=C([H])C3([H])C4(C([H])([H])[H])C([H])([H])[H]

$$$$
52:27:2
     RDKit          3D

 76 80  0  0  1  0  0  0  0  0999 V2000
    6.0175   -8.1837    5.0086 C   0  0  0  0  0  0  0  0  0  0  0  0
    4.7256   -7.8208    5.1293 C   0  0  0  0  0  0  0  0  0  0  0  0
    4.0478   -7.0137    6.2446 C   0  0  1  0  0  0  0  0  0  0  0  0
    5.0946   -6.7753    7.3686 C   0  0  0  0  0  0  0  0  0  0  0  0
    3.6310   -5.6124    5.6442 C   0  0  0  0  0  0  0  0  0  0  0  0
    2.1662   -5.5172    5.0511 C   0  0  1  0  0  0  0  0  0  0  0  0
    1.8400   -4.2040    4.5552 O   0  0  0  0  0  0  0  0  0  0  0  0
    2.2615   -3.0138    5.2039 C   0  0  0  0  0  0  0  0  0  0  0  0
    2.2070   -6.4285    3.7351 C   0  0  0  0  0  0  0  0  0  0  0  0
    3.3009   -6.0081    3.0309 O   0  0  0  0  0  0  0  0  0  0  0  0
    3.1518   -5.3856    1.8290 C   0  0  0  0  0  0  0  0  0  0  0  0
    2.0767   -5.2800    1.2074 O   0  0  0  0  0  0  0  0  0  0  0  0
    4.4509   -4.9058    1.3471 C   0  0  0  0  0  0  0  0  0  0  0  0
    4.6353   -4.3842    0.1207 C   0  0  0  0  0  0  0  0  0  0  0  0
    5.8528   -3.8436   -0.4017 C   0  0  0  0  0  0  0  0  0  0  0  0
    6.2109   -3.3565   -1.6354 C   0  0  0  0  0  0  0  0  0  0  0  0
    7.5624   -2.9656   -1.5522 C   0  0  0  0  0  0  0  0  0  0  0  0
    7.9588   -3.2395   -0.2553 C   0  0  0  0  0  0  0  0  0  0  0  0
    6.9213   -3.7887    0.4362 O   0  0  0  0  0  0  0  0  0  0  0  0
    1.5151   -7.5440    3.2803 C   0  0  0  0  0  0  0  0  0  0  0  0
    2.1783   -8.6778    2.4425 C   0  0  1  0  0  0  0  0  0  0  0  0
    3.4845   -8.4725    1.6427 C   0  0  0  0  0  0  0  0  0  0  0  0
    2.3074   -9.9343    3.3546 C   0  0  0  0  0  0  0  0  0  0  0  0
    1.5081   -9.9795    4.7114 C   0  0  1  0  0  0  0  0  0  0  0  0
    2.4716  -10.2296    5.8745 C   0  0  0  0  0  0  0  0  0  0  0  0
    3.0269   -9.3575    6.7482 C   0  0  0  0  0  0  0  0  0  0  0  0
    2.8367   -7.8410    6.8692 C   0  0  2  0  0  0  0  0  0  0  0  0
    1.4201   -7.3711    6.4938 C   0  0  0  0  0  0  0  0  0  0  0  0
    0.4129   -8.2323    6.2861 C   0  0  0  0  0  0  0  0  0  0  0  0
    0.3352   -8.9413    4.9480 C   0  0  1  0  0  0  0  0  0  0  0  0
    0.1107   -8.0514    3.7015 C   0  0  0  0  0  0  0  0  0  0  0  0
   -0.9069   -6.8944    3.7423 C   0  0  0  0  0  0  0  0  0  0  0  0
   -0.6321   -8.9849    2.6755 C   0  0  0  0  0  0  0  0  0  0  0  0
    1.2573   -5.8639    6.3199 C   0  0  0  0  0  0  0  0  0  0  0  0
    1.6777   -5.2396    7.7114 C   0  0  0  0  0  0  0  0  0  0  0  0
   -0.2122   -5.3333    6.2424 C   0  0  0  0  0  0  0  0  0  0  0  0
    6.7715   -7.9392    5.7388 H   0  0  0  0  0  0  0  0  0  0  0  0
    6.3339   -8.7531    4.1493 H   0  0  0  0  0  0  0  0  0  0  0  0
    4.0592   -8.1367    4.3550 H   0  0  0  0  0  0  0  0  0  0  0  0
    4.6815   -6.2585    8.2334 H   0  0  0  0  0  0  0  0  0  0  0  0
    5.9348   -6.1746    7.0152 H   0  0  0  0  0  0  0  0  0  0  0  0
    5.5022   -7.7170    7.7444 H   0  0  0  0  0  0  0  0  0  0  0  0
    3.7790   -4.8443    6.3979 H   0  0  0  0  0  0  0  0  0  0  0  0
    4.3817   -5.3114    4.9184 H   0  0  0  0  0  0  0  0  0  0  0  0
    1.8663   -2.1718    4.6420 H   0  0  0  0  0  0  0  0  0  0  0  0
    3.3421   -2.9149    5.2200 H   0  0  0  0  0  0  0  0  0  0  0  0
    1.8657   -2.9095    6.2090 H   0  0  0  0  0  0  0  0  0  0  0  0
    5.2893   -4.9770    2.0287 H   0  0  0  0  0  0  0  0  0  0  0  0
    3.7932   -4.3393   -0.5486 H   0  0  0  0  0  0  0  0  0  0  0  0
    5.5570   -3.3010   -2.4984 H   0  0  0  0  0  0  0  0  0  0  0  0
    8.2052   -2.5535   -2.3199 H   0  0  0  0  0  0  0  0  0  0  0  0
    8.8728   -3.1290    0.2913 H   0  0  0  0  0  0  0  0  0  0  0  0
    1.5108   -8.9159    1.6223 H   0  0  0  0  0  0  0  0  0  0  0  0
    3.3377   -7.7714    0.8284 H   0  0  0  0  0  0  0  0  0  0  0  0
    3.7768   -9.4007    1.1456 H   0  0  0  0  0  0  0  0  0  0  0  0
    4.3307   -8.1474    2.2429 H   0  0  0  0  0  0  0  0  0  0  0  0
    2.0447  -10.8132    2.7612 H   0  0  0  0  0  0  0  0  0  0  0  0
    3.3624  -10.0936    3.5780 H   0  0  0  0  0  0  0  0  0  0  0  0
    0.9834  -10.9341    4.6748 H   0  0  0  0  0  0  0  0  0  0  0  0
    2.7468  -11.2667    5.9914 H   0  0  0  0  0  0  0  0  0  0  0  0
    3.7012   -9.7726    7.4817 H   0  0  0  0  0  0  0  0  0  0  0  0
    2.8548   -7.6929    7.9487 H   0  0  0  0  0  0  0  0  0  0  0  0
    0.4583   -9.1115    6.9165 H   0  0  0  0  0  0  0  0  0  0  0  0
   -0.5764   -9.5233    5.0795 H   0  0  0  0  0  0  0  0  0  0  0  0
   -1.6877   -7.0445    4.4866 H   0  0  0  0  0  0  0  0  0  0  0  0
   -1.4391   -6.7797    2.7933 H   0  0  0  0  0  0  0  0  0  0  0  0
   -0.4126   -5.9424    3.8484 H   0  0  0  0  0  0  0  0  0  0  0  0
   -1.6642   -9.1814    2.9799 H   0  0  0  0  0  0  0  0  0  0  0  0
   -0.1911   -9.9755    2.5640 H   0  0  0  0  0  0  0  0  0  0  0  0
   -0.6799   -8.5433    1.6793 H   0  0  0  0  0  0  0  0  0  0  0  0
    1.6450   -4.1486    7.7496 H   0  0  0  0  0  0  0  0  0  0  0  0
    2.6560   -5.5159    8.0765 H   0  0  0  0  0  0  0  0  0  0  0  0
    1.0033   -5.5838    8.4988 H   0  0  0  0  0  0  0  0  0  0  0  0
   -0.3747   -4.6325    5.4281 H   0  0  0  0  0  0  0  0  0  0  0  0
   -0.5017   -4.7455    7.1140 H   0  0  0  0  0  0  0  0  0  0  0  0
   -0.9667   -6.1067    6.2165 H   0  0  0  0  0  0  0  0  0  0  0  0
  1  2  2  0
  1 37  1  0
  1 38  1  0
  2  3  1  0
  2 39  1  0
  3 27  1  0
  3  4  1  1
  3  5  1  0
  4 40  1  0
  4 41  1  0
  4 42  1  0
  5  6  1  0
  5 43  1  0
  5 44  1  0
  6 34  1  0
  6  7  1  6
  6  9  1  0
  7  8  1  0
  8 45  1  0
  8 46  1  0
  8 47  1  0
  9 10  1  0
  9 20  2  3
 10 11  1  0
 11 12  2  0
 11 13  1  0
 13 14  2  3
 13 48  1  0
 14 15  1  0
 14 49  1  0
 15 19  1  0
 15 16  2  0
 16 17  1  0
 16 50  1  0
 17 18  2  0
 17 51  1  0
 18 19  1  0
 18 52  1  0
 20 31  1  0
 20 21  1  0
 21 22  1  0
 21 23  1  0
 21 53  1  6
 22 54  1  0
 22 55  1  0
 22 56  1  0
 23 24  1  0
 23 57  1  0
 23 58  1  0
 24 30  1  0
 24 25  1  0
 24 59  1  6
 25 26  2  0
 25 60  1  0
 26 27  1  0
 26 61  1  0
 27 28  1  0
 27 62  1  1
 28 29  2  0
 28 34  1  0
 29 30  1  0
 29 63  1  0
 30 31  1  0
 30 64  1  1
 31 32  1  0
 31 33  1  0
 32 65  1  0
 32 66  1  0
 32 67  1  0
 33 68  1  0
 33 69  1  0
 33 70  1  0
 34 35  1  0
 34 36  1  0
 35 71  1  0
 35 72  1  0
 35 73  1  0
 36 74  1  0
 36 75  1  0
 36 76  1  0
M  END
>  <i_m_ct_stereo_status>  (224) 
1

>  <s_m_source_file>  (224) 
/var/tmp/pbs.5076255.sched01/tmp2a9bgmzv/100_xx7n39i.sdf

>  <i_m_source_file_index>  (224) 
8

>  <i_lp_mmshare_version>  (224) 
48012

>  <i_f3d_flags>  (224) 
0

>  <s_epik_input>  (224) 
W0NIM11PQzEyW0NIMl1bQ0BdKFtDSDNdKShbQ0hdPVtDSDJdKVtDSF0zQyhDMihbQ0gzXSlbQ0gzXSk9W0NIXVtDQEBIXTRbQ0hdKFtDSF09W0NIXTMpW0NIMl1bQ0BIXShbQ0gzXSlcQyhDNChbQ0gzXSlbQ0gzXSk9Q1wxT0MoPU8pL1tDSF09W0NIXS9jNVtjSF1bY0hdW2NIXW81

>  <s_epik_cmdline>  (224) 
J2VwaWtfcHl0aG9uJywgJy1waHQnLCAnMi4wJywgJy1waCcsICc3LjAnLCAnLXRuJywgJzgnLCAnLW1hJywgJzIwMCcsICctaW1hZScsICc8aW5maWxlLm1hZT4nLCAnLW9tYWUnLCAnPG91dGZpbGUubWFlPic=

>  <r_lp_tautomer_probability>  (224) 
1

>  <r_epik_Ionization_Penalty>  (224) 
1.29585e-13

>  <r_epik_Ionization_Penalty_Charging>  (224) 
0

>  <r_epik_Ionization_Penalty_Neutral>  (224) 
1.29585e-13

>  <r_epik_State_Penalty>  (224) 
-0

>  <r_epik_Charging_Adjusted_Penalty>  (224) 
0

>  <i_epik_Tot_Q>  (224) 
0

>  <i_epik_Tot_abs_Q>  (224) 
0

>  <s_lp_Force_Field>  (224) 
OPLS3e

>  <r_lp_Energy>  (224) 
190.558

>  <b_lp_Chiralities_Consistent>  (224) 
1

>  <s_lp_Variant>  (224) 
52:0-28

>  <s_i_glide_gridfile>  (224) 
pfpi4k_grid

>  <i_i_glide_lignum>  (224) 
8

>  <i_i_glide_rotatable_bonds>  (224) 
6

>  <r_i_docking_score>  (224) 
-1.76701

>  <r_i_glide_ligand_efficiency>  (224) 
-0.0490836

>  <r_i_glide_ligand_efficiency_sa>  (224) 
-0.162071

>  <r_i_glide_ligand_efficiency_ln>  (224) 
-0.385514

>  <r_i_glide_gscore>  (224) 
-1.76701

>  <r_i_glide_lipo>  (224) 
-0.504492

>  <r_i_glide_hbond>  (224) 
-0.0309396

>  <r_i_glide_metal>  (224) 
-0

>  <r_i_glide_rewards>  (224) 
-0.0812124

>  <r_i_glide_evdw>  (224) 
-24.6532

>  <r_i_glide_ecoul>  (224) 
-1.72262

>  <r_i_glide_erotb>  (224) 
0.340689

>  <r_i_glide_esite>  (224) 
0

>  <r_i_glide_emodel>  (224) 
-28.1359

>  <r_i_glide_energy>  (224) 
-26.3759

>  <r_i_glide_einternal>  (224) 
2.39638

>  <r_i_glide_intrahb_reward>  (224) 
-0

>  <i_i_glide_confnum>  (224) 
2

>  <i_i_glide_posenum>  (224) 
19

>  <r_i_glide_eff_state_penalty>  (224) 
0

>  <ligand_id>  (224) 
52

>  <original_smiles>  (224) 
C=CC1(C)CC2(OC)C(OC(=O)C=Cc3ccco3)=C3C(C)CC4C=CC1C(=CC4C3(C)C)C2(C)C

>  <smiles>  (224) 
[H]C([H])=C([H])C1(C([H])([H])[H])C2([H])C([H])=C([H])C3([H])C([H])([H])C([H])(C([H])([H])[H])C4=C(OC(=O)C([H])=C([H])c5oc([H])c([H])c5[H])C(OC([H])([H])[H])(C1([H])[H])C(C([H])([H])[H])(C([H])([H])[H])C2=C([H])C3([H])C4(C([H])([H])[H])C([H])([H])[H]

$$$$
52:28:0
     RDKit          3D

 76 80  0  0  1  0  0  0  0  0999 V2000
   -2.2827    4.2222    3.1498 C   0  0  0  0  0  0  0  0  0  0  0  0
   -2.2595    3.4495    4.2545 C   0  0  0  0  0  0  0  0  0  0  0  0
   -1.0094    2.8916    4.9494 C   0  0  1  0  0  0  0  0  0  0  0  0
   -1.1565    3.4926    6.3763 C   0  0  0  0  0  0  0  0  0  0  0  0
   -1.0510    1.2428    5.1042 C   0  0  0  0  0  0  0  0  0  0  0  0
    0.3809    0.5475    4.8045 C   0  0  1  0  0  0  0  0  0  0  0  0
    0.5166    1.1914    6.1203 O   0  0  0  0  0  0  0  0  0  0  0  0
    0.1758    0.6074    7.4317 C   0  0  0  0  0  0  0  0  0  0  0  0
    1.5751   -0.4436    5.3330 C   0  0  0  0  0  0  0  0  0  0  0  0
    1.3995   -1.7141    4.8501 O   0  0  0  0  0  0  0  0  0  0  0  0
    0.2625   -2.4134    5.1305 C   0  0  0  0  0  0  0  0  0  0  0  0
   -0.6675   -2.0191    5.8386 O   0  0  0  0  0  0  0  0  0  0  0  0
    0.2573   -3.7439    4.4954 C   0  0  0  0  0  0  0  0  0  0  0  0
    1.2305   -4.1654    3.6627 C   0  0  0  0  0  0  0  0  0  0  0  0
    1.3165   -5.4231    2.9918 C   0  0  0  0  0  0  0  0  0  0  0  0
    2.2977   -5.9997    2.2346 C   0  0  0  0  0  0  0  0  0  0  0  0
    1.8072   -7.2803    1.8488 C   0  0  0  0  0  0  0  0  0  0  0  0
    0.5576   -7.3866    2.3964 C   0  0  0  0  0  0  0  0  0  0  0  0
    0.2437   -6.2600    3.0970 O   0  0  0  0  0  0  0  0  0  0  0  0
    2.9262   -0.0906    5.6270 C   0  0  0  0  0  0  0  0  0  0  0  0
    3.3516    0.6241    6.9754 C   0  0  1  0  0  0  0  0  0  0  0  0
    4.3524   -0.2146    7.7908 C   0  0  0  0  0  0  0  0  0  0  0  0
    3.7201    2.1884    6.9454 C   0  0  0  0  0  0  0  0  0  0  0  0
    3.1564    2.8888    5.6777 C   0  0  0  0  0  0  0  0  0  0  0  0
    2.4803    4.2851    5.5549 C   0  0  0  0  0  0  0  0  0  0  0  0
    1.2613    4.5065    4.9417 C   0  0  0  0  0  0  0  0  0  0  0  0
    0.3538    3.4349    4.2479 C   0  0  2  0  0  0  0  0  0  0  0  0
    1.0986    2.5193    3.2194 C   0  0  0  0  0  0  0  0  0  0  0  0
    2.4676    2.6038    3.1531 C   0  0  0  0  0  0  0  0  0  0  0  0
    3.3005    2.0669    4.3525 C   0  0  1  0  0  0  0  0  0  0  0  0
    3.8511    0.5785    4.5244 C   0  0  0  0  0  0  0  0  0  0  0  0
    5.3804    0.6741    4.8600 C   0  0  0  0  0  0  0  0  0  0  0  0
    4.0120   -0.3732    3.3061 C   0  0  0  0  0  0  0  0  0  0  0  0
    0.5070    1.0957    3.2361 C   0  0  0  0  0  0  0  0  0  0  0  0
    1.2269    0.0979    2.2695 C   0  0  0  0  0  0  0  0  0  0  0  0
   -0.7797    1.1826    2.3239 C   0  0  0  0  0  0  0  0  0  0  0  0
   -1.3770    4.5016    2.6317 H   0  0  0  0  0  0  0  0  0  0  0  0
   -3.2140    4.5734    2.7317 H   0  0  0  0  0  0  0  0  0  0  0  0
   -3.2074    3.1892    4.7091 H   0  0  0  0  0  0  0  0  0  0  0  0
   -0.2909    3.3123    7.0153 H   0  0  0  0  0  0  0  0  0  0  0  0
   -2.0254    3.0763    6.8935 H   0  0  0  0  0  0  0  0  0  0  0  0
   -1.2938    4.5747    6.3385 H   0  0  0  0  0  0  0  0  0  0  0  0
   -1.6590    0.9272    5.9448 H   0  0  0  0  0  0  0  0  0  0  0  0
   -1.7824    0.8336    4.4197 H   0  0  0  0  0  0  0  0  0  0  0  0
    0.5858    1.2741    8.1921 H   0  0  0  0  0  0  0  0  0  0  0  0
    0.5942   -0.3822    7.6130 H   0  0  0  0  0  0  0  0  0  0  0  0
   -0.8741    0.5339    7.7029 H   0  0  0  0  0  0  0  0  0  0  0  0
   -0.5717   -4.3945    4.7209 H   0  0  0  0  0  0  0  0  0  0  0  0
    2.0543   -3.5041    3.4434 H   0  0  0  0  0  0  0  0  0  0  0  0
    3.2529   -5.5570    1.9988 H   0  0  0  0  0  0  0  0  0  0  0  0
    2.2947   -8.0419    1.2617 H   0  0  0  0  0  0  0  0  0  0  0  0
   -0.1957   -8.1595    2.3956 H   0  0  0  0  0  0  0  0  0  0  0  0
    2.5243    0.5635    7.6528 H   0  0  0  0  0  0  0  0  0  0  0  0
    3.9620   -1.2221    7.9387 H   0  0  0  0  0  0  0  0  0  0  0  0
    4.4883    0.2214    8.7806 H   0  0  0  0  0  0  0  0  0  0  0  0
    5.3392   -0.3030    7.3396 H   0  0  0  0  0  0  0  0  0  0  0  0
    3.3093    2.6521    7.8479 H   0  0  0  0  0  0  0  0  0  0  0  0
    4.7856    2.3828    7.0629 H   0  0  0  0  0  0  0  0  0  0  0  0
    2.2473    2.6130    6.1901 H   0  0  0  0  0  0  0  0  0  0  0  0
    3.0147    5.1229    5.9808 H   0  0  0  0  0  0  0  0  0  0  0  0
    0.8742    5.5125    4.8914 H   0  0  0  0  0  0  0  0  0  0  0  0
    0.7718    2.9217    5.0175 H   0  0  0  0  0  0  0  0  0  0  0  0
    2.8580    3.6016    3.0111 H   0  0  0  0  0  0  0  0  0  0  0  0
    2.4033    1.6775    4.6180 H   0  0  0  0  0  0  0  0  0  0  0  0
    5.9530    0.9214    3.9625 H   0  0  0  0  0  0  0  0  0  0  0  0
    5.7824   -0.2749    5.2234 H   0  0  0  0  0  0  0  0  0  0  0  0
    5.6850    1.4388    5.5581 H   0  0  0  0  0  0  0  0  0  0  0  0
    4.2087    0.1653    2.3790 H   0  0  0  0  0  0  0  0  0  0  0  0
    3.2039   -1.0803    3.1939 H   0  0  0  0  0  0  0  0  0  0  0  0
    4.8532   -1.0631    3.4201 H   0  0  0  0  0  0  0  0  0  0  0  0
    1.2440   -0.9150    2.6496 H   0  0  0  0  0  0  0  0  0  0  0  0
    2.1886    0.4492    1.9305 H   0  0  0  0  0  0  0  0  0  0  0  0
    0.7647   -0.0686    1.2935 H   0  0  0  0  0  0  0  0  0  0  0  0
   -1.3115    0.2327    2.2708 H   0  0  0  0  0  0  0  0  0  0  0  0
   -0.5334    1.4976    1.3021 H   0  0  0  0  0  0  0  0  0  0  0  0
   -1.5129    1.9169    2.5811 H   0  0  0  0  0  0  0  0  0  0  0  0
  1  2  2  0
  1 37  1  0
  1 38  1  0
  2  3  1  0
  2 39  1  0
  3 27  1  0
  3  4  1  1
  3  5  1  0
  4 40  1  0
  4 41  1  0
  4 42  1  0
  5  6  1  0
  5 43  1  0
  5 44  1  0
  6 34  1  0
  6  7  1  1
  6  9  1  0
  7  8  1  0
  8 45  1  0
  8 46  1  0
  8 47  1  0
  9 10  1  0
  9 20  2  3
 10 11  1  0
 11 12  2  0
 11 13  1  0
 13 14  2  3
 13 48  1  0
 14 15  1  0
 14 49  1  0
 15 19  1  0
 15 16  2  0
 16 17  1  0
 16 50  1  0
 17 18  2  0
 17 51  1  0
 18 19  1  0
 18 52  1  0
 20 31  1  0
 20 21  1  0
 21 22  1  0
 21 23  1  0
 21 53  1  1
 22 54  1  0
 22 55  1  0
 22 56  1  0
 23 24  1  0
 23 57  1  0
 23 58  1  0
 24 30  1  0
 24 25  1  0
 24 59  1  0
 25 26  2  0
 25 60  1  0
 26 27  1  0
 26 61  1  0
 27 28  1  0
 27 62  1  6
 28 29  2  0
 28 34  1  0
 29 30  1  0
 29 63  1  0
 30 31  1  0
 30 64  1  6
 31 32  1  0
 31 33  1  0
 32 65  1  0
 32 66  1  0
 32 67  1  0
 33 68  1  0
 33 69  1  0
 33 70  1  0
 34 35  1  0
 34 36  1  0
 35 71  1  0
 35 72  1  0
 35 73  1  0
 36 74  1  0
 36 75  1  0
 36 76  1  0
M  END
>  <i_m_ct_stereo_status>  (225) 
1

>  <s_m_source_file>  (225) 
/var/tmp/pbs.5076255.sched01/tmp2a9bgmzv/100_xx7n39i.sdf

>  <i_m_source_file_index>  (225) 
9

>  <i_lp_mmshare_version>  (225) 
48012

>  <i_f3d_flags>  (225) 
0

>  <s_epik_input>  (225) 
W0NIM11PQzEyW0NIMl1bQ0BdKFtDSDNdKShbQ0hdPVtDSDJdKVtDSF0zQyhDMihbQ0gzXSlbQ0gzXSk9W0NIXVtDQEBIXTRbQ0hdKFtDSF09W0NIXTMpW0NIMl1bQ0BIXShbQ0gzXSlcQyhDNChbQ0gzXSlbQ0gzXSk9Q1wxT0MoPU8pL1tDSF09W0NIXS9jNVtjSF1bY0hdW2NIXW81

>  <s_epik_cmdline>  (225) 
J2VwaWtfcHl0aG9uJywgJy1waHQnLCAnMi4wJywgJy1waCcsICc3LjAnLCAnLXRuJywgJzgnLCAnLW1hJywgJzIwMCcsICctaW1hZScsICc8aW5maWxlLm1hZT4nLCAnLW9tYWUnLCAnPG91dGZpbGUubWFlPic=

>  <r_lp_tautomer_probability>  (225) 
1

>  <r_epik_Ionization_Penalty>  (225) 
1.29585e-13

>  <r_epik_Ionization_Penalty_Charging>  (225) 
0

>  <r_epik_Ionization_Penalty_Neutral>  (225) 
1.29585e-13

>  <r_epik_State_Penalty>  (225) 
-0

>  <r_epik_Charging_Adjusted_Penalty>  (225) 
0

>  <i_epik_Tot_Q>  (225) 
0

>  <i_epik_Tot_abs_Q>  (225) 
0

>  <s_lp_Force_Field>  (225) 
OPLS3e

>  <r_lp_Energy>  (225) 
472.354

>  <b_lp_Chiralities_Consistent>  (225) 
1

>  <s_lp_Variant>  (225) 
52:0-29

>  <s_i_glide_gridfile>  (225) 
pfpi4k_grid

>  <i_i_glide_lignum>  (225) 
9

>  <i_i_glide_rotatable_bonds>  (225) 
6

>  <r_i_docking_score>  (225) 
-1.56689

>  <r_i_glide_ligand_efficiency>  (225) 
-0.0435247

>  <r_i_glide_ligand_efficiency_sa>  (225) 
-0.143715

>  <r_i_glide_ligand_efficiency_ln>  (225) 
-0.341853

>  <r_i_glide_gscore>  (225) 
-1.56689

>  <r_i_glide_lipo>  (225) 
-0.160583

>  <r_i_glide_hbond>  (225) 
-0.0921572

>  <r_i_glide_metal>  (225) 
-0

>  <r_i_glide_rewards>  (225) 
-0.0773345

>  <r_i_glide_evdw>  (225) 
-24.4289

>  <r_i_glide_ecoul>  (225) 
-2.36773

>  <r_i_glide_erotb>  (225) 
0.340689

>  <r_i_glide_esite>  (225) 
-0.000900376

>  <r_i_glide_emodel>  (225) 
-27.8811

>  <r_i_glide_energy>  (225) 
-26.7966

>  <r_i_glide_einternal>  (225) 
2.89733

>  <r_i_glide_intrahb_reward>  (225) 
-0

>  <i_i_glide_confnum>  (225) 
1

>  <i_i_glide_posenum>  (225) 
15

>  <r_i_glide_eff_state_penalty>  (225) 
0

>  <ligand_id>  (225) 
52

>  <original_smiles>  (225) 
C=CC1(C)CC2(OC)C(OC(=O)C=Cc3ccco3)=C3C(C)CC4C=CC1C(=CC4C3(C)C)C2(C)C

>  <smiles>  (225) 
[H]C([H])=C([H])C1(C([H])([H])[H])C2([H])C([H])=C([H])C3([H])C([H])([H])C([H])(C([H])([H])[H])C4=C(OC(=O)C([H])=C([H])c5oc([H])c([H])c5[H])C(OC([H])([H])[H])(C1([H])[H])C(C([H])([H])[H])(C([H])([H])[H])C2=C([H])C3([H])C4(C([H])([H])[H])C([H])([H])[H]

$$$$
52:28:1
     RDKit          3D

 76 80  0  0  1  0  0  0  0  0999 V2000
   -2.0199    4.7185    2.9686 C   0  0  0  0  0  0  0  0  0  0  0  0
   -2.0238    3.9112    4.0480 C   0  0  0  0  0  0  0  0  0  0  0  0
   -0.7857    3.3316    4.7403 C   0  0  1  0  0  0  0  0  0  0  0  0
   -0.7732    4.1315    6.0731 C   0  0  0  0  0  0  0  0  0  0  0  0
   -0.9722    1.7316    5.1236 C   0  0  0  0  0  0  0  0  0  0  0  0
    0.3624    0.8623    4.8401 C   0  0  1  0  0  0  0  0  0  0  0  0
    0.6552    1.6571    6.0435 O   0  0  0  0  0  0  0  0  0  0  0  0
    0.3539    1.2907    7.4410 C   0  0  0  0  0  0  0  0  0  0  0  0
    1.4893   -0.1720    5.4279 C   0  0  0  0  0  0  0  0  0  0  0  0
    1.1588   -1.4754    5.1538 O   0  0  0  0  0  0  0  0  0  0  0  0
   -0.0392   -1.9968    5.5515 C   0  0  0  0  0  0  0  0  0  0  0  0
   -0.9397   -1.3808    6.1252 O   0  0  0  0  0  0  0  0  0  0  0  0
   -0.1554   -3.4283    5.2385 C   0  0  0  0  0  0  0  0  0  0  0  0
    0.7183   -4.0783    4.4445 C   0  0  0  0  0  0  0  0  0  0  0  0
    0.7008   -5.4618    4.0907 C   0  0  0  0  0  0  0  0  0  0  0  0
    1.5211   -6.2239    3.3059 C   0  0  0  0  0  0  0  0  0  0  0  0
    0.9903   -7.5449    3.3355 C   0  0  0  0  0  0  0  0  0  0  0  0
   -0.1170   -7.4899    4.1377 C   0  0  0  0  0  0  0  0  0  0  0  0
   -0.3082   -6.2244    4.6030 O   0  0  0  0  0  0  0  0  0  0  0  0
    2.8860    0.0725    5.5923 C   0  0  0  0  0  0  0  0  0  0  0  0
    3.4744    0.9149    6.7986 C   0  0  1  0  0  0  0  0  0  0  0  0
    4.4478    0.0952    7.6653 C   0  0  0  0  0  0  0  0  0  0  0  0
    3.9872    2.4141    6.5268 C   0  0  0  0  0  0  0  0  0  0  0  0
    3.4039    2.9940    5.2081 C   0  0  0  0  0  0  0  0  0  0  0  0
    2.8552    4.4237    4.9287 C   0  0  0  0  0  0  0  0  0  0  0  0
    1.6211    4.6862    4.3641 C   0  0  0  0  0  0  0  0  0  0  0  0
    0.5682    3.6317    3.8863 C   0  0  2  0  0  0  0  0  0  0  0  0
    1.1451    2.5140    2.9545 C   0  0  0  0  0  0  0  0  0  0  0  0
    2.5069    2.4426    2.7963 C   0  0  0  0  0  0  0  0  0  0  0  0
    3.3699    1.9887    4.0083 C   0  0  1  0  0  0  0  0  0  0  0  0
    3.7892    0.4878    4.3548 C   0  0  0  0  0  0  0  0  0  0  0  0
    5.3420    0.4696    4.5819 C   0  0  0  0  0  0  0  0  0  0  0  0
    3.7683   -0.6318    3.2770 C   0  0  0  0  0  0  0  0  0  0  0  0
    0.4218    1.1772    3.2063 C   0  0  0  0  0  0  0  0  0  0  0  0
    0.9698   -0.0139    2.3529 C   0  0  0  0  0  0  0  0  0  0  0  0
   -0.9151    1.2858    2.3692 C   0  0  0  0  0  0  0  0  0  0  0  0
   -1.0992    5.0312    2.4941 H   0  0  0  0  0  0  0  0  0  0  0  0
   -2.9387    5.0747    2.5273 H   0  0  0  0  0  0  0  0  0  0  0  0
   -2.9767    3.6246    4.4747 H   0  0  0  0  0  0  0  0  0  0  0  0
    0.1154    3.9486    6.6772 H   0  0  0  0  0  0  0  0  0  0  0  0
   -1.6381    3.8795    6.6916 H   0  0  0  0  0  0  0  0  0  0  0  0
   -0.8068    5.2069    5.8892 H   0  0  0  0  0  0  0  0  0  0  0  0
   -1.5439    1.5923    6.0345 H   0  0  0  0  0  0  0  0  0  0  0  0
   -1.7853    1.3078    4.5469 H   0  0  0  0  0  0  0  0  0  0  0  0
    0.8812    2.0032    8.0769 H   0  0  0  0  0  0  0  0  0  0  0  0
    0.6836    0.2942    7.7318 H   0  0  0  0  0  0  0  0  0  0  0  0
   -0.6758    1.3684    7.7818 H   0  0  0  0  0  0  0  0  0  0  0  0
   -0.9825   -3.9584    5.6804 H   0  0  0  0  0  0  0  0  0  0  0  0
    1.5359   -3.5272    4.0024 H   0  0  0  0  0  0  0  0  0  0  0  0
    2.3970   -5.8726    2.7821 H   0  0  0  0  0  0  0  0  0  0  0  0
    1.3620   -8.4310    2.8458 H   0  0  0  0  0  0  0  0  0  0  0  0
   -0.8407   -8.2193    4.4712 H   0  0  0  0  0  0  0  0  0  0  0  0
    2.6973    1.0317    7.5255 H   0  0  0  0  0  0  0  0  0  0  0  0
    3.9784   -0.8378    7.9790 H   0  0  0  0  0  0  0  0  0  0  0  0
    4.6988    0.6441    8.5731 H   0  0  0  0  0  0  0  0  0  0  0  0
    5.3854   -0.1546    7.1729 H   0  0  0  0  0  0  0  0  0  0  0  0
    3.6930    3.0363    7.3777 H   0  0  0  0  0  0  0  0  0  0  0  0
    5.0719    2.5076    6.5521 H   0  0  0  0  0  0  0  0  0  0  0  0
    2.5125    2.8881    5.8075 H   0  0  0  0  0  0  0  0  0  0  0  0
    3.4950    5.2517    5.1982 H   0  0  0  0  0  0  0  0  0  0  0  0
    1.3267    5.7097    4.1924 H   0  0  0  0  0  0  0  0  0  0  0  0
    0.9924    3.1864    4.6933 H   0  0  0  0  0  0  0  0  0  0  0  0
    2.9777    3.3662    2.4921 H   0  0  0  0  0  0  0  0  0  0  0  0
    2.4619    1.7357    4.3788 H   0  0  0  0  0  0  0  0  0  0  0  0
    5.8702    0.5352    3.6270 H   0  0  0  0  0  0  0  0  0  0  0  0
    5.6788   -0.4576    5.0519 H   0  0  0  0  0  0  0  0  0  0  0  0
    5.7679    1.2844    5.1463 H   0  0  0  0  0  0  0  0  0  0  0  0
    3.9456   -0.2473    2.2728 H   0  0  0  0  0  0  0  0  0  0  0  0
    2.8914   -1.2602    3.3152 H   0  0  0  0  0  0  0  0  0  0  0  0
    4.5467   -1.3838    3.4369 H   0  0  0  0  0  0  0  0  0  0  0  0
    0.9209   -0.9624    2.8703 H   0  0  0  0  0  0  0  0  0  0  0  0
    1.9322    0.1833    1.9087 H   0  0  0  0  0  0  0  0  0  0  0  0
    0.4203   -0.2593    1.4426 H   0  0  0  0  0  0  0  0  0  0  0  0
   -1.5487    0.4056    2.4848 H   0  0  0  0  0  0  0  0  0  0  0  0
   -0.7140    1.4166    1.2996 H   0  0  0  0  0  0  0  0  0  0  0  0
   -1.5392    2.1399    2.5461 H   0  0  0  0  0  0  0  0  0  0  0  0
  1  2  2  0
  1 37  1  0
  1 38  1  0
  2  3  1  0
  2 39  1  0
  3 27  1  0
  3  4  1  1
  3  5  1  0
  4 40  1  0
  4 41  1  0
  4 42  1  0
  5  6  1  0
  5 43  1  0
  5 44  1  0
  6 34  1  0
  6  7  1  1
  6  9  1  0
  7  8  1  0
  8 45  1  0
  8 46  1  0
  8 47  1  0
  9 10  1  0
  9 20  2  3
 10 11  1  0
 11 12  2  0
 11 13  1  0
 13 14  2  3
 13 48  1  0
 14 15  1  0
 14 49  1  0
 15 19  1  0
 15 16  2  0
 16 17  1  0
 16 50  1  0
 17 18  2  0
 17 51  1  0
 18 19  1  0
 18 52  1  0
 20 31  1  0
 20 21  1  0
 21 22  1  0
 21 23  1  0
 21 53  1  1
 22 54  1  0
 22 55  1  0
 22 56  1  0
 23 24  1  0
 23 57  1  0
 23 58  1  0
 24 30  1  0
 24 25  1  0
 24 59  1  0
 25 26  2  0
 25 60  1  0
 26 27  1  0
 26 61  1  0
 27 28  1  0
 27 62  1  6
 28 29  2  0
 28 34  1  0
 29 30  1  0
 29 63  1  0
 30 31  1  0
 30 64  1  6
 31 32  1  0
 31 33  1  0
 32 65  1  0
 32 66  1  0
 32 67  1  0
 33 68  1  0
 33 69  1  0
 33 70  1  0
 34 35  1  0
 34 36  1  0
 35 71  1  0
 35 72  1  0
 35 73  1  0
 36 74  1  0
 36 75  1  0
 36 76  1  0
M  END
>  <i_m_ct_stereo_status>  (226) 
1

>  <s_m_source_file>  (226) 
/var/tmp/pbs.5076255.sched01/tmp2a9bgmzv/100_xx7n39i.sdf

>  <i_m_source_file_index>  (226) 
9

>  <i_lp_mmshare_version>  (226) 
48012

>  <i_f3d_flags>  (226) 
0

>  <s_epik_input>  (226) 
W0NIM11PQzEyW0NIMl1bQ0BdKFtDSDNdKShbQ0hdPVtDSDJdKVtDSF0zQyhDMihbQ0gzXSlbQ0gzXSk9W0NIXVtDQEBIXTRbQ0hdKFtDSF09W0NIXTMpW0NIMl1bQ0BIXShbQ0gzXSlcQyhDNChbQ0gzXSlbQ0gzXSk9Q1wxT0MoPU8pL1tDSF09W0NIXS9jNVtjSF1bY0hdW2NIXW81

>  <s_epik_cmdline>  (226) 
J2VwaWtfcHl0aG9uJywgJy1waHQnLCAnMi4wJywgJy1waCcsICc3LjAnLCAnLXRuJywgJzgnLCAnLW1hJywgJzIwMCcsICctaW1hZScsICc8aW5maWxlLm1hZT4nLCAnLW9tYWUnLCAnPG91dGZpbGUubWFlPic=

>  <r_lp_tautomer_probability>  (226) 
1

>  <r_epik_Ionization_Penalty>  (226) 
1.29585e-13

>  <r_epik_Ionization_Penalty_Charging>  (226) 
0

>  <r_epik_Ionization_Penalty_Neutral>  (226) 
1.29585e-13

>  <r_epik_State_Penalty>  (226) 
-0

>  <r_epik_Charging_Adjusted_Penalty>  (226) 
0

>  <i_epik_Tot_Q>  (226) 
0

>  <i_epik_Tot_abs_Q>  (226) 
0

>  <s_lp_Force_Field>  (226) 
OPLS3e

>  <r_lp_Energy>  (226) 
472.354

>  <b_lp_Chiralities_Consistent>  (226) 
1

>  <s_lp_Variant>  (226) 
52:0-29

>  <s_i_glide_gridfile>  (226) 
pfpi4k_grid

>  <i_i_glide_lignum>  (226) 
9

>  <i_i_glide_rotatable_bonds>  (226) 
6

>  <r_i_docking_score>  (226) 
-1.51715

>  <r_i_glide_ligand_efficiency>  (226) 
-0.0421431

>  <r_i_glide_ligand_efficiency_sa>  (226) 
-0.139154

>  <r_i_glide_ligand_efficiency_ln>  (226) 
-0.331002

>  <r_i_glide_gscore>  (226) 
-1.51715

>  <r_i_glide_lipo>  (226) 
-0.131222

>  <r_i_glide_hbond>  (226) 
0

>  <r_i_glide_metal>  (226) 
-0

>  <r_i_glide_rewards>  (226) 
-0.0773345

>  <r_i_glide_evdw>  (226) 
-24.4723

>  <r_i_glide_ecoul>  (226) 
-2.72333

>  <r_i_glide_erotb>  (226) 
0.340689

>  <r_i_glide_esite>  (226) 
-0.0171725

>  <r_i_glide_emodel>  (226) 
-28.0567

>  <r_i_glide_energy>  (226) 
-27.1956

>  <r_i_glide_einternal>  (226) 
3.28601

>  <r_i_glide_intrahb_reward>  (226) 
-0

>  <i_i_glide_confnum>  (226) 
1

>  <i_i_glide_posenum>  (226) 
28

>  <r_i_glide_eff_state_penalty>  (226) 
0

>  <ligand_id>  (226) 
52

>  <original_smiles>  (226) 
C=CC1(C)CC2(OC)C(OC(=O)C=Cc3ccco3)=C3C(C)CC4C=CC1C(=CC4C3(C)C)C2(C)C

>  <smiles>  (226) 
[H]C([H])=C([H])C1(C([H])([H])[H])C2([H])C([H])=C([H])C3([H])C([H])([H])C([H])(C([H])([H])[H])C4=C(OC(=O)C([H])=C([H])c5oc([H])c([H])c5[H])C(OC([H])([H])[H])(C1([H])[H])C(C([H])([H])[H])(C([H])([H])[H])C2=C([H])C3([H])C4(C([H])([H])[H])C([H])([H])[H]

$$$$
52:28:2
     RDKit          3D

 76 80  0  0  1  0  0  0  0  0999 V2000
   -0.5994    0.2041    3.4319 C   0  0  0  0  0  0  0  0  0  0  0  0
    0.6635    0.5256    3.7700 C   0  0  0  0  0  0  0  0  0  0  0  0
    1.5701   -0.1531    4.8073 C   0  0  1  0  0  0  0  0  0  0  0  0
    1.5269    0.8894    5.9649 C   0  0  0  0  0  0  0  0  0  0  0  0
    0.9881   -1.5929    5.3925 C   0  0  0  0  0  0  0  0  0  0  0  0
    2.1387   -2.7096    5.5460 C   0  0  1  0  0  0  0  0  0  0  0  0
    2.3654   -1.7592    6.6444 O   0  0  0  0  0  0  0  0  0  0  0  0
    1.7301   -1.7872    7.9754 C   0  0  0  0  0  0  0  0  0  0  0  0
    2.8706   -3.7978    6.5119 C   0  0  0  0  0  0  0  0  0  0  0  0
    2.2113   -4.9958    6.3463 O   0  0  0  0  0  0  0  0  0  0  0  0
    2.3873   -6.0263    7.2189 C   0  0  0  0  0  0  0  0  0  0  0  0
    2.8215   -5.9153    8.3632 O   0  0  0  0  0  0  0  0  0  0  0  0
    1.9908   -7.3262    6.6469 C   0  0  0  0  0  0  0  0  0  0  0  0
    1.5338   -7.4757    5.3906 C   0  0  0  0  0  0  0  0  0  0  0  0
    1.1437   -8.6909    4.7597 C   0  0  0  0  0  0  0  0  0  0  0  0
    1.1229   -9.9938    5.1764 C   0  0  0  0  0  0  0  0  0  0  0  0
    0.6150  -10.7539    4.0872 C   0  0  0  0  0  0  0  0  0  0  0  0
    0.3604   -9.8616    3.0852 C   0  0  0  0  0  0  0  0  0  0  0  0
    0.6781   -8.5949    3.4815 O   0  0  0  0  0  0  0  0  0  0  0  0
    4.2316   -3.7773    6.9492 C   0  0  0  0  0  0  0  0  0  0  0  0
    4.7566   -2.8314    8.1117 C   0  0  1  0  0  0  0  0  0  0  0  0
    5.3417   -3.6271    9.2941 C   0  0  0  0  0  0  0  0  0  0  0  0
    5.6241   -1.5342    7.7297 C   0  0  0  0  0  0  0  0  0  0  0  0
    5.4329   -1.1316    6.2394 C   0  0  0  0  0  0  0  0  0  0  0  0
    5.2683    0.2891    5.6214 C   0  0  0  0  0  0  0  0  0  0  0  0
    4.2481    0.6560    4.7619 C   0  0  0  0  0  0  0  0  0  0  0  0
    3.0932   -0.2646    4.2280 C   0  0  2  0  0  0  0  0  0  0  0  0
    3.5878   -1.6310    3.6428 C   0  0  0  0  0  0  0  0  0  0  0  0
    4.9074   -1.9753    3.8047 C   0  0  0  0  0  0  0  0  0  0  0  0
    5.4123   -2.3315    5.2326 C   0  0  1  0  0  0  0  0  0  0  0  0
    5.4206   -3.7857    5.8943 C   0  0  0  0  0  0  0  0  0  0  0  0
    6.8569   -4.0444    6.4713 C   0  0  0  0  0  0  0  0  0  0  0  0
    5.3497   -5.0734    5.0250 C   0  0  0  0  0  0  0  0  0  0  0  0
    2.5616   -2.7403    3.9312 C   0  0  0  0  0  0  0  0  0  0  0  0
    2.9857   -4.1509    3.4040 C   0  0  0  0  0  0  0  0  0  0  0  0
    1.4642   -2.5534    2.8095 C   0  0  0  0  0  0  0  0  0  0  0  0
   -1.1330   -0.6153    3.8858 H   0  0  0  0  0  0  0  0  0  0  0  0
   -1.1197    0.7677    2.6689 H   0  0  0  0  0  0  0  0  0  0  0  0
    1.1123    1.3646    3.2582 H   0  0  0  0  0  0  0  0  0  0  0  0
    2.2270    0.6744    6.7725 H   0  0  0  0  0  0  0  0  0  0  0  0
    0.5302    0.9391    6.4075 H   0  0  0  0  0  0  0  0  0  0  0  0
    1.7659    1.8941    5.6097 H   0  0  0  0  0  0  0  0  0  0  0  0
    0.2329   -1.4409    6.1553 H   0  0  0  0  0  0  0  0  0  0  0  0
    0.2469   -2.0167    4.7327 H   0  0  0  0  0  0  0  0  0  0  0  0
    2.2720   -1.0675    8.5913 H   0  0  0  0  0  0  0  0  0  0  0  0
    1.7724   -2.7517    8.4814 H   0  0  0  0  0  0  0  0  0  0  0  0
    0.6999   -1.4542    8.0617 H   0  0  0  0  0  0  0  0  0  0  0  0
    2.0884   -8.1918    7.2865 H   0  0  0  0  0  0  0  0  0  0  0  0
    1.4392   -6.6111    4.7539 H   0  0  0  0  0  0  0  0  0  0  0  0
    1.4340  -10.3530    6.1465 H   0  0  0  0  0  0  0  0  0  0  0  0
    0.4490  -11.8201    4.0476 H   0  0  0  0  0  0  0  0  0  0  0  0
   -0.0292   -9.9507    2.0805 H   0  0  0  0  0  0  0  0  0  0  0  0
    3.9006   -2.4355    8.6175 H   0  0  0  0  0  0  0  0  0  0  0  0
    4.6259   -4.3767    9.6334 H   0  0  0  0  0  0  0  0  0  0  0  0
    5.5336   -2.9703   10.1418 H   0  0  0  0  0  0  0  0  0  0  0  0
    6.2714   -4.1435    9.0665 H   0  0  0  0  0  0  0  0  0  0  0  0
    5.3246   -0.7134    8.3874 H   0  0  0  0  0  0  0  0  0  0  0  0
    6.6769   -1.6400    7.9808 H   0  0  0  0  0  0  0  0  0  0  0  0
    4.4438   -0.9513    6.6297 H   0  0  0  0  0  0  0  0  0  0  0  0
    6.0135    1.0227    5.8965 H   0  0  0  0  0  0  0  0  0  0  0  0
    4.2270    1.6648    4.3778 H   0  0  0  0  0  0  0  0  0  0  0  0
    3.2565   -0.6134    5.1683 H   0  0  0  0  0  0  0  0  0  0  0  0
    5.6113   -1.2254    3.4747 H   0  0  0  0  0  0  0  0  0  0  0  0
    4.4180   -2.3406    5.4267 H   0  0  0  0  0  0  0  0  0  0  0  0
    7.5587   -4.2810    5.6749 H   0  0  0  0  0  0  0  0  0  0  0  0
    6.8816   -4.9055    7.1416 H   0  0  0  0  0  0  0  0  0  0  0  0
    7.3449   -3.2240    6.9755 H   0  0  0  0  0  0  0  0  0  0  0  0
    5.7916   -4.9398    4.0388 H   0  0  0  0  0  0  0  0  0  0  0  0
    4.3633   -5.5086    4.9646 H   0  0  0  0  0  0  0  0  0  0  0  0
    5.8929   -5.9117    5.4693 H   0  0  0  0  0  0  0  0  0  0  0  0
    2.6435   -4.9428    4.0506 H   0  0  0  0  0  0  0  0  0  0  0  0
    4.0352   -4.2220    3.1647 H   0  0  0  0  0  0  0  0  0  0  0  0
    2.5654   -4.4806    2.4505 H   0  0  0  0  0  0  0  0  0  0  0  0
    0.6327   -3.2543    2.9131 H   0  0  0  0  0  0  0  0  0  0  0  0
    1.8794   -2.6769    1.8037 H   0  0  0  0  0  0  0  0  0  0  0  0
    1.0558   -1.5693    2.6973 H   0  0  0  0  0  0  0  0  0  0  0  0
  1  2  2  0
  1 37  1  0
  1 38  1  0
  2  3  1  0
  2 39  1  0
  3 27  1  0
  3  4  1  1
  3  5  1  0
  4 40  1  0
  4 41  1  0
  4 42  1  0
  5  6  1  0
  5 43  1  0
  5 44  1  0
  6 34  1  0
  6  7  1  1
  6  9  1  0
  7  8  1  0
  8 45  1  0
  8 46  1  0
  8 47  1  0
  9 10  1  0
  9 20  2  3
 10 11  1  0
 11 12  2  0
 11 13  1  0
 13 14  2  3
 13 48  1  0
 14 15  1  0
 14 49  1  0
 15 19  1  0
 15 16  2  0
 16 17  1  0
 16 50  1  0
 17 18  2  0
 17 51  1  0
 18 19  1  0
 18 52  1  0
 20 31  1  0
 20 21  1  0
 21 22  1  0
 21 23  1  0
 21 53  1  1
 22 54  1  0
 22 55  1  0
 22 56  1  0
 23 24  1  0
 23 57  1  0
 23 58  1  0
 24 30  1  0
 24 25  1  0
 24 59  1  0
 25 26  2  0
 25 60  1  0
 26 27  1  0
 26 61  1  0
 27 28  1  0
 27 62  1  6
 28 29  2  0
 28 34  1  0
 29 30  1  0
 29 63  1  0
 30 31  1  0
 30 64  1  6
 31 32  1  0
 31 33  1  0
 32 65  1  0
 32 66  1  0
 32 67  1  0
 33 68  1  0
 33 69  1  0
 33 70  1  0
 34 35  1  0
 34 36  1  0
 35 71  1  0
 35 72  1  0
 35 73  1  0
 36 74  1  0
 36 75  1  0
 36 76  1  0
M  END
>  <i_m_ct_stereo_status>  (227) 
1

>  <s_m_source_file>  (227) 
/var/tmp/pbs.5076255.sched01/tmp2a9bgmzv/100_xx7n39i.sdf

>  <i_m_source_file_index>  (227) 
9

>  <i_lp_mmshare_version>  (227) 
48012

>  <i_f3d_flags>  (227) 
0

>  <s_epik_input>  (227) 
W0NIM11PQzEyW0NIMl1bQ0BdKFtDSDNdKShbQ0hdPVtDSDJdKVtDSF0zQyhDMihbQ0gzXSlbQ0gzXSk9W0NIXVtDQEBIXTRbQ0hdKFtDSF09W0NIXTMpW0NIMl1bQ0BIXShbQ0gzXSlcQyhDNChbQ0gzXSlbQ0gzXSk9Q1wxT0MoPU8pL1tDSF09W0NIXS9jNVtjSF1bY0hdW2NIXW81

>  <s_epik_cmdline>  (227) 
J2VwaWtfcHl0aG9uJywgJy1waHQnLCAnMi4wJywgJy1waCcsICc3LjAnLCAnLXRuJywgJzgnLCAnLW1hJywgJzIwMCcsICctaW1hZScsICc8aW5maWxlLm1hZT4nLCAnLW9tYWUnLCAnPG91dGZpbGUubWFlPic=

>  <r_lp_tautomer_probability>  (227) 
1

>  <r_epik_Ionization_Penalty>  (227) 
1.29585e-13

>  <r_epik_Ionization_Penalty_Charging>  (227) 
0

>  <r_epik_Ionization_Penalty_Neutral>  (227) 
1.29585e-13

>  <r_epik_State_Penalty>  (227) 
-0

>  <r_epik_Charging_Adjusted_Penalty>  (227) 
0

>  <i_epik_Tot_Q>  (227) 
0

>  <i_epik_Tot_abs_Q>  (227) 
0

>  <s_lp_Force_Field>  (227) 
OPLS3e

>  <r_lp_Energy>  (227) 
472.354

>  <b_lp_Chiralities_Consistent>  (227) 
1

>  <s_lp_Variant>  (227) 
52:0-29

>  <s_i_glide_gridfile>  (227) 
pfpi4k_grid

>  <i_i_glide_lignum>  (227) 
9

>  <i_i_glide_rotatable_bonds>  (227) 
6

>  <r_i_docking_score>  (227) 
-0.987277

>  <r_i_glide_ligand_efficiency>  (227) 
-0.0274244

>  <r_i_glide_ligand_efficiency_sa>  (227) 
-0.0905533

>  <r_i_glide_ligand_efficiency_ln>  (227) 
-0.215397

>  <r_i_glide_gscore>  (227) 
-0.987277

>  <r_i_glide_lipo>  (227) 
-0.190037

>  <r_i_glide_hbond>  (227) 
0

>  <r_i_glide_metal>  (227) 
-0

>  <r_i_glide_rewards>  (227) 
-0.0773345

>  <r_i_glide_evdw>  (227) 
-17.3603

>  <r_i_glide_ecoul>  (227) 
-1.28386

>  <r_i_glide_erotb>  (227) 
0.340689

>  <r_i_glide_esite>  (227) 
0

>  <r_i_glide_emodel>  (227) 
-19.5343

>  <r_i_glide_energy>  (227) 
-18.6442

>  <r_i_glide_einternal>  (227) 
1.13511

>  <r_i_glide_intrahb_reward>  (227) 
-0

>  <i_i_glide_confnum>  (227) 
1

>  <i_i_glide_posenum>  (227) 
10

>  <r_i_glide_eff_state_penalty>  (227) 
0

>  <ligand_id>  (227) 
52

>  <original_smiles>  (227) 
C=CC1(C)CC2(OC)C(OC(=O)C=Cc3ccco3)=C3C(C)CC4C=CC1C(=CC4C3(C)C)C2(C)C

>  <smiles>  (227) 
[H]C([H])=C([H])C1(C([H])([H])[H])C2([H])C([H])=C([H])C3([H])C([H])([H])C([H])(C([H])([H])[H])C4=C(OC(=O)C([H])=C([H])c5oc([H])c([H])c5[H])C(OC([H])([H])[H])(C1([H])[H])C(C([H])([H])[H])(C([H])([H])[H])C2=C([H])C3([H])C4(C([H])([H])[H])C([H])([H])[H]

$$$$
53:0:0
     RDKit          3D

 29 29  0  0  1  0  0  0  0  0999 V2000
    3.3543   -0.3677    1.4084 C   0  0  0  0  0  0  0  0  0  0  0  0
    2.0384    0.0129    2.1184 C   0  0  0  0  0  0  0  0  0  0  0  0
    1.1496   -0.8345    2.1671 O   0  0  0  0  0  0  0  0  0  0  0  0
    2.0915    1.2898    2.6666 N   0  0  0  0  0  0  0  0  0  0  0  0
    1.0509    1.8693    3.1799 C   0  0  0  0  0  0  0  0  0  0  0  0
   -0.4024    1.3850    3.1499 C   0  0  1  0  0  0  0  0  0  0  0  0
   -0.7507    0.4965    4.3627 C   0  0  0  0  0  0  0  0  0  0  0  0
   -1.3645    2.4769    3.0943 N   0  0  0  0  0  0  0  0  0  0  0  0
   -1.2232    3.7345    3.5467 C   0  0  0  0  0  0  0  0  0  0  0  0
   -2.1758    4.5071    3.5954 O   0  0  0  0  0  0  0  0  0  0  0  0
    0.0590    4.1086    3.8148 N   0  0  0  0  0  0  0  0  0  0  0  0
    0.3554    5.5235    4.0756 C   0  0  0  0  0  0  0  0  0  0  0  0
    1.2223    3.2002    3.9328 C   0  0  1  0  0  0  0  0  0  0  0  0
    1.5006    2.9685    5.4396 C   0  0  0  0  0  0  0  0  0  0  0  0
    4.1388   -0.5264    2.1470 H   0  0  0  0  0  0  0  0  0  0  0  0
    3.6666    0.4059    0.6980 H   0  0  0  0  0  0  0  0  0  0  0  0
    3.1922   -1.2916    0.8601 H   0  0  0  0  0  0  0  0  0  0  0  0
   -0.5790    0.8521    2.2150 H   0  0  0  0  0  0  0  0  0  0  0  0
    0.0148   -0.2587    4.5283 H   0  0  0  0  0  0  0  0  0  0  0  0
   -1.7009   -0.0081    4.2003 H   0  0  0  0  0  0  0  0  0  0  0  0
   -0.8446    1.0782    5.2826 H   0  0  0  0  0  0  0  0  0  0  0  0
   -2.2444    2.2440    2.6627 H   0  0  0  0  0  0  0  0  0  0  0  0
   -0.4040    6.1999    3.6706 H   0  0  0  0  0  0  0  0  0  0  0  0
    1.2991    5.8326    3.6254 H   0  0  0  0  0  0  0  0  0  0  0  0
    0.4073    5.6858    5.1544 H   0  0  0  0  0  0  0  0  0  0  0  0
    2.0925    3.6997    3.5148 H   0  0  0  0  0  0  0  0  0  0  0  0
    2.2420    2.1834    5.5956 H   0  0  0  0  0  0  0  0  0  0  0  0
    0.5959    2.6929    5.9768 H   0  0  0  0  0  0  0  0  0  0  0  0
    1.8798    3.8732    5.9149 H   0  0  0  0  0  0  0  0  0  0  0  0
  1  2  1  0
  1 15  1  0
  1 16  1  0
  1 17  1  0
  2  3  2  0
  2  4  1  0
  4  5  2  3
  5 13  1  0
  5  6  1  0
  6  7  1  0
  6  8  1  0
  6 18  1  6
  7 19  1  0
  7 20  1  0
  7 21  1  0
  8  9  1  0
  8 22  1  0
  9 10  2  0
  9 11  1  0
 11 12  1  0
 11 13  1  0
 12 23  1  0
 12 24  1  0
 12 25  1  0
 13 14  1  0
 13 26  1  6
 14 27  1  0
 14 28  1  0
 14 29  1  0
M  END
>  <i_m_ct_stereo_status>  (228) 
1

>  <s_m_source_file>  (228) 
/var/tmp/pbs.5076255.sched01/tmp2a9bgmzv/100_xx7n39i.sdf

>  <i_m_source_file_index>  (228) 
12

>  <i_lp_mmshare_version>  (228) 
48012

>  <i_f3d_flags>  (228) 
0

>  <s_epik_input>  (228) 
W0NIM11DKD1PKS9OPUMxXFtDQEBIXShbQ0gzXSlbTkhdQyg9TylOKFtDSDNdKVtDQEhdMVtDSDNd

>  <s_epik_cmdline>  (228) 
J2VwaWtfcHl0aG9uJywgJy1waHQnLCAnMi4wJywgJy1waCcsICc3LjAnLCAnLXRuJywgJzgnLCAnLW1hJywgJzIwMCcsICctaW1hZScsICc8aW5maWxlLm1hZT4nLCAnLW9tYWUnLCAnPG91dGZpbGUubWFlPic=

>  <r_lp_tautomer_probability>  (228) 
1

>  <r_epik_Ionization_Penalty>  (228) 
2.416e-05

>  <r_epik_Ionization_Penalty_Charging>  (228) 
0

>  <r_epik_Ionization_Penalty_Neutral>  (228) 
2.416e-05

>  <r_epik_State_Penalty>  (228) 
-0

>  <r_epik_Charging_Adjusted_Penalty>  (228) 
0

>  <i_epik_Tot_Q>  (228) 
0

>  <i_epik_Tot_abs_Q>  (228) 
0

>  <s_epik_Chemistry_Notes>  (228) 
This compound has an imine and may undergo hydrolysis.

>  <s_lp_Force_Field>  (228) 
OPLS3e

>  <r_lp_Energy>  (228) 
33.4724

>  <b_lp_Chiralities_Consistent>  (228) 
1

>  <s_lp_Variant>  (228) 
53:0-1

>  <s_i_glide_gridfile>  (228) 
pfpi4k_grid

>  <i_i_glide_lignum>  (228) 
12

>  <i_i_glide_rotatable_bonds>  (228) 
1

>  <r_i_docking_score>  (228) 
-3.55235

>  <r_i_glide_ligand_efficiency>  (228) 
-0.253739

>  <r_i_glide_ligand_efficiency_sa>  (228) 
-0.611547

>  <r_i_glide_ligand_efficiency_ln>  (228) 
-0.976172

>  <r_i_glide_gscore>  (228) 
-3.55235

>  <r_i_glide_lipo>  (228) 
0

>  <r_i_glide_hbond>  (228) 
-0.16

>  <r_i_glide_metal>  (228) 
-0

>  <r_i_glide_rewards>  (228) 
-2.06431

>  <r_i_glide_evdw>  (228) 
-16.1332

>  <r_i_glide_ecoul>  (228) 
-4.14604

>  <r_i_glide_erotb>  (228) 
0.417912

>  <r_i_glide_esite>  (228) 
-0.317379

>  <r_i_glide_emodel>  (228) 
-24.9473

>  <r_i_glide_energy>  (228) 
-20.2793

>  <r_i_glide_einternal>  (228) 
0.209484

>  <r_i_glide_intrahb_reward>  (228) 
-0

>  <i_i_glide_confnum>  (228) 
3

>  <i_i_glide_posenum>  (228) 
22

>  <r_i_glide_eff_state_penalty>  (228) 
0

>  <ligand_id>  (228) 
53

>  <original_smiles>  (228) 
CC(=O)N=C1C(C)NC(=O)N(C)C1C

>  <smiles>  (228) 
[H]N1C(=O)N(C([H])([H])[H])C([H])(C([H])([H])[H])C(=NC(=O)C([H])([H])[H])C1([H])C([H])([H])[H]

$$$$
53:0:1
     RDKit          3D

 29 29  0  0  1  0  0  0  0  0999 V2000
    2.8040   -2.6043    3.2734 C   0  0  0  0  0  0  0  0  0  0  0  0
    3.4787   -1.9674    2.0507 C   0  0  0  0  0  0  0  0  0  0  0  0
    4.0176   -0.8704    2.1889 O   0  0  0  0  0  0  0  0  0  0  0  0
    3.4096   -2.7871    0.9221 N   0  0  0  0  0  0  0  0  0  0  0  0
    3.8873   -2.4271   -0.2224 C   0  0  0  0  0  0  0  0  0  0  0  0
    4.5618   -1.0957   -0.5718 C   0  0  1  0  0  0  0  0  0  0  0  0
    6.0784   -1.1322   -0.3072 C   0  0  0  0  0  0  0  0  0  0  0  0
    4.3154   -0.6959   -1.9586 N   0  0  0  0  0  0  0  0  0  0  0  0
    4.0848   -1.4777   -3.0222 C   0  0  0  0  0  0  0  0  0  0  0  0
    4.1536   -1.0222   -4.1690 O   0  0  0  0  0  0  0  0  0  0  0  0
    3.6950   -2.7416   -2.7293 N   0  0  0  0  0  0  0  0  0  0  0  0
    3.2083   -3.5966   -3.8142 C   0  0  0  0  0  0  0  0  0  0  0  0
    3.8600   -3.4057   -1.4129 C   0  0  1  0  0  0  0  0  0  0  0  0
    5.1278   -4.2866   -1.4241 C   0  0  0  0  0  0  0  0  0  0  0  0
    3.3389   -3.5026    3.5999 H   0  0  0  0  0  0  0  0  0  0  0  0
    1.7642   -2.8716    3.0575 H   0  0  0  0  0  0  0  0  0  0  0  0
    2.8033   -1.8953    4.0970 H   0  0  0  0  0  0  0  0  0  0  0  0
    4.1065   -0.2950    0.0055 H   0  0  0  0  0  0  0  0  0  0  0  0
    6.3037   -1.5512    0.6699 H   0  0  0  0  0  0  0  0  0  0  0  0
    6.4803   -0.1237   -0.3122 H   0  0  0  0  0  0  0  0  0  0  0  0
    6.6097   -1.7256   -1.0535 H   0  0  0  0  0  0  0  0  0  0  0  0
    4.3858    0.2975   -2.1374 H   0  0  0  0  0  0  0  0  0  0  0  0
    2.8505   -3.0342   -4.6847 H   0  0  0  0  0  0  0  0  0  0  0  0
    2.3602   -4.2137   -3.4994 H   0  0  0  0  0  0  0  0  0  0  0  0
    4.0141   -4.2557   -4.1536 H   0  0  0  0  0  0  0  0  0  0  0  0
    3.0006   -4.0549   -1.2587 H   0  0  0  0  0  0  0  0  0  0  0  0
    5.3586   -4.6812   -0.4314 H   0  0  0  0  0  0  0  0  0  0  0  0
    5.9961   -3.7416   -1.7898 H   0  0  0  0  0  0  0  0  0  0  0  0
    5.0147   -5.1472   -2.0911 H   0  0  0  0  0  0  0  0  0  0  0  0
  1  2  1  0
  1 15  1  0
  1 16  1  0
  1 17  1  0
  2  3  2  0
  2  4  1  0
  4  5  2  3
  5 13  1  0
  5  6  1  0
  6  7  1  0
  6  8  1  0
  6 18  1  1
  7 19  1  0
  7 20  1  0
  7 21  1  0
  8  9  1  0
  8 22  1  0
  9 10  2  0
  9 11  1  0
 11 12  1  0
 11 13  1  0
 12 23  1  0
 12 24  1  0
 12 25  1  0
 13 14  1  0
 13 26  1  1
 14 27  1  0
 14 28  1  0
 14 29  1  0
M  END
>  <i_m_ct_stereo_status>  (229) 
1

>  <s_m_source_file>  (229) 
/var/tmp/pbs.5076255.sched01/tmp2a9bgmzv/100_xx7n39i.sdf

>  <i_m_source_file_index>  (229) 
12

>  <i_lp_mmshare_version>  (229) 
48012

>  <i_f3d_flags>  (229) 
0

>  <s_epik_input>  (229) 
W0NIM11DKD1PKS9OPUMxXFtDQEBIXShbQ0gzXSlbTkhdQyg9TylOKFtDSDNdKVtDQEhdMVtDSDNd

>  <s_epik_cmdline>  (229) 
J2VwaWtfcHl0aG9uJywgJy1waHQnLCAnMi4wJywgJy1waCcsICc3LjAnLCAnLXRuJywgJzgnLCAnLW1hJywgJzIwMCcsICctaW1hZScsICc8aW5maWxlLm1hZT4nLCAnLW9tYWUnLCAnPG91dGZpbGUubWFlPic=

>  <r_lp_tautomer_probability>  (229) 
1

>  <r_epik_Ionization_Penalty>  (229) 
2.416e-05

>  <r_epik_Ionization_Penalty_Charging>  (229) 
0

>  <r_epik_Ionization_Penalty_Neutral>  (229) 
2.416e-05

>  <r_epik_State_Penalty>  (229) 
-0

>  <r_epik_Charging_Adjusted_Penalty>  (229) 
0

>  <i_epik_Tot_Q>  (229) 
0

>  <i_epik_Tot_abs_Q>  (229) 
0

>  <s_epik_Chemistry_Notes>  (229) 
This compound has an imine and may undergo hydrolysis.

>  <s_lp_Force_Field>  (229) 
OPLS3e

>  <r_lp_Energy>  (229) 
33.4724

>  <b_lp_Chiralities_Consistent>  (229) 
1

>  <s_lp_Variant>  (229) 
53:0-1

>  <s_i_glide_gridfile>  (229) 
pfpi4k_grid

>  <i_i_glide_lignum>  (229) 
12

>  <i_i_glide_rotatable_bonds>  (229) 
1

>  <r_i_docking_score>  (229) 
-3.47077

>  <r_i_glide_ligand_efficiency>  (229) 
-0.247912

>  <r_i_glide_ligand_efficiency_sa>  (229) 
-0.597504

>  <r_i_glide_ligand_efficiency_ln>  (229) 
-0.953756

>  <r_i_glide_gscore>  (229) 
-3.47077

>  <r_i_glide_lipo>  (229) 
-0.0945589

>  <r_i_glide_hbond>  (229) 
-0.108795

>  <r_i_glide_metal>  (229) 
-0

>  <r_i_glide_rewards>  (229) 
-2.10122

>  <r_i_glide_evdw>  (229) 
-21.4083

>  <r_i_glide_ecoul>  (229) 
-3.04101

>  <r_i_glide_erotb>  (229) 
0.417912

>  <r_i_glide_esite>  (229) 
-0.0575414

>  <r_i_glide_emodel>  (229) 
-28.9786

>  <r_i_glide_energy>  (229) 
-24.4493

>  <r_i_glide_einternal>  (229) 
0.0243248

>  <r_i_glide_intrahb_reward>  (229) 
-0

>  <i_i_glide_confnum>  (229) 
1

>  <i_i_glide_posenum>  (229) 
7

>  <r_i_glide_eff_state_penalty>  (229) 
0

>  <ligand_id>  (229) 
53

>  <original_smiles>  (229) 
CC(=O)N=C1C(C)NC(=O)N(C)C1C

>  <smiles>  (229) 
[H]N1C(=O)N(C([H])([H])[H])C([H])(C([H])([H])[H])C(=NC(=O)C([H])([H])[H])C1([H])C([H])([H])[H]

$$$$
53:0:2
     RDKit          3D

 29 29  0  0  1  0  0  0  0  0999 V2000
    1.3813   -3.0417    4.0359 C   0  0  0  0  0  0  0  0  0  0  0  0
    2.4571   -2.3809    3.1756 C   0  0  0  0  0  0  0  0  0  0  0  0
    3.0661   -1.4257    3.6573 O   0  0  0  0  0  0  0  0  0  0  0  0
    2.6119   -3.0051    1.9378 N   0  0  0  0  0  0  0  0  0  0  0  0
    3.4305   -2.5702    1.0428 C   0  0  0  0  0  0  0  0  0  0  0  0
    4.3372   -1.3319    1.1268 C   0  0  1  0  0  0  0  0  0  0  0  0
    5.7114   -1.6601    1.7471 C   0  0  0  0  0  0  0  0  0  0  0  0
    4.5285   -0.6906   -0.1679 N   0  0  0  0  0  0  0  0  0  0  0  0
    4.5219   -1.2681   -1.3759 C   0  0  0  0  0  0  0  0  0  0  0  0
    4.9685   -0.6584   -2.3434 O   0  0  0  0  0  0  0  0  0  0  0  0
    3.8995   -2.4712   -1.4428 N   0  0  0  0  0  0  0  0  0  0  0  0
    3.6275   -3.0729   -2.7554 C   0  0  0  0  0  0  0  0  0  0  0  0
    3.5981   -3.3422   -0.2820 C   0  0  1  0  0  0  0  0  0  0  0  0
    4.6837   -4.4312   -0.1539 C   0  0  0  0  0  0  0  0  0  0  0  0
    1.6728   -4.0603    4.3177 H   0  0  0  0  0  0  0  0  0  0  0  0
    0.4161   -3.0744    3.5193 H   0  0  0  0  0  0  0  0  0  0  0  0
    1.2506   -2.4666    4.9500 H   0  0  0  0  0  0  0  0  0  0  0  0
    3.8452   -0.5468    1.6976 H   0  0  0  0  0  0  0  0  0  0  0  0
    5.5943   -2.2491    2.6553 H   0  0  0  0  0  0  0  0  0  0  0  0
    6.2459   -0.7484    2.0050 H   0  0  0  0  0  0  0  0  0  0  0  0
    6.3477   -2.2288    1.0660 H   0  0  0  0  0  0  0  0  0  0  0  0
    4.7824    0.2860   -0.1519 H   0  0  0  0  0  0  0  0  0  0  0  0
    3.5979   -2.3360   -3.5672 H   0  0  0  0  0  0  0  0  0  0  0  0
    2.6674   -3.5936   -2.7757 H   0  0  0  0  0  0  0  0  0  0  0  0
    4.4119   -3.7944   -2.9995 H   0  0  0  0  0  0  0  0  0  0  0  0
    2.6545   -3.8467   -0.4807 H   0  0  0  0  0  0  0  0  0  0  0  0
    4.5847   -4.9969    0.7754 H   0  0  0  0  0  0  0  0  0  0  0  0
    5.6881   -4.0128   -0.1860 H   0  0  0  0  0  0  0  0  0  0  0  0
    4.6207   -5.1532   -0.9743 H   0  0  0  0  0  0  0  0  0  0  0  0
  1  2  1  0
  1 15  1  0
  1 16  1  0
  1 17  1  0
  2  3  2  0
  2  4  1  0
  4  5  2  3
  5 13  1  0
  5  6  1  0
  6  7  1  0
  6  8  1  0
  6 18  1  1
  7 19  1  0
  7 20  1  0
  7 21  1  0
  8  9  1  0
  8 22  1  0
  9 10  2  0
  9 11  1  0
 11 12  1  0
 11 13  1  0
 12 23  1  0
 12 24  1  0
 12 25  1  0
 13 14  1  0
 13 26  1  6
 14 27  1  0
 14 28  1  0
 14 29  1  0
M  END
>  <i_m_ct_stereo_status>  (230) 
1

>  <s_m_source_file>  (230) 
/var/tmp/pbs.5076255.sched01/tmp2a9bgmzv/100_xx7n39i.sdf

>  <i_m_source_file_index>  (230) 
12

>  <i_lp_mmshare_version>  (230) 
48012

>  <i_f3d_flags>  (230) 
0

>  <s_epik_input>  (230) 
W0NIM11DKD1PKS9OPUMxXFtDQEBIXShbQ0gzXSlbTkhdQyg9TylOKFtDSDNdKVtDQEhdMVtDSDNd

>  <s_epik_cmdline>  (230) 
J2VwaWtfcHl0aG9uJywgJy1waHQnLCAnMi4wJywgJy1waCcsICc3LjAnLCAnLXRuJywgJzgnLCAnLW1hJywgJzIwMCcsICctaW1hZScsICc8aW5maWxlLm1hZT4nLCAnLW9tYWUnLCAnPG91dGZpbGUubWFlPic=

>  <r_lp_tautomer_probability>  (230) 
1

>  <r_epik_Ionization_Penalty>  (230) 
2.416e-05

>  <r_epik_Ionization_Penalty_Charging>  (230) 
0

>  <r_epik_Ionization_Penalty_Neutral>  (230) 
2.416e-05

>  <r_epik_State_Penalty>  (230) 
-0

>  <r_epik_Charging_Adjusted_Penalty>  (230) 
0

>  <i_epik_Tot_Q>  (230) 
0

>  <i_epik_Tot_abs_Q>  (230) 
0

>  <s_epik_Chemistry_Notes>  (230) 
This compound has an imine and may undergo hydrolysis.

>  <s_lp_Force_Field>  (230) 
OPLS3e

>  <r_lp_Energy>  (230) 
33.4724

>  <b_lp_Chiralities_Consistent>  (230) 
1

>  <s_lp_Variant>  (230) 
53:0-1

>  <s_i_glide_gridfile>  (230) 
pfpi4k_grid

>  <i_i_glide_lignum>  (230) 
12

>  <i_i_glide_rotatable_bonds>  (230) 
1

>  <r_i_docking_score>  (230) 
-3.41305

>  <r_i_glide_ligand_efficiency>  (230) 
-0.24379

>  <r_i_glide_ligand_efficiency_sa>  (230) 
-0.587567

>  <r_i_glide_ligand_efficiency_ln>  (230) 
-0.937895

>  <r_i_glide_gscore>  (230) 
-3.41305

>  <r_i_glide_lipo>  (230) 
-0.204454

>  <r_i_glide_hbond>  (230) 
-0.274526

>  <r_i_glide_metal>  (230) 
-0

>  <r_i_glide_rewards>  (230) 
-2.06431

>  <r_i_glide_evdw>  (230) 
-17.2313

>  <r_i_glide_ecoul>  (230) 
-2.1796

>  <r_i_glide_erotb>  (230) 
0.417912

>  <r_i_glide_esite>  (230) 
-0.0991665

>  <r_i_glide_emodel>  (230) 
-23.9017

>  <r_i_glide_energy>  (230) 
-19.4109

>  <r_i_glide_einternal>  (230) 
0.0293681

>  <r_i_glide_intrahb_reward>  (230) 
-0

>  <i_i_glide_confnum>  (230) 
3

>  <i_i_glide_posenum>  (230) 
24

>  <r_i_glide_eff_state_penalty>  (230) 
0

>  <ligand_id>  (230) 
53

>  <original_smiles>  (230) 
CC(=O)N=C1C(C)NC(=O)N(C)C1C

>  <smiles>  (230) 
[H]N1C(=O)N(C([H])([H])[H])C([H])(C([H])([H])[H])C(=NC(=O)C([H])([H])[H])C1([H])C([H])([H])[H]

$$$$
53:1:0
     RDKit          3D

 29 29  0  0  1  0  0  0  0  0999 V2000
    2.9787   -0.7977    3.2955 C   0  0  0  0  0  0  0  0  0  0  0  0
    3.0006   -1.6183    1.9964 C   0  0  0  0  0  0  0  0  0  0  0  0
    2.1890   -2.5244    1.8561 O   0  0  0  0  0  0  0  0  0  0  0  0
    4.0249   -1.2438    1.1420 N   0  0  0  0  0  0  0  0  0  0  0  0
    4.1502   -1.7598   -0.0411 C   0  0  0  0  0  0  0  0  0  0  0  0
    5.3565   -1.3762   -0.8953 C   0  0  1  0  0  0  0  0  0  0  0  0
    6.5500   -2.3299   -0.6948 C   0  0  0  0  0  0  0  0  0  0  0  0
    5.0163   -1.3026   -2.3204 N   0  0  0  0  0  0  0  0  0  0  0  0
    4.1029   -2.0296   -2.9799 C   0  0  0  0  0  0  0  0  0  0  0  0
    4.1277   -2.0745   -4.2199 O   0  0  0  0  0  0  0  0  0  0  0  0
    3.1501   -2.6068   -2.2100 N   0  0  0  0  0  0  0  0  0  0  0  0
    1.9535   -3.1859   -2.8248 C   0  0  0  0  0  0  0  0  0  0  0  0
    3.2286   -2.7848   -0.7325 C   0  0  1  0  0  0  0  0  0  0  0  0
    3.6387   -4.2291   -0.3906 C   0  0  0  0  0  0  0  0  0  0  0  0
    3.8388   -1.0363    3.9241 H   0  0  0  0  0  0  0  0  0  0  0  0
    2.0756   -1.0424    3.8495 H   0  0  0  0  0  0  0  0  0  0  0  0
    2.9677    0.2736    3.0882 H   0  0  0  0  0  0  0  0  0  0  0  0
    5.6720   -0.3769   -0.5905 H   0  0  0  0  0  0  0  0  0  0  0  0
    6.7696   -2.4751    0.3589 H   0  0  0  0  0  0  0  0  0  0  0  0
    7.4610   -1.9530   -1.1659 H   0  0  0  0  0  0  0  0  0  0  0  0
    6.3652   -3.3087   -1.1358 H   0  0  0  0  0  0  0  0  0  0  0  0
    5.6028   -0.7249   -2.9002 H   0  0  0  0  0  0  0  0  0  0  0  0
    1.7549   -2.8113   -3.8301 H   0  0  0  0  0  0  0  0  0  0  0  0
    1.0688   -2.9897   -2.2240 H   0  0  0  0  0  0  0  0  0  0  0  0
    2.0569   -4.2659   -2.8832 H   0  0  0  0  0  0  0  0  0  0  0  0
    2.2189   -2.6184   -0.3530 H   0  0  0  0  0  0  0  0  0  0  0  0
    3.9023   -4.3303    0.6613 H   0  0  0  0  0  0  0  0  0  0  0  0
    4.4830   -4.5677   -0.9905 H   0  0  0  0  0  0  0  0  0  0  0  0
    2.8089   -4.9070   -0.5900 H   0  0  0  0  0  0  0  0  0  0  0  0
  1  2  1  0
  1 15  1  0
  1 16  1  0
  1 17  1  0
  2  3  2  0
  2  4  1  0
  4  5  2  3
  5 13  1  0
  5  6  1  0
  6  7  1  0
  6  8  1  0
  6 18  1  1
  7 19  1  0
  7 20  1  0
  7 21  1  0
  8  9  1  0
  8 22  1  0
  9 10  2  0
  9 11  1  0
 11 12  1  0
 11 13  1  0
 12 23  1  0
 12 24  1  0
 12 25  1  0
 13 14  1  0
 13 26  1  1
 14 27  1  0
 14 28  1  0
 14 29  1  0
M  END
>  <i_m_ct_stereo_status>  (231) 
1

>  <s_m_source_file>  (231) 
/var/tmp/pbs.5076255.sched01/tmp2a9bgmzv/100_xx7n39i.sdf

>  <i_m_source_file_index>  (231) 
13

>  <i_lp_mmshare_version>  (231) 
48012

>  <i_f3d_flags>  (231) 
0

>  <s_epik_input>  (231) 
W0NIM11DKD1PKS9OPUMxXFtDQEBIXShbQ0gzXSlbTkhdQyg9TylOKFtDSDNdKVtDQEhdMVtDSDNd

>  <s_epik_cmdline>  (231) 
J2VwaWtfcHl0aG9uJywgJy1waHQnLCAnMi4wJywgJy1waCcsICc3LjAnLCAnLXRuJywgJzgnLCAnLW1hJywgJzIwMCcsICctaW1hZScsICc8aW5maWxlLm1hZT4nLCAnLW9tYWUnLCAnPG91dGZpbGUubWFlPic=

>  <r_lp_tautomer_probability>  (231) 
1

>  <r_epik_Ionization_Penalty>  (231) 
2.416e-05

>  <r_epik_Ionization_Penalty_Charging>  (231) 
0

>  <r_epik_Ionization_Penalty_Neutral>  (231) 
2.416e-05

>  <r_epik_State_Penalty>  (231) 
-0

>  <r_epik_Charging_Adjusted_Penalty>  (231) 
0

>  <i_epik_Tot_Q>  (231) 
0

>  <i_epik_Tot_abs_Q>  (231) 
0

>  <s_epik_Chemistry_Notes>  (231) 
This compound has an imine and may undergo hydrolysis.

>  <s_lp_Force_Field>  (231) 
OPLS3e

>  <r_lp_Energy>  (231) 
33.2587

>  <b_lp_Chiralities_Consistent>  (231) 
1

>  <s_lp_Variant>  (231) 
53:0-2

>  <s_i_glide_gridfile>  (231) 
pfpi4k_grid

>  <i_i_glide_lignum>  (231) 
13

>  <i_i_glide_rotatable_bonds>  (231) 
1

>  <r_i_docking_score>  (231) 
-3.80794

>  <r_i_glide_ligand_efficiency>  (231) 
-0.271995

>  <r_i_glide_ligand_efficiency_sa>  (231) 
-0.655548

>  <r_i_glide_ligand_efficiency_ln>  (231) 
-1.04641

>  <r_i_glide_gscore>  (231) 
-3.80794

>  <r_i_glide_lipo>  (231) 
-0.178088

>  <r_i_glide_hbond>  (231) 
-0.32

>  <r_i_glide_metal>  (231) 
-0

>  <r_i_glide_rewards>  (231) 
-2.19914

>  <r_i_glide_evdw>  (231) 
-19.4978

>  <r_i_glide_ecoul>  (231) 
-2.85545

>  <r_i_glide_erotb>  (231) 
0.417912

>  <r_i_glide_esite>  (231) 
-0.125416

>  <r_i_glide_emodel>  (231) 
-27.3296

>  <r_i_glide_energy>  (231) 
-22.3533

>  <r_i_glide_einternal>  (231) 
0.108311

>  <r_i_glide_intrahb_reward>  (231) 
-0

>  <i_i_glide_confnum>  (231) 
1

>  <i_i_glide_posenum>  (231) 
18

>  <r_i_glide_eff_state_penalty>  (231) 
0

>  <ligand_id>  (231) 
53

>  <original_smiles>  (231) 
CC(=O)N=C1C(C)NC(=O)N(C)C1C

>  <smiles>  (231) 
[H]N1C(=O)N(C([H])([H])[H])C([H])(C([H])([H])[H])C(=NC(=O)C([H])([H])[H])C1([H])C([H])([H])[H]

$$$$
53:1:1
     RDKit          3D

 29 29  0  0  1  0  0  0  0  0999 V2000
    4.6179   -1.2822    3.2980 C   0  0  0  0  0  0  0  0  0  0  0  0
    4.1224   -1.9040    1.9922 C   0  0  0  0  0  0  0  0  0  0  0  0
    3.1433   -2.6599    2.0382 O   0  0  0  0  0  0  0  0  0  0  0  0
    4.8971   -1.5596    0.9021 N   0  0  0  0  0  0  0  0  0  0  0  0
    4.6570   -2.0173   -0.2808 C   0  0  0  0  0  0  0  0  0  0  0  0
    5.5852   -1.6328   -1.4345 C   0  0  1  0  0  0  0  0  0  0  0  0
    6.7596   -2.6210   -1.6101 C   0  0  0  0  0  0  0  0  0  0  0  0
    4.8710   -1.4866   -2.7053 N   0  0  0  0  0  0  0  0  0  0  0  0
    3.7933   -2.1708   -3.1111 C   0  0  0  0  0  0  0  0  0  0  0  0
    3.4966   -2.1948   -4.3093 O   0  0  0  0  0  0  0  0  0  0  0  0
    3.0550   -2.7163   -2.1089 N   0  0  0  0  0  0  0  0  0  0  0  0
    1.7207   -3.2371   -2.3788 C   0  0  0  0  0  0  0  0  0  0  0  0
    3.5294   -2.9653   -0.7252 C   0  0  1  0  0  0  0  0  0  0  0  0
    3.9760   -4.4379   -0.5456 C   0  0  0  0  0  0  0  0  0  0  0  0
    5.5942   -1.6929    3.5900 H   0  0  0  0  0  0  0  0  0  0  0  0
    3.9119   -1.5016    4.0953 H   0  0  0  0  0  0  0  0  0  0  0  0
    4.7054   -0.1871    3.2206 H   0  0  0  0  0  0  0  0  0  0  0  0
    5.9966   -0.6577   -1.1995 H   0  0  0  0  0  0  0  0  0  0  0  0
    7.2613   -2.8152   -0.6610 H   0  0  0  0  0  0  0  0  0  0  0  0
    7.5116   -2.2520   -2.3091 H   0  0  0  0  0  0  0  0  0  0  0  0
    6.4225   -3.5777   -2.0076 H   0  0  0  0  0  0  0  0  0  0  0  0
    5.3065   -0.9203   -3.4144 H   0  0  0  0  0  0  0  0  0  0  0  0
    1.2849   -2.8441   -3.3020 H   0  0  0  0  0  0  0  0  0  0  0  0
    1.0240   -3.0535   -1.5627 H   0  0  0  0  0  0  0  0  0  0  0  0
    1.8024   -4.3060   -2.4848 H   0  0  0  0  0  0  0  0  0  0  0  0
    2.6712   -2.7636   -0.1001 H   0  0  0  0  0  0  0  0  0  0  0  0
    4.5209   -4.5851    0.3898 H   0  0  0  0  0  0  0  0  0  0  0  0
    4.6138   -4.7855   -1.3592 H   0  0  0  0  0  0  0  0  0  0  0  0
    3.1039   -5.0829   -0.5172 H   0  0  0  0  0  0  0  0  0  0  0  0
  1  2  1  0
  1 15  1  0
  1 16  1  0
  1 17  1  0
  2  3  2  0
  2  4  1  0
  4  5  2  3
  5 13  1  0
  5  6  1  0
  6  7  1  0
  6  8  1  0
  6 18  1  1
  7 19  1  0
  7 20  1  0
  7 21  1  0
  8  9  1  0
  8 22  1  0
  9 10  2  0
  9 11  1  0
 11 12  1  0
 11 13  1  0
 12 23  1  0
 12 24  1  0
 12 25  1  0
 13 14  1  0
 13 26  1  1
 14 27  1  0
 14 28  1  0
 14 29  1  0
M  END
>  <i_m_ct_stereo_status>  (232) 
1

>  <s_m_source_file>  (232) 
/var/tmp/pbs.5076255.sched01/tmp2a9bgmzv/100_xx7n39i.sdf

>  <i_m_source_file_index>  (232) 
13

>  <i_lp_mmshare_version>  (232) 
48012

>  <i_f3d_flags>  (232) 
0

>  <s_epik_input>  (232) 
W0NIM11DKD1PKS9OPUMxXFtDQEBIXShbQ0gzXSlbTkhdQyg9TylOKFtDSDNdKVtDQEhdMVtDSDNd

>  <s_epik_cmdline>  (232) 
J2VwaWtfcHl0aG9uJywgJy1waHQnLCAnMi4wJywgJy1waCcsICc3LjAnLCAnLXRuJywgJzgnLCAnLW1hJywgJzIwMCcsICctaW1hZScsICc8aW5maWxlLm1hZT4nLCAnLW9tYWUnLCAnPG91dGZpbGUubWFlPic=

>  <r_lp_tautomer_probability>  (232) 
1

>  <r_epik_Ionization_Penalty>  (232) 
2.416e-05

>  <r_epik_Ionization_Penalty_Charging>  (232) 
0

>  <r_epik_Ionization_Penalty_Neutral>  (232) 
2.416e-05

>  <r_epik_State_Penalty>  (232) 
-0

>  <r_epik_Charging_Adjusted_Penalty>  (232) 
0

>  <i_epik_Tot_Q>  (232) 
0

>  <i_epik_Tot_abs_Q>  (232) 
0

>  <s_epik_Chemistry_Notes>  (232) 
This compound has an imine and may undergo hydrolysis.

>  <s_lp_Force_Field>  (232) 
OPLS3e

>  <r_lp_Energy>  (232) 
33.2587

>  <b_lp_Chiralities_Consistent>  (232) 
1

>  <s_lp_Variant>  (232) 
53:0-2

>  <s_i_glide_gridfile>  (232) 
pfpi4k_grid

>  <i_i_glide_lignum>  (232) 
13

>  <i_i_glide_rotatable_bonds>  (232) 
1

>  <r_i_docking_score>  (232) 
-3.53711

>  <r_i_glide_ligand_efficiency>  (232) 
-0.252651

>  <r_i_glide_ligand_efficiency_sa>  (232) 
-0.608925

>  <r_i_glide_ligand_efficiency_ln>  (232) 
-0.971986

>  <r_i_glide_gscore>  (232) 
-3.53711

>  <r_i_glide_lipo>  (232) 
-0.133121

>  <r_i_glide_hbond>  (232) 
-0.32

>  <r_i_glide_metal>  (232) 
-0

>  <r_i_glide_rewards>  (232) 
-2.21562

>  <r_i_glide_evdw>  (232) 
-19.591

>  <r_i_glide_ecoul>  (232) 
-1.52957

>  <r_i_glide_erotb>  (232) 
0.417912

>  <r_i_glide_esite>  (232) 
-0.0772975

>  <r_i_glide_emodel>  (232) 
-25.6228

>  <r_i_glide_energy>  (232) 
-21.1206

>  <r_i_glide_einternal>  (232) 
7.97328e-05

>  <r_i_glide_intrahb_reward>  (232) 
-0

>  <i_i_glide_confnum>  (232) 
3

>  <i_i_glide_posenum>  (232) 
30

>  <r_i_glide_eff_state_penalty>  (232) 
0

>  <ligand_id>  (232) 
53

>  <original_smiles>  (232) 
CC(=O)N=C1C(C)NC(=O)N(C)C1C

>  <smiles>  (232) 
[H]N1C(=O)N(C([H])([H])[H])C([H])(C([H])([H])[H])C(=NC(=O)C([H])([H])[H])C1([H])C([H])([H])[H]

$$$$
53:1:2
     RDKit          3D

 29 29  0  0  1  0  0  0  0  0999 V2000
    2.5665   -4.1605    2.7569 C   0  0  0  0  0  0  0  0  0  0  0  0
    2.9483   -4.0622    1.2809 C   0  0  0  0  0  0  0  0  0  0  0  0
    2.7348   -5.0486    0.5657 O   0  0  0  0  0  0  0  0  0  0  0  0
    3.5048   -2.8237    0.9430 N   0  0  0  0  0  0  0  0  0  0  0  0
    3.9214   -2.5319   -0.2448 C   0  0  0  0  0  0  0  0  0  0  0  0
    4.5706   -1.1670   -0.5031 C   0  0  1  0  0  0  0  0  0  0  0  0
    6.0930   -1.1988   -0.2670 C   0  0  0  0  0  0  0  0  0  0  0  0
    4.3209   -0.6670   -1.8587 N   0  0  0  0  0  0  0  0  0  0  0  0
    4.1146   -1.3866   -2.9775 C   0  0  0  0  0  0  0  0  0  0  0  0
    4.1560   -0.8610   -4.0920 O   0  0  0  0  0  0  0  0  0  0  0  0
    3.7656   -2.6790   -2.7749 N   0  0  0  0  0  0  0  0  0  0  0  0
    3.2506   -3.4987   -3.8814 C   0  0  0  0  0  0  0  0  0  0  0  0
    3.9081   -3.4186   -1.5030 C   0  0  1  0  0  0  0  0  0  0  0  0
    5.1807   -4.2959   -1.5430 C   0  0  0  0  0  0  0  0  0  0  0  0
    3.4580   -4.1703    3.3850 H   0  0  0  0  0  0  0  0  0  0  0  0
    2.0389   -5.0968    2.9056 H   0  0  0  0  0  0  0  0  0  0  0  0
    1.9061   -3.3468    3.0576 H   0  0  0  0  0  0  0  0  0  0  0  0
    4.1481   -0.4464    0.1924 H   0  0  0  0  0  0  0  0  0  0  0  0
    6.3461   -1.6507    0.6927 H   0  0  0  0  0  0  0  0  0  0  0  0
    6.5058   -0.1907   -0.2540 H   0  0  0  0  0  0  0  0  0  0  0  0
    6.6118   -1.7613   -1.0422 H   0  0  0  0  0  0  0  0  0  0  0  0
    4.3801    0.3330   -1.9815 H   0  0  0  0  0  0  0  0  0  0  0  0
    2.8795   -2.9111   -4.7198 H   0  0  0  0  0  0  0  0  0  0  0  0
    2.4181   -4.1333   -3.5744 H   0  0  0  0  0  0  0  0  0  0  0  0
    4.0519   -4.1437   -4.2403 H   0  0  0  0  0  0  0  0  0  0  0  0
    3.0173   -4.0435   -1.4651 H   0  0  0  0  0  0  0  0  0  0  0  0
    5.4237   -4.6954   -0.5584 H   0  0  0  0  0  0  0  0  0  0  0  0
    6.0471   -3.7580   -1.9206 H   0  0  0  0  0  0  0  0  0  0  0  0
    5.0155   -5.1410   -2.2035 H   0  0  0  0  0  0  0  0  0  0  0  0
  1  2  1  0
  1 15  1  0
  1 16  1  0
  1 17  1  0
  2  3  2  0
  2  4  1  0
  4  5  2  3
  5 13  1  0
  5  6  1  0
  6  7  1  0
  6  8  1  0
  6 18  1  1
  7 19  1  0
  7 20  1  0
  7 21  1  0
  8  9  1  0
  8 22  1  0
  9 10  2  0
  9 11  1  0
 11 12  1  0
 11 13  1  0
 12 23  1  0
 12 24  1  0
 12 25  1  0
 13 14  1  0
 13 26  1  1
 14 27  1  0
 14 28  1  0
 14 29  1  0
M  END
>  <i_m_ct_stereo_status>  (233) 
1

>  <s_m_source_file>  (233) 
/var/tmp/pbs.5076255.sched01/tmp2a9bgmzv/100_xx7n39i.sdf

>  <i_m_source_file_index>  (233) 
13

>  <i_lp_mmshare_version>  (233) 
48012

>  <i_f3d_flags>  (233) 
0

>  <s_epik_input>  (233) 
W0NIM11DKD1PKS9OPUMxXFtDQEBIXShbQ0gzXSlbTkhdQyg9TylOKFtDSDNdKVtDQEhdMVtDSDNd

>  <s_epik_cmdline>  (233) 
J2VwaWtfcHl0aG9uJywgJy1waHQnLCAnMi4wJywgJy1waCcsICc3LjAnLCAnLXRuJywgJzgnLCAnLW1hJywgJzIwMCcsICctaW1hZScsICc8aW5maWxlLm1hZT4nLCAnLW9tYWUnLCAnPG91dGZpbGUubWFlPic=

>  <r_lp_tautomer_probability>  (233) 
1

>  <r_epik_Ionization_Penalty>  (233) 
2.416e-05

>  <r_epik_Ionization_Penalty_Charging>  (233) 
0

>  <r_epik_Ionization_Penalty_Neutral>  (233) 
2.416e-05

>  <r_epik_State_Penalty>  (233) 
-0

>  <r_epik_Charging_Adjusted_Penalty>  (233) 
0

>  <i_epik_Tot_Q>  (233) 
0

>  <i_epik_Tot_abs_Q>  (233) 
0

>  <s_epik_Chemistry_Notes>  (233) 
This compound has an imine and may undergo hydrolysis.

>  <s_lp_Force_Field>  (233) 
OPLS3e

>  <r_lp_Energy>  (233) 
33.2587

>  <b_lp_Chiralities_Consistent>  (233) 
1

>  <s_lp_Variant>  (233) 
53:0-2

>  <s_i_glide_gridfile>  (233) 
pfpi4k_grid

>  <i_i_glide_lignum>  (233) 
13

>  <i_i_glide_rotatable_bonds>  (233) 
1

>  <r_i_docking_score>  (233) 
-3.47323

>  <r_i_glide_ligand_efficiency>  (233) 
-0.248088

>  <r_i_glide_ligand_efficiency_sa>  (233) 
-0.597927

>  <r_i_glide_ligand_efficiency_ln>  (233) 
-0.954432

>  <r_i_glide_gscore>  (233) 
-3.47323

>  <r_i_glide_lipo>  (233) 
-0.0866667

>  <r_i_glide_hbond>  (233) 
-0.155677

>  <r_i_glide_metal>  (233) 
-0

>  <r_i_glide_rewards>  (233) 
-2.08357

>  <r_i_glide_evdw>  (233) 
-21.6528

>  <r_i_glide_ecoul>  (233) 
-2.86671

>  <r_i_glide_erotb>  (233) 
0.417912

>  <r_i_glide_esite>  (233) 
-0.0525878

>  <r_i_glide_emodel>  (233) 
-29.234

>  <r_i_glide_energy>  (233) 
-24.5195

>  <r_i_glide_einternal>  (233) 
0.00181904

>  <r_i_glide_intrahb_reward>  (233) 
-0

>  <i_i_glide_confnum>  (233) 
1

>  <i_i_glide_posenum>  (233) 
1

>  <r_i_glide_eff_state_penalty>  (233) 
0

>  <ligand_id>  (233) 
53

>  <original_smiles>  (233) 
CC(=O)N=C1C(C)NC(=O)N(C)C1C

>  <smiles>  (233) 
[H]N1C(=O)N(C([H])([H])[H])C([H])(C([H])([H])[H])C(=NC(=O)C([H])([H])[H])C1([H])C([H])([H])[H]

$$$$
54:0:0
     RDKit          3D

 37 39  0  0  1  0  0  0  0  0999 V2000
    2.7473   -6.0962    3.9218 N   0  0  0  0  0  0  0  0  0  0  0  0
    3.6443   -5.1935    3.3866 C   0  0  0  0  0  0  0  0  0  0  0  0
    4.5334   -4.9293    4.2604 O   0  0  0  0  0  0  0  0  0  0  0  0
    3.4040   -4.7547    2.0881 C   0  0  0  0  0  0  0  0  0  0  0  0
    2.2518   -5.1446    1.1728 C   0  0  0  0  0  0  0  0  0  0  0  0
    1.2973   -5.8411    1.5378 O   0  0  0  0  0  0  0  0  0  0  0  0
    2.2989   -4.6809   -0.3091 C   0  0  1  0  0  0  0  0  0  0  0  0
    1.0598   -5.0526   -1.1057 N   0  0  0  0  0  0  0  0  0  0  0  0
    2.6086   -3.1619   -0.3816 C   0  0  2  0  0  0  0  0  0  0  0  0
    2.9033   -2.5660   -1.7902 C   0  0  2  0  0  0  0  0  0  0  0  0
    3.2780   -3.4520   -2.9518 C   0  0  0  0  0  0  0  0  0  0  0  0
    4.0060   -2.5457   -3.9084 C   0  0  0  0  0  0  0  0  0  0  0  0
    4.7671   -1.6032   -2.9853 C   0  0  0  0  0  0  0  0  0  0  0  0
    4.0392   -1.5786   -1.6491 C   0  0  2  0  0  0  0  0  0  0  0  0
    4.8298   -2.1086   -0.4608 C   0  0  1  0  0  0  0  0  0  0  0  0
    5.6940   -1.1191    0.0717 O   0  0  0  0  0  0  0  0  0  0  0  0
    3.7672   -2.6661    0.5253 C   0  0  1  0  0  0  0  0  0  0  0  0
    3.2816   -1.6053    1.3418 O   0  0  0  0  0  0  0  0  0  0  0  0
    4.3296   -3.7592    1.4498 C   0  0  0  0  0  0  0  0  0  0  0  0
    5.5356   -3.7115    1.7068 O   0  0  0  0  0  0  0  0  0  0  0  0
    1.9728   -6.4740    3.3844 H   0  0  0  0  0  0  0  0  0  0  0  0
    2.8242   -6.5469    4.8211 H   0  0  0  0  0  0  0  0  0  0  0  0
    3.1678   -5.1985   -0.6922 H   0  0  0  0  0  0  0  0  0  0  0  0
    0.2723   -4.4825   -0.8478 H   0  0  0  0  0  0  0  0  0  0  0  0
    1.2156   -4.8389   -2.0897 H   0  0  0  0  0  0  0  0  0  0  0  0
    1.7362   -2.6577    0.0221 H   0  0  0  0  0  0  0  0  0  0  0  0
    2.0561   -2.0465   -2.2084 H   0  0  0  0  0  0  0  0  0  0  0  0
    3.9523   -4.2415   -2.6066 H   0  0  0  0  0  0  0  0  0  0  0  0
    2.3992   -3.8974   -3.4178 H   0  0  0  0  0  0  0  0  0  0  0  0
    4.6458   -3.1411   -4.5532 H   0  0  0  0  0  0  0  0  0  0  0  0
    3.3040   -1.9914   -4.5243 H   0  0  0  0  0  0  0  0  0  0  0  0
    5.7776   -1.9762   -2.8069 H   0  0  0  0  0  0  0  0  0  0  0  0
    4.8314   -0.6130   -3.4318 H   0  0  0  0  0  0  0  0  0  0  0  0
    3.6537   -0.5898   -1.4349 H   0  0  0  0  0  0  0  0  0  0  0  0
    5.4511   -2.9379   -0.8036 H   0  0  0  0  0  0  0  0  0  0  0  0
    6.0633   -1.4676    0.8688 H   0  0  0  0  0  0  0  0  0  0  0  0
    2.8266   -0.9743    0.8078 H   0  0  0  0  0  0  0  0  0  0  0  0
  1  2  1  0
  1 21  1  0
  1 22  1  0
  2  3  1  0
  2  4  2  0
  4 19  1  0
  4  5  1  0
  5  6  2  0
  5  7  1  0
  7  8  1  0
  7  9  1  0
  7 23  1  6
  8 24  1  0
  8 25  1  0
  9 17  1  0
  9 10  1  0
  9 26  1  1
 10 14  1  0
 10 11  1  0
 10 27  1  6
 11 12  1  0
 11 28  1  0
 11 29  1  0
 12 13  1  0
 12 30  1  0
 12 31  1  0
 13 14  1  0
 13 32  1  0
 13 33  1  0
 14 15  1  0
 14 34  1  1
 15 16  1  0
 15 17  1  0
 15 35  1  6
 16 36  1  0
 17 18  1  1
 17 19  1  0
 18 37  1  0
 19 20  2  0
M  CHG  1   3  -1
M  END
>  <i_m_ct_stereo_status>  (234) 
1

>  <s_m_source_file>  (234) 
/var/tmp/pbs.5076255.sched01/tmp2a9bgmzv/100_xx7n39i.sdf

>  <i_m_source_file_index>  (234) 
14

>  <i_lp_mmshare_version>  (234) 
48012

>  <i_f3d_flags>  (234) 
0

>  <s_epik_input>  (234) 
W05IMl1DKD1PKVtDQEBIXShDMT1PKUMoPU8pW0NAQEhdKFtOSDJdKVtDQEBIXShbQ0BAXTEyW09IXSlbQ0BIXTNbQ0BASF0oW0NASF0yW09IXSlbQ0gyXVtDSDJdW0NIMl0z

>  <s_epik_cmdline>  (234) 
J2VwaWtfcHl0aG9uJywgJy1waHQnLCAnMi4wJywgJy1waCcsICc3LjAnLCAnLXRuJywgJzgnLCAnLW1hJywgJzIwMCcsICctaW1hZScsICc8aW5maWxlLm1hZT4nLCAnLW9tYWUnLCAnPG91dGZpbGUubWFlPic=

>  <r_epik_Ionization_Penalty>  (234) 
0.0776359

>  <r_epik_Ionization_Penalty_Charging>  (234) 
4.38866e-06

>  <r_epik_Ionization_Penalty_Neutral>  (234) 
0.0776315

>  <r_epik_State_Penalty>  (234) 
0.0685711

>  <r_epik_Charging_Adjusted_Penalty>  (234) 
0.0685755

>  <i_epik_Tot_Q>  (234) 
-1

>  <i_epik_Tot_abs_Q>  (234) 
1

>  <s_lp_Force_Field>  (234) 
OPLS3e

>  <r_lp_Energy>  (234) 
34.205

>  <b_lp_Chiralities_Consistent>  (234) 
1

>  <s_lp_Variant>  (234) 
54:0-1

>  <s_i_glide_gridfile>  (234) 
pfpi4k_grid

>  <i_i_glide_lignum>  (234) 
14

>  <i_i_glide_rotatable_bonds>  (234) 
2

>  <r_i_docking_score>  (234) 
-4.6385

>  <r_i_glide_ligand_efficiency>  (234) 
-0.231925

>  <r_i_glide_ligand_efficiency_sa>  (234) 
-0.629541

>  <r_i_glide_ligand_efficiency_ln>  (234) 
-1.16086

>  <r_i_glide_gscore>  (234) 
-4.6385

>  <r_i_glide_lipo>  (234) 
-0.0517415

>  <r_i_glide_hbond>  (234) 
-0.644575

>  <r_i_glide_metal>  (234) 
-0

>  <r_i_glide_rewards>  (234) 
-2.5136

>  <r_i_glide_evdw>  (234) 
-6.84159

>  <r_i_glide_ecoul>  (234) 
-6.97603

>  <r_i_glide_erotb>  (234) 
0

>  <r_i_glide_esite>  (234) 
-0.0400992

>  <r_i_glide_emodel>  (234) 
-30.2976

>  <r_i_glide_energy>  (234) 
-13.8176

>  <r_i_glide_einternal>  (234) 
0.569142

>  <r_i_glide_intrahb_reward>  (234) 
-1

>  <i_i_glide_confnum>  (234) 
1

>  <i_i_glide_posenum>  (234) 
34

>  <r_i_glide_eff_state_penalty>  (234) 
0

>  <ligand_id>  (234) 
54

>  <original_smiles>  (234) 
NC(=O)C1C(=O)C(N)C2C3CCCC3C(O)C2(O)C1=O

>  <smiles>  (234) 
[H]OC1([H])C2(O[H])C(=O)C(=C([O-])N([H])[H])C(=O)C([H])(N([H])[H])C2([H])C2([H])C([H])([H])C([H])([H])C([H])([H])C12[H]

$$$$
54:0:1
     RDKit          3D

 37 39  0  0  1  0  0  0  0  0999 V2000
    6.2807   -7.7476    2.8339 N   0  0  0  0  0  0  0  0  0  0  0  0
    6.8139   -6.6104    2.2645 C   0  0  0  0  0  0  0  0  0  0  0  0
    8.0235   -6.5107    2.5609 O   0  0  0  0  0  0  0  0  0  0  0  0
    5.9182   -5.8137    1.5239 C   0  0  0  0  0  0  0  0  0  0  0  0
    4.4431   -6.0160    1.2969 C   0  0  0  0  0  0  0  0  0  0  0  0
    3.7828   -6.8583    1.8984 O   0  0  0  0  0  0  0  0  0  0  0  0
    3.7348   -5.1259    0.2458 C   0  0  1  0  0  0  0  0  0  0  0  0
    2.2843   -5.3728    0.1763 N   0  0  0  0  0  0  0  0  0  0  0  0
    4.0117   -3.6370    0.5800 C   0  0  2  0  0  0  0  0  0  0  0  0
    3.5122   -2.5931   -0.4724 C   0  0  2  0  0  0  0  0  0  0  0  0
    3.1619   -3.0618   -1.8979 C   0  0  0  0  0  0  0  0  0  0  0  0
    3.3418   -1.8113   -2.7593 C   0  0  0  0  0  0  0  0  0  0  0  0
    4.5251   -1.0748   -2.1366 C   0  0  0  0  0  0  0  0  0  0  0  0
    4.6237   -1.5614   -0.6780 C   0  0  2  0  0  0  0  0  0  0  0  0
    5.8972   -2.3458   -0.3482 C   0  0  1  0  0  0  0  0  0  0  0  0
    6.9854   -1.4895   -0.0617 O   0  0  0  0  0  0  0  0  0  0  0  0
    5.5186   -3.3092    0.8080 C   0  0  1  0  0  0  0  0  0  0  0  0
    5.6324   -2.6044    2.0419 O   0  0  0  0  0  0  0  0  0  0  0  0
    6.4149   -4.5721    0.8650 C   0  0  0  0  0  0  0  0  0  0  0  0
    7.5729   -4.4581    0.4554 O   0  0  0  0  0  0  0  0  0  0  0  0
    5.3125   -8.0166    2.7288 H   0  0  0  0  0  0  0  0  0  0  0  0
    6.8075   -8.4185    3.3744 H   0  0  0  0  0  0  0  0  0  0  0  0
    4.1659   -5.3746   -0.7236 H   0  0  0  0  0  0  0  0  0  0  0  0
    1.8402   -5.1457    1.0529 H   0  0  0  0  0  0  0  0  0  0  0  0
    1.8568   -4.8378   -0.5700 H   0  0  0  0  0  0  0  0  0  0  0  0
    3.4719   -3.4254    1.5113 H   0  0  0  0  0  0  0  0  0  0  0  0
    2.6367   -2.0780   -0.0745 H   0  0  0  0  0  0  0  0  0  0  0  0
    3.8522   -3.8300   -2.2405 H   0  0  0  0  0  0  0  0  0  0  0  0
    2.1486   -3.4569   -1.9695 H   0  0  0  0  0  0  0  0  0  0  0  0
    3.4956   -2.0528   -3.8110 H   0  0  0  0  0  0  0  0  0  0  0  0
    2.4513   -1.1888   -2.6910 H   0  0  0  0  0  0  0  0  0  0  0  0
    5.4206   -1.3332   -2.6892 H   0  0  0  0  0  0  0  0  0  0  0  0
    4.3989    0.0053   -2.2130 H   0  0  0  0  0  0  0  0  0  0  0  0
    4.4812   -0.7374    0.0231 H   0  0  0  0  0  0  0  0  0  0  0  0
    6.1694   -2.9457   -1.2177 H   0  0  0  0  0  0  0  0  0  0  0  0
    6.8304   -1.0485    0.7684 H   0  0  0  0  0  0  0  0  0  0  0  0
    5.0429   -1.8666    2.0394 H   0  0  0  0  0  0  0  0  0  0  0  0
  1  2  1  0
  1 21  1  0
  1 22  1  0
  2  3  1  0
  2  4  2  0
  4 19  1  0
  4  5  1  0
  5  6  2  0
  5  7  1  0
  7  8  1  0
  7  9  1  0
  7 23  1  6
  8 24  1  0
  8 25  1  0
  9 17  1  0
  9 10  1  0
  9 26  1  1
 10 14  1  0
 10 11  1  0
 10 27  1  1
 11 12  1  0
 11 28  1  0
 11 29  1  0
 12 13  1  0
 12 30  1  0
 12 31  1  0
 13 14  1  0
 13 32  1  0
 13 33  1  0
 14 15  1  0
 14 34  1  1
 15 16  1  0
 15 17  1  0
 15 35  1  6
 16 36  1  0
 17 18  1  1
 17 19  1  0
 18 37  1  0
 19 20  2  0
M  CHG  1   3  -1
M  END
>  <i_m_ct_stereo_status>  (235) 
1

>  <s_m_source_file>  (235) 
/var/tmp/pbs.5076255.sched01/tmp2a9bgmzv/100_xx7n39i.sdf

>  <i_m_source_file_index>  (235) 
14

>  <i_lp_mmshare_version>  (235) 
48012

>  <i_f3d_flags>  (235) 
0

>  <s_epik_input>  (235) 
W05IMl1DKD1PKVtDQEBIXShDMT1PKUMoPU8pW0NAQEhdKFtOSDJdKVtDQEBIXShbQ0BAXTEyW09IXSlbQ0BIXTNbQ0BASF0oW0NASF0yW09IXSlbQ0gyXVtDSDJdW0NIMl0z

>  <s_epik_cmdline>  (235) 
J2VwaWtfcHl0aG9uJywgJy1waHQnLCAnMi4wJywgJy1waCcsICc3LjAnLCAnLXRuJywgJzgnLCAnLW1hJywgJzIwMCcsICctaW1hZScsICc8aW5maWxlLm1hZT4nLCAnLW9tYWUnLCAnPG91dGZpbGUubWFlPic=

>  <r_epik_Ionization_Penalty>  (235) 
0.0776359

>  <r_epik_Ionization_Penalty_Charging>  (235) 
4.38866e-06

>  <r_epik_Ionization_Penalty_Neutral>  (235) 
0.0776315

>  <r_epik_State_Penalty>  (235) 
0.0685711

>  <r_epik_Charging_Adjusted_Penalty>  (235) 
0.0685755

>  <i_epik_Tot_Q>  (235) 
-1

>  <i_epik_Tot_abs_Q>  (235) 
1

>  <s_lp_Force_Field>  (235) 
OPLS3e

>  <r_lp_Energy>  (235) 
34.205

>  <b_lp_Chiralities_Consistent>  (235) 
1

>  <s_lp_Variant>  (235) 
54:0-1

>  <s_i_glide_gridfile>  (235) 
pfpi4k_grid

>  <i_i_glide_lignum>  (235) 
14

>  <i_i_glide_rotatable_bonds>  (235) 
2

>  <r_i_docking_score>  (235) 
-4.14473

>  <r_i_glide_ligand_efficiency>  (235) 
-0.207236

>  <r_i_glide_ligand_efficiency_sa>  (235) 
-0.562526

>  <r_i_glide_ligand_efficiency_ln>  (235) 
-1.03729

>  <r_i_glide_gscore>  (235) 
-4.14473

>  <r_i_glide_lipo>  (235) 
-0.173221

>  <r_i_glide_hbond>  (235) 
0

>  <r_i_glide_metal>  (235) 
-0

>  <r_i_glide_rewards>  (235) 
-2.21955

>  <r_i_glide_evdw>  (235) 
-23.0669

>  <r_i_glide_ecoul>  (235) 
-3.99076

>  <r_i_glide_erotb>  (235) 
0

>  <r_i_glide_esite>  (235) 
0

>  <r_i_glide_emodel>  (235) 
-38.5274

>  <r_i_glide_energy>  (235) 
-27.0576

>  <r_i_glide_einternal>  (235) 
0.0379208

>  <r_i_glide_intrahb_reward>  (235) 
-0.5

>  <i_i_glide_confnum>  (235) 
1

>  <i_i_glide_posenum>  (235) 
1

>  <r_i_glide_eff_state_penalty>  (235) 
0

>  <ligand_id>  (235) 
54

>  <original_smiles>  (235) 
NC(=O)C1C(=O)C(N)C2C3CCCC3C(O)C2(O)C1=O

>  <smiles>  (235) 
[H]OC1([H])C2(O[H])C(=O)C(=C([O-])N([H])[H])C(=O)C([H])(N([H])[H])C2([H])C2([H])C([H])([H])C([H])([H])C([H])([H])C12[H]

$$$$
54:0:2
     RDKit          3D

 37 39  0  0  1  0  0  0  0  0999 V2000
    3.9652   -6.5542    3.8683 N   0  0  0  0  0  0  0  0  0  0  0  0
    4.8181   -5.6609    3.2268 C   0  0  0  0  0  0  0  0  0  0  0  0
    5.8640   -5.5152    3.8968 O   0  0  0  0  0  0  0  0  0  0  0  0
    4.3233   -5.0928    2.0363 C   0  0  0  0  0  0  0  0  0  0  0  0
    2.9847   -5.3202    1.3492 C   0  0  0  0  0  0  0  0  0  0  0  0
    2.0277   -5.8976    1.8926 O   0  0  0  0  0  0  0  0  0  0  0  0
    2.7947   -4.7733   -0.0992 C   0  0  1  0  0  0  0  0  0  0  0  0
    1.4505   -4.9842   -0.7043 N   0  0  0  0  0  0  0  0  0  0  0  0
    3.1029   -3.2552   -0.0845 C   0  0  2  0  0  0  0  0  0  0  0  0
    3.1446   -2.5933   -1.4970 C   0  0  2  0  0  0  0  0  0  0  0  0
    3.2495   -3.4370   -2.7695 C   0  0  0  0  0  0  0  0  0  0  0  0
    3.7876   -2.4566   -3.7975 C   0  0  0  0  0  0  0  0  0  0  0  0
    4.7768   -1.6401   -2.9867 C   0  0  0  0  0  0  0  0  0  0  0  0
    4.3376   -1.6684   -1.5263 C   0  0  2  0  0  0  0  0  0  0  0  0
    5.3371   -2.3414   -0.5936 C   0  0  1  0  0  0  0  0  0  0  0  0
    6.3424   -1.4257   -0.2010 O   0  0  0  0  0  0  0  0  0  0  0  0
    4.4798   -2.9058    0.5629 C   0  0  1  0  0  0  0  0  0  0  0  0
    4.2780   -1.8506    1.4969 O   0  0  0  0  0  0  0  0  0  0  0  0
    5.1603   -4.0931    1.2900 C   0  0  0  0  0  0  0  0  0  0  0  0
    6.3895   -4.1588    1.2400 O   0  0  0  0  0  0  0  0  0  0  0  0
    3.1023   -6.7921    3.4255 H   0  0  0  0  0  0  0  0  0  0  0  0
    4.1584   -7.1020    4.6958 H   0  0  0  0  0  0  0  0  0  0  0  0
    3.5534   -5.2862   -0.7067 H   0  0  0  0  0  0  0  0  0  0  0  0
    0.8628   -4.2505   -0.3308 H   0  0  0  0  0  0  0  0  0  0  0  0
    1.4691   -4.7922   -1.7091 H   0  0  0  0  0  0  0  0  0  0  0  0
    2.3101   -2.7528    0.4980 H   0  0  0  0  0  0  0  0  0  0  0  0
    2.2594   -2.0042   -1.6982 H   0  0  0  0  0  0  0  0  0  0  0  0
    3.9673   -4.2424   -2.6340 H   0  0  0  0  0  0  0  0  0  0  0  0
    2.2651   -3.8222   -3.0649 H   0  0  0  0  0  0  0  0  0  0  0  0
    4.2830   -2.9984   -4.5911 H   0  0  0  0  0  0  0  0  0  0  0  0
    2.9992   -1.8295   -4.2341 H   0  0  0  0  0  0  0  0  0  0  0  0
    5.7413   -2.1443   -3.0523 H   0  0  0  0  0  0  0  0  0  0  0  0
    4.8291   -0.6256   -3.3666 H   0  0  0  0  0  0  0  0  0  0  0  0
    4.0635   -0.6881   -1.1397 H   0  0  0  0  0  0  0  0  0  0  0  0
    5.8319   -3.1697   -1.1085 H   0  0  0  0  0  0  0  0  0  0  0  0
    5.9977   -0.9091    0.5229 H   0  0  0  0  0  0  0  0  0  0  0  0
    3.7564   -1.1696    1.0787 H   0  0  0  0  0  0  0  0  0  0  0  0
  1  2  1  0
  1 21  1  0
  1 22  1  0
  2  3  1  0
  2  4  2  0
  4 19  1  0
  4  5  1  0
  5  6  2  0
  5  7  1  0
  7  8  1  0
  7  9  1  0
  7 23  1  6
  8 24  1  0
  8 25  1  0
  9 17  1  0
  9 10  1  0
  9 26  1  1
 10 14  1  0
 10 11  1  0
 10 27  1  6
 11 12  1  0
 11 28  1  0
 11 29  1  0
 12 13  1  0
 12 30  1  0
 12 31  1  0
 13 14  1  0
 13 32  1  0
 13 33  1  0
 14 15  1  0
 14 34  1  1
 15 16  1  0
 15 17  1  0
 15 35  1  6
 16 36  1  0
 17 18  1  1
 17 19  1  0
 18 37  1  0
 19 20  2  0
M  CHG  1   3  -1
M  END
>  <i_m_ct_stereo_status>  (236) 
1

>  <s_m_source_file>  (236) 
/var/tmp/pbs.5076255.sched01/tmp2a9bgmzv/100_xx7n39i.sdf

>  <i_m_source_file_index>  (236) 
14

>  <i_lp_mmshare_version>  (236) 
48012

>  <i_f3d_flags>  (236) 
0

>  <s_epik_input>  (236) 
W05IMl1DKD1PKVtDQEBIXShDMT1PKUMoPU8pW0NAQEhdKFtOSDJdKVtDQEBIXShbQ0BAXTEyW09IXSlbQ0BIXTNbQ0BASF0oW0NASF0yW09IXSlbQ0gyXVtDSDJdW0NIMl0z

>  <s_epik_cmdline>  (236) 
J2VwaWtfcHl0aG9uJywgJy1waHQnLCAnMi4wJywgJy1waCcsICc3LjAnLCAnLXRuJywgJzgnLCAnLW1hJywgJzIwMCcsICctaW1hZScsICc8aW5maWxlLm1hZT4nLCAnLW9tYWUnLCAnPG91dGZpbGUubWFlPic=

>  <r_epik_Ionization_Penalty>  (236) 
0.0776359

>  <r_epik_Ionization_Penalty_Charging>  (236) 
4.38866e-06

>  <r_epik_Ionization_Penalty_Neutral>  (236) 
0.0776315

>  <r_epik_State_Penalty>  (236) 
0.0685711

>  <r_epik_Charging_Adjusted_Penalty>  (236) 
0.0685755

>  <i_epik_Tot_Q>  (236) 
-1

>  <i_epik_Tot_abs_Q>  (236) 
1

>  <s_lp_Force_Field>  (236) 
OPLS3e

>  <r_lp_Energy>  (236) 
34.205

>  <b_lp_Chiralities_Consistent>  (236) 
1

>  <s_lp_Variant>  (236) 
54:0-1

>  <s_i_glide_gridfile>  (236) 
pfpi4k_grid

>  <i_i_glide_lignum>  (236) 
14

>  <i_i_glide_rotatable_bonds>  (236) 
2

>  <r_i_docking_score>  (236) 
-3.67515

>  <r_i_glide_ligand_efficiency>  (236) 
-0.183758

>  <r_i_glide_ligand_efficiency_sa>  (236) 
-0.498795

>  <r_i_glide_ligand_efficiency_ln>  (236) 
-0.91977

>  <r_i_glide_gscore>  (236) 
-3.67515

>  <r_i_glide_lipo>  (236) 
-0.145999

>  <r_i_glide_hbond>  (236) 
-0.122569

>  <r_i_glide_metal>  (236) 
-0

>  <r_i_glide_rewards>  (236) 
-2.0426

>  <r_i_glide_evdw>  (236) 
-10.9205

>  <r_i_glide_ecoul>  (236) 
-5.41634

>  <r_i_glide_erotb>  (236) 
0

>  <r_i_glide_esite>  (236) 
-0.0055158

>  <r_i_glide_emodel>  (236) 
-26.6032

>  <r_i_glide_energy>  (236) 
-16.3368

>  <r_i_glide_einternal>  (236) 
0.201206

>  <r_i_glide_intrahb_reward>  (236) 
-0.5

>  <i_i_glide_confnum>  (236) 
1

>  <i_i_glide_posenum>  (236) 
4

>  <r_i_glide_eff_state_penalty>  (236) 
0

>  <ligand_id>  (236) 
54

>  <original_smiles>  (236) 
NC(=O)C1C(=O)C(N)C2C3CCCC3C(O)C2(O)C1=O

>  <smiles>  (236) 
[H]OC1([H])C2(O[H])C(=O)C(=C([O-])N([H])[H])C(=O)C([H])(N([H])[H])C2([H])C2([H])C([H])([H])C([H])([H])C([H])([H])C12[H]

$$$$
54:1:0
     RDKit          3D

 38 40  0  0  1  0  0  0  0  0999 V2000
   -0.1120   -6.9244    1.3367 N   0  0  0  0  0  0  0  0  0  0  0  0
    0.9432   -6.4929    2.1231 C   0  0  0  0  0  0  0  0  0  0  0  0
    0.7921   -6.9219    3.2881 O   0  0  0  0  0  0  0  0  0  0  0  0
    1.8488   -5.6042    1.5235 C   0  0  0  0  0  0  0  0  0  0  0  0
    1.8864   -5.1064    0.1047 C   0  0  0  0  0  0  0  0  0  0  0  0
    1.0304   -5.4548   -0.7214 O   0  0  0  0  0  0  0  0  0  0  0  0
    2.9156   -4.0138   -0.2940 C   0  0  1  0  0  0  0  0  0  0  0  0
    2.5387   -3.4507   -1.6009 N   0  0  0  0  0  0  0  0  0  0  0  0
    2.9641   -2.8975    0.7863 C   0  0  2  0  0  0  0  0  0  0  0  0
    4.0620   -1.8056    0.5982 C   0  0  2  0  0  0  0  0  0  0  0  0
    5.1102   -1.9779   -0.5115 C   0  0  0  0  0  0  0  0  0  0  0  0
    6.3180   -1.2167    0.0154 C   0  0  0  0  0  0  0  0  0  0  0  0
    6.3348   -1.4825    1.5073 C   0  0  0  0  0  0  0  0  0  0  0  0
    4.8734   -1.7168    1.8988 C   0  0  2  0  0  0  0  0  0  0  0  0
    4.6108   -3.0500    2.6016 C   0  0  1  0  0  0  0  0  0  0  0  0
    4.8683   -2.9603    3.9905 O   0  0  0  0  0  0  0  0  0  0  0  0
    3.1560   -3.4320    2.2335 C   0  0  1  0  0  0  0  0  0  0  0  0
    2.2453   -2.7234    3.0680 O   0  0  0  0  0  0  0  0  0  0  0  0
    2.8899   -4.9489    2.3763 C   0  0  0  0  0  0  0  0  0  0  0  0
    3.4544   -5.5211    3.3080 O   0  0  0  0  0  0  0  0  0  0  0  0
   -0.0792   -6.9003    0.3280 H   0  0  0  0  0  0  0  0  0  0  0  0
   -0.6454   -7.7446    1.5949 H   0  0  0  0  0  0  0  0  0  0  0  0
    3.8855   -4.4982   -0.3783 H   0  0  0  0  0  0  0  0  0  0  0  0
    2.4765   -4.2246   -2.2557 H   0  0  0  0  0  0  0  0  0  0  0  0
    3.2303   -2.7932   -1.8995 H   0  0  0  0  0  0  0  0  0  0  0  0
    2.0024   -2.3774    0.7529 H   0  0  0  0  0  0  0  0  0  0  0  0
    3.5815   -0.8400    0.4432 H   0  0  0  0  0  0  0  0  0  0  0  0
    5.4027   -3.0226   -0.6349 H   0  0  0  0  0  0  0  0  0  0  0  0
    4.7730   -1.5932   -1.4757 H   0  0  0  0  0  0  0  0  0  0  0  0
    7.2440   -1.5379   -0.4593 H   0  0  0  0  0  0  0  0  0  0  0  0
    6.1901   -0.1510   -0.1615 H   0  0  0  0  0  0  0  0  0  0  0  0
    6.9357   -2.3709    1.6794 H   0  0  0  0  0  0  0  0  0  0  0  0
    6.7913   -0.6621    2.0600 H   0  0  0  0  0  0  0  0  0  0  0  0
    4.5008   -0.8847    2.5000 H   0  0  0  0  0  0  0  0  0  0  0  0
    5.2763   -3.8104    2.1925 H   0  0  0  0  0  0  0  0  0  0  0  0
    4.7281   -3.8152    4.3716 H   0  0  0  0  0  0  0  0  0  0  0  0
    2.4351   -1.7984    3.0416 H   0  0  0  0  0  0  0  0  0  0  0  0
    1.6531   -2.9815   -1.5378 H   0  0  0  0  0  0  0  0  0  0  0  0
  1  2  1  0
  1 21  1  0
  1 22  1  0
  2  3  1  0
  2  4  2  0
  4 19  1  0
  4  5  1  0
  5  6  2  0
  5  7  1  0
  7  8  1  0
  7  9  1  0
  7 23  1  6
  8 24  1  0
  8 25  1  0
  8 38  1  0
  9 17  1  0
  9 10  1  0
  9 26  1  1
 10 14  1  0
 10 11  1  0
 10 27  1  6
 11 12  1  0
 11 28  1  0
 11 29  1  0
 12 13  1  0
 12 30  1  0
 12 31  1  0
 13 14  1  0
 13 32  1  0
 13 33  1  0
 14 15  1  0
 14 34  1  1
 15 16  1  0
 15 17  1  0
 15 35  1  6
 16 36  1  0
 17 18  1  1
 17 19  1  0
 18 37  1  0
 19 20  2  0
M  CHG  2   3  -1   8   1
M  END
>  <i_m_ct_stereo_status>  (237) 
1

>  <s_m_source_file>  (237) 
/var/tmp/pbs.5076255.sched01/tmp2a9bgmzv/100_xx7n39i.sdf

>  <i_m_source_file_index>  (237) 
15

>  <i_lp_mmshare_version>  (237) 
48012

>  <i_f3d_flags>  (237) 
0

>  <s_epik_input>  (237) 
W05IMl1DKD1PKVtDQEBIXShDMT1PKUMoPU8pW0NAQEhdKFtOSDJdKVtDQEBIXShbQ0BAXTEyW09IXSlbQ0BIXTNbQ0BASF0oW0NASF0yW09IXSlbQ0gyXVtDSDJdW0NIMl0z

>  <s_epik_cmdline>  (237) 
J2VwaWtfcHl0aG9uJywgJy1waHQnLCAnMi4wJywgJy1waCcsICc3LjAnLCAnLXRuJywgJzgnLCAnLW1hJywgJzIwMCcsICctaW1hZScsICc8aW5maWxlLm1hZT4nLCAnLW9tYWUnLCAnPG91dGZpbGUubWFlPic=

>  <r_epik_Ionization_Penalty>  (237) 
1.24258

>  <r_epik_Ionization_Penalty_Charging>  (237) 
1.24254

>  <r_epik_Ionization_Penalty_Neutral>  (237) 
3.5916e-05

>  <r_epik_State_Penalty>  (237) 
1.31162

>  <r_epik_Charging_Adjusted_Penalty>  (237) 
2.55416

>  <i_epik_Tot_Q>  (237) 
0

>  <i_epik_Tot_abs_Q>  (237) 
2

>  <s_lp_Force_Field>  (237) 
OPLS3e

>  <r_lp_Energy>  (237) 
30.2597

>  <b_lp_Chiralities_Consistent>  (237) 
1

>  <s_lp_Variant>  (237) 
54:0-2

>  <s_i_glide_gridfile>  (237) 
pfpi4k_grid

>  <i_i_glide_lignum>  (237) 
15

>  <i_i_glide_rotatable_bonds>  (237) 
2

>  <r_i_docking_score>  (237) 
-5.60378

>  <r_i_glide_ligand_efficiency>  (237) 
-0.280189

>  <r_i_glide_ligand_efficiency_sa>  (237) 
-0.760551

>  <r_i_glide_ligand_efficiency_ln>  (237) 
-1.40244

>  <r_i_glide_gscore>  (237) 
-5.60378

>  <r_i_glide_lipo>  (237) 
-0.235036

>  <r_i_glide_hbond>  (237) 
-0.473595

>  <r_i_glide_metal>  (237) 
-0

>  <r_i_glide_rewards>  (237) 
-2.48437

>  <r_i_glide_evdw>  (237) 
-12.178

>  <r_i_glide_ecoul>  (237) 
-10.7316

>  <r_i_glide_erotb>  (237) 
0

>  <r_i_glide_esite>  (237) 
-0.192146

>  <r_i_glide_emodel>  (237) 
-42.0565

>  <r_i_glide_energy>  (237) 
-22.9096

>  <r_i_glide_einternal>  (237) 
0.321238

>  <r_i_glide_intrahb_reward>  (237) 
-1

>  <i_i_glide_confnum>  (237) 
2

>  <i_i_glide_posenum>  (237) 
16

>  <r_i_glide_eff_state_penalty>  (237) 
0

>  <ligand_id>  (237) 
54

>  <original_smiles>  (237) 
NC(=O)C1C(=O)C(N)C2C3CCCC3C(O)C2(O)C1=O

>  <smiles>  (237) 
[H]OC1([H])C2(O[H])C(=O)C(=C([O-])N([H])[H])C(=O)C([H])([N+]([H])([H])[H])C2([H])C2([H])C([H])([H])C([H])([H])C([H])([H])C12[H]

$$$$
54:1:1
     RDKit          3D

 38 40  0  0  1  0  0  0  0  0999 V2000
    0.0655   -7.0606    1.8829 N   0  0  0  0  0  0  0  0  0  0  0  0
    0.9213   -6.3651    2.7218 C   0  0  0  0  0  0  0  0  0  0  0  0
    0.6154   -6.6119    3.9091 O   0  0  0  0  0  0  0  0  0  0  0  0
    1.8467   -5.4958    2.1235 C   0  0  0  0  0  0  0  0  0  0  0  0
    2.0813   -5.2486    0.6537 C   0  0  0  0  0  0  0  0  0  0  0  0
    1.4125   -5.8261   -0.2104 O   0  0  0  0  0  0  0  0  0  0  0  0
    3.0843   -4.1435    0.2455 C   0  0  1  0  0  0  0  0  0  0  0  0
    2.8898   -3.8574   -1.1898 N   0  0  0  0  0  0  0  0  0  0  0  0
    2.8640   -2.8577    1.0839 C   0  0  2  0  0  0  0  0  0  0  0  0
    3.8907   -1.7084    0.8543 C   0  0  2  0  0  0  0  0  0  0  0  0
    5.1243   -1.9555   -0.0358 C   0  0  0  0  0  0  0  0  0  0  0  0
    6.1755   -0.9947    0.5085 C   0  0  0  0  0  0  0  0  0  0  0  0
    5.9477   -1.0111    2.0178 C   0  0  0  0  0  0  0  0  0  0  0  0
    4.4624   -1.3210    2.2195 C   0  0  2  0  0  0  0  0  0  0  0  0
    4.1948   -2.5259    3.1200 C   0  0  1  0  0  0  0  0  0  0  0  0
    4.2585   -2.1610    4.4928 O   0  0  0  0  0  0  0  0  0  0  0  0
    2.8535   -3.1170    2.6189 C   0  0  1  0  0  0  0  0  0  0  0  0
    1.7749   -2.3672    3.1809 O   0  0  0  0  0  0  0  0  0  0  0  0
    2.6694   -4.6054    2.9978 C   0  0  0  0  0  0  0  0  0  0  0  0
    3.1233   -4.9855    4.0769 O   0  0  0  0  0  0  0  0  0  0  0  0
    0.2600   -7.1772    0.8996 H   0  0  0  0  0  0  0  0  0  0  0  0
   -0.4614   -7.8604    2.2122 H   0  0  0  0  0  0  0  0  0  0  0  0
    4.0956   -4.5309    0.3885 H   0  0  0  0  0  0  0  0  0  0  0  0
    2.9949   -4.7392   -1.7091 H   0  0  0  0  0  0  0  0  0  0  0  0
    3.5664   -3.1856   -1.5086 H   0  0  0  0  0  0  0  0  0  0  0  0
    1.8807   -2.4590    0.8091 H   0  0  0  0  0  0  0  0  0  0  0  0
    3.3669   -0.8364    0.4566 H   0  0  0  0  0  0  0  0  0  0  0  0
    5.5078   -2.9685    0.0797 H   0  0  0  0  0  0  0  0  0  0  0  0
    4.9179   -1.7773   -1.0921 H   0  0  0  0  0  0  0  0  0  0  0  0
    7.1908   -1.2823    0.2365 H   0  0  0  0  0  0  0  0  0  0  0  0
    5.9964    0.0086    0.1233 H   0  0  0  0  0  0  0  0  0  0  0  0
    6.5779   -1.7761    2.4687 H   0  0  0  0  0  0  0  0  0  0  0  0
    6.2068   -0.0628    2.4875 H   0  0  0  0  0  0  0  0  0  0  0  0
    3.9401   -0.4378    2.5914 H   0  0  0  0  0  0  0  0  0  0  0  0
    4.9674   -3.2757    2.9574 H   0  0  0  0  0  0  0  0  0  0  0  0
    3.5973   -1.5137    4.6814 H   0  0  0  0  0  0  0  0  0  0  0  0
    1.8557   -1.4543    2.9382 H   0  0  0  0  0  0  0  0  0  0  0  0
    1.9605   -3.5090   -1.3594 H   0  0  0  0  0  0  0  0  0  0  0  0
  1  2  1  0
  1 21  1  0
  1 22  1  0
  2  3  1  0
  2  4  2  0
  4 19  1  0
  4  5  1  0
  5  6  2  0
  5  7  1  0
  7  8  1  0
  7  9  1  0
  7 23  1  6
  8 24  1  0
  8 25  1  0
  8 38  1  0
  9 17  1  0
  9 10  1  0
  9 26  1  6
 10 14  1  0
 10 11  1  0
 10 27  1  6
 11 12  1  0
 11 28  1  0
 11 29  1  0
 12 13  1  0
 12 30  1  0
 12 31  1  0
 13 14  1  0
 13 32  1  0
 13 33  1  0
 14 15  1  0
 14 34  1  1
 15 16  1  0
 15 17  1  0
 15 35  1  1
 16 36  1  0
 17 18  1  1
 17 19  1  0
 18 37  1  0
 19 20  2  0
M  CHG  2   3  -1   8   1
M  END
>  <i_m_ct_stereo_status>  (238) 
1

>  <s_m_source_file>  (238) 
/var/tmp/pbs.5076255.sched01/tmp2a9bgmzv/100_xx7n39i.sdf

>  <i_m_source_file_index>  (238) 
15

>  <i_lp_mmshare_version>  (238) 
48012

>  <i_f3d_flags>  (238) 
0

>  <s_epik_input>  (238) 
W05IMl1DKD1PKVtDQEBIXShDMT1PKUMoPU8pW0NAQEhdKFtOSDJdKVtDQEBIXShbQ0BAXTEyW09IXSlbQ0BIXTNbQ0BASF0oW0NASF0yW09IXSlbQ0gyXVtDSDJdW0NIMl0z

>  <s_epik_cmdline>  (238) 
J2VwaWtfcHl0aG9uJywgJy1waHQnLCAnMi4wJywgJy1waCcsICc3LjAnLCAnLXRuJywgJzgnLCAnLW1hJywgJzIwMCcsICctaW1hZScsICc8aW5maWxlLm1hZT4nLCAnLW9tYWUnLCAnPG91dGZpbGUubWFlPic=

>  <r_epik_Ionization_Penalty>  (238) 
1.24258

>  <r_epik_Ionization_Penalty_Charging>  (238) 
1.24254

>  <r_epik_Ionization_Penalty_Neutral>  (238) 
3.5916e-05

>  <r_epik_State_Penalty>  (238) 
1.31162

>  <r_epik_Charging_Adjusted_Penalty>  (238) 
2.55416

>  <i_epik_Tot_Q>  (238) 
0

>  <i_epik_Tot_abs_Q>  (238) 
2

>  <s_lp_Force_Field>  (238) 
OPLS3e

>  <r_lp_Energy>  (238) 
30.2597

>  <b_lp_Chiralities_Consistent>  (238) 
1

>  <s_lp_Variant>  (238) 
54:0-2

>  <s_i_glide_gridfile>  (238) 
pfpi4k_grid

>  <i_i_glide_lignum>  (238) 
15

>  <i_i_glide_rotatable_bonds>  (238) 
2

>  <r_i_docking_score>  (238) 
-5.13045

>  <r_i_glide_ligand_efficiency>  (238) 
-0.256522

>  <r_i_glide_ligand_efficiency_sa>  (238) 
-0.696309

>  <r_i_glide_ligand_efficiency_ln>  (238) 
-1.28398

>  <r_i_glide_gscore>  (238) 
-5.13045

>  <r_i_glide_lipo>  (238) 
-0.247752

>  <r_i_glide_hbond>  (238) 
-0.374196

>  <r_i_glide_metal>  (238) 
-0

>  <r_i_glide_rewards>  (238) 
-1.98437

>  <r_i_glide_evdw>  (238) 
-15.5001

>  <r_i_glide_ecoul>  (238) 
-10.5323

>  <r_i_glide_erotb>  (238) 
0

>  <r_i_glide_esite>  (238) 
-0.169277

>  <r_i_glide_emodel>  (238) 
-39.9014

>  <r_i_glide_energy>  (238) 
-26.0324

>  <r_i_glide_einternal>  (238) 
0.021838

>  <r_i_glide_intrahb_reward>  (238) 
-0.5

>  <i_i_glide_confnum>  (238) 
1

>  <i_i_glide_posenum>  (238) 
40

>  <r_i_glide_eff_state_penalty>  (238) 
0

>  <ligand_id>  (238) 
54

>  <original_smiles>  (238) 
NC(=O)C1C(=O)C(N)C2C3CCCC3C(O)C2(O)C1=O

>  <smiles>  (238) 
[H]OC1([H])C2(O[H])C(=O)C(=C([O-])N([H])[H])C(=O)C([H])([N+]([H])([H])[H])C2([H])C2([H])C([H])([H])C([H])([H])C([H])([H])C12[H]

$$$$
54:1:2
     RDKit          3D

 38 40  0  0  1  0  0  0  0  0999 V2000
    0.0505   -7.0748    1.7526 N   0  0  0  0  0  0  0  0  0  0  0  0
    0.9057   -6.4097    2.6197 C   0  0  0  0  0  0  0  0  0  0  0  0
    0.5821   -6.6606    3.8028 O   0  0  0  0  0  0  0  0  0  0  0  0
    1.8410   -5.5306    2.0203 C   0  0  0  0  0  0  0  0  0  0  0  0
    2.0845   -5.2512    0.5683 C   0  0  0  0  0  0  0  0  0  0  0  0
    1.4012   -5.7940   -0.3080 O   0  0  0  0  0  0  0  0  0  0  0  0
    3.0896   -4.1434    0.1570 C   0  0  1  0  0  0  0  0  0  0  0  0
    2.8968   -3.8418   -1.2725 N   0  0  0  0  0  0  0  0  0  0  0  0
    2.8630   -2.8761    1.0162 C   0  0  2  0  0  0  0  0  0  0  0  0
    3.8936   -1.7299    0.8068 C   0  0  2  0  0  0  0  0  0  0  0  0
    5.1310   -1.9678   -0.0787 C   0  0  0  0  0  0  0  0  0  0  0  0
    6.1791   -1.0169    0.4825 C   0  0  0  0  0  0  0  0  0  0  0  0
    5.9424   -1.0443    1.9908 C   0  0  0  0  0  0  0  0  0  0  0  0
    4.4568   -1.3577    2.1811 C   0  0  2  0  0  0  0  0  0  0  0  0
    4.1779   -2.5711    3.0604 C   0  0  1  0  0  0  0  0  0  0  0  0
    4.1994   -2.1913    4.4225 O   0  0  0  0  0  0  0  0  0  0  0  0
    2.8390   -3.1559    2.5409 C   0  0  1  0  0  0  0  0  0  0  0  0
    1.7386   -2.4162    3.0785 O   0  0  0  0  0  0  0  0  0  0  0  0
    2.6628   -4.6539    2.8941 C   0  0  0  0  0  0  0  0  0  0  0  0
    3.0962   -5.0258    3.9786 O   0  0  0  0  0  0  0  0  0  0  0  0
    0.2464   -7.2019    0.7708 H   0  0  0  0  0  0  0  0  0  0  0  0
   -0.4730   -7.8846    2.0539 H   0  0  0  0  0  0  0  0  0  0  0  0
    4.0876   -4.5419    0.3071 H   0  0  0  0  0  0  0  0  0  0  0  0
    2.9857   -4.7191   -1.7761 H   0  0  0  0  0  0  0  0  0  0  0  0
    3.5824   -3.1708   -1.5792 H   0  0  0  0  0  0  0  0  0  0  0  0
    1.8829   -2.4752    0.7383 H   0  0  0  0  0  0  0  0  0  0  0  0
    3.3732   -0.8546    0.4132 H   0  0  0  0  0  0  0  0  0  0  0  0
    5.5119   -2.9802    0.0309 H   0  0  0  0  0  0  0  0  0  0  0  0
    4.9327   -1.7787   -1.1340 H   0  0  0  0  0  0  0  0  0  0  0  0
    7.1977   -1.3002    0.2149 H   0  0  0  0  0  0  0  0  0  0  0  0
    6.0039   -0.0099    0.1079 H   0  0  0  0  0  0  0  0  0  0  0  0
    6.5674   -1.8148    2.4333 H   0  0  0  0  0  0  0  0  0  0  0  0
    6.2035   -0.1020    2.4695 H   0  0  0  0  0  0  0  0  0  0  0  0
    3.9278   -0.4788    2.5556 H   0  0  0  0  0  0  0  0  0  0  0  0
    4.9530   -3.3248    2.9009 H   0  0  0  0  0  0  0  0  0  0  0  0
    5.0886   -1.9808    4.6632 H   0  0  0  0  0  0  0  0  0  0  0  0
    1.8746   -1.4880    2.9380 H   0  0  0  0  0  0  0  0  0  0  0  0
    1.9702   -3.4847   -1.4394 H   0  0  0  0  0  0  0  0  0  0  0  0
  1  2  1  0
  1 21  1  0
  1 22  1  0
  2  3  1  0
  2  4  2  0
  4 19  1  0
  4  5  1  0
  5  6  2  0
  5  7  1  0
  7  8  1  0
  7  9  1  0
  7 23  1  6
  8 24  1  0
  8 25  1  0
  8 38  1  0
  9 17  1  0
  9 10  1  0
  9 26  1  6
 10 14  1  0
 10 11  1  0
 10 27  1  6
 11 12  1  0
 11 28  1  0
 11 29  1  0
 12 13  1  0
 12 30  1  0
 12 31  1  0
 13 14  1  0
 13 32  1  0
 13 33  1  0
 14 15  1  0
 14 34  1  1
 15 16  1  0
 15 17  1  0
 15 35  1  1
 16 36  1  0
 17 18  1  1
 17 19  1  0
 18 37  1  0
 19 20  2  0
M  CHG  2   3  -1   8   1
M  END
>  <i_m_ct_stereo_status>  (239) 
1

>  <s_m_source_file>  (239) 
/var/tmp/pbs.5076255.sched01/tmp2a9bgmzv/100_xx7n39i.sdf

>  <i_m_source_file_index>  (239) 
15

>  <i_lp_mmshare_version>  (239) 
48012

>  <i_f3d_flags>  (239) 
0

>  <s_epik_input>  (239) 
W05IMl1DKD1PKVtDQEBIXShDMT1PKUMoPU8pW0NAQEhdKFtOSDJdKVtDQEBIXShbQ0BAXTEyW09IXSlbQ0BIXTNbQ0BASF0oW0NASF0yW09IXSlbQ0gyXVtDSDJdW0NIMl0z

>  <s_epik_cmdline>  (239) 
J2VwaWtfcHl0aG9uJywgJy1waHQnLCAnMi4wJywgJy1waCcsICc3LjAnLCAnLXRuJywgJzgnLCAnLW1hJywgJzIwMCcsICctaW1hZScsICc8aW5maWxlLm1hZT4nLCAnLW9tYWUnLCAnPG91dGZpbGUubWFlPic=

>  <r_epik_Ionization_Penalty>  (239) 
1.24258

>  <r_epik_Ionization_Penalty_Charging>  (239) 
1.24254

>  <r_epik_Ionization_Penalty_Neutral>  (239) 
3.5916e-05

>  <r_epik_State_Penalty>  (239) 
1.31162

>  <r_epik_Charging_Adjusted_Penalty>  (239) 
2.55416

>  <i_epik_Tot_Q>  (239) 
0

>  <i_epik_Tot_abs_Q>  (239) 
2

>  <s_lp_Force_Field>  (239) 
OPLS3e

>  <r_lp_Energy>  (239) 
30.2597

>  <b_lp_Chiralities_Consistent>  (239) 
1

>  <s_lp_Variant>  (239) 
54:0-2

>  <s_i_glide_gridfile>  (239) 
pfpi4k_grid

>  <i_i_glide_lignum>  (239) 
15

>  <i_i_glide_rotatable_bonds>  (239) 
2

>  <r_i_docking_score>  (239) 
-5.08206

>  <r_i_glide_ligand_efficiency>  (239) 
-0.254103

>  <r_i_glide_ligand_efficiency_sa>  (239) 
-0.689742

>  <r_i_glide_ligand_efficiency_ln>  (239) 
-1.27187

>  <r_i_glide_gscore>  (239) 
-5.08206

>  <r_i_glide_lipo>  (239) 
-0.248301

>  <r_i_glide_hbond>  (239) 
-0.410299

>  <r_i_glide_metal>  (239) 
-0

>  <r_i_glide_rewards>  (239) 
-1.98437

>  <r_i_glide_evdw>  (239) 
-15.5397

>  <r_i_glide_ecoul>  (239) 
-9.93718

>  <r_i_glide_erotb>  (239) 
0

>  <r_i_glide_esite>  (239) 
-0.171534

>  <r_i_glide_emodel>  (239) 
-37.8697

>  <r_i_glide_energy>  (239) 
-25.4768

>  <r_i_glide_einternal>  (239) 
0.327731

>  <r_i_glide_intrahb_reward>  (239) 
-0.5

>  <i_i_glide_confnum>  (239) 
1

>  <i_i_glide_posenum>  (239) 
1

>  <r_i_glide_eff_state_penalty>  (239) 
0

>  <ligand_id>  (239) 
54

>  <original_smiles>  (239) 
NC(=O)C1C(=O)C(N)C2C3CCCC3C(O)C2(O)C1=O

>  <smiles>  (239) 
[H]OC1([H])C2(O[H])C(=O)C(=C([O-])N([H])[H])C(=O)C([H])([N+]([H])([H])[H])C2([H])C2([H])C([H])([H])C([H])([H])C([H])([H])C12[H]

$$$$
55:0:0
     RDKit          3D

 71 77  0  0  1  0  0  0  0  0999 V2000
    3.4220   -7.8262    2.9995 C   0  0  0  0  0  0  0  0  0  0  0  0
    3.4671   -6.6098    2.2632 O   0  0  0  0  0  0  0  0  0  0  0  0
    3.6889   -5.4121    3.0093 C   0  0  2  0  0  0  0  0  0  0  0  0
    2.2709   -5.1104    3.6045 C   0  0  0  0  0  0  0  0  0  0  0  0
    1.9041   -3.7268    4.1833 C   0  0  1  0  0  0  0  0  0  0  0  0
    1.9262   -3.7490    5.6056 O   0  0  0  0  0  0  0  0  0  0  0  0
    2.6838   -2.5573    3.5446 C   0  0  2  0  0  0  0  0  0  0  0  0
    1.9744   -1.2483    3.9747 C   0  0  0  0  0  0  0  0  0  0  0  0
    2.4863   -2.7389    2.0094 C   0  0  0  0  0  0  0  0  0  0  0  0
    3.6277   -3.4069    1.1585 C   0  0  2  0  0  0  0  0  0  0  0  0
    2.9953   -4.2695   -0.0209 C   0  0  1  0  0  0  0  0  0  0  0  0
    1.8763   -5.0632    0.3593 O   0  0  0  0  0  0  0  0  0  0  0  0
    2.6616   -3.6219   -1.3862 C   0  0  0  0  0  0  0  0  0  0  0  0
    3.8628   -3.5747   -2.3892 C   0  0  1  0  0  0  0  0  0  0  0  0
    3.3743   -3.2481   -3.6771 O   0  0  0  0  0  0  0  0  0  0  0  0
    5.1109   -2.7300   -2.0340 C   0  0  1  0  0  0  0  0  0  0  0  0
    5.0033   -1.4096   -2.5198 O   0  0  0  0  0  0  0  0  0  0  0  0
    5.4642   -2.8429   -0.5284 C   0  0  1  0  0  0  0  0  0  0  0  0
    6.8401   -2.5113   -0.0697 C   0  0  1  0  0  0  0  0  0  0  0  0
    6.7377   -1.2298    0.6762 C   0  0  0  0  0  0  0  0  0  0  0  0
    5.4843   -1.5471    1.5154 C   0  0  2  0  0  0  0  0  0  0  0  0
    5.9786   -2.4200    2.4965 O   0  0  0  0  0  0  0  0  0  0  0  0
    5.1434   -3.3549    3.1354 C   0  0  1  0  0  0  0  0  0  0  0  0
    4.1564   -2.6160    4.0393 C   0  0  1  0  0  0  0  0  0  0  0  0
    4.6682   -1.3795    4.5090 O   0  0  0  0  0  0  0  0  0  0  0  0
    4.5228   -4.3507    2.1243 C   0  0  1  0  0  0  0  0  0  0  0  0
    5.7845   -5.2286    1.5223 C   0  0  1  0  0  0  0  0  0  0  0  0
    5.6029   -6.2787    0.4002 C   0  0  0  0  0  0  0  0  0  0  0  0
    7.2895   -4.7565    1.3765 C   0  0  0  0  0  0  0  0  0  0  0  0
    7.7465   -3.4493    0.7217 C   0  0  1  0  0  0  0  0  0  0  0  0
    7.9352   -3.2059   -0.6957 O   0  0  0  0  0  0  0  0  0  0  0  0
    4.5160   -2.2287    0.5288 C   0  0  2  0  0  0  0  0  0  0  0  0
    3.7891   -0.9506   -0.0004 C   0  0  0  0  0  0  0  0  0  0  0  0
    3.3310   -8.6602    2.3032 H   0  0  0  0  0  0  0  0  0  0  0  0
    2.5619   -7.8768    3.6662 H   0  0  0  0  0  0  0  0  0  0  0  0
    4.3311   -7.9811    3.5814 H   0  0  0  0  0  0  0  0  0  0  0  0
    4.3318   -5.6680    3.8591 H   0  0  0  0  0  0  0  0  0  0  0  0
    1.5353   -5.3262    2.8298 H   0  0  0  0  0  0  0  0  0  0  0  0
    2.0461   -5.8547    4.3687 H   0  0  0  0  0  0  0  0  0  0  0  0
    0.8406   -3.5919    3.9603 H   0  0  0  0  0  0  0  0  0  0  0  0
    2.8032   -3.9193    5.8966 H   0  0  0  0  0  0  0  0  0  0  0  0
    2.4353   -0.3755    3.5173 H   0  0  0  0  0  0  0  0  0  0  0  0
    2.0115   -1.1048    5.0563 H   0  0  0  0  0  0  0  0  0  0  0  0
    0.9228   -1.2419    3.6816 H   0  0  0  0  0  0  0  0  0  0  0  0
    1.5412   -3.2523    1.8595 H   0  0  0  0  0  0  0  0  0  0  0  0
    2.1915   -1.7902    1.6019 H   0  0  0  0  0  0  0  0  0  0  0  0
    3.6788   -5.0456   -0.3043 H   0  0  0  0  0  0  0  0  0  0  0  0
    1.9211   -5.8767   -0.1189 H   0  0  0  0  0  0  0  0  0  0  0  0
    1.9042   -4.2408   -1.8578 H   0  0  0  0  0  0  0  0  0  0  0  0
    2.0940   -2.7087   -1.3146 H   0  0  0  0  0  0  0  0  0  0  0  0
    4.2661   -4.5839   -2.4669 H   0  0  0  0  0  0  0  0  0  0  0  0
    2.6171   -3.7866   -3.8385 H   0  0  0  0  0  0  0  0  0  0  0  0
    5.9375   -3.1820   -2.5951 H   0  0  0  0  0  0  0  0  0  0  0  0
    4.2067   -1.0493   -2.1559 H   0  0  0  0  0  0  0  0  0  0  0  0
    5.4687   -3.8957   -0.4395 H   0  0  0  0  0  0  0  0  0  0  0  0
    7.6223   -1.0522    1.2814 H   0  0  0  0  0  0  0  0  0  0  0  0
    6.5956   -0.3865    0.0015 H   0  0  0  0  0  0  0  0  0  0  0  0
    5.0945   -0.6556    2.0067 H   0  0  0  0  0  0  0  0  0  0  0  0
    5.8053   -3.9094    3.8021 H   0  0  0  0  0  0  0  0  0  0  0  0
    4.1685   -3.1841    4.9663 H   0  0  0  0  0  0  0  0  0  0  0  0
    4.7044   -0.7755    3.7912 H   0  0  0  0  0  0  0  0  0  0  0  0
    5.9411   -5.9161    2.3567 H   0  0  0  0  0  0  0  0  0  0  0  0
    5.7568   -5.8673   -0.5951 H   0  0  0  0  0  0  0  0  0  0  0  0
    4.6673   -6.8251    0.3779 H   0  0  0  0  0  0  0  0  0  0  0  0
    6.3690   -7.0439    0.5328 H   0  0  0  0  0  0  0  0  0  0  0  0
    7.6735   -4.7385    2.3949 H   0  0  0  0  0  0  0  0  0  0  0  0
    7.9109   -5.5410    0.9351 H   0  0  0  0  0  0  0  0  0  0  0  0
    8.6099   -3.0538    1.2393 H   0  0  0  0  0  0  0  0  0  0  0  0
    4.4820   -0.2552   -0.4629 H   0  0  0  0  0  0  0  0  0  0  0  0
    3.3416   -0.3422    0.7820 H   0  0  0  0  0  0  0  0  0  0  0  0
    3.0188   -1.1000   -0.7356 H   0  0  0  0  0  0  0  0  0  0  0  0
  1  2  1  0
  1 34  1  0
  1 35  1  0
  1 36  1  0
  2  3  1  0
  3 26  1  0
  3  4  1  0
  3 37  1  1
  4  5  1  0
  4 38  1  0
  4 39  1  0
  5  6  1  0
  5  7  1  0
  5 40  1  1
  6 41  1  0
  7 24  1  0
  7  8  1  1
  7  9  1  0
  8 42  1  0
  8 43  1  0
  8 44  1  0
 10  9  1  1
  9 45  1  0
  9 46  1  0
 26 10  1  6
 10 32  1  0
 10 11  1  0
 11 12  1  0
 11 13  1  0
 11 47  1  6
 12 48  1  0
 13 14  1  0
 13 49  1  0
 13 50  1  0
 14 15  1  0
 14 16  1  0
 14 51  1  6
 15 52  1  0
 16 17  1  0
 16 18  1  0
 16 53  1  6
 17 54  1  0
 18 32  1  0
 18 19  1  0
 18 55  1  1
 19 30  1  0
 19 31  1  6
 19 20  1  0
 20 21  1  0
 20 56  1  0
 20 57  1  0
 21 22  1  0
 21 32  1  0
 21 58  1  1
 22 23  1  0
 23 24  1  0
 23 26  1  0
 23 59  1  1
 24 25  1  0
 24 60  1  1
 25 61  1  0
 26 27  1  0
 27 28  1  0
 27 29  1  0
 27 62  1  1
 28 63  1  0
 28 64  1  0
 28 65  1  0
 29 30  1  0
 29 66  1  0
 29 67  1  0
 30 31  1  0
 30 68  1  1
 32 33  1  6
 33 69  1  0
 33 70  1  0
 33 71  1  0
M  END
>  <i_m_ct_stereo_status>  (240) 
1

>  <s_m_source_file>  (240) 
/var/tmp/pbs.5076255.sched01/tmp2a9bgmzv/100_xx7n39i.sdf

>  <i_m_source_file_index>  (240) 
16

>  <i_lp_mmshare_version>  (240) 
48012

>  <i_f3d_flags>  (240) 
0

>  <s_epik_input>  (240) 
W0NIM11PW0NAQEhdMVtDSDJdW0NAQEhdKFtPSF0pW0NAXShbQ0gzXSkoW0NIMl0yKVtDQEhdKFtPSF0pW0NAQEhdKFtDQF0xM1tDQF0yNDUpT1tDQEBIXTZbQ0BAXTUoW0NIM10pW0NAQEhdKFtDQEhdKFtPSF0pW0NASF0oW09IXSlbQ0gyXVtDQEBIXTRbT0hdKVtDQEBdNyhbQ0gyXTYpW0NIXShPNylbQ0gyXVtDQEBIXTNbQ0gzXQ==

>  <s_epik_cmdline>  (240) 
J2VwaWtfcHl0aG9uJywgJy1waHQnLCAnMi4wJywgJy1waCcsICc3LjAnLCAnLXRuJywgJzgnLCAnLW1hJywgJzIwMCcsICctaW1hZScsICc8aW5maWxlLm1hZT4nLCAnLW9tYWUnLCAnPG91dGZpbGUubWFlPic=

>  <r_lp_tautomer_probability>  (240) 
1

>  <r_epik_Ionization_Penalty>  (240) 
6.28163e-07

>  <r_epik_Ionization_Penalty_Charging>  (240) 
0

>  <r_epik_Ionization_Penalty_Neutral>  (240) 
6.28163e-07

>  <r_epik_State_Penalty>  (240) 
-0

>  <r_epik_Charging_Adjusted_Penalty>  (240) 
0

>  <i_epik_Tot_Q>  (240) 
0

>  <i_epik_Tot_abs_Q>  (240) 
0

>  <s_lp_Force_Field>  (240) 
OPLS3e

>  <r_lp_Energy>  (240) 
169.607

>  <b_lp_Chiralities_Consistent>  (240) 
1

>  <s_lp_Variant>  (240) 
55:0-1

>  <s_i_glide_gridfile>  (240) 
pfpi4k_grid

>  <i_i_glide_lignum>  (240) 
16

>  <i_i_glide_rotatable_bonds>  (240) 
6

>  <r_i_docking_score>  (240) 
-3.16986

>  <r_i_glide_ligand_efficiency>  (240) 
-0.0960562

>  <r_i_glide_ligand_efficiency_sa>  (240) 
-0.308104

>  <r_i_glide_ligand_efficiency_ln>  (240) 
-0.70496

>  <r_i_glide_gscore>  (240) 
-3.16986

>  <r_i_glide_lipo>  (240) 
-0.735221

>  <r_i_glide_hbond>  (240) 
0

>  <r_i_glide_metal>  (240) 
-0

>  <r_i_glide_rewards>  (240) 
-0.22797

>  <r_i_glide_evdw>  (240) 
-18.0352

>  <r_i_glide_ecoul>  (240) 
-8.69938

>  <r_i_glide_erotb>  (240) 
0

>  <r_i_glide_esite>  (240) 
0

>  <r_i_glide_emodel>  (240) 
-30.129

>  <r_i_glide_energy>  (240) 
-26.7346

>  <r_i_glide_einternal>  (240) 
1.20021

>  <r_i_glide_intrahb_reward>  (240) 
-0

>  <i_i_glide_confnum>  (240) 
1

>  <i_i_glide_posenum>  (240) 
34

>  <r_i_glide_eff_state_penalty>  (240) 
0

>  <ligand_id>  (240) 
55

>  <original_smiles>  (240) 
COC1CC(O)C2(C)CC34C(O)CC(O)C(O)C5C67CC(OC(C2O)C13C(C)CC6O7)C54C

>  <smiles>  (240) 
[H]OC1([H])C([H])([H])C([H])(O[H])C23C([H])([H])C4(C([H])([H])[H])C([H])(O[H])C([H])([H])C([H])(OC([H])([H])[H])C25C([H])(OC2([H])C([H])([H])C6(OC6([H])C([H])([H])C5([H])C([H])([H])[H])C([H])(C1([H])O[H])C23C([H])([H])[H])C4([H])O[H]

$$$$
55:0:1
     RDKit          3D

 71 77  0  0  1  0  0  0  0  0999 V2000
    4.1181   -7.7557    2.8895 C   0  0  0  0  0  0  0  0  0  0  0  0
    3.9471   -6.5085    2.2256 O   0  0  0  0  0  0  0  0  0  0  0  0
    4.1484   -5.3281    2.9996 C   0  0  2  0  0  0  0  0  0  0  0  0
    2.7962   -5.1886    3.7723 C   0  0  0  0  0  0  0  0  0  0  0  0
    2.3894   -3.8797    4.4678 C   0  0  1  0  0  0  0  0  0  0  0  0
    2.6375   -3.9504    5.8643 O   0  0  0  0  0  0  0  0  0  0  0  0
    2.9639   -2.6083    3.8038 C   0  0  2  0  0  0  0  0  0  0  0  0
    2.2187   -1.3774    4.3885 C   0  0  0  0  0  0  0  0  0  0  0  0
    2.6000   -2.7362    2.2869 C   0  0  0  0  0  0  0  0  0  0  0  0
    3.6864   -3.2775    1.2713 C   0  0  2  0  0  0  0  0  0  0  0  0
    2.9893   -4.1723    0.1422 C   0  0  1  0  0  0  0  0  0  0  0  0
    1.9939   -5.0614    0.6220 O   0  0  0  0  0  0  0  0  0  0  0  0
    2.4554   -3.5205   -1.1607 C   0  0  0  0  0  0  0  0  0  0  0  0
    3.5016   -3.2840   -2.2962 C   0  0  1  0  0  0  0  0  0  0  0  0
    2.8446   -2.9417   -3.5016 O   0  0  0  0  0  0  0  0  0  0  0  0
    4.7047   -2.3405   -2.0384 C   0  0  1  0  0  0  0  0  0  0  0  0
    4.4833   -1.0090   -2.4767 O   0  0  0  0  0  0  0  0  0  0  0  0
    5.2364   -2.4832   -0.5944 C   0  0  1  0  0  0  0  0  0  0  0  0
    6.6283   -2.0357   -0.3084 C   0  0  1  0  0  0  0  0  0  0  0  0
    6.5293   -0.8204    0.5388 C   0  0  0  0  0  0  0  0  0  0  0  0
    5.4329   -1.2828    1.5195 C   0  0  2  0  0  0  0  0  0  0  0  0
    6.1218   -2.1474    2.3890 O   0  0  0  0  0  0  0  0  0  0  0  0
    5.4125   -3.1636    3.0648 C   0  0  1  0  0  0  0  0  0  0  0  0
    4.4877   -2.5437    4.1209 C   0  0  1  0  0  0  0  0  0  0  0  0
    4.9585   -1.2790    4.5644 O   0  0  0  0  0  0  0  0  0  0  0  0
    4.7750   -4.1666    2.0738 C   0  0  1  0  0  0  0  0  0  0  0  0
    6.0313   -4.8834    1.2784 C   0  0  1  0  0  0  0  0  0  0  0  0
    5.8093   -5.9074    0.1400 C   0  0  0  0  0  0  0  0  0  0  0  0
    7.4568   -4.2459    0.9843 C   0  0  0  0  0  0  0  0  0  0  0  0
    7.7135   -2.8907    0.3149 C   0  0  1  0  0  0  0  0  0  0  0  0
    7.6904   -2.5765   -1.0861 O   0  0  0  0  0  0  0  0  0  0  0  0
    4.3938   -1.9996    0.6116 C   0  0  2  0  0  0  0  0  0  0  0  0
    3.5128   -0.7602    0.2471 C   0  0  0  0  0  0  0  0  0  0  0  0
    4.0082   -8.5636    2.1659 H   0  0  0  0  0  0  0  0  0  0  0  0
    3.3690   -7.9151    3.6632 H   0  0  0  0  0  0  0  0  0  0  0  0
    5.1104   -7.8420    3.3317 H   0  0  0  0  0  0  0  0  0  0  0  0
    4.9110   -5.5624    3.7477 H   0  0  0  0  0  0  0  0  0  0  0  0
    1.9913   -5.4467    3.0901 H   0  0  0  0  0  0  0  0  0  0  0  0
    2.7512   -5.9735    4.5260 H   0  0  0  0  0  0  0  0  0  0  0  0
    1.3025   -3.8213    4.3927 H   0  0  0  0  0  0  0  0  0  0  0  0
    2.2612   -3.1894    6.2738 H   0  0  0  0  0  0  0  0  0  0  0  0
    2.5520   -0.4507    3.9164 H   0  0  0  0  0  0  0  0  0  0  0  0
    2.3754   -1.2686    5.4610 H   0  0  0  0  0  0  0  0  0  0  0  0
    1.1456   -1.4514    4.2193 H   0  0  0  0  0  0  0  0  0  0  0  0
    1.6914   -3.3318    2.2191 H   0  0  0  0  0  0  0  0  0  0  0  0
    2.1745   -1.7987    1.9670 H   0  0  0  0  0  0  0  0  0  0  0  0
    3.6999   -4.8741   -0.2394 H   0  0  0  0  0  0  0  0  0  0  0  0
    2.0610   -5.8668    0.1431 H   0  0  0  0  0  0  0  0  0  0  0  0
    1.7573   -4.2368   -1.5932 H   0  0  0  0  0  0  0  0  0  0  0  0
    1.8138   -2.6737   -0.9639 H   0  0  0  0  0  0  0  0  0  0  0  0
    3.9662   -4.2545   -2.4858 H   0  0  0  0  0  0  0  0  0  0  0  0
    2.2790   -2.2003   -3.3286 H   0  0  0  0  0  0  0  0  0  0  0  0
    5.4974   -2.6967   -2.6976 H   0  0  0  0  0  0  0  0  0  0  0  0
    3.7276   -0.6667   -2.0328 H   0  0  0  0  0  0  0  0  0  0  0  0
    5.3445   -3.5368   -0.5622 H   0  0  0  0  0  0  0  0  0  0  0  0
    7.4769   -0.6561    1.0436 H   0  0  0  0  0  0  0  0  0  0  0  0
    6.2432    0.0485   -0.0489 H   0  0  0  0  0  0  0  0  0  0  0  0
    5.0314   -0.4478    2.0988 H   0  0  0  0  0  0  0  0  0  0  0  0
    6.1644   -3.7230    3.6129 H   0  0  0  0  0  0  0  0  0  0  0  0
    4.6900   -3.1380    5.0078 H   0  0  0  0  0  0  0  0  0  0  0  0
    4.4626   -1.0183    5.3218 H   0  0  0  0  0  0  0  0  0  0  0  0
    6.3549   -5.5752    2.0567 H   0  0  0  0  0  0  0  0  0  0  0  0
    5.8071   -5.4503   -0.8409 H   0  0  0  0  0  0  0  0  0  0  0  0
    4.9319   -6.5427    0.2104 H   0  0  0  0  0  0  0  0  0  0  0  0
    6.6627   -6.5797    0.1235 H   0  0  0  0  0  0  0  0  0  0  0  0
    7.9491   -4.1826    1.9535 H   0  0  0  0  0  0  0  0  0  0  0  0
    8.0960   -4.9553    0.4609 H   0  0  0  0  0  0  0  0  0  0  0  0
    8.5705   -2.4067    0.7837 H   0  0  0  0  0  0  0  0  0  0  0  0
    4.1085   -0.0068   -0.2597 H   0  0  0  0  0  0  0  0  0  0  0  0
    3.1243   -0.2218    1.1104 H   0  0  0  0  0  0  0  0  0  0  0  0
    2.6794   -0.9641   -0.3949 H   0  0  0  0  0  0  0  0  0  0  0  0
  1  2  1  0
  1 34  1  0
  1 35  1  0
  1 36  1  0
  2  3  1  0
  3 26  1  0
  3  4  1  0
  3 37  1  1
  4  5  1  0
  4 38  1  0
  4 39  1  0
  5  6  1  0
  5  7  1  0
  5 40  1  1
  6 41  1  0
  7 24  1  0
  7  8  1  1
  7  9  1  0
  8 42  1  0
  8 43  1  0
  8 44  1  0
 10  9  1  1
  9 45  1  0
  9 46  1  0
 26 10  1  6
 10 32  1  0
 10 11  1  0
 11 12  1  0
 11 13  1  0
 11 47  1  6
 12 48  1  0
 13 14  1  0
 13 49  1  0
 13 50  1  0
 14 15  1  0
 14 16  1  0
 14 51  1  6
 15 52  1  0
 16 17  1  0
 16 18  1  0
 16 53  1  6
 17 54  1  0
 18 32  1  0
 18 19  1  0
 18 55  1  1
 19 30  1  0
 19 31  1  6
 19 20  1  0
 20 21  1  0
 20 56  1  0
 20 57  1  0
 21 22  1  0
 21 32  1  0
 21 58  1  1
 22 23  1  0
 23 24  1  0
 23 26  1  0
 23 59  1  1
 24 25  1  0
 24 60  1  1
 25 61  1  0
 26 27  1  0
 27 28  1  0
 27 29  1  0
 27 62  1  1
 28 63  1  0
 28 64  1  0
 28 65  1  0
 29 30  1  0
 29 66  1  0
 29 67  1  0
 30 31  1  0
 30 68  1  1
 32 33  1  6
 33 69  1  0
 33 70  1  0
 33 71  1  0
M  END
>  <i_m_ct_stereo_status>  (241) 
1

>  <s_m_source_file>  (241) 
/var/tmp/pbs.5076255.sched01/tmp2a9bgmzv/100_xx7n39i.sdf

>  <i_m_source_file_index>  (241) 
16

>  <i_lp_mmshare_version>  (241) 
48012

>  <i_f3d_flags>  (241) 
0

>  <s_epik_input>  (241) 
W0NIM11PW0NAQEhdMVtDSDJdW0NAQEhdKFtPSF0pW0NAXShbQ0gzXSkoW0NIMl0yKVtDQEhdKFtPSF0pW0NAQEhdKFtDQF0xM1tDQF0yNDUpT1tDQEBIXTZbQ0BAXTUoW0NIM10pW0NAQEhdKFtDQEhdKFtPSF0pW0NASF0oW09IXSlbQ0gyXVtDQEBIXTRbT0hdKVtDQEBdNyhbQ0gyXTYpW0NIXShPNylbQ0gyXVtDQEBIXTNbQ0gzXQ==

>  <s_epik_cmdline>  (241) 
J2VwaWtfcHl0aG9uJywgJy1waHQnLCAnMi4wJywgJy1waCcsICc3LjAnLCAnLXRuJywgJzgnLCAnLW1hJywgJzIwMCcsICctaW1hZScsICc8aW5maWxlLm1hZT4nLCAnLW9tYWUnLCAnPG91dGZpbGUubWFlPic=

>  <r_lp_tautomer_probability>  (241) 
1

>  <r_epik_Ionization_Penalty>  (241) 
6.28163e-07

>  <r_epik_Ionization_Penalty_Charging>  (241) 
0

>  <r_epik_Ionization_Penalty_Neutral>  (241) 
6.28163e-07

>  <r_epik_State_Penalty>  (241) 
-0

>  <r_epik_Charging_Adjusted_Penalty>  (241) 
0

>  <i_epik_Tot_Q>  (241) 
0

>  <i_epik_Tot_abs_Q>  (241) 
0

>  <s_lp_Force_Field>  (241) 
OPLS3e

>  <r_lp_Energy>  (241) 
169.607

>  <b_lp_Chiralities_Consistent>  (241) 
1

>  <s_lp_Variant>  (241) 
55:0-1

>  <s_i_glide_gridfile>  (241) 
pfpi4k_grid

>  <i_i_glide_lignum>  (241) 
16

>  <i_i_glide_rotatable_bonds>  (241) 
6

>  <r_i_docking_score>  (241) 
-2.75652

>  <r_i_glide_ligand_efficiency>  (241) 
-0.0835308

>  <r_i_glide_ligand_efficiency_sa>  (241) 
-0.267928

>  <r_i_glide_ligand_efficiency_ln>  (241) 
-0.613035

>  <r_i_glide_gscore>  (241) 
-2.75652

>  <r_i_glide_lipo>  (241) 
-0.689417

>  <r_i_glide_hbond>  (241) 
-0.154499

>  <r_i_glide_metal>  (241) 
-0

>  <r_i_glide_rewards>  (241) 
-0.22797

>  <r_i_glide_evdw>  (241) 
-16.0936

>  <r_i_glide_ecoul>  (241) 
-5.86633

>  <r_i_glide_erotb>  (241) 
0

>  <r_i_glide_esite>  (241) 
0

>  <r_i_glide_emodel>  (241) 
-24.3064

>  <r_i_glide_energy>  (241) 
-21.9599

>  <r_i_glide_einternal>  (241) 
1.60318

>  <r_i_glide_intrahb_reward>  (241) 
-0

>  <i_i_glide_confnum>  (241) 
1

>  <i_i_glide_posenum>  (241) 
13

>  <r_i_glide_eff_state_penalty>  (241) 
0

>  <ligand_id>  (241) 
55

>  <original_smiles>  (241) 
COC1CC(O)C2(C)CC34C(O)CC(O)C(O)C5C67CC(OC(C2O)C13C(C)CC6O7)C54C

>  <smiles>  (241) 
[H]OC1([H])C([H])([H])C([H])(O[H])C23C([H])([H])C4(C([H])([H])[H])C([H])(O[H])C([H])([H])C([H])(OC([H])([H])[H])C25C([H])(OC2([H])C([H])([H])C6(OC6([H])C([H])([H])C5([H])C([H])([H])[H])C([H])(C1([H])O[H])C23C([H])([H])[H])C4([H])O[H]

$$$$
55:0:2
     RDKit          3D

 71 77  0  0  1  0  0  0  0  0999 V2000
    1.7377   -0.2751    1.8138 C   0  0  0  0  0  0  0  0  0  0  0  0
    2.2606   -1.5782    1.5806 O   0  0  0  0  0  0  0  0  0  0  0  0
    3.6199   -1.6324    1.1664 C   0  0  2  0  0  0  0  0  0  0  0  0
    3.5509   -1.3406   -0.3479 C   0  0  0  0  0  0  0  0  0  0  0  0
    4.6878   -1.6295   -1.3139 C   0  0  1  0  0  0  0  0  0  0  0  0
    5.3872   -0.5157   -1.7031 O   0  0  0  0  0  0  0  0  0  0  0  0
    5.6460   -2.7333   -0.8754 C   0  0  2  0  0  0  0  0  0  0  0  0
    6.6099   -3.0368   -2.0560 C   0  0  0  0  0  0  0  0  0  0  0  0
    4.7183   -3.9493   -0.6506 C   0  0  0  0  0  0  0  0  0  0  0  0
    4.1870   -4.2730    0.8246 C   0  0  2  0  0  0  0  0  0  0  0  0
    2.6760   -4.7253    0.7862 C   0  0  1  0  0  0  0  0  0  0  0  0
    2.0361   -4.0921   -0.2896 O   0  0  0  0  0  0  0  0  0  0  0  0
    2.3020   -6.2010    0.6488 C   0  0  0  0  0  0  0  0  0  0  0  0
    2.3109   -7.0725    1.9363 C   0  0  1  0  0  0  0  0  0  0  0  0
    1.7271   -8.3352    1.7124 O   0  0  0  0  0  0  0  0  0  0  0  0
    3.6405   -7.2849    2.6957 C   0  0  1  0  0  0  0  0  0  0  0  0
    4.3174   -8.4472    2.2478 O   0  0  0  0  0  0  0  0  0  0  0  0
    4.4784   -5.9867    2.7073 C   0  0  1  0  0  0  0  0  0  0  0  0
    5.5445   -5.8154    3.7285 C   0  0  1  0  0  0  0  0  0  0  0  0
    6.8535   -5.9085    3.0030 C   0  0  0  0  0  0  0  0  0  0  0  0
    6.5080   -5.0413    1.7672 C   0  0  2  0  0  0  0  0  0  0  0  0
    6.4862   -3.7451    2.2648 O   0  0  0  0  0  0  0  0  0  0  0  0
    5.8181   -2.6498    1.7138 C   0  0  1  0  0  0  0  0  0  0  0  0
    6.4528   -2.2810    0.3696 C   0  0  1  0  0  0  0  0  0  0  0  0
    7.8409   -2.5900    0.3412 O   0  0  0  0  0  0  0  0  0  0  0  0
    4.3060   -2.9451    1.7578 C   0  0  1  0  0  0  0  0  0  0  0  0
    3.8718   -2.9785    3.3631 C   0  0  1  0  0  0  0  0  0  0  0  0
    2.4135   -3.3143    3.8290 C   0  0  0  0  0  0  0  0  0  0  0  0
    4.8225   -3.3630    4.5784 C   0  0  0  0  0  0  0  0  0  0  0  0
    5.6524   -4.6541    4.6930 C   0  0  1  0  0  0  0  0  0  0  0  0
    5.1777   -5.9466    5.1135 O   0  0  0  0  0  0  0  0  0  0  0  0
    5.0877   -5.4674    1.3861 C   0  0  2  0  0  0  0  0  0  0  0  0
    5.4781   -6.6156    0.4239 C   0  0  0  0  0  0  0  0  0  0  0  0
    0.7089   -0.3730    2.1469 H   0  0  0  0  0  0  0  0  0  0  0  0
    1.7247    0.3557    0.9264 H   0  0  0  0  0  0  0  0  0  0  0  0
    2.2890    0.2443    2.5954 H   0  0  0  0  0  0  0  0  0  0  0  0
    4.1491   -0.7975    1.6395 H   0  0  0  0  0  0  0  0  0  0  0  0
    2.6964   -1.8315   -0.7776 H   0  0  0  0  0  0  0  0  0  0  0  0
    3.3164   -0.2613   -0.4000 H   0  0  0  0  0  0  0  0  0  0  0  0
    4.2513   -1.9092   -2.2645 H   0  0  0  0  0  0  0  0  0  0  0  0
    5.0244    0.2277   -1.2475 H   0  0  0  0  0  0  0  0  0  0  0  0
    7.2911   -3.8494   -1.7692 H   0  0  0  0  0  0  0  0  0  0  0  0
    7.2234   -2.1609   -2.3172 H   0  0  0  0  0  0  0  0  0  0  0  0
    6.0436   -3.3495   -2.9443 H   0  0  0  0  0  0  0  0  0  0  0  0
    3.9530   -3.7972   -1.4093 H   0  0  0  0  0  0  0  0  0  0  0  0
    5.1061   -4.8188   -1.1474 H   0  0  0  0  0  0  0  0  0  0  0  0
    2.1568   -4.4099    1.6743 H   0  0  0  0  0  0  0  0  0  0  0  0
    2.0943   -3.1633   -0.0960 H   0  0  0  0  0  0  0  0  0  0  0  0
    1.2702   -6.2199    0.3084 H   0  0  0  0  0  0  0  0  0  0  0  0
    2.8679   -6.5618   -0.1801 H   0  0  0  0  0  0  0  0  0  0  0  0
    1.6192   -6.5744    2.6128 H   0  0  0  0  0  0  0  0  0  0  0  0
    2.2446   -8.8127    1.0750 H   0  0  0  0  0  0  0  0  0  0  0  0
    3.3576   -7.4994    3.7285 H   0  0  0  0  0  0  0  0  0  0  0  0
    3.7738   -9.1973    2.4511 H   0  0  0  0  0  0  0  0  0  0  0  0
    3.7358   -5.3146    3.0545 H   0  0  0  0  0  0  0  0  0  0  0  0
    7.6796   -5.5119    3.5866 H   0  0  0  0  0  0  0  0  0  0  0  0
    7.0793   -6.9493    2.7716 H   0  0  0  0  0  0  0  0  0  0  0  0
    7.2759   -5.1099    0.9945 H   0  0  0  0  0  0  0  0  0  0  0  0
    6.0416   -1.8219    2.3855 H   0  0  0  0  0  0  0  0  0  0  0  0
    6.5086   -1.1969    0.3483 H   0  0  0  0  0  0  0  0  0  0  0  0
    7.9480   -3.5300    0.4163 H   0  0  0  0  0  0  0  0  0  0  0  0
    3.8550   -1.9064    3.5578 H   0  0  0  0  0  0  0  0  0  0  0  0
    2.2528   -4.3652    4.0650 H   0  0  0  0  0  0  0  0  0  0  0  0
    1.6161   -3.0219    3.1553 H   0  0  0  0  0  0  0  0  0  0  0  0
    2.1942   -2.7757    4.7517 H   0  0  0  0  0  0  0  0  0  0  0  0
    5.5688   -2.5682    4.6374 H   0  0  0  0  0  0  0  0  0  0  0  0
    4.2792   -3.2660    5.5221 H   0  0  0  0  0  0  0  0  0  0  0  0
    6.5996   -4.4601    5.1863 H   0  0  0  0  0  0  0  0  0  0  0  0
    6.0387   -7.3985    0.9320 H   0  0  0  0  0  0  0  0  0  0  0  0
    6.1812   -6.2467   -0.3103 H   0  0  0  0  0  0  0  0  0  0  0  0
    4.6903   -7.1110   -0.1179 H   0  0  0  0  0  0  0  0  0  0  0  0
  1  2  1  0
  1 34  1  0
  1 35  1  0
  1 36  1  0
  2  3  1  0
  3 26  1  0
  3  4  1  0
  3 37  1  1
  4  5  1  0
  4 38  1  0
  4 39  1  0
  5  6  1  0
  5  7  1  0
  5 40  1  6
  6 41  1  0
  7 24  1  0
  7  8  1  6
  7  9  1  0
  8 42  1  0
  8 43  1  0
  8 44  1  0
 10  9  1  6
  9 45  1  0
  9 46  1  0
 26 10  1  6
 10 32  1  0
 10 11  1  0
 11 12  1  0
 11 13  1  0
 11 47  1  1
 12 48  1  0
 13 14  1  0
 13 49  1  0
 13 50  1  0
 14 15  1  0
 14 16  1  0
 14 51  1  1
 15 52  1  0
 16 17  1  0
 16 18  1  0
 16 53  1  1
 17 54  1  0
 18 32  1  0
 18 19  1  0
 18 55  1  1
 19 30  1  0
 19 31  1  1
 19 20  1  0
 20 21  1  0
 20 56  1  0
 20 57  1  0
 21 22  1  0
 21 32  1  0
 21 58  1  6
 22 23  1  0
 23 24  1  0
 23 26  1  0
 23 59  1  1
 24 25  1  0
 24 60  1  1
 25 61  1  0
 26 27  1  0
 27 28  1  0
 27 29  1  0
 27 62  1  1
 28 63  1  0
 28 64  1  0
 28 65  1  0
 29 30  1  0
 29 66  1  0
 29 67  1  0
 30 31  1  0
 30 68  1  1
 32 33  1  6
 33 69  1  0
 33 70  1  0
 33 71  1  0
M  END
>  <i_m_ct_stereo_status>  (242) 
1

>  <s_m_source_file>  (242) 
/var/tmp/pbs.5076255.sched01/tmp2a9bgmzv/100_xx7n39i.sdf

>  <i_m_source_file_index>  (242) 
16

>  <i_lp_mmshare_version>  (242) 
48012

>  <i_f3d_flags>  (242) 
0

>  <s_epik_input>  (242) 
W0NIM11PW0NAQEhdMVtDSDJdW0NAQEhdKFtPSF0pW0NAXShbQ0gzXSkoW0NIMl0yKVtDQEhdKFtPSF0pW0NAQEhdKFtDQF0xM1tDQF0yNDUpT1tDQEBIXTZbQ0BAXTUoW0NIM10pW0NAQEhdKFtDQEhdKFtPSF0pW0NASF0oW09IXSlbQ0gyXVtDQEBIXTRbT0hdKVtDQEBdNyhbQ0gyXTYpW0NIXShPNylbQ0gyXVtDQEBIXTNbQ0gzXQ==

>  <s_epik_cmdline>  (242) 
J2VwaWtfcHl0aG9uJywgJy1waHQnLCAnMi4wJywgJy1waCcsICc3LjAnLCAnLXRuJywgJzgnLCAnLW1hJywgJzIwMCcsICctaW1hZScsICc8aW5maWxlLm1hZT4nLCAnLW9tYWUnLCAnPG91dGZpbGUubWFlPic=

>  <r_lp_tautomer_probability>  (242) 
1

>  <r_epik_Ionization_Penalty>  (242) 
6.28163e-07

>  <r_epik_Ionization_Penalty_Charging>  (242) 
0

>  <r_epik_Ionization_Penalty_Neutral>  (242) 
6.28163e-07

>  <r_epik_State_Penalty>  (242) 
-0

>  <r_epik_Charging_Adjusted_Penalty>  (242) 
0

>  <i_epik_Tot_Q>  (242) 
0

>  <i_epik_Tot_abs_Q>  (242) 
0

>  <s_lp_Force_Field>  (242) 
OPLS3e

>  <r_lp_Energy>  (242) 
169.607

>  <b_lp_Chiralities_Consistent>  (242) 
1

>  <s_lp_Variant>  (242) 
55:0-1

>  <s_i_glide_gridfile>  (242) 
pfpi4k_grid

>  <i_i_glide_lignum>  (242) 
16

>  <i_i_glide_rotatable_bonds>  (242) 
6

>  <r_i_docking_score>  (242) 
-1.67501

>  <r_i_glide_ligand_efficiency>  (242) 
-0.050758

>  <r_i_glide_ligand_efficiency_sa>  (242) 
-0.162808

>  <r_i_glide_ligand_efficiency_ln>  (242) 
-0.372514

>  <r_i_glide_gscore>  (242) 
-1.67501

>  <r_i_glide_lipo>  (242) 
-0.449211

>  <r_i_glide_hbond>  (242) 
-0.213607

>  <r_i_glide_metal>  (242) 
-0

>  <r_i_glide_rewards>  (242) 
-0.22797

>  <r_i_glide_evdw>  (242) 
-4.23875

>  <r_i_glide_ecoul>  (242) 
-3.81525

>  <r_i_glide_erotb>  (242) 
0

>  <r_i_glide_esite>  (242) 
0

>  <r_i_glide_emodel>  (242) 
-6.47742

>  <r_i_glide_energy>  (242) 
-8.054

>  <r_i_glide_einternal>  (242) 
2.45831

>  <r_i_glide_intrahb_reward>  (242) 
-0

>  <i_i_glide_confnum>  (242) 
1

>  <i_i_glide_posenum>  (242) 
23

>  <r_i_glide_eff_state_penalty>  (242) 
0

>  <ligand_id>  (242) 
55

>  <original_smiles>  (242) 
COC1CC(O)C2(C)CC34C(O)CC(O)C(O)C5C67CC(OC(C2O)C13C(C)CC6O7)C54C

>  <smiles>  (242) 
[H]OC1([H])C([H])([H])C([H])(O[H])C23C([H])([H])C4(C([H])([H])[H])C([H])(O[H])C([H])([H])C([H])(OC([H])([H])[H])C25C([H])(OC2([H])C([H])([H])C6(OC6([H])C([H])([H])C5([H])C([H])([H])[H])C([H])(C1([H])O[H])C23C([H])([H])[H])C4([H])O[H]

$$$$
55:1:0
     RDKit          3D

 71 77  0  0  1  0  0  0  0  0999 V2000
    3.4645   -7.7195    2.4908 C   0  0  0  0  0  0  0  0  0  0  0  0
    3.4997   -6.4467    1.8450 O   0  0  0  0  0  0  0  0  0  0  0  0
    3.6827   -5.3112    2.6910 C   0  0  2  0  0  0  0  0  0  0  0  0
    2.2508   -5.1432    3.3125 C   0  0  0  0  0  0  0  0  0  0  0  0
    1.7317   -3.8057    3.8815 C   0  0  1  0  0  0  0  0  0  0  0  0
    1.6871   -3.8326    5.2989 O   0  0  0  0  0  0  0  0  0  0  0  0
    2.3899   -2.5413    3.2777 C   0  0  2  0  0  0  0  0  0  0  0  0
    1.5211   -1.3173    3.6736 C   0  0  0  0  0  0  0  0  0  0  0  0
    2.3056   -2.7005    1.7334 C   0  0  0  0  0  0  0  0  0  0  0  0
    3.5284   -3.2828    0.9110 C   0  0  2  0  0  0  0  0  0  0  0  0
    2.9378   -4.1811   -0.2864 C   0  0  1  0  0  0  0  0  0  0  0  0
    1.8995   -5.0701    0.0925 O   0  0  0  0  0  0  0  0  0  0  0  0
    2.4762   -3.4917   -1.6109 C   0  0  0  0  0  0  0  0  0  0  0  0
    3.5818   -3.2293   -2.6875 C   0  0  1  0  0  0  0  0  0  0  0  0
    2.9824   -2.8280   -3.9069 O   0  0  0  0  0  0  0  0  0  0  0  0
    4.7862   -2.2977   -2.3419 C   0  0  1  0  0  0  0  0  0  0  0  0
    4.6039   -0.9558   -2.7594 O   0  0  0  0  0  0  0  0  0  0  0  0
    5.2427   -2.4711   -0.8710 C   0  0  1  0  0  0  0  0  0  0  0  0
    6.6529   -2.1150   -0.4497 C   0  0  1  0  0  0  0  0  0  0  0  0
    6.5852   -1.0653    0.6194 C   0  0  0  0  0  0  0  0  0  0  0  0
    5.3119   -1.3805    1.3790 C   0  0  2  0  0  0  0  0  0  0  0  0
    5.7738   -2.1697    2.4494 O   0  0  0  0  0  0  0  0  0  0  0  0
    4.9221   -3.1388    3.0033 C   0  0  1  0  0  0  0  0  0  0  0  0
    3.8334   -2.4346    3.8328 C   0  0  1  0  0  0  0  0  0  0  0  0
    4.2105   -1.1271    4.2357 O   0  0  0  0  0  0  0  0  0  0  0  0
    4.4783   -4.1533    1.9081 C   0  0  1  0  0  0  0  0  0  0  0  0
    5.8977   -4.8463    1.3897 C   0  0  1  0  0  0  0  0  0  0  0  0
    5.8627   -6.0131    0.3631 C   0  0  0  0  0  0  0  0  0  0  0  0
    7.2551   -4.0710    1.0457 C   0  0  0  0  0  0  0  0  0  0  0  0
    7.2895   -3.4860   -0.3466 C   0  0  2  0  0  0  0  0  0  0  0  0
    7.9938   -2.3988   -0.9075 O   0  0  0  0  0  0  0  0  0  0  0  0
    4.3481   -2.0231    0.3298 C   0  0  2  0  0  0  0  0  0  0  0  0
    3.5575   -0.7537   -0.0944 C   0  0  0  0  0  0  0  0  0  0  0  0
    3.4940   -8.5091    1.7393 H   0  0  0  0  0  0  0  0  0  0  0  0
    2.5536   -7.8640    3.0710 H   0  0  0  0  0  0  0  0  0  0  0  0
    4.3240   -7.8650    3.1458 H   0  0  0  0  0  0  0  0  0  0  0  0
    4.3353   -5.6109    3.5133 H   0  0  0  0  0  0  0  0  0  0  0  0
    1.5205   -5.4481    2.5625 H   0  0  0  0  0  0  0  0  0  0  0  0
    2.1318   -5.8971    4.0916 H   0  0  0  0  0  0  0  0  0  0  0  0
    0.6721   -3.7732    3.6201 H   0  0  0  0  0  0  0  0  0  0  0  0
    2.5675   -3.9299    5.6246 H   0  0  0  0  0  0  0  0  0  0  0  0
    1.8926   -0.3954    3.2230 H   0  0  0  0  0  0  0  0  0  0  0  0
    1.4996   -1.1692    4.7537 H   0  0  0  0  0  0  0  0  0  0  0  0
    0.4883   -1.4347    3.3394 H   0  0  0  0  0  0  0  0  0  0  0  0
    1.4405   -3.3222    1.6037 H   0  0  0  0  0  0  0  0  0  0  0  0
    1.8897   -1.8062    1.2905 H   0  0  0  0  0  0  0  0  0  0  0  0
    3.6682   -4.9078   -0.6019 H   0  0  0  0  0  0  0  0  0  0  0  0
    2.3010   -5.7657    0.6000 H   0  0  0  0  0  0  0  0  0  0  0  0
    1.8007   -4.1957   -2.1015 H   0  0  0  0  0  0  0  0  0  0  0  0
    1.8255   -2.6589   -1.4210 H   0  0  0  0  0  0  0  0  0  0  0  0
    4.0207   -4.2047   -2.9104 H   0  0  0  0  0  0  0  0  0  0  0  0
    2.3851   -2.1190   -3.7217 H   0  0  0  0  0  0  0  0  0  0  0  0
    5.6090   -2.6519   -2.9658 H   0  0  0  0  0  0  0  0  0  0  0  0
    3.8520   -0.6044   -2.3053 H   0  0  0  0  0  0  0  0  0  0  0  0
    5.1819   -3.5448   -0.8473 H   0  0  0  0  0  0  0  0  0  0  0  0
    7.4749   -1.0729    1.2499 H   0  0  0  0  0  0  0  0  0  0  0  0
    6.5201   -0.0887    0.1368 H   0  0  0  0  0  0  0  0  0  0  0  0
    4.9212   -0.4633    1.8248 H   0  0  0  0  0  0  0  0  0  0  0  0
    5.5579   -3.6629    3.7185 H   0  0  0  0  0  0  0  0  0  0  0  0
    3.8637   -2.9377    4.7956 H   0  0  0  0  0  0  0  0  0  0  0  0
    4.2567   -0.5765    3.4705 H   0  0  0  0  0  0  0  0  0  0  0  0
    6.2133   -5.3694    2.2948 H   0  0  0  0  0  0  0  0  0  0  0  0
    5.5026   -5.7379   -0.6239 H   0  0  0  0  0  0  0  0  0  0  0  0
    5.3559   -6.9175    0.6794 H   0  0  0  0  0  0  0  0  0  0  0  0
    6.8849   -6.3467    0.1890 H   0  0  0  0  0  0  0  0  0  0  0  0
    7.5406   -3.3184    1.7494 H   0  0  0  0  0  0  0  0  0  0  0  0
    8.0827   -4.7787    1.0997 H   0  0  0  0  0  0  0  0  0  0  0  0
    7.1333   -4.2264   -1.1222 H   0  0  0  0  0  0  0  0  0  0  0  0
    4.2441    0.0016   -0.4718 H   0  0  0  0  0  0  0  0  0  0  0  0
    3.0551   -0.2381    0.7248 H   0  0  0  0  0  0  0  0  0  0  0  0
    2.8428   -0.9235   -0.8831 H   0  0  0  0  0  0  0  0  0  0  0  0
  1  2  1  0
  1 34  1  0
  1 35  1  0
  1 36  1  0
  2  3  1  0
  3 26  1  0
  3  4  1  0
  3 37  1  1
  4  5  1  0
  4 38  1  0
  4 39  1  0
  5  6  1  0
  5  7  1  0
  5 40  1  6
  6 41  1  0
  7 24  1  0
  7  8  1  1
  7  9  1  0
  8 42  1  0
  8 43  1  0
  8 44  1  0
 10  9  1  1
  9 45  1  0
  9 46  1  0
 26 10  1  6
 10 32  1  0
 10 11  1  0
 11 12  1  0
 11 13  1  0
 11 47  1  6
 12 48  1  0
 13 14  1  0
 13 49  1  0
 13 50  1  0
 14 15  1  0
 14 16  1  0
 14 51  1  6
 15 52  1  0
 16 17  1  0
 16 18  1  0
 16 53  1  6
 17 54  1  0
 18 32  1  0
 18 19  1  0
 18 55  1  1
 19 30  1  0
 19 31  1  6
 19 20  1  0
 20 21  1  0
 20 56  1  0
 20 57  1  0
 21 22  1  0
 21 32  1  0
 21 58  1  1
 22 23  1  0
 23 24  1  0
 23 26  1  0
 23 59  1  1
 24 25  1  0
 24 60  1  1
 25 61  1  0
 26 27  1  0
 27 28  1  0
 27 29  1  0
 27 62  1  1
 28 63  1  0
 28 64  1  0
 28 65  1  0
 29 30  1  0
 29 66  1  0
 29 67  1  0
 30 31  1  0
 30 68  1  6
 32 33  1  6
 33 69  1  0
 33 70  1  0
 33 71  1  0
M  END
>  <i_m_ct_stereo_status>  (243) 
1

>  <s_m_source_file>  (243) 
/var/tmp/pbs.5076255.sched01/tmp2a9bgmzv/100_xx7n39i.sdf

>  <i_m_source_file_index>  (243) 
17

>  <i_lp_mmshare_version>  (243) 
48012

>  <i_f3d_flags>  (243) 
0

>  <s_epik_input>  (243) 
W0NIM11PW0NAQEhdMVtDSDJdW0NAQEhdKFtPSF0pW0NAXShbQ0gzXSkoW0NIMl0yKVtDQEhdKFtPSF0pW0NAQEhdKFtDQF0xM1tDQF0yNDUpT1tDQEBIXTZbQ0BAXTUoW0NIM10pW0NAQEhdKFtDQEhdKFtPSF0pW0NASF0oW09IXSlbQ0gyXVtDQEBIXTRbT0hdKVtDQEBdNyhbQ0gyXTYpW0NIXShPNylbQ0gyXVtDQEBIXTNbQ0gzXQ==

>  <s_epik_cmdline>  (243) 
J2VwaWtfcHl0aG9uJywgJy1waHQnLCAnMi4wJywgJy1waCcsICc3LjAnLCAnLXRuJywgJzgnLCAnLW1hJywgJzIwMCcsICctaW1hZScsICc8aW5maWxlLm1hZT4nLCAnLW9tYWUnLCAnPG91dGZpbGUubWFlPic=

>  <r_lp_tautomer_probability>  (243) 
1

>  <r_epik_Ionization_Penalty>  (243) 
6.28163e-07

>  <r_epik_Ionization_Penalty_Charging>  (243) 
0

>  <r_epik_Ionization_Penalty_Neutral>  (243) 
6.28163e-07

>  <r_epik_State_Penalty>  (243) 
-0

>  <r_epik_Charging_Adjusted_Penalty>  (243) 
0

>  <i_epik_Tot_Q>  (243) 
0

>  <i_epik_Tot_abs_Q>  (243) 
0

>  <s_lp_Force_Field>  (243) 
OPLS3e

>  <r_lp_Energy>  (243) 
180.328

>  <b_lp_Chiralities_Consistent>  (243) 
1

>  <s_lp_Variant>  (243) 
55:0-2

>  <s_i_glide_gridfile>  (243) 
pfpi4k_grid

>  <i_i_glide_lignum>  (243) 
17

>  <i_i_glide_rotatable_bonds>  (243) 
6

>  <r_i_docking_score>  (243) 
-3.86067

>  <r_i_glide_ligand_efficiency>  (243) 
-0.11699

>  <r_i_glide_ligand_efficiency_sa>  (243) 
-0.375249

>  <r_i_glide_ligand_efficiency_ln>  (243) 
-0.858593

>  <r_i_glide_gscore>  (243) 
-3.86067

>  <r_i_glide_lipo>  (243) 
-0.786353

>  <r_i_glide_hbond>  (243) 
-0.16

>  <r_i_glide_metal>  (243) 
-0

>  <r_i_glide_rewards>  (243) 
-0.72797

>  <r_i_glide_evdw>  (243) 
-19.9542

>  <r_i_glide_ecoul>  (243) 
-7.92427

>  <r_i_glide_erotb>  (243) 
0

>  <r_i_glide_esite>  (243) 
0

>  <r_i_glide_emodel>  (243) 
-39.0821

>  <r_i_glide_energy>  (243) 
-27.8784

>  <r_i_glide_einternal>  (243) 
0.854656

>  <r_i_glide_intrahb_reward>  (243) 
-0.5

>  <i_i_glide_confnum>  (243) 
2

>  <i_i_glide_posenum>  (243) 
6

>  <r_i_glide_eff_state_penalty>  (243) 
0

>  <ligand_id>  (243) 
55

>  <original_smiles>  (243) 
COC1CC(O)C2(C)CC34C(O)CC(O)C(O)C5C67CC(OC(C2O)C13C(C)CC6O7)C54C

>  <smiles>  (243) 
[H]OC1([H])C([H])([H])C([H])(O[H])C23C([H])([H])C4(C([H])([H])[H])C([H])(O[H])C([H])([H])C([H])(OC([H])([H])[H])C25C([H])(OC2([H])C([H])([H])C6(OC6([H])C([H])([H])C5([H])C([H])([H])[H])C([H])(C1([H])O[H])C23C([H])([H])[H])C4([H])O[H]

$$$$
55:1:1
     RDKit          3D

 71 77  0  0  1  0  0  0  0  0999 V2000
    3.9628   -7.8265    2.6790 C   0  0  0  0  0  0  0  0  0  0  0  0
    3.8673   -6.5483    2.0515 O   0  0  0  0  0  0  0  0  0  0  0  0
    4.0739   -5.4133    2.8871 C   0  0  2  0  0  0  0  0  0  0  0  0
    2.6995   -5.3248    3.6413 C   0  0  0  0  0  0  0  0  0  0  0  0
    2.1646   -4.0204    4.2697 C   0  0  1  0  0  0  0  0  0  0  0  0
    2.2553   -4.0416    5.6870 O   0  0  0  0  0  0  0  0  0  0  0  0
    2.6871   -2.7237    3.6104 C   0  0  2  0  0  0  0  0  0  0  0  0
    1.8085   -1.5447    4.1042 C   0  0  0  0  0  0  0  0  0  0  0  0
    2.4606   -2.8887    2.0795 C   0  0  0  0  0  0  0  0  0  0  0  0
    3.6433   -3.3886    1.1499 C   0  0  2  0  0  0  0  0  0  0  0  0
    3.0115   -4.3180   -0.0001 C   0  0  1  0  0  0  0  0  0  0  0  0
    2.0576   -5.2581    0.4642 O   0  0  0  0  0  0  0  0  0  0  0  0
    2.4120   -3.6344   -1.2597 C   0  0  0  0  0  0  0  0  0  0  0  0
    3.3854   -3.3060   -2.4323 C   0  0  1  0  0  0  0  0  0  0  0  0
    2.6392   -2.9287   -3.5709 O   0  0  0  0  0  0  0  0  0  0  0  0
    4.5721   -2.3241   -2.1975 C   0  0  1  0  0  0  0  0  0  0  0  0
    4.3127   -0.9865   -2.5839 O   0  0  0  0  0  0  0  0  0  0  0  0
    5.1485   -2.4773   -0.7690 C   0  0  1  0  0  0  0  0  0  0  0  0
    6.5727   -2.0556   -0.4707 C   0  0  1  0  0  0  0  0  0  0  0  0
    6.5431   -1.0143    0.6036 C   0  0  0  0  0  0  0  0  0  0  0  0
    5.3579   -1.3922    1.4707 C   0  0  2  0  0  0  0  0  0  0  0  0
    5.9425   -2.1660    2.4800 O   0  0  0  0  0  0  0  0  0  0  0  0
    5.1994   -3.1803    3.1010 C   0  0  1  0  0  0  0  0  0  0  0  0
    4.1645   -2.5408    4.0326 C   0  0  1  0  0  0  0  0  0  0  0  0
    4.5214   -1.2220    4.4176 O   0  0  0  0  0  0  0  0  0  0  0  0
    4.7253   -4.2105    2.0465 C   0  0  1  0  0  0  0  0  0  0  0  0
    6.1354   -4.8155    1.4106 C   0  0  1  0  0  0  0  0  0  0  0  0
    6.0727   -5.9781    0.3785 C   0  0  0  0  0  0  0  0  0  0  0  0
    7.4131   -3.9622    0.9739 C   0  0  0  0  0  0  0  0  0  0  0  0
    7.2749   -3.3854   -0.4136 C   0  0  2  0  0  0  0  0  0  0  0  0
    7.8828   -2.2815   -1.0508 O   0  0  0  0  0  0  0  0  0  0  0  0
    4.3394   -2.0827    0.5094 C   0  0  2  0  0  0  0  0  0  0  0  0
    3.4537   -0.8442    0.1809 C   0  0  0  0  0  0  0  0  0  0  0  0
    3.9626   -8.6070    1.9177 H   0  0  0  0  0  0  0  0  0  0  0  0
    3.1228   -8.0243    3.3432 H   0  0  0  0  0  0  0  0  0  0  0  0
    4.8892   -7.9259    3.2436 H   0  0  0  0  0  0  0  0  0  0  0  0
    4.8157   -5.6861    3.6376 H   0  0  0  0  0  0  0  0  0  0  0  0
    1.9189   -5.6571    2.9529 H   0  0  0  0  0  0  0  0  0  0  0  0
    2.6917   -6.0883    4.4237 H   0  0  0  0  0  0  0  0  0  0  0  0
    1.0892   -4.0421    4.0993 H   0  0  0  0  0  0  0  0  0  0  0  0
    3.1696   -4.0432    5.9207 H   0  0  0  0  0  0  0  0  0  0  0  0
    2.0979   -0.6007    3.6331 H   0  0  0  0  0  0  0  0  0  0  0  0
    1.8907   -1.4099    5.1841 H   0  0  0  0  0  0  0  0  0  0  0  0
    0.7557   -1.7124    3.8693 H   0  0  0  0  0  0  0  0  0  0  0  0
    1.5978   -3.5386    1.9925 H   0  0  0  0  0  0  0  0  0  0  0  0
    1.9878   -2.0014    1.6927 H   0  0  0  0  0  0  0  0  0  0  0  0
    3.7471   -5.0056   -0.3848 H   0  0  0  0  0  0  0  0  0  0  0  0
    2.5199   -5.8620    1.0352 H   0  0  0  0  0  0  0  0  0  0  0  0
    1.6839   -4.3292   -1.6774 H   0  0  0  0  0  0  0  0  0  0  0  0
    1.8154   -2.7883   -0.9812 H   0  0  0  0  0  0  0  0  0  0  0  0
    3.8595   -4.2480   -2.6969 H   0  0  0  0  0  0  0  0  0  0  0  0
    1.9574   -3.5720   -3.7023 H   0  0  0  0  0  0  0  0  0  0  0  0
    5.3503   -2.6390   -2.8955 H   0  0  0  0  0  0  0  0  0  0  0  0
    3.5208   -0.7011   -2.1514 H   0  0  0  0  0  0  0  0  0  0  0  0
    5.1461   -3.5512   -0.7533 H   0  0  0  0  0  0  0  0  0  0  0  0
    7.4861   -1.0129    1.1518 H   0  0  0  0  0  0  0  0  0  0  0  0
    6.3978   -0.0379    0.1329 H   0  0  0  0  0  0  0  0  0  0  0  0
    4.9668   -0.4918    1.9482 H   0  0  0  0  0  0  0  0  0  0  0  0
    5.8941   -3.6909    3.7593 H   0  0  0  0  0  0  0  0  0  0  0  0
    4.3223   -3.0481    4.9806 H   0  0  0  0  0  0  0  0  0  0  0  0
    4.4693   -0.6587    3.6613 H   0  0  0  0  0  0  0  0  0  0  0  0
    6.5513   -5.3331    2.2756 H   0  0  0  0  0  0  0  0  0  0  0  0
    5.6230   -5.7172   -0.5752 H   0  0  0  0  0  0  0  0  0  0  0  0
    5.6268   -6.9045    0.7278 H   0  0  0  0  0  0  0  0  0  0  0  0
    7.0881   -6.2654    0.1058 H   0  0  0  0  0  0  0  0  0  0  0  0
    7.7446   -3.2278    1.6752 H   0  0  0  0  0  0  0  0  0  0  0  0
    8.2720   -4.6303    0.9182 H   0  0  0  0  0  0  0  0  0  0  0  0
    7.0830   -4.1333   -1.1665 H   0  0  0  0  0  0  0  0  0  0  0  0
    4.0805   -0.0691   -0.2626 H   0  0  0  0  0  0  0  0  0  0  0  0
    3.0178   -0.3585    1.0563 H   0  0  0  0  0  0  0  0  0  0  0  0
    2.6538   -1.0310   -0.5137 H   0  0  0  0  0  0  0  0  0  0  0  0
  1  2  1  0
  1 34  1  0
  1 35  1  0
  1 36  1  0
  2  3  1  0
  3 26  1  0
  3  4  1  0
  3 37  1  1
  4  5  1  0
  4 38  1  0
  4 39  1  0
  5  6  1  0
  5  7  1  0
  5 40  1  1
  6 41  1  0
  7 24  1  0
  7  8  1  1
  7  9  1  0
  8 42  1  0
  8 43  1  0
  8 44  1  0
 10  9  1  1
  9 45  1  0
  9 46  1  0
 26 10  1  6
 10 32  1  0
 10 11  1  0
 11 12  1  0
 11 13  1  0
 11 47  1  6
 12 48  1  0
 13 14  1  0
 13 49  1  0
 13 50  1  0
 14 15  1  0
 14 16  1  0
 14 51  1  6
 15 52  1  0
 16 17  1  0
 16 18  1  0
 16 53  1  6
 17 54  1  0
 18 32  1  0
 18 19  1  0
 18 55  1  1
 19 30  1  0
 19 31  1  6
 19 20  1  0
 20 21  1  0
 20 56  1  0
 20 57  1  0
 21 22  1  0
 21 32  1  0
 21 58  1  1
 22 23  1  0
 23 24  1  0
 23 26  1  0
 23 59  1  1
 24 25  1  0
 24 60  1  1
 25 61  1  0
 26 27  1  0
 27 28  1  0
 27 29  1  0
 27 62  1  1
 28 63  1  0
 28 64  1  0
 28 65  1  0
 29 30  1  0
 29 66  1  0
 29 67  1  0
 30 31  1  0
 30 68  1  6
 32 33  1  6
 33 69  1  0
 33 70  1  0
 33 71  1  0
M  END
>  <i_m_ct_stereo_status>  (244) 
1

>  <s_m_source_file>  (244) 
/var/tmp/pbs.5076255.sched01/tmp2a9bgmzv/100_xx7n39i.sdf

>  <i_m_source_file_index>  (244) 
17

>  <i_lp_mmshare_version>  (244) 
48012

>  <i_f3d_flags>  (244) 
0

>  <s_epik_input>  (244) 
W0NIM11PW0NAQEhdMVtDSDJdW0NAQEhdKFtPSF0pW0NAXShbQ0gzXSkoW0NIMl0yKVtDQEhdKFtPSF0pW0NAQEhdKFtDQF0xM1tDQF0yNDUpT1tDQEBIXTZbQ0BAXTUoW0NIM10pW0NAQEhdKFtDQEhdKFtPSF0pW0NASF0oW09IXSlbQ0gyXVtDQEBIXTRbT0hdKVtDQEBdNyhbQ0gyXTYpW0NIXShPNylbQ0gyXVtDQEBIXTNbQ0gzXQ==

>  <s_epik_cmdline>  (244) 
J2VwaWtfcHl0aG9uJywgJy1waHQnLCAnMi4wJywgJy1waCcsICc3LjAnLCAnLXRuJywgJzgnLCAnLW1hJywgJzIwMCcsICctaW1hZScsICc8aW5maWxlLm1hZT4nLCAnLW9tYWUnLCAnPG91dGZpbGUubWFlPic=

>  <r_lp_tautomer_probability>  (244) 
1

>  <r_epik_Ionization_Penalty>  (244) 
6.28163e-07

>  <r_epik_Ionization_Penalty_Charging>  (244) 
0

>  <r_epik_Ionization_Penalty_Neutral>  (244) 
6.28163e-07

>  <r_epik_State_Penalty>  (244) 
-0

>  <r_epik_Charging_Adjusted_Penalty>  (244) 
0

>  <i_epik_Tot_Q>  (244) 
0

>  <i_epik_Tot_abs_Q>  (244) 
0

>  <s_lp_Force_Field>  (244) 
OPLS3e

>  <r_lp_Energy>  (244) 
180.328

>  <b_lp_Chiralities_Consistent>  (244) 
1

>  <s_lp_Variant>  (244) 
55:0-2

>  <s_i_glide_gridfile>  (244) 
pfpi4k_grid

>  <i_i_glide_lignum>  (244) 
17

>  <i_i_glide_rotatable_bonds>  (244) 
6

>  <r_i_docking_score>  (244) 
-3.80311

>  <r_i_glide_ligand_efficiency>  (244) 
-0.115246

>  <r_i_glide_ligand_efficiency_sa>  (244) 
-0.369654

>  <r_i_glide_ligand_efficiency_ln>  (244) 
-0.845791

>  <r_i_glide_gscore>  (244) 
-3.80311

>  <r_i_glide_lipo>  (244) 
-0.659234

>  <r_i_glide_hbond>  (244) 
-0.16

>  <r_i_glide_metal>  (244) 
-0

>  <r_i_glide_rewards>  (244) 
-0.72797

>  <r_i_glide_evdw>  (244) 
-18.3971

>  <r_i_glide_ecoul>  (244) 
-8.90697

>  <r_i_glide_erotb>  (244) 
0

>  <r_i_glide_esite>  (244) 
0

>  <r_i_glide_emodel>  (244) 
-38.4067

>  <r_i_glide_energy>  (244) 
-27.3041

>  <r_i_glide_einternal>  (244) 
0.825473

>  <r_i_glide_intrahb_reward>  (244) 
-0.5

>  <i_i_glide_confnum>  (244) 
2

>  <i_i_glide_posenum>  (244) 
19

>  <r_i_glide_eff_state_penalty>  (244) 
0

>  <ligand_id>  (244) 
55

>  <original_smiles>  (244) 
COC1CC(O)C2(C)CC34C(O)CC(O)C(O)C5C67CC(OC(C2O)C13C(C)CC6O7)C54C

>  <smiles>  (244) 
[H]OC1([H])C([H])([H])C([H])(O[H])C23C([H])([H])C4(C([H])([H])[H])C([H])(O[H])C([H])([H])C([H])(OC([H])([H])[H])C25C([H])(OC2([H])C([H])([H])C6(OC6([H])C([H])([H])C5([H])C([H])([H])[H])C([H])(C1([H])O[H])C23C([H])([H])[H])C4([H])O[H]

$$$$
55:1:2
     RDKit          3D

 71 77  0  0  1  0  0  0  0  0999 V2000
    3.1006   -9.0713    2.0751 C   0  0  0  0  0  0  0  0  0  0  0  0
    3.0760   -7.6725    1.7736 O   0  0  0  0  0  0  0  0  0  0  0  0
    3.1199   -6.7898    2.8981 C   0  0  2  0  0  0  0  0  0  0  0  0
    1.6473   -6.8912    3.4347 C   0  0  0  0  0  0  0  0  0  0  0  0
    0.9724   -5.7824    4.2688 C   0  0  1  0  0  0  0  0  0  0  0  0
    0.8441   -6.1588    5.6276 O   0  0  0  0  0  0  0  0  0  0  0  0
    1.5611   -4.3682    4.0660 C   0  0  2  0  0  0  0  0  0  0  0  0
    0.5568   -3.3526    4.6751 C   0  0  0  0  0  0  0  0  0  0  0  0
    1.5898   -4.1488    2.5354 C   0  0  0  0  0  0  0  0  0  0  0  0
    2.8926   -4.3857    1.6735 C   0  0  2  0  0  0  0  0  0  0  0  0
    2.4625   -4.9829    0.2444 C   0  0  1  0  0  0  0  0  0  0  0  0
    1.4302   -5.9507    0.3438 O   0  0  0  0  0  0  0  0  0  0  0  0
    2.0664   -4.0178   -0.9257 C   0  0  0  0  0  0  0  0  0  0  0  0
    3.1946   -3.4221   -1.8101 C   0  0  1  0  0  0  0  0  0  0  0  0
    2.5853   -2.7595   -2.9025 O   0  0  0  0  0  0  0  0  0  0  0  0
    4.2610   -2.5175   -1.1374 C   0  0  1  0  0  0  0  0  0  0  0  0
    3.9821   -1.1296   -1.2181 O   0  0  0  0  0  0  0  0  0  0  0  0
    4.6202   -3.0346    0.2810 C   0  0  1  0  0  0  0  0  0  0  0  0
    5.9386   -2.6827    0.8865 C   0  0  1  0  0  0  0  0  0  0  0  0
    5.6680   -1.9289    2.1471 C   0  0  0  0  0  0  0  0  0  0  0  0
    4.4079   -2.5281    2.7235 C   0  0  2  0  0  0  0  0  0  0  0  0
    4.8800   -3.5054    3.6190 O   0  0  0  0  0  0  0  0  0  0  0  0
    4.1348   -4.6731    3.8379 C   0  0  1  0  0  0  0  0  0  0  0  0
    2.9445   -4.3007    4.7348 C   0  0  1  0  0  0  0  0  0  0  0  0
    3.1588   -3.0995    5.4674 O   0  0  0  0  0  0  0  0  0  0  0  0
    3.8427   -5.4091    2.4903 C   0  0  1  0  0  0  0  0  0  0  0  0
    5.3351   -5.8603    1.9259 C   0  0  1  0  0  0  0  0  0  0  0  0
    5.4893   -6.7182    0.6472 C   0  0  0  0  0  0  0  0  0  0  0  0
    6.6149   -4.9245    1.9036 C   0  0  0  0  0  0  0  0  0  0  0  0
    6.7023   -4.0012    0.7080 C   0  0  2  0  0  0  0  0  0  0  0  0
    7.3412   -2.7520    0.4996 O   0  0  0  0  0  0  0  0  0  0  0  0
    3.6093   -2.9648    1.4783 C   0  0  2  0  0  0  0  0  0  0  0  0
    2.7367   -1.6955    1.3356 C   0  0  0  0  0  0  0  0  0  0  0  0
    3.2592   -9.6414    1.1595 H   0  0  0  0  0  0  0  0  0  0  0  0
    2.1587   -9.4115    2.5037 H   0  0  0  0  0  0  0  0  0  0  0  0
    3.9098   -9.3294    2.7602 H   0  0  0  0  0  0  0  0  0  0  0  0
    3.7559   -7.2418    3.6676 H   0  0  0  0  0  0  0  0  0  0  0  0
    0.9963   -7.0499    2.5760 H   0  0  0  0  0  0  0  0  0  0  0  0
    1.5491   -7.8286    3.9825 H   0  0  0  0  0  0  0  0  0  0  0  0
   -0.0674   -5.7700    3.9332 H   0  0  0  0  0  0  0  0  0  0  0  0
    1.7016   -6.2662    5.9958 H   0  0  0  0  0  0  0  0  0  0  0  0
    0.8640   -2.3233    4.4961 H   0  0  0  0  0  0  0  0  0  0  0  0
    0.4533   -3.4848    5.7485 H   0  0  0  0  0  0  0  0  0  0  0  0
   -0.4359   -3.4451    4.2459 H   0  0  0  0  0  0  0  0  0  0  0  0
    0.7880   -4.7752    2.1854 H   0  0  0  0  0  0  0  0  0  0  0  0
    1.1637   -3.1771    2.3717 H   0  0  0  0  0  0  0  0  0  0  0  0
    3.2577   -5.5858   -0.1665 H   0  0  0  0  0  0  0  0  0  0  0  0
    1.8182   -6.7088    0.7541 H   0  0  0  0  0  0  0  0  0  0  0  0
    1.4377   -4.6107   -1.5948 H   0  0  0  0  0  0  0  0  0  0  0  0
    1.4131   -3.2184   -0.6351 H   0  0  0  0  0  0  0  0  0  0  0  0
    3.7574   -4.2372   -2.2266 H   0  0  0  0  0  0  0  0  0  0  0  0
    1.9064   -3.3081   -3.2379 H   0  0  0  0  0  0  0  0  0  0  0  0
    5.1532   -2.6360   -1.7521 H   0  0  0  0  0  0  0  0  0  0  0  0
    3.0638   -1.0090   -1.0268 H   0  0  0  0  0  0  0  0  0  0  0  0
    4.6601   -4.0792    0.0262 H   0  0  0  0  0  0  0  0  0  0  0  0
    6.4427   -2.0180    2.8633 H   0  0  0  0  0  0  0  0  0  0  0  0
    5.5450   -0.8702    1.8982 H   0  0  0  0  0  0  0  0  0  0  0  0
    3.9164   -1.7824    3.3493 H   0  0  0  0  0  0  0  0  0  0  0  0
    4.7807   -5.3100    4.4461 H   0  0  0  0  0  0  0  0  0  0  0  0
    2.9638   -5.0294    5.5376 H   0  0  0  0  0  0  0  0  0  0  0  0
    3.2479   -2.3925    4.8618 H   0  0  0  0  0  0  0  0  0  0  0  0
    5.6486   -6.5591    2.7065 H   0  0  0  0  0  0  0  0  0  0  0  0
    5.2084   -6.2150   -0.2724 H   0  0  0  0  0  0  0  0  0  0  0  0
    5.0340   -7.6984    0.6861 H   0  0  0  0  0  0  0  0  0  0  0  0
    6.5471   -6.9370    0.5062 H   0  0  0  0  0  0  0  0  0  0  0  0
    6.6845   -4.4269    2.8423 H   0  0  0  0  0  0  0  0  0  0  0  0
    7.5206   -5.5319    1.8704 H   0  0  0  0  0  0  0  0  0  0  0  0
    6.7075   -4.5052   -0.2481 H   0  0  0  0  0  0  0  0  0  0  0  0
    3.3403   -0.8079    1.1653 H   0  0  0  0  0  0  0  0  0  0  0  0
    2.1411   -1.4316    2.2080 H   0  0  0  0  0  0  0  0  0  0  0  0
    2.0882   -1.7849    0.5058 H   0  0  0  0  0  0  0  0  0  0  0  0
  1  2  1  0
  1 34  1  0
  1 35  1  0
  1 36  1  0
  2  3  1  0
  3 26  1  0
  3  4  1  0
  3 37  1  1
  4  5  1  0
  4 38  1  0
  4 39  1  0
  5  6  1  0
  5  7  1  0
  5 40  1  6
  6 41  1  0
  7 24  1  0
  7  8  1  1
  7  9  1  0
  8 42  1  0
  8 43  1  0
  8 44  1  0
 10  9  1  1
  9 45  1  0
  9 46  1  0
 26 10  1  6
 10 32  1  0
 10 11  1  0
 11 12  1  0
 11 13  1  0
 11 47  1  6
 12 48  1  0
 13 14  1  0
 13 49  1  0
 13 50  1  0
 14 15  1  0
 14 16  1  0
 14 51  1  6
 15 52  1  0
 16 17  1  0
 16 18  1  0
 16 53  1  6
 17 54  1  0
 18 32  1  0
 18 19  1  0
 18 55  1  6
 19 30  1  0
 19 31  1  6
 19 20  1  0
 20 21  1  0
 20 56  1  0
 20 57  1  0
 21 22  1  0
 21 32  1  0
 21 58  1  1
 22 23  1  0
 23 24  1  0
 23 26  1  0
 23 59  1  1
 24 25  1  0
 24 60  1  1
 25 61  1  0
 26 27  1  0
 27 28  1  0
 27 29  1  0
 27 62  1  1
 28 63  1  0
 28 64  1  0
 28 65  1  0
 29 30  1  0
 29 66  1  0
 29 67  1  0
 30 31  1  0
 30 68  1  6
 32 33  1  6
 33 69  1  0
 33 70  1  0
 33 71  1  0
M  END
>  <i_m_ct_stereo_status>  (245) 
1

>  <s_m_source_file>  (245) 
/var/tmp/pbs.5076255.sched01/tmp2a9bgmzv/100_xx7n39i.sdf

>  <i_m_source_file_index>  (245) 
17

>  <i_lp_mmshare_version>  (245) 
48012

>  <i_f3d_flags>  (245) 
0

>  <s_epik_input>  (245) 
W0NIM11PW0NAQEhdMVtDSDJdW0NAQEhdKFtPSF0pW0NAXShbQ0gzXSkoW0NIMl0yKVtDQEhdKFtPSF0pW0NAQEhdKFtDQF0xM1tDQF0yNDUpT1tDQEBIXTZbQ0BAXTUoW0NIM10pW0NAQEhdKFtDQEhdKFtPSF0pW0NASF0oW09IXSlbQ0gyXVtDQEBIXTRbT0hdKVtDQEBdNyhbQ0gyXTYpW0NIXShPNylbQ0gyXVtDQEBIXTNbQ0gzXQ==

>  <s_epik_cmdline>  (245) 
J2VwaWtfcHl0aG9uJywgJy1waHQnLCAnMi4wJywgJy1waCcsICc3LjAnLCAnLXRuJywgJzgnLCAnLW1hJywgJzIwMCcsICctaW1hZScsICc8aW5maWxlLm1hZT4nLCAnLW9tYWUnLCAnPG91dGZpbGUubWFlPic=

>  <r_lp_tautomer_probability>  (245) 
1

>  <r_epik_Ionization_Penalty>  (245) 
6.28163e-07

>  <r_epik_Ionization_Penalty_Charging>  (245) 
0

>  <r_epik_Ionization_Penalty_Neutral>  (245) 
6.28163e-07

>  <r_epik_State_Penalty>  (245) 
-0

>  <r_epik_Charging_Adjusted_Penalty>  (245) 
0

>  <i_epik_Tot_Q>  (245) 
0

>  <i_epik_Tot_abs_Q>  (245) 
0

>  <s_lp_Force_Field>  (245) 
OPLS3e

>  <r_lp_Energy>  (245) 
180.328

>  <b_lp_Chiralities_Consistent>  (245) 
1

>  <s_lp_Variant>  (245) 
55:0-2

>  <s_i_glide_gridfile>  (245) 
pfpi4k_grid

>  <i_i_glide_lignum>  (245) 
17

>  <i_i_glide_rotatable_bonds>  (245) 
6

>  <r_i_docking_score>  (245) 
-3.40715

>  <r_i_glide_ligand_efficiency>  (245) 
-0.103247

>  <r_i_glide_ligand_efficiency_sa>  (245) 
-0.331168

>  <r_i_glide_ligand_efficiency_ln>  (245) 
-0.757731

>  <r_i_glide_gscore>  (245) 
-3.40715

>  <r_i_glide_lipo>  (245) 
-0.542836

>  <r_i_glide_hbond>  (245) 
0

>  <r_i_glide_metal>  (245) 
-0

>  <r_i_glide_rewards>  (245) 
-0.72797

>  <r_i_glide_evdw>  (245) 
-16.2472

>  <r_i_glide_ecoul>  (245) 
-8.82654

>  <r_i_glide_erotb>  (245) 
0

>  <r_i_glide_esite>  (245) 
0

>  <r_i_glide_emodel>  (245) 
-34.8786

>  <r_i_glide_energy>  (245) 
-25.0737

>  <r_i_glide_einternal>  (245) 
1.18269

>  <r_i_glide_intrahb_reward>  (245) 
-0.5

>  <i_i_glide_confnum>  (245) 
2

>  <i_i_glide_posenum>  (245) 
37

>  <r_i_glide_eff_state_penalty>  (245) 
0

>  <ligand_id>  (245) 
55

>  <original_smiles>  (245) 
COC1CC(O)C2(C)CC34C(O)CC(O)C(O)C5C67CC(OC(C2O)C13C(C)CC6O7)C54C

>  <smiles>  (245) 
[H]OC1([H])C([H])([H])C([H])(O[H])C23C([H])([H])C4(C([H])([H])[H])C([H])(O[H])C([H])([H])C([H])(OC([H])([H])[H])C25C([H])(OC2([H])C([H])([H])C6(OC6([H])C([H])([H])C5([H])C([H])([H])[H])C([H])(C1([H])O[H])C23C([H])([H])[H])C4([H])O[H]

$$$$
56:0:0
     RDKit          3D

 26 29  0  0  1  0  0  0  0  0999 V2000
   -8.8973   -6.7858   -8.8389 O   0  0  0  0  0  0  0  0  0  0  0  0
   -8.2139   -7.1487   -7.8878 C   0  0  0  0  0  0  0  0  0  0  0  0
   -7.7087   -8.4970   -7.5846 C   0  0  0  0  0  0  0  0  0  0  0  0
   -8.1921   -9.7127   -7.7768 C   0  0  0  0  0  0  0  0  0  0  0  0
   -7.5515  -10.5602   -6.6932 C   0  0  1  0  0  0  0  0  0  0  0  0
   -6.3569  -11.1664   -7.1066 O   0  0  0  0  0  0  0  0  0  0  0  0
   -5.3977  -10.2415   -7.6480 C   0  0  0  0  0  0  0  0  0  0  0  0
   -5.3703   -8.8707   -6.9159 C   0  0  0  0  0  0  0  0  0  0  0  0
   -6.7705   -8.5059   -6.4386 C   0  0  2  0  0  0  0  0  0  0  0  0
   -7.2413   -9.6192   -5.6895 O   0  0  0  0  0  0  0  0  0  0  0  0
   -6.9396   -7.0989   -5.9126 C   0  0  0  0  0  0  0  0  0  0  0  0
   -6.3736   -6.5875   -4.7285 C   0  0  0  0  0  0  0  0  0  0  0  0
   -6.5860   -5.2226   -4.4469 C   0  0  0  0  0  0  0  0  0  0  0  0
   -7.3186   -4.4092   -5.3362 C   0  0  0  0  0  0  0  0  0  0  0  0
   -7.8890   -4.9335   -6.5226 C   0  0  0  0  0  0  0  0  0  0  0  0
   -7.7007   -6.3080   -6.7837 C   0  0  0  0  0  0  0  0  0  0  0  0
   -9.0216  -10.0300   -8.4029 H   0  0  0  0  0  0  0  0  0  0  0  0
   -8.2448  -11.2986   -6.2975 H   0  0  0  0  0  0  0  0  0  0  0  0
   -4.4012  -10.6904   -7.6326 H   0  0  0  0  0  0  0  0  0  0  0  0
   -5.6593  -10.0878   -8.6979 H   0  0  0  0  0  0  0  0  0  0  0  0
   -4.6866   -8.8908   -6.0690 H   0  0  0  0  0  0  0  0  0  0  0  0
   -5.0112   -8.1105   -7.6064 H   0  0  0  0  0  0  0  0  0  0  0  0
   -5.8164   -7.2348   -4.0638 H   0  0  0  0  0  0  0  0  0  0  0  0
   -6.1844   -4.8006   -3.5341 H   0  0  0  0  0  0  0  0  0  0  0  0
   -7.4441   -3.3606   -5.0920 H   0  0  0  0  0  0  0  0  0  0  0  0
   -8.4355   -4.3046   -7.2135 H   0  0  0  0  0  0  0  0  0  0  0  0
  1  2  2  0
  2 16  1  0
  2  3  1  0
  3  9  1  0
  3  4  2  0
  4  5  1  0
  4 17  1  0
  5 10  1  0
  5  6  1  0
  5 18  1  1
  6  7  1  0
  7  8  1  0
  7 19  1  0
  7 20  1  0
  9  8  1  6
  8 21  1  0
  8 22  1  0
  9 10  1  0
  9 11  1  0
 11 16  2  0
 11 12  1  0
 12 13  2  0
 12 23  1  0
 13 14  1  0
 13 24  1  0
 14 15  2  0
 14 25  1  0
 15 16  1  0
 15 26  1  0
M  END
>  <i_m_ct_stereo_status>  (246) 
1

>  <s_m_source_file>  (246) 
/var/tmp/pbs.5076255.sched01/tmp2a9bgmzv/100_xx7n39i.sdf

>  <i_m_source_file_index>  (246) 
18

>  <i_lp_mmshare_version>  (246) 
48012

>  <i_f3d_flags>  (246) 
0

>  <s_epik_input>  (246) 
W2NIXTFbY0hdW2NIXVtjSF1jMmMxQyg9TylDKFtDQF0yMzQpPVtDSF1bQ0BIXShPNClPW0NIMl1bQ0gyXTM=

>  <s_epik_cmdline>  (246) 
J2VwaWtfcHl0aG9uJywgJy1waHQnLCAnMi4wJywgJy1waCcsICc3LjAnLCAnLXRuJywgJzgnLCAnLW1hJywgJzIwMCcsICctaW1hZScsICc8aW5maWxlLm1hZT4nLCAnLW9tYWUnLCAnPG91dGZpbGUubWFlPic=

>  <r_lp_tautomer_probability>  (246) 
1

>  <r_epik_Ionization_Penalty>  (246) 
1.31558e-15

>  <r_epik_Ionization_Penalty_Charging>  (246) 
0

>  <r_epik_Ionization_Penalty_Neutral>  (246) 
1.31558e-15

>  <r_epik_State_Penalty>  (246) 
-0

>  <r_epik_Charging_Adjusted_Penalty>  (246) 
0

>  <i_epik_Tot_Q>  (246) 
0

>  <i_epik_Tot_abs_Q>  (246) 
0

>  <s_epik_Chemistry_Notes>  (246) 
This compound contains an acetal/aminal-like group ( X-CH(R)-Y where X, Y are N, S, or O) that may be acid/base labile, releasing an aldehyde.

>  <s_lp_Force_Field>  (246) 
OPLS3e

>  <r_lp_Energy>  (246) 
23.1469

>  <b_lp_Chiralities_Consistent>  (246) 
1

>  <s_lp_Variant>  (246) 
56:0-1

>  <s_i_glide_gridfile>  (246) 
pfpi4k_grid

>  <i_i_glide_lignum>  (246) 
18

>  <i_i_glide_rotatable_bonds>  (246) 
0

>  <r_i_docking_score>  (246) 
-6.62428

>  <r_i_glide_ligand_efficiency>  (246) 
-0.414018

>  <r_i_glide_ligand_efficiency_sa>  (246) 
-1.04326

>  <r_i_glide_ligand_efficiency_ln>  (246) 
-1.7559

>  <r_i_glide_gscore>  (246) 
-6.62428

>  <r_i_glide_lipo>  (246) 
-2.48096

>  <r_i_glide_hbond>  (246) 
0

>  <r_i_glide_metal>  (246) 
-0

>  <r_i_glide_rewards>  (246) 
-2.97199

>  <r_i_glide_evdw>  (246) 
-23.4869

>  <r_i_glide_ecoul>  (246) 
0.02014

>  <r_i_glide_erotb>  (246) 
0

>  <r_i_glide_esite>  (246) 
0

>  <r_i_glide_emodel>  (246) 
-33.6209

>  <r_i_glide_energy>  (246) 
-23.4668

>  <r_i_glide_einternal>  (246) 
0

>  <r_i_glide_intrahb_reward>  (246) 
-0

>  <i_i_glide_confnum>  (246) 
1

>  <i_i_glide_posenum>  (246) 
2

>  <r_i_glide_eff_state_penalty>  (246) 
0

>  <ligand_id>  (246) 
56

>  <original_smiles>  (246) 
O=C1C2=CC3OCCC2(O3)c2ccccc21

>  <smiles>  (246) 
[H]C1=C2C(=O)c3c([H])c([H])c([H])c([H])c3C23OC1([H])OC([H])([H])C3([H])[H]

$$$$
56:0:1
     RDKit          3D

 26 29  0  0  1  0  0  0  0  0999 V2000
    3.3444   -4.9791    1.0828 O   0  0  0  0  0  0  0  0  0  0  0  0
    3.9238   -3.9231    0.8405 C   0  0  0  0  0  0  0  0  0  0  0  0
    4.4920   -3.4889   -0.4354 C   0  0  0  0  0  0  0  0  0  0  0  0
    5.0236   -4.1095   -1.4764 C   0  0  0  0  0  0  0  0  0  0  0  0
    5.9178   -3.0642   -2.1290 C   0  0  1  0  0  0  0  0  0  0  0  0
    5.2582   -2.3600   -3.1374 O   0  0  0  0  0  0  0  0  0  0  0  0
    4.0164   -1.7528   -2.7349 C   0  0  0  0  0  0  0  0  0  0  0  0
    4.0622   -1.2045   -1.2855 C   0  0  0  0  0  0  0  0  0  0  0  0
    4.9620   -2.0872   -0.4093 C   0  0  2  0  0  0  0  0  0  0  0  0
    6.2145   -2.1679   -1.0786 O   0  0  0  0  0  0  0  0  0  0  0  0
    4.9213   -1.8045    1.0707 C   0  0  0  0  0  0  0  0  0  0  0  0
    5.4071   -0.6613    1.7234 C   0  0  0  0  0  0  0  0  0  0  0  0
    5.1728   -0.5366    3.1085 C   0  0  0  0  0  0  0  0  0  0  0  0
    4.4552   -1.5347    3.8135 C   0  0  0  0  0  0  0  0  0  0  0  0
    3.9862   -2.6990    3.1492 C   0  0  0  0  0  0  0  0  0  0  0  0
    4.2442   -2.8167    1.7679 C   0  0  0  0  0  0  0  0  0  0  0  0
    5.0230   -5.1573   -1.7335 H   0  0  0  0  0  0  0  0  0  0  0  0
    6.8421   -3.4982   -2.5099 H   0  0  0  0  0  0  0  0  0  0  0  0
    3.7689   -0.9471   -3.4268 H   0  0  0  0  0  0  0  0  0  0  0  0
    3.2259   -2.5048   -2.8348 H   0  0  0  0  0  0  0  0  0  0  0  0
    4.4494   -0.1912   -1.2655 H   0  0  0  0  0  0  0  0  0  0  0  0
    3.0537   -1.1930   -0.8815 H   0  0  0  0  0  0  0  0  0  0  0  0
    5.9329    0.0908    1.1559 H   0  0  0  0  0  0  0  0  0  0  0  0
    5.5481    0.3283    3.6308 H   0  0  0  0  0  0  0  0  0  0  0  0
    4.2709   -1.4040    4.8688 H   0  0  0  0  0  0  0  0  0  0  0  0
    3.4369   -3.4601    3.6826 H   0  0  0  0  0  0  0  0  0  0  0  0
  1  2  2  0
  2 16  1  0
  2  3  1  0
  3  9  1  0
  3  4  2  0
  4  5  1  0
  4 17  1  0
  5 10  1  0
  5  6  1  0
  5 18  1  6
  6  7  1  0
  7  8  1  0
  7 19  1  0
  7 20  1  0
  9  8  1  6
  8 21  1  0
  8 22  1  0
  9 10  1  0
  9 11  1  0
 11 16  2  0
 11 12  1  0
 12 13  2  0
 12 23  1  0
 13 14  1  0
 13 24  1  0
 14 15  2  0
 14 25  1  0
 15 16  1  0
 15 26  1  0
M  END
>  <i_m_ct_stereo_status>  (247) 
1

>  <s_m_source_file>  (247) 
/var/tmp/pbs.5076255.sched01/tmp2a9bgmzv/100_xx7n39i.sdf

>  <i_m_source_file_index>  (247) 
18

>  <i_lp_mmshare_version>  (247) 
48012

>  <i_f3d_flags>  (247) 
0

>  <s_epik_input>  (247) 
W2NIXTFbY0hdW2NIXVtjSF1jMmMxQyg9TylDKFtDQF0yMzQpPVtDSF1bQ0BIXShPNClPW0NIMl1bQ0gyXTM=

>  <s_epik_cmdline>  (247) 
J2VwaWtfcHl0aG9uJywgJy1waHQnLCAnMi4wJywgJy1waCcsICc3LjAnLCAnLXRuJywgJzgnLCAnLW1hJywgJzIwMCcsICctaW1hZScsICc8aW5maWxlLm1hZT4nLCAnLW9tYWUnLCAnPG91dGZpbGUubWFlPic=

>  <r_lp_tautomer_probability>  (247) 
1

>  <r_epik_Ionization_Penalty>  (247) 
1.31558e-15

>  <r_epik_Ionization_Penalty_Charging>  (247) 
0

>  <r_epik_Ionization_Penalty_Neutral>  (247) 
1.31558e-15

>  <r_epik_State_Penalty>  (247) 
-0

>  <r_epik_Charging_Adjusted_Penalty>  (247) 
0

>  <i_epik_Tot_Q>  (247) 
0

>  <i_epik_Tot_abs_Q>  (247) 
0

>  <s_epik_Chemistry_Notes>  (247) 
This compound contains an acetal/aminal-like group ( X-CH(R)-Y where X, Y are N, S, or O) that may be acid/base labile, releasing an aldehyde.

>  <s_lp_Force_Field>  (247) 
OPLS3e

>  <r_lp_Energy>  (247) 
23.1469

>  <b_lp_Chiralities_Consistent>  (247) 
1

>  <s_lp_Variant>  (247) 
56:0-1

>  <s_i_glide_gridfile>  (247) 
pfpi4k_grid

>  <i_i_glide_lignum>  (247) 
18

>  <i_i_glide_rotatable_bonds>  (247) 
0

>  <r_i_docking_score>  (247) 
-4.02106

>  <r_i_glide_ligand_efficiency>  (247) 
-0.251316

>  <r_i_glide_ligand_efficiency_sa>  (247) 
-0.633277

>  <r_i_glide_ligand_efficiency_ln>  (247) 
-1.06586

>  <r_i_glide_gscore>  (247) 
-4.02106

>  <r_i_glide_lipo>  (247) 
-0.366188

>  <r_i_glide_hbond>  (247) 
-0.0631922

>  <r_i_glide_metal>  (247) 
-0

>  <r_i_glide_rewards>  (247) 
-2.16671

>  <r_i_glide_evdw>  (247) 
-18.7867

>  <r_i_glide_ecoul>  (247) 
-3.23757

>  <r_i_glide_erotb>  (247) 
0

>  <r_i_glide_esite>  (247) 
0

>  <r_i_glide_emodel>  (247) 
-28.072

>  <r_i_glide_energy>  (247) 
-22.0243

>  <r_i_glide_einternal>  (247) 
0

>  <r_i_glide_intrahb_reward>  (247) 
-0

>  <i_i_glide_confnum>  (247) 
1

>  <i_i_glide_posenum>  (247) 
1

>  <r_i_glide_eff_state_penalty>  (247) 
0

>  <ligand_id>  (247) 
56

>  <original_smiles>  (247) 
O=C1C2=CC3OCCC2(O3)c2ccccc21

>  <smiles>  (247) 
[H]C1=C2C(=O)c3c([H])c([H])c([H])c([H])c3C23OC1([H])OC([H])([H])C3([H])[H]

$$$$
56:0:2
     RDKit          3D

 26 29  0  0  1  0  0  0  0  0999 V2000
    2.5311   -4.7146    0.7917 O   0  0  0  0  0  0  0  0  0  0  0  0
    3.0894   -3.6608    0.4996 C   0  0  0  0  0  0  0  0  0  0  0  0
    4.0151   -3.4113   -0.6040 C   0  0  0  0  0  0  0  0  0  0  0  0
    4.9005   -4.1535   -1.2527 C   0  0  0  0  0  0  0  0  0  0  0  0
    5.8850   -3.1438   -1.8280 C   0  0  1  0  0  0  0  0  0  0  0  0
    5.5473   -2.7544   -3.1243 O   0  0  0  0  0  0  0  0  0  0  0  0
    4.2029   -2.2602   -3.2781 C   0  0  0  0  0  0  0  0  0  0  0  0
    3.7322   -1.4246   -2.0590 C   0  0  0  0  0  0  0  0  0  0  0  0
    4.3547   -1.9811   -0.7670 C   0  0  2  0  0  0  0  0  0  0  0  0
    5.7594   -2.0212   -0.9810 O   0  0  0  0  0  0  0  0  0  0  0  0
    3.8121   -1.4240    0.5249 C   0  0  0  0  0  0  0  0  0  0  0  0
    3.9748   -0.1205    1.0080 C   0  0  0  0  0  0  0  0  0  0  0  0
    3.2852    0.2478    2.1775 C   0  0  0  0  0  0  0  0  0  0  0  0
    2.4454   -0.6767    2.8414 C   0  0  0  0  0  0  0  0  0  0  0  0
    2.3023   -2.0023    2.3602 C   0  0  0  0  0  0  0  0  0  0  0  0
    3.0141   -2.3619    1.1964 C   0  0  0  0  0  0  0  0  0  0  0  0
    5.0327   -5.2254   -1.2515 H   0  0  0  0  0  0  0  0  0  0  0  0
    6.9137   -3.5055   -1.8026 H   0  0  0  0  0  0  0  0  0  0  0  0
    4.1425   -1.6562   -4.1842 H   0  0  0  0  0  0  0  0  0  0  0  0
    3.5395   -3.1180   -3.4329 H   0  0  0  0  0  0  0  0  0  0  0  0
    4.0103   -0.3781   -2.1709 H   0  0  0  0  0  0  0  0  0  0  0  0
    2.6471   -1.4750   -1.9974 H   0  0  0  0  0  0  0  0  0  0  0  0
    4.6072    0.5752    0.4760 H   0  0  0  0  0  0  0  0  0  0  0  0
    3.4023    1.2502    2.5614 H   0  0  0  0  0  0  0  0  0  0  0  0
    1.9068   -0.3595    3.7247 H   0  0  0  0  0  0  0  0  0  0  0  0
    1.6532   -2.7077    2.8594 H   0  0  0  0  0  0  0  0  0  0  0  0
  1  2  2  0
  2 16  1  0
  2  3  1  0
  3  9  1  0
  3  4  2  0
  4  5  1  0
  4 17  1  0
  5 10  1  0
  5  6  1  0
  5 18  1  6
  6  7  1  0
  7  8  1  0
  7 19  1  0
  7 20  1  0
  9  8  1  6
  8 21  1  0
  8 22  1  0
  9 10  1  0
  9 11  1  0
 11 16  2  0
 11 12  1  0
 12 13  2  0
 12 23  1  0
 13 14  1  0
 13 24  1  0
 14 15  2  0
 14 25  1  0
 15 16  1  0
 15 26  1  0
M  END
>  <i_m_ct_stereo_status>  (248) 
1

>  <s_m_source_file>  (248) 
/var/tmp/pbs.5076255.sched01/tmp2a9bgmzv/100_xx7n39i.sdf

>  <i_m_source_file_index>  (248) 
18

>  <i_lp_mmshare_version>  (248) 
48012

>  <i_f3d_flags>  (248) 
0

>  <s_epik_input>  (248) 
W2NIXTFbY0hdW2NIXVtjSF1jMmMxQyg9TylDKFtDQF0yMzQpPVtDSF1bQ0BIXShPNClPW0NIMl1bQ0gyXTM=

>  <s_epik_cmdline>  (248) 
J2VwaWtfcHl0aG9uJywgJy1waHQnLCAnMi4wJywgJy1waCcsICc3LjAnLCAnLXRuJywgJzgnLCAnLW1hJywgJzIwMCcsICctaW1hZScsICc8aW5maWxlLm1hZT4nLCAnLW9tYWUnLCAnPG91dGZpbGUubWFlPic=

>  <r_lp_tautomer_probability>  (248) 
1

>  <r_epik_Ionization_Penalty>  (248) 
1.31558e-15

>  <r_epik_Ionization_Penalty_Charging>  (248) 
0

>  <r_epik_Ionization_Penalty_Neutral>  (248) 
1.31558e-15

>  <r_epik_State_Penalty>  (248) 
-0

>  <r_epik_Charging_Adjusted_Penalty>  (248) 
0

>  <i_epik_Tot_Q>  (248) 
0

>  <i_epik_Tot_abs_Q>  (248) 
0

>  <s_epik_Chemistry_Notes>  (248) 
This compound contains an acetal/aminal-like group ( X-CH(R)-Y where X, Y are N, S, or O) that may be acid/base labile, releasing an aldehyde.

>  <s_lp_Force_Field>  (248) 
OPLS3e

>  <r_lp_Energy>  (248) 
23.1469

>  <b_lp_Chiralities_Consistent>  (248) 
1

>  <s_lp_Variant>  (248) 
56:0-1

>  <s_i_glide_gridfile>  (248) 
pfpi4k_grid

>  <i_i_glide_lignum>  (248) 
18

>  <i_i_glide_rotatable_bonds>  (248) 
0

>  <r_i_docking_score>  (248) 
-3.91627

>  <r_i_glide_ligand_efficiency>  (248) 
-0.244767

>  <r_i_glide_ligand_efficiency_sa>  (248) 
-0.616775

>  <r_i_glide_ligand_efficiency_ln>  (248) 
-1.03809

>  <r_i_glide_gscore>  (248) 
-3.91627

>  <r_i_glide_lipo>  (248) 
-0.306297

>  <r_i_glide_hbond>  (248) 
0

>  <r_i_glide_metal>  (248) 
-0

>  <r_i_glide_rewards>  (248) 
-2.12069

>  <r_i_glide_evdw>  (248) 
-21.098

>  <r_i_glide_ecoul>  (248) 
-2.82245

>  <r_i_glide_erotb>  (248) 
0

>  <r_i_glide_esite>  (248) 
-0.0110158

>  <r_i_glide_emodel>  (248) 
-29.7953

>  <r_i_glide_energy>  (248) 
-23.9204

>  <r_i_glide_einternal>  (248) 
0

>  <r_i_glide_intrahb_reward>  (248) 
-0

>  <i_i_glide_confnum>  (248) 
2

>  <i_i_glide_posenum>  (248) 
36

>  <r_i_glide_eff_state_penalty>  (248) 
0

>  <ligand_id>  (248) 
56

>  <original_smiles>  (248) 
O=C1C2=CC3OCCC2(O3)c2ccccc21

>  <smiles>  (248) 
[H]C1=C2C(=O)c3c([H])c([H])c([H])c([H])c3C23OC1([H])OC([H])([H])C3([H])[H]

$$$$
57:0:0
     RDKit          3D

 36 38  0  0  1  0  0  0  0  0999 V2000
    7.0450   -6.3926    4.2311 C   0  0  0  0  0  0  0  0  0  0  0  0
    6.9309   -7.3114    2.9996 C   0  0  0  0  0  0  0  0  0  0  0  0
    7.4720   -8.7166    3.2964 C   0  0  0  0  0  0  0  0  0  0  0  0
    5.4804   -7.3831    2.5444 C   0  0  0  0  0  0  0  0  0  0  0  0
    5.0031   -6.5268    1.6315 C   0  0  0  0  0  0  0  0  0  0  0  0
    5.8974   -5.5161    1.0529 C   0  0  0  0  0  0  0  0  0  0  0  0
    7.2893   -5.6844    1.2716 C   0  0  0  0  0  0  0  0  0  0  0  0
    8.2120   -4.7690    0.7417 C   0  0  0  0  0  0  0  0  0  0  0  0
    7.7618   -3.6551    0.0156 C   0  0  0  0  0  0  0  0  0  0  0  0
    6.3837   -3.4711   -0.2046 C   0  0  0  0  0  0  0  0  0  0  0  0
    5.4411   -4.3850    0.3356 C   0  0  0  0  0  0  0  0  0  0  0  0
    4.0205   -4.1141    0.0803 C   0  0  0  0  0  0  0  0  0  0  0  0
    3.6807   -3.2106   -0.8480 C   0  0  0  0  0  0  0  0  0  0  0  0
    4.7461   -2.4884   -1.6573 C   0  0  0  0  0  0  0  0  0  0  0  0
    5.0434   -3.2755   -2.9457 C   0  0  0  0  0  0  0  0  0  0  0  0
    4.2987   -1.0554   -1.9651 C   0  0  0  0  0  0  0  0  0  0  0  0
    5.9861   -2.3775   -0.9427 O   0  0  0  0  0  0  0  0  0  0  0  0
    7.7791   -6.7568    1.9867 O   0  0  0  0  0  0  0  0  0  0  0  0
    6.4665   -6.7712    5.0737 H   0  0  0  0  0  0  0  0  0  0  0  0
    6.6701   -5.3952    3.9957 H   0  0  0  0  0  0  0  0  0  0  0  0
    8.0856   -6.2801    4.5427 H   0  0  0  0  0  0  0  0  0  0  0  0
    6.9132   -9.2039    4.0945 H   0  0  0  0  0  0  0  0  0  0  0  0
    8.5202   -8.6781    3.5951 H   0  0  0  0  0  0  0  0  0  0  0  0
    7.4097   -9.3530    2.4114 H   0  0  0  0  0  0  0  0  0  0  0  0
    4.8557   -8.1507    2.9790 H   0  0  0  0  0  0  0  0  0  0  0  0
    3.9802   -6.5890    1.2940 H   0  0  0  0  0  0  0  0  0  0  0  0
    9.2677   -4.9253    0.9025 H   0  0  0  0  0  0  0  0  0  0  0  0
    8.4737   -2.9491   -0.3879 H   0  0  0  0  0  0  0  0  0  0  0  0
    3.2694   -4.6207    0.6661 H   0  0  0  0  0  0  0  0  0  0  0  0
    2.6467   -2.9654   -1.0491 H   0  0  0  0  0  0  0  0  0  0  0  0
    4.1607   -3.3626   -3.5802 H   0  0  0  0  0  0  0  0  0  0  0  0
    5.3736   -4.2863   -2.6995 H   0  0  0  0  0  0  0  0  0  0  0  0
    5.8472   -2.8074   -3.5150 H   0  0  0  0  0  0  0  0  0  0  0  0
    3.3769   -1.0347   -2.5467 H   0  0  0  0  0  0  0  0  0  0  0  0
    5.0594   -0.5132   -2.5257 H   0  0  0  0  0  0  0  0  0  0  0  0
    4.1240   -0.5043   -1.0403 H   0  0  0  0  0  0  0  0  0  0  0  0
  1  2  1  0
  1 19  1  0
  1 20  1  0
  1 21  1  0
  2 18  1  0
  2  3  1  0
  2  4  1  0
  3 22  1  0
  3 23  1  0
  3 24  1  0
  4  5  2  0
  4 25  1  0
  5  6  1  0
  5 26  1  0
  6 11  2  0
  6  7  1  0
  7  8  2  0
  7 18  1  0
  8  9  1  0
  8 27  1  0
  9 10  2  0
  9 28  1  0
 10 17  1  0
 10 11  1  0
 11 12  1  0
 12 13  2  0
 12 29  1  0
 13 14  1  0
 13 30  1  0
 14 15  1  0
 14 16  1  0
 14 17  1  0
 15 31  1  0
 15 32  1  0
 15 33  1  0
 16 34  1  0
 16 35  1  0
 16 36  1  0
M  END
>  <i_m_ct_stereo_status>  (249) 
1

>  <s_m_source_file>  (249) 
/var/tmp/pbs.5076255.sched01/tmp2a9bgmzv/100_xx7n39i.sdf

>  <i_m_source_file_index>  (249) 
19

>  <i_lp_mmshare_version>  (249) 
48012

>  <i_f3d_flags>  (249) 
0

>  <s_epik_input>  (249) 
W0NIXTE9W0NIXUMoW0NIM10pKFtDSDNdKU9jKGMxMilbY0hdW2NIXWMzYzJbQ0hdPVtDSF1DKE8zKShbQ0gzXSlbQ0gzXQ==

>  <s_epik_cmdline>  (249) 
J2VwaWtfcHl0aG9uJywgJy1waHQnLCAnMi4wJywgJy1waCcsICc3LjAnLCAnLXRuJywgJzgnLCAnLW1hJywgJzIwMCcsICctaW1hZScsICc8aW5maWxlLm1hZT4nLCAnLW9tYWUnLCAnPG91dGZpbGUubWFlPic=

>  <r_lp_tautomer_probability>  (249) 
1

>  <r_epik_Ionization_Penalty>  (249) 
0

>  <r_epik_Ionization_Penalty_Charging>  (249) 
0

>  <r_epik_Ionization_Penalty_Neutral>  (249) 
0

>  <r_epik_State_Penalty>  (249) 
-0

>  <r_epik_Charging_Adjusted_Penalty>  (249) 
0

>  <i_epik_Tot_Q>  (249) 
0

>  <i_epik_Tot_abs_Q>  (249) 
0

>  <s_lp_Force_Field>  (249) 
OPLS3e

>  <r_lp_Energy>  (249) 
35.4989

>  <b_lp_Chiralities_Consistent>  (249) 
1

>  <s_lp_Variant>  (249) 
57:0-1

>  <s_i_glide_gridfile>  (249) 
pfpi4k_grid

>  <i_i_glide_lignum>  (249) 
19

>  <i_i_glide_rotatable_bonds>  (249) 
0

>  <r_i_docking_score>  (249) 
-3.91135

>  <r_i_glide_ligand_efficiency>  (249) 
-0.217297

>  <r_i_glide_ligand_efficiency_sa>  (249) 
-0.569479

>  <r_i_glide_ligand_efficiency_ln>  (249) 
-1.00539

>  <r_i_glide_gscore>  (249) 
-3.91135

>  <r_i_glide_lipo>  (249) 
-0.97333

>  <r_i_glide_hbond>  (249) 
0

>  <r_i_glide_metal>  (249) 
-0

>  <r_i_glide_rewards>  (249) 
-1.75696

>  <r_i_glide_evdw>  (249) 
-23.1519

>  <r_i_glide_ecoul>  (249) 
-0.156438

>  <r_i_glide_erotb>  (249) 
0

>  <r_i_glide_esite>  (249) 
0

>  <r_i_glide_emodel>  (249) 
-28.6615

>  <r_i_glide_energy>  (249) 
-23.3083

>  <r_i_glide_einternal>  (249) 
0

>  <r_i_glide_intrahb_reward>  (249) 
-0

>  <i_i_glide_confnum>  (249) 
2

>  <i_i_glide_posenum>  (249) 
7

>  <r_i_glide_eff_state_penalty>  (249) 
0

>  <ligand_id>  (249) 
57

>  <original_smiles>  (249) 
CC1(C)C=Cc2c(ccc3c2C=CC(C)(C)O3)O1

>  <smiles>  (249) 
[H]C1=C([H])C(C([H])([H])[H])(C([H])([H])[H])Oc2c([H])c([H])c3c(c21)C([H])=C([H])C(C([H])([H])[H])(C([H])([H])[H])O3

$$$$
57:0:1
     RDKit          3D

 36 38  0  0  1  0  0  0  0  0999 V2000
    5.2192   -4.4144    4.2581 C   0  0  0  0  0  0  0  0  0  0  0  0
    5.1757   -5.6759    3.3776 C   0  0  0  0  0  0  0  0  0  0  0  0
    5.5337   -6.9345    4.1834 C   0  0  0  0  0  0  0  0  0  0  0  0
    3.7977   -5.8168    2.7495 C   0  0  0  0  0  0  0  0  0  0  0  0
    3.5309   -5.2806    1.5474 C   0  0  0  0  0  0  0  0  0  0  0  0
    4.5924   -4.5673    0.8264 C   0  0  0  0  0  0  0  0  0  0  0  0
    5.9205   -4.7312    1.2990 C   0  0  0  0  0  0  0  0  0  0  0  0
    6.9925   -4.0939    0.6510 C   0  0  0  0  0  0  0  0  0  0  0  0
    6.7518   -3.2550   -0.4504 C   0  0  0  0  0  0  0  0  0  0  0  0
    5.4413   -3.0763   -0.9246 C   0  0  0  0  0  0  0  0  0  0  0  0
    4.3492   -3.7083   -0.2713 C   0  0  0  0  0  0  0  0  0  0  0  0
    3.0117   -3.4555   -0.8130 C   0  0  0  0  0  0  0  0  0  0  0  0
    2.8860   -2.8998   -2.0251 C   0  0  0  0  0  0  0  0  0  0  0  0
    4.1102   -2.5326   -2.8457 C   0  0  0  0  0  0  0  0  0  0  0  0
    4.4977   -3.7149   -3.7496 C   0  0  0  0  0  0  0  0  0  0  0  0
    3.8395   -1.2574   -3.6587 C   0  0  0  0  0  0  0  0  0  0  0  0
    5.2506   -2.2591   -2.0185 O   0  0  0  0  0  0  0  0  0  0  0  0
    6.2028   -5.5278    2.3878 O   0  0  0  0  0  0  0  0  0  0  0  0
    4.4975   -4.4618    5.0717 H   0  0  0  0  0  0  0  0  0  0  0  0
    4.9922   -3.5288    3.6624 H   0  0  0  0  0  0  0  0  0  0  0  0
    6.2127   -4.2720    4.6852 H   0  0  0  0  0  0  0  0  0  0  0  0
    4.8299   -7.1011    4.9980 H   0  0  0  0  0  0  0  0  0  0  0  0
    6.5311   -6.8535    4.6164 H   0  0  0  0  0  0  0  0  0  0  0  0
    5.5249   -7.8214    3.5488 H   0  0  0  0  0  0  0  0  0  0  0  0
    3.0509   -6.3657    3.3038 H   0  0  0  0  0  0  0  0  0  0  0  0
    2.5618   -5.3954    1.0908 H   0  0  0  0  0  0  0  0  0  0  0  0
    8.0016   -4.2431    1.0080 H   0  0  0  0  0  0  0  0  0  0  0  0
    7.5776   -2.7600   -0.9416 H   0  0  0  0  0  0  0  0  0  0  0  0
    2.1446   -3.6961   -0.2208 H   0  0  0  0  0  0  0  0  0  0  0  0
    1.9129   -2.6844   -2.4435 H   0  0  0  0  0  0  0  0  0  0  0  0
    3.6966   -3.9571   -4.4437 H   0  0  0  0  0  0  0  0  0  0  0  0
    4.6898   -4.6054   -3.1490 H   0  0  0  0  0  0  0  0  0  0  0  0
    5.4094   -3.5160   -4.3085 H   0  0  0  0  0  0  0  0  0  0  0  0
    3.0093   -1.3892   -4.3516 H   0  0  0  0  0  0  0  0  0  0  0  0
    4.7142   -0.9738   -4.2406 H   0  0  0  0  0  0  0  0  0  0  0  0
    3.5963   -0.4204   -3.0020 H   0  0  0  0  0  0  0  0  0  0  0  0
  1  2  1  0
  1 19  1  0
  1 20  1  0
  1 21  1  0
  2 18  1  0
  2  3  1  0
  2  4  1  0
  3 22  1  0
  3 23  1  0
  3 24  1  0
  4  5  2  0
  4 25  1  0
  5  6  1  0
  5 26  1  0
  6 11  2  0
  6  7  1  0
  7  8  2  0
  7 18  1  0
  8  9  1  0
  8 27  1  0
  9 10  2  0
  9 28  1  0
 10 17  1  0
 10 11  1  0
 11 12  1  0
 12 13  2  0
 12 29  1  0
 13 14  1  0
 13 30  1  0
 14 15  1  0
 14 16  1  0
 14 17  1  0
 15 31  1  0
 15 32  1  0
 15 33  1  0
 16 34  1  0
 16 35  1  0
 16 36  1  0
M  END
>  <i_m_ct_stereo_status>  (250) 
1

>  <s_m_source_file>  (250) 
/var/tmp/pbs.5076255.sched01/tmp2a9bgmzv/100_xx7n39i.sdf

>  <i_m_source_file_index>  (250) 
19

>  <i_lp_mmshare_version>  (250) 
48012

>  <i_f3d_flags>  (250) 
0

>  <s_epik_input>  (250) 
W0NIXTE9W0NIXUMoW0NIM10pKFtDSDNdKU9jKGMxMilbY0hdW2NIXWMzYzJbQ0hdPVtDSF1DKE8zKShbQ0gzXSlbQ0gzXQ==

>  <s_epik_cmdline>  (250) 
J2VwaWtfcHl0aG9uJywgJy1waHQnLCAnMi4wJywgJy1waCcsICc3LjAnLCAnLXRuJywgJzgnLCAnLW1hJywgJzIwMCcsICctaW1hZScsICc8aW5maWxlLm1hZT4nLCAnLW9tYWUnLCAnPG91dGZpbGUubWFlPic=

>  <r_lp_tautomer_probability>  (250) 
1

>  <r_epik_Ionization_Penalty>  (250) 
0

>  <r_epik_Ionization_Penalty_Charging>  (250) 
0

>  <r_epik_Ionization_Penalty_Neutral>  (250) 
0

>  <r_epik_State_Penalty>  (250) 
-0

>  <r_epik_Charging_Adjusted_Penalty>  (250) 
0

>  <i_epik_Tot_Q>  (250) 
0

>  <i_epik_Tot_abs_Q>  (250) 
0

>  <s_lp_Force_Field>  (250) 
OPLS3e

>  <r_lp_Energy>  (250) 
35.4989

>  <b_lp_Chiralities_Consistent>  (250) 
1

>  <s_lp_Variant>  (250) 
57:0-1

>  <s_i_glide_gridfile>  (250) 
pfpi4k_grid

>  <i_i_glide_lignum>  (250) 
19

>  <i_i_glide_rotatable_bonds>  (250) 
0

>  <r_i_docking_score>  (250) 
-3.65132

>  <r_i_glide_ligand_efficiency>  (250) 
-0.202851

>  <r_i_glide_ligand_efficiency_sa>  (250) 
-0.531621

>  <r_i_glide_ligand_efficiency_ln>  (250) 
-0.938554

>  <r_i_glide_gscore>  (250) 
-3.65132

>  <r_i_glide_lipo>  (250) 
-0.835136

>  <r_i_glide_hbond>  (250) 
0

>  <r_i_glide_metal>  (250) 
-0

>  <r_i_glide_rewards>  (250) 
-1.75696

>  <r_i_glide_evdw>  (250) 
-22.1639

>  <r_i_glide_ecoul>  (250) 
0.326444

>  <r_i_glide_erotb>  (250) 
0

>  <r_i_glide_esite>  (250) 
0

>  <r_i_glide_emodel>  (250) 
-26.8155

>  <r_i_glide_energy>  (250) 
-21.8375

>  <r_i_glide_einternal>  (250) 
0

>  <r_i_glide_intrahb_reward>  (250) 
-0

>  <i_i_glide_confnum>  (250) 
1

>  <i_i_glide_posenum>  (250) 
3

>  <r_i_glide_eff_state_penalty>  (250) 
0

>  <ligand_id>  (250) 
57

>  <original_smiles>  (250) 
CC1(C)C=Cc2c(ccc3c2C=CC(C)(C)O3)O1

>  <smiles>  (250) 
[H]C1=C([H])C(C([H])([H])[H])(C([H])([H])[H])Oc2c([H])c([H])c3c(c21)C([H])=C([H])C(C([H])([H])[H])(C([H])([H])[H])O3

$$$$
57:0:2
     RDKit          3D

 36 38  0  0  1  0  0  0  0  0999 V2000
    0.7015   -9.2688    2.9045 C   0  0  0  0  0  0  0  0  0  0  0  0
   -0.4174   -8.2163    2.7717 C   0  0  0  0  0  0  0  0  0  0  0  0
   -1.7756   -8.8658    2.4813 C   0  0  0  0  0  0  0  0  0  0  0  0
   -0.4864   -7.3820    4.0415 C   0  0  0  0  0  0  0  0  0  0  0  0
    0.2261   -6.2534    4.1586 C   0  0  0  0  0  0  0  0  0  0  0  0
    1.0692   -5.8117    3.0391 C   0  0  0  0  0  0  0  0  0  0  0  0
    0.8607   -6.4434    1.7865 C   0  0  0  0  0  0  0  0  0  0  0  0
    1.6070   -6.0592    0.6616 C   0  0  0  0  0  0  0  0  0  0  0  0
    2.5985   -5.0738    0.7720 C   0  0  0  0  0  0  0  0  0  0  0  0
    2.8181   -4.4399    2.0084 C   0  0  0  0  0  0  0  0  0  0  0  0
    2.0735   -4.8209    3.1543 C   0  0  0  0  0  0  0  0  0  0  0  0
    2.3706   -4.1179    4.4080 C   0  0  0  0  0  0  0  0  0  0  0  0
    3.1082   -3.0002    4.3760 C   0  0  0  0  0  0  0  0  0  0  0  0
    3.6156   -2.4352    3.0578 C   0  0  0  0  0  0  0  0  0  0  0  0
    2.5930   -1.4299    2.4952 C   0  0  0  0  0  0  0  0  0  0  0  0
    4.9990   -1.7912    3.2434 C   0  0  0  0  0  0  0  0  0  0  0  0
    3.7808   -3.4570    2.0666 O   0  0  0  0  0  0  0  0  0  0  0  0
   -0.1118   -7.4068    1.6281 O   0  0  0  0  0  0  0  0  0  0  0  0
    0.5153   -9.9547    3.7315 H   0  0  0  0  0  0  0  0  0  0  0  0
    1.6643   -8.7868    3.0877 H   0  0  0  0  0  0  0  0  0  0  0  0
    0.8105   -9.8546    1.9909 H   0  0  0  0  0  0  0  0  0  0  0  0
   -2.0775   -9.5387    3.2797 H   0  0  0  0  0  0  0  0  0  0  0  0
   -1.7406   -9.4516    1.5636 H   0  0  0  0  0  0  0  0  0  0  0  0
   -2.5578   -8.1124    2.3689 H   0  0  0  0  0  0  0  0  0  0  0  0
   -1.1242   -7.7364    4.8397 H   0  0  0  0  0  0  0  0  0  0  0  0
    0.1688   -5.6475    5.0496 H   0  0  0  0  0  0  0  0  0  0  0  0
    1.4166   -6.5153   -0.2969 H   0  0  0  0  0  0  0  0  0  0  0  0
    3.1730   -4.7880   -0.0976 H   0  0  0  0  0  0  0  0  0  0  0  0
    2.0256   -4.5328    5.3421 H   0  0  0  0  0  0  0  0  0  0  0  0
    3.3705   -2.4746    5.2825 H   0  0  0  0  0  0  0  0  0  0  0  0
    2.4450   -0.5858    3.1695 H   0  0  0  0  0  0  0  0  0  0  0  0
    1.6233   -1.9116    2.3523 H   0  0  0  0  0  0  0  0  0  0  0  0
    2.9057   -1.0494    1.5202 H   0  0  0  0  0  0  0  0  0  0  0  0
    4.9653   -0.9652    3.9529 H   0  0  0  0  0  0  0  0  0  0  0  0
    5.3821   -1.4030    2.2991 H   0  0  0  0  0  0  0  0  0  0  0  0
    5.7214   -2.5197    3.6141 H   0  0  0  0  0  0  0  0  0  0  0  0
  1  2  1  0
  1 19  1  0
  1 20  1  0
  1 21  1  0
  2 18  1  0
  2  3  1  0
  2  4  1  0
  3 22  1  0
  3 23  1  0
  3 24  1  0
  4  5  2  0
  4 25  1  0
  5  6  1  0
  5 26  1  0
  6 11  2  0
  6  7  1  0
  7  8  2  0
  7 18  1  0
  8  9  1  0
  8 27  1  0
  9 10  2  0
  9 28  1  0
 10 17  1  0
 10 11  1  0
 11 12  1  0
 12 13  2  0
 12 29  1  0
 13 14  1  0
 13 30  1  0
 14 15  1  0
 14 16  1  0
 14 17  1  0
 15 31  1  0
 15 32  1  0
 15 33  1  0
 16 34  1  0
 16 35  1  0
 16 36  1  0
M  END
>  <i_m_ct_stereo_status>  (251) 
1

>  <s_m_source_file>  (251) 
/var/tmp/pbs.5076255.sched01/tmp2a9bgmzv/100_xx7n39i.sdf

>  <i_m_source_file_index>  (251) 
19

>  <i_lp_mmshare_version>  (251) 
48012

>  <i_f3d_flags>  (251) 
0

>  <s_epik_input>  (251) 
W0NIXTE9W0NIXUMoW0NIM10pKFtDSDNdKU9jKGMxMilbY0hdW2NIXWMzYzJbQ0hdPVtDSF1DKE8zKShbQ0gzXSlbQ0gzXQ==

>  <s_epik_cmdline>  (251) 
J2VwaWtfcHl0aG9uJywgJy1waHQnLCAnMi4wJywgJy1waCcsICc3LjAnLCAnLXRuJywgJzgnLCAnLW1hJywgJzIwMCcsICctaW1hZScsICc8aW5maWxlLm1hZT4nLCAnLW9tYWUnLCAnPG91dGZpbGUubWFlPic=

>  <r_lp_tautomer_probability>  (251) 
1

>  <r_epik_Ionization_Penalty>  (251) 
0

>  <r_epik_Ionization_Penalty_Charging>  (251) 
0

>  <r_epik_Ionization_Penalty_Neutral>  (251) 
0

>  <r_epik_State_Penalty>  (251) 
-0

>  <r_epik_Charging_Adjusted_Penalty>  (251) 
0

>  <i_epik_Tot_Q>  (251) 
0

>  <i_epik_Tot_abs_Q>  (251) 
0

>  <s_lp_Force_Field>  (251) 
OPLS3e

>  <r_lp_Energy>  (251) 
35.4989

>  <b_lp_Chiralities_Consistent>  (251) 
1

>  <s_lp_Variant>  (251) 
57:0-1

>  <s_i_glide_gridfile>  (251) 
pfpi4k_grid

>  <i_i_glide_lignum>  (251) 
19

>  <i_i_glide_rotatable_bonds>  (251) 
0

>  <r_i_docking_score>  (251) 
-3.12218

>  <r_i_glide_ligand_efficiency>  (251) 
-0.173455

>  <r_i_glide_ligand_efficiency_sa>  (251) 
-0.45458

>  <r_i_glide_ligand_efficiency_ln>  (251) 
-0.802541

>  <r_i_glide_gscore>  (251) 
-3.12218

>  <r_i_glide_lipo>  (251) 
-0.280503

>  <r_i_glide_hbond>  (251) 
0

>  <r_i_glide_metal>  (251) 
-0

>  <r_i_glide_rewards>  (251) 
-1.75696

>  <r_i_glide_evdw>  (251) 
-19.6449

>  <r_i_glide_ecoul>  (251) 
-0.683193

>  <r_i_glide_erotb>  (251) 
0

>  <r_i_glide_esite>  (251) 
0

>  <r_i_glide_emodel>  (251) 
-24.535

>  <r_i_glide_energy>  (251) 
-20.3281

>  <r_i_glide_einternal>  (251) 
0

>  <r_i_glide_intrahb_reward>  (251) 
-0

>  <i_i_glide_confnum>  (251) 
2

>  <i_i_glide_posenum>  (251) 
40

>  <r_i_glide_eff_state_penalty>  (251) 
0

>  <ligand_id>  (251) 
57

>  <original_smiles>  (251) 
CC1(C)C=Cc2c(ccc3c2C=CC(C)(C)O3)O1

>  <smiles>  (251) 
[H]C1=C([H])C(C([H])([H])[H])(C([H])([H])[H])Oc2c([H])c([H])c3c(c21)C([H])=C([H])C(C([H])([H])[H])(C([H])([H])[H])O3

$$$$
58:0:0
     RDKit          3D

 64 70  0  0  1  0  0  0  0  0999 V2000
   -0.5282   -7.4679    2.4686 C   0  0  0  0  0  0  0  0  0  0  0  0
    0.2469   -6.2619    2.4542 O   0  0  0  0  0  0  0  0  0  0  0  0
    1.5782   -6.4143    1.9491 C   0  0  2  0  0  0  0  0  0  0  0  0
    2.4417   -7.4181    2.9849 C   0  0  0  0  0  0  0  0  0  0  0  0
    4.0723   -7.1852    2.9561 C   0  0  2  0  0  0  0  0  0  0  0  0
    4.8347   -6.0302    3.7108 C   0  0  0  0  0  0  0  0  0  0  0  0
    4.7116   -4.8969    2.6549 C   0  0  2  0  0  0  0  0  0  0  0  0
    3.4424   -5.3425    2.3526 N   0  0  1  0  0  0  0  0  0  0  0  0
    2.2660   -4.9523    1.6691 C   0  0  1  0  0  0  0  0  0  0  0  0
    2.7595   -4.3089    0.2933 C   0  0  1  0  0  0  0  0  0  0  0  0
    1.8127   -4.7055   -0.6840 O   0  0  0  0  0  0  0  0  0  0  0  0
    2.6971   -2.7540    0.3835 C   0  0  0  0  0  0  0  0  0  0  0  0
    3.6021   -2.0341    1.4099 C   0  0  0  0  0  0  0  0  0  0  0  0
    5.0764   -1.5999    1.1091 C   0  0  1  0  0  0  0  0  0  0  0  0
    5.8140   -1.4707    2.3046 O   0  0  0  0  0  0  0  0  0  0  0  0
    5.9437   -2.0244   -0.1311 C   0  0  2  0  0  0  0  0  0  0  0  0
    5.1728   -1.9715   -1.4530 C   0  0  0  0  0  0  0  0  0  0  0  0
    4.9498   -0.7835   -2.1484 C   0  0  0  0  0  0  0  0  0  0  0  0
    4.1841   -0.9008   -3.3258 C   0  0  0  0  0  0  0  0  0  0  0  0
    3.7037   -2.1484   -3.7648 C   0  0  0  0  0  0  0  0  0  0  0  0
    3.9530   -3.3462   -3.0536 C   0  0  0  0  0  0  0  0  0  0  0  0
    4.6843   -3.2184   -1.8639 C   0  0  0  0  0  0  0  0  0  0  0  0
    5.0260   -4.3150   -1.1275 O   0  0  0  0  0  0  0  0  0  0  0  0
    4.2010   -4.8339   -0.0894 C   0  0  1  0  0  0  0  0  0  0  0  0
    5.0083   -5.2928    1.1921 C   0  0  1  0  0  0  0  0  0  0  0  0
    6.5013   -5.3603    0.9197 C   0  0  0  0  0  0  0  0  0  0  0  0
    7.1994   -3.9885    1.0834 C   0  0  0  0  0  0  0  0  0  0  0  0
    7.0177   -3.0956   -0.0948 N   0  0  2  0  0  0  0  0  0  0  0  0
    8.3142   -2.6743   -0.6988 C   0  0  0  0  0  0  0  0  0  0  0  0
    4.1615   -6.4671    1.7008 C   0  0  1  0  0  0  0  0  0  0  0  0
   -1.5161   -7.2963    2.8956 H   0  0  0  0  0  0  0  0  0  0  0  0
   -0.0874   -8.2677    3.0616 H   0  0  0  0  0  0  0  0  0  0  0  0
   -0.6772   -7.8501    1.4615 H   0  0  0  0  0  0  0  0  0  0  0  0
    1.4854   -6.9034    0.9749 H   0  0  0  0  0  0  0  0  0  0  0  0
    2.0834   -7.3410    4.0155 H   0  0  0  0  0  0  0  0  0  0  0  0
    2.2546   -8.4468    2.6761 H   0  0  0  0  0  0  0  0  0  0  0  0
    4.6388   -8.1211    2.9241 H   0  0  0  0  0  0  0  0  0  0  0  0
    4.4164   -5.7911    4.6976 H   0  0  0  0  0  0  0  0  0  0  0  0
    5.8867   -6.2832    3.8454 H   0  0  0  0  0  0  0  0  0  0  0  0
    4.8807   -3.8820    2.9925 H   0  0  0  0  0  0  0  0  0  0  0  0
    1.7205   -4.2141    2.2570 H   0  0  0  0  0  0  0  0  0  0  0  0
    2.2839   -5.0626   -1.4351 H   0  0  0  0  0  0  0  0  0  0  0  0
    2.7317   -2.2671   -0.5883 H   0  0  0  0  0  0  0  0  0  0  0  0
    1.6939   -2.5145    0.7147 H   0  0  0  0  0  0  0  0  0  0  0  0
    3.0799   -1.0983    1.6225 H   0  0  0  0  0  0  0  0  0  0  0  0
    3.5229   -2.5181    2.3755 H   0  0  0  0  0  0  0  0  0  0  0  0
    4.9113   -0.5463    0.8657 H   0  0  0  0  0  0  0  0  0  0  0  0
    6.5079   -0.8339    2.1866 H   0  0  0  0  0  0  0  0  0  0  0  0
    6.5633   -1.1344   -0.2091 H   0  0  0  0  0  0  0  0  0  0  0  0
    5.3387    0.1393   -1.7937 H   0  0  0  0  0  0  0  0  0  0  0  0
    3.9571   -0.0220   -3.9196 H   0  0  0  0  0  0  0  0  0  0  0  0
    3.1279   -2.2054   -4.6622 H   0  0  0  0  0  0  0  0  0  0  0  0
    3.5599   -4.2617   -3.4511 H   0  0  0  0  0  0  0  0  0  0  0  0
    3.9867   -5.7494   -0.6329 H   0  0  0  0  0  0  0  0  0  0  0  0
    6.9578   -6.0369    1.6391 H   0  0  0  0  0  0  0  0  0  0  0  0
    6.7136   -5.8095   -0.0436 H   0  0  0  0  0  0  0  0  0  0  0  0
    6.9667   -3.5342    2.0375 H   0  0  0  0  0  0  0  0  0  0  0  0
    8.2611   -4.2160    1.1701 H   0  0  0  0  0  0  0  0  0  0  0  0
    8.8757   -1.9912   -0.0501 H   0  0  0  0  0  0  0  0  0  0  0  0
    8.1588   -2.1952   -1.6672 H   0  0  0  0  0  0  0  0  0  0  0  0
    8.9566   -3.5348   -0.9039 H   0  0  0  0  0  0  0  0  0  0  0  0
    3.7041   -7.0372    0.8930 H   0  0  0  0  0  0  0  0  0  0  0  0
    3.0765   -5.6523    3.2440 H   0  0  0  0  0  0  0  0  0  0  0  0
    6.6394   -3.7502   -0.7783 H   0  0  0  0  0  0  0  0  0  0  0  0
  1  2  1  0
  1 31  1  0
  1 32  1  0
  1 33  1  0
  2  3  1  0
  3  9  1  0
  3  4  1  0
  3 34  1  6
  4  5  1  0
  4 35  1  0
  4 36  1  0
  5 30  1  0
  5  6  1  0
  5 37  1  6
  6  7  1  0
  6 38  1  0
  6 39  1  0
  7 25  1  0
  7  8  1  0
  7 40  1  1
  8 30  1  0
  8  9  1  0
  8 63  1  1
  9 10  1  0
  9 41  1  1
 10 24  1  0
 10 11  1  6
 10 12  1  0
 11 42  1  0
 12 13  1  0
 12 43  1  0
 12 44  1  0
 13 14  1  0
 13 45  1  0
 13 46  1  0
 14 15  1  0
 14 16  1  0
 14 47  1  6
 15 48  1  0
 16 28  1  0
 16 17  1  0
 16 49  1  6
 17 22  2  0
 17 18  1  0
 18 19  2  0
 18 50  1  0
 19 20  1  0
 19 51  1  0
 20 21  2  0
 20 52  1  0
 21 22  1  0
 21 53  1  0
 22 23  1  0
 23 24  1  0
 24 25  1  0
 24 54  1  6
 25 26  1  6
 25 30  1  0
 26 27  1  0
 26 55  1  0
 26 56  1  0
 27 28  1  0
 27 57  1  0
 27 58  1  0
 28 29  1  0
 28 64  1  6
 29 59  1  0
 29 60  1  0
 29 61  1  0
 30 62  1  6
M  CHG  2   8   1  28   1
M  END
>  <i_m_ct_stereo_status>  (252) 
1

>  <s_m_source_file>  (252) 
/var/tmp/pbs.5076255.sched01/tmp2a9bgmzv/100_xx7n39i.sdf

>  <i_m_source_file_index>  (252) 
20

>  <i_lp_mmshare_version>  (252) 
48012

>  <i_f3d_flags>  (252) 
0

>  <s_epik_input>  (252) 
W0NIMl0xW0NASF0oW0NAQEhdMjMpW0NIMl1bQ0BASF0oT1tDSDNdKVtDQEBIXShOMltDQEBIXTFbQ0BAXTM0NSlbQ0BdNihbT0hdKVtDQEhdNE9jN2MoW0NAQEhdKFtDQEhdKFtPSF0pW0NIMl1bQ0gyXTYpTihbQ0gzXSlbQ0gyXVtDSDJdNSlbY0hdW2NIXVtjSF1bY0hdNw==

>  <s_epik_cmdline>  (252) 
J2VwaWtfcHl0aG9uJywgJy1waHQnLCAnMi4wJywgJy1waCcsICc3LjAnLCAnLXRuJywgJzgnLCAnLW1hJywgJzIwMCcsICctaW1hZScsICc8aW5maWxlLm1hZT4nLCAnLW9tYWUnLCAnPG91dGZpbGUubWFlPic=

>  <r_lp_tautomer_probability>  (252) 
1

>  <r_epik_Ionization_Penalty>  (252) 
0.176978

>  <r_epik_Ionization_Penalty_Charging>  (252) 
0.176975

>  <r_epik_Ionization_Penalty_Neutral>  (252) 
2.96197e-06

>  <r_epik_State_Penalty>  (252) 
0.148301

>  <r_epik_Charging_Adjusted_Penalty>  (252) 
0.325276

>  <i_epik_Tot_Q>  (252) 
2

>  <i_epik_Tot_abs_Q>  (252) 
2

>  <s_lp_Force_Field>  (252) 
OPLS3e

>  <r_lp_Energy>  (252) 
267.398

>  <b_lp_Chiralities_Consistent>  (252) 
1

>  <s_lp_Variant>  (252) 
58:0-1

>  <s_i_glide_gridfile>  (252) 
pfpi4k_grid

>  <i_i_glide_lignum>  (252) 
20

>  <i_i_glide_rotatable_bonds>  (252) 
3

>  <r_i_docking_score>  (252) 
-4.75499

>  <r_i_glide_ligand_efficiency>  (252) 
-0.1585

>  <r_i_glide_ligand_efficiency_sa>  (252) 
-0.492495

>  <r_i_glide_ligand_efficiency_ln>  (252) 
-1.08039

>  <r_i_glide_gscore>  (252) 
-4.75499

>  <r_i_glide_lipo>  (252) 
-0.744706

>  <r_i_glide_hbond>  (252) 
-0.156189

>  <r_i_glide_metal>  (252) 
-0

>  <r_i_glide_rewards>  (252) 
-1.0827

>  <r_i_glide_evdw>  (252) 
-24.0357

>  <r_i_glide_ecoul>  (252) 
-10.4641

>  <r_i_glide_erotb>  (252) 
0

>  <r_i_glide_esite>  (252) 
0

>  <r_i_glide_emodel>  (252) 
-47.0481

>  <r_i_glide_energy>  (252) 
-34.4998

>  <r_i_glide_einternal>  (252) 
2.09408

>  <r_i_glide_intrahb_reward>  (252) 
-0.5

>  <i_i_glide_confnum>  (252) 
2

>  <i_i_glide_posenum>  (252) 
3

>  <r_i_glide_eff_state_penalty>  (252) 
0

>  <ligand_id>  (252) 
58

>  <original_smiles>  (252) 
COC1CC2CC3N4C1C1(O)CCC(O)C5c6ccccc6OC1C3(CCN5C)C24

>  <smiles>  (252) 
[H]OC1([H])C([H])([H])C([H])([H])C2(O[H])C3([H])Oc4c([H])c([H])c([H])c([H])c4C1([H])[N+]([H])(C([H])([H])[H])C([H])([H])C([H])([H])C31C3([H])C([H])([H])C4([H])C([H])([H])C([H])(OC([H])([H])[H])C2([H])[N+]3([H])C41[H]

$$$$
58:0:1
     RDKit          3D

 64 70  0  0  1  0  0  0  0  0999 V2000
   -0.5386   -7.5171    2.4216 C   0  0  0  0  0  0  0  0  0  0  0  0
    0.2434   -6.3149    2.4397 O   0  0  0  0  0  0  0  0  0  0  0  0
    1.5748   -6.4646    1.9334 C   0  0  2  0  0  0  0  0  0  0  0  0
    2.4383   -7.4759    2.9590 C   0  0  0  0  0  0  0  0  0  0  0  0
    4.0676   -7.2448    2.9357 C   0  0  2  0  0  0  0  0  0  0  0  0
    4.8320   -6.0971    3.7005 C   0  0  0  0  0  0  0  0  0  0  0  0
    4.7067   -4.9538    2.6556 C   0  0  2  0  0  0  0  0  0  0  0  0
    3.4389   -5.3984    2.3503 N   0  0  1  0  0  0  0  0  0  0  0  0
    2.2642   -4.9977    1.6683 C   0  0  1  0  0  0  0  0  0  0  0  0
    2.7587   -4.3435    0.2979 C   0  0  1  0  0  0  0  0  0  0  0  0
    1.8152   -4.7330   -0.6806 O   0  0  0  0  0  0  0  0  0  0  0  0
    2.6970   -2.7872    0.4026 C   0  0  0  0  0  0  0  0  0  0  0  0
    3.5970   -2.0777    1.4379 C   0  0  0  0  0  0  0  0  0  0  0  0
    5.0732   -1.6465    1.1451 C   0  0  1  0  0  0  0  0  0  0  0  0
    5.8100   -1.5298    2.3425 O   0  0  0  0  0  0  0  0  0  0  0  0
    5.9440   -2.0563   -0.0996 C   0  0  2  0  0  0  0  0  0  0  0  0
    5.1748   -1.9845   -1.4259 C   0  0  0  0  0  0  0  0  0  0  0  0
    4.9549   -0.7846   -2.1057 C   0  0  0  0  0  0  0  0  0  0  0  0
    4.1937   -0.8997   -3.2849 C   0  0  0  0  0  0  0  0  0  0  0  0
    3.7100   -2.1485   -3.7385 C   0  0  0  0  0  0  0  0  0  0  0  0
    3.9551   -3.3517   -3.0419 C   0  0  0  0  0  0  0  0  0  0  0  0
    4.6894   -3.2286   -1.8434 C   0  0  0  0  0  0  0  0  0  0  0  0
    5.0262   -4.3385   -1.1226 O   0  0  0  0  0  0  0  0  0  0  0  0
    4.2035   -4.8646   -0.0870 C   0  0  1  0  0  0  0  0  0  0  0  0
    5.0068   -5.3358    1.1906 C   0  0  1  0  0  0  0  0  0  0  0  0
    6.5019   -5.4006    0.9178 C   0  0  0  0  0  0  0  0  0  0  0  0
    7.2034   -4.0310    1.0931 C   0  0  0  0  0  0  0  0  0  0  0  0
    7.0194   -3.1271   -0.0749 N   0  0  2  0  0  0  0  0  0  0  0  0
    8.3126   -2.7009   -0.6735 C   0  0  0  0  0  0  0  0  0  0  0  0
    4.1583   -6.5124    1.6890 C   0  0  1  0  0  0  0  0  0  0  0  0
   -1.5269   -7.3499    2.8507 H   0  0  0  0  0  0  0  0  0  0  0  0
   -0.1030   -8.3355    2.9935 H   0  0  0  0  0  0  0  0  0  0  0  0
   -0.6897   -7.8714    1.4043 H   0  0  0  0  0  0  0  0  0  0  0  0
    1.4810   -6.9452    0.9549 H   0  0  0  0  0  0  0  0  0  0  0  0
    2.0771   -7.4120    3.9891 H   0  0  0  0  0  0  0  0  0  0  0  0
    2.2500   -8.5019    2.6407 H   0  0  0  0  0  0  0  0  0  0  0  0
    4.6340   -8.1789    2.8925 H   0  0  0  0  0  0  0  0  0  0  0  0
    4.4138   -5.8663    4.6884 H   0  0  0  0  0  0  0  0  0  0  0  0
    5.8838   -6.3529    3.8321 H   0  0  0  0  0  0  0  0  0  0  0  0
    4.8814   -3.9443    3.0026 H   0  0  0  0  0  0  0  0  0  0  0  0
    1.7148   -4.2681    2.2596 H   0  0  0  0  0  0  0  0  0  0  0  0
    2.2856   -5.0868   -1.4341 H   0  0  0  0  0  0  0  0  0  0  0  0
    2.7331   -2.2947   -0.5659 H   0  0  0  0  0  0  0  0  0  0  0  0
    1.6907   -2.5519    0.7279 H   0  0  0  0  0  0  0  0  0  0  0  0
    3.0719   -1.1450    1.6560 H   0  0  0  0  0  0  0  0  0  0  0  0
    3.5127   -2.5761    2.3960 H   0  0  0  0  0  0  0  0  0  0  0  0
    4.9160   -0.5878    0.9142 H   0  0  0  0  0  0  0  0  0  0  0  0
    5.3109   -1.0125    2.9581 H   0  0  0  0  0  0  0  0  0  0  0  0
    6.5647   -1.1656   -0.1633 H   0  0  0  0  0  0  0  0  0  0  0  0
    5.3348    0.1291   -1.7450 H   0  0  0  0  0  0  0  0  0  0  0  0
    3.9652   -0.0201   -3.8729 H   0  0  0  0  0  0  0  0  0  0  0  0
    3.1343   -2.1929   -4.6398 H   0  0  0  0  0  0  0  0  0  0  0  0
    3.5646   -4.2556   -3.4471 H   0  0  0  0  0  0  0  0  0  0  0  0
    3.9884   -5.7753   -0.6391 H   0  0  0  0  0  0  0  0  0  0  0  0
    6.9576   -6.0870    1.6280 H   0  0  0  0  0  0  0  0  0  0  0  0
    6.7156   -5.8441   -0.0481 H   0  0  0  0  0  0  0  0  0  0  0  0
    6.9770   -3.5827    2.0525 H   0  0  0  0  0  0  0  0  0  0  0  0
    8.2651   -4.2599    1.1784 H   0  0  0  0  0  0  0  0  0  0  0  0
    8.8760   -2.0246   -0.0192 H   0  0  0  0  0  0  0  0  0  0  0  0
    8.1619   -2.2115   -1.6363 H   0  0  0  0  0  0  0  0  0  0  0  0
    8.9572   -3.5567   -0.8878 H   0  0  0  0  0  0  0  0  0  0  0  0
    3.7001   -7.0712    0.8746 H   0  0  0  0  0  0  0  0  0  0  0  0
    3.0746   -5.7110    3.2369 H   0  0  0  0  0  0  0  0  0  0  0  0
    6.6407   -3.7734   -0.7659 H   0  0  0  0  0  0  0  0  0  0  0  0
  1  2  1  0
  1 31  1  0
  1 32  1  0
  1 33  1  0
  2  3  1  0
  3  9  1  0
  3  4  1  0
  3 34  1  6
  4  5  1  0
  4 35  1  0
  4 36  1  0
  5 30  1  0
  5  6  1  0
  5 37  1  6
  6  7  1  0
  6 38  1  0
  6 39  1  0
  7 25  1  0
  7  8  1  0
  7 40  1  1
  8 30  1  0
  8  9  1  0
  8 63  1  1
  9 10  1  0
  9 41  1  1
 10 24  1  0
 10 11  1  6
 10 12  1  0
 11 42  1  0
 12 13  1  0
 12 43  1  0
 12 44  1  0
 13 14  1  0
 13 45  1  0
 13 46  1  0
 14 15  1  0
 14 16  1  0
 14 47  1  6
 15 48  1  0
 16 28  1  0
 16 17  1  0
 16 49  1  6
 17 22  2  0
 17 18  1  0
 18 19  2  0
 18 50  1  0
 19 20  1  0
 19 51  1  0
 20 21  2  0
 20 52  1  0
 21 22  1  0
 21 53  1  0
 22 23  1  0
 23 24  1  0
 24 25  1  0
 24 54  1  6
 25 26  1  6
 25 30  1  0
 26 27  1  0
 26 55  1  0
 26 56  1  0
 27 28  1  0
 27 57  1  0
 27 58  1  0
 28 29  1  0
 28 64  1  6
 29 59  1  0
 29 60  1  0
 29 61  1  0
 30 62  1  6
M  CHG  2   8   1  28   1
M  END
>  <i_m_ct_stereo_status>  (253) 
1

>  <s_m_source_file>  (253) 
/var/tmp/pbs.5076255.sched01/tmp2a9bgmzv/100_xx7n39i.sdf

>  <i_m_source_file_index>  (253) 
20

>  <i_lp_mmshare_version>  (253) 
48012

>  <i_f3d_flags>  (253) 
0

>  <s_epik_input>  (253) 
W0NIMl0xW0NASF0oW0NAQEhdMjMpW0NIMl1bQ0BASF0oT1tDSDNdKVtDQEBIXShOMltDQEBIXTFbQ0BAXTM0NSlbQ0BdNihbT0hdKVtDQEhdNE9jN2MoW0NAQEhdKFtDQEhdKFtPSF0pW0NIMl1bQ0gyXTYpTihbQ0gzXSlbQ0gyXVtDSDJdNSlbY0hdW2NIXVtjSF1bY0hdNw==

>  <s_epik_cmdline>  (253) 
J2VwaWtfcHl0aG9uJywgJy1waHQnLCAnMi4wJywgJy1waCcsICc3LjAnLCAnLXRuJywgJzgnLCAnLW1hJywgJzIwMCcsICctaW1hZScsICc8aW5maWxlLm1hZT4nLCAnLW9tYWUnLCAnPG91dGZpbGUubWFlPic=

>  <r_lp_tautomer_probability>  (253) 
1

>  <r_epik_Ionization_Penalty>  (253) 
0.176978

>  <r_epik_Ionization_Penalty_Charging>  (253) 
0.176975

>  <r_epik_Ionization_Penalty_Neutral>  (253) 
2.96197e-06

>  <r_epik_State_Penalty>  (253) 
0.148301

>  <r_epik_Charging_Adjusted_Penalty>  (253) 
0.325276

>  <i_epik_Tot_Q>  (253) 
2

>  <i_epik_Tot_abs_Q>  (253) 
2

>  <s_lp_Force_Field>  (253) 
OPLS3e

>  <r_lp_Energy>  (253) 
267.398

>  <b_lp_Chiralities_Consistent>  (253) 
1

>  <s_lp_Variant>  (253) 
58:0-1

>  <s_i_glide_gridfile>  (253) 
pfpi4k_grid

>  <i_i_glide_lignum>  (253) 
20

>  <i_i_glide_rotatable_bonds>  (253) 
3

>  <r_i_docking_score>  (253) 
-4.67143

>  <r_i_glide_ligand_efficiency>  (253) 
-0.155714

>  <r_i_glide_ligand_efficiency_sa>  (253) 
-0.48384

>  <r_i_glide_ligand_efficiency_ln>  (253) 
-1.0614

>  <r_i_glide_gscore>  (253) 
-4.67143

>  <r_i_glide_lipo>  (253) 
-0.743668

>  <r_i_glide_hbond>  (253) 
-0.150398

>  <r_i_glide_metal>  (253) 
-0

>  <r_i_glide_rewards>  (253) 
-1.0827

>  <r_i_glide_evdw>  (253) 
-23.7867

>  <r_i_glide_ecoul>  (253) 
-10.0356

>  <r_i_glide_erotb>  (253) 
0

>  <r_i_glide_esite>  (253) 
0

>  <r_i_glide_emodel>  (253) 
-46.383

>  <r_i_glide_energy>  (253) 
-33.8222

>  <r_i_glide_einternal>  (253) 
2.09014

>  <r_i_glide_intrahb_reward>  (253) 
-0.5

>  <i_i_glide_confnum>  (253) 
2

>  <i_i_glide_posenum>  (253) 
17

>  <r_i_glide_eff_state_penalty>  (253) 
0

>  <ligand_id>  (253) 
58

>  <original_smiles>  (253) 
COC1CC2CC3N4C1C1(O)CCC(O)C5c6ccccc6OC1C3(CCN5C)C24

>  <smiles>  (253) 
[H]OC1([H])C([H])([H])C([H])([H])C2(O[H])C3([H])Oc4c([H])c([H])c([H])c([H])c4C1([H])[N+]([H])(C([H])([H])[H])C([H])([H])C([H])([H])C31C3([H])C([H])([H])C4([H])C([H])([H])C([H])(OC([H])([H])[H])C2([H])[N+]3([H])C41[H]

$$$$
58:0:2
     RDKit          3D

 64 70  0  0  1  0  0  0  0  0999 V2000
   -0.5285   -7.5359    2.4144 C   0  0  0  0  0  0  0  0  0  0  0  0
    0.2528   -6.3349    2.4413 O   0  0  0  0  0  0  0  0  0  0  0  0
    1.5816   -6.4769    1.9321 C   0  0  2  0  0  0  0  0  0  0  0  0
    2.4477   -7.4900    2.9534 C   0  0  0  0  0  0  0  0  0  0  0  0
    4.0788   -7.2561    2.9298 C   0  0  2  0  0  0  0  0  0  0  0  0
    4.8441   -6.1117    3.6961 C   0  0  0  0  0  0  0  0  0  0  0  0
    4.7229   -4.9626    2.6538 C   0  0  2  0  0  0  0  0  0  0  0  0
    3.4422   -5.4062    2.3559 N   0  0  1  0  0  0  0  0  0  0  0  0
    2.2632   -5.0083    1.6646 C   0  0  1  0  0  0  0  0  0  0  0  0
    2.7666   -4.3453    0.3059 C   0  0  1  0  0  0  0  0  0  0  0  0
    1.8250   -4.7329   -0.6767 O   0  0  0  0  0  0  0  0  0  0  0  0
    2.6989   -2.7928    0.4105 C   0  0  0  0  0  0  0  0  0  0  0  0
    3.5994   -2.0883    1.4443 C   0  0  0  0  0  0  0  0  0  0  0  0
    5.0737   -1.6553    1.1480 C   0  0  1  0  0  0  0  0  0  0  0  0
    5.8153   -1.5038    2.3351 O   0  0  0  0  0  0  0  0  0  0  0  0
    5.9444   -2.0519   -0.0977 C   0  0  2  0  0  0  0  0  0  0  0  0
    5.1728   -1.9866   -1.4264 C   0  0  0  0  0  0  0  0  0  0  0  0
    4.9498   -0.7846   -2.0989 C   0  0  0  0  0  0  0  0  0  0  0  0
    4.1832   -0.8985   -3.2831 C   0  0  0  0  0  0  0  0  0  0  0  0
    3.7112   -2.1484   -3.7244 C   0  0  0  0  0  0  0  0  0  0  0  0
    3.9558   -3.3429   -3.0424 C   0  0  0  0  0  0  0  0  0  0  0  0
    4.6945   -3.2266   -1.8447 C   0  0  0  0  0  0  0  0  0  0  0  0
    5.0271   -4.3294   -1.1203 O   0  0  0  0  0  0  0  0  0  0  0  0
    4.2076   -4.8689   -0.0854 C   0  0  1  0  0  0  0  0  0  0  0  0
    5.0178   -5.3406    1.1878 C   0  0  1  0  0  0  0  0  0  0  0  0
    6.5097   -5.4067    0.9123 C   0  0  0  0  0  0  0  0  0  0  0  0
    7.2126   -4.0423    1.0894 C   0  0  0  0  0  0  0  0  0  0  0  0
    7.0209   -3.1289   -0.0767 N   0  0  2  0  0  0  0  0  0  0  0  0
    8.3183   -2.6956   -0.6767 C   0  0  0  0  0  0  0  0  0  0  0  0
    4.1687   -6.5183    1.6812 C   0  0  1  0  0  0  0  0  0  0  0  0
   -1.5131   -7.3772    2.8546 H   0  0  0  0  0  0  0  0  0  0  0  0
   -0.0867   -8.3634    2.9679 H   0  0  0  0  0  0  0  0  0  0  0  0
   -0.6902   -7.8745    1.3938 H   0  0  0  0  0  0  0  0  0  0  0  0
    1.4875   -6.9533    0.9558 H   0  0  0  0  0  0  0  0  0  0  0  0
    2.0903   -7.4303    3.9870 H   0  0  0  0  0  0  0  0  0  0  0  0
    2.2643   -8.5173    2.6318 H   0  0  0  0  0  0  0  0  0  0  0  0
    4.6473   -8.1902    2.8805 H   0  0  0  0  0  0  0  0  0  0  0  0
    4.4268   -5.8831    4.6860 H   0  0  0  0  0  0  0  0  0  0  0  0
    5.8964   -6.3656    3.8216 H   0  0  0  0  0  0  0  0  0  0  0  0
    4.8823   -3.9547    3.0098 H   0  0  0  0  0  0  0  0  0  0  0  0
    1.7179   -4.2808    2.2656 H   0  0  0  0  0  0  0  0  0  0  0  0
    2.2853   -5.0142   -1.4570 H   0  0  0  0  0  0  0  0  0  0  0  0
    2.7354   -2.2991   -0.5574 H   0  0  0  0  0  0  0  0  0  0  0  0
    1.6924   -2.5560    0.7377 H   0  0  0  0  0  0  0  0  0  0  0  0
    3.0800   -1.1552    1.6689 H   0  0  0  0  0  0  0  0  0  0  0  0
    3.5195   -2.5865    2.4018 H   0  0  0  0  0  0  0  0  0  0  0  0
    4.9155   -0.5981    0.9185 H   0  0  0  0  0  0  0  0  0  0  0  0
    6.0117   -2.3544    2.6985 H   0  0  0  0  0  0  0  0  0  0  0  0
    6.5645   -1.1644   -0.1608 H   0  0  0  0  0  0  0  0  0  0  0  0
    5.3182    0.1399   -1.7440 H   0  0  0  0  0  0  0  0  0  0  0  0
    3.9584   -0.0161   -3.8618 H   0  0  0  0  0  0  0  0  0  0  0  0
    3.1336   -2.1877   -4.6347 H   0  0  0  0  0  0  0  0  0  0  0  0
    3.5751   -4.2662   -3.4468 H   0  0  0  0  0  0  0  0  0  0  0  0
    3.9911   -5.7770   -0.6418 H   0  0  0  0  0  0  0  0  0  0  0  0
    6.9658   -6.0925    1.6180 H   0  0  0  0  0  0  0  0  0  0  0  0
    6.7219   -5.8440   -0.0530 H   0  0  0  0  0  0  0  0  0  0  0  0
    6.9883   -3.5959    2.0491 H   0  0  0  0  0  0  0  0  0  0  0  0
    8.2764   -4.2656    1.1685 H   0  0  0  0  0  0  0  0  0  0  0  0
    8.8799   -2.0208   -0.0184 H   0  0  0  0  0  0  0  0  0  0  0  0
    8.1575   -2.2039   -1.6383 H   0  0  0  0  0  0  0  0  0  0  0  0
    8.9613   -3.5522   -0.8948 H   0  0  0  0  0  0  0  0  0  0  0  0
    3.7053   -7.0769    0.8688 H   0  0  0  0  0  0  0  0  0  0  0  0
    3.0807   -5.7252    3.2395 H   0  0  0  0  0  0  0  0  0  0  0  0
    6.6462   -3.7739   -0.7700 H   0  0  0  0  0  0  0  0  0  0  0  0
  1  2  1  0
  1 31  1  0
  1 32  1  0
  1 33  1  0
  2  3  1  0
  3  9  1  0
  3  4  1  0
  3 34  1  6
  4  5  1  0
  4 35  1  0
  4 36  1  0
  5 30  1  0
  5  6  1  0
  5 37  1  6
  6  7  1  0
  6 38  1  0
  6 39  1  0
  7 25  1  0
  7  8  1  0
  7 40  1  1
  8 30  1  0
  8  9  1  0
  8 63  1  1
  9 10  1  0
  9 41  1  1
 10 24  1  0
 10 11  1  6
 10 12  1  0
 11 42  1  0
 12 13  1  0
 12 43  1  0
 12 44  1  0
 13 14  1  0
 13 45  1  0
 13 46  1  0
 14 15  1  0
 14 16  1  0
 14 47  1  6
 15 48  1  0
 16 28  1  0
 16 17  1  0
 16 49  1  6
 17 22  2  0
 17 18  1  0
 18 19  2  0
 18 50  1  0
 19 20  1  0
 19 51  1  0
 20 21  2  0
 20 52  1  0
 21 22  1  0
 21 53  1  0
 22 23  1  0
 23 24  1  0
 24 25  1  0
 24 54  1  6
 25 26  1  6
 25 30  1  0
 26 27  1  0
 26 55  1  0
 26 56  1  0
 27 28  1  0
 27 57  1  0
 27 58  1  0
 28 29  1  0
 28 64  1  6
 29 59  1  0
 29 60  1  0
 29 61  1  0
 30 62  1  6
M  CHG  2   8   1  28   1
M  END
>  <i_m_ct_stereo_status>  (254) 
1

>  <s_m_source_file>  (254) 
/var/tmp/pbs.5076255.sched01/tmp2a9bgmzv/100_xx7n39i.sdf

>  <i_m_source_file_index>  (254) 
20

>  <i_lp_mmshare_version>  (254) 
48012

>  <i_f3d_flags>  (254) 
0

>  <s_epik_input>  (254) 
W0NIMl0xW0NASF0oW0NAQEhdMjMpW0NIMl1bQ0BASF0oT1tDSDNdKVtDQEBIXShOMltDQEBIXTFbQ0BAXTM0NSlbQ0BdNihbT0hdKVtDQEhdNE9jN2MoW0NAQEhdKFtDQEhdKFtPSF0pW0NIMl1bQ0gyXTYpTihbQ0gzXSlbQ0gyXVtDSDJdNSlbY0hdW2NIXVtjSF1bY0hdNw==

>  <s_epik_cmdline>  (254) 
J2VwaWtfcHl0aG9uJywgJy1waHQnLCAnMi4wJywgJy1waCcsICc3LjAnLCAnLXRuJywgJzgnLCAnLW1hJywgJzIwMCcsICctaW1hZScsICc8aW5maWxlLm1hZT4nLCAnLW9tYWUnLCAnPG91dGZpbGUubWFlPic=

>  <r_lp_tautomer_probability>  (254) 
1

>  <r_epik_Ionization_Penalty>  (254) 
0.176978

>  <r_epik_Ionization_Penalty_Charging>  (254) 
0.176975

>  <r_epik_Ionization_Penalty_Neutral>  (254) 
2.96197e-06

>  <r_epik_State_Penalty>  (254) 
0.148301

>  <r_epik_Charging_Adjusted_Penalty>  (254) 
0.325276

>  <i_epik_Tot_Q>  (254) 
2

>  <i_epik_Tot_abs_Q>  (254) 
2

>  <s_lp_Force_Field>  (254) 
OPLS3e

>  <r_lp_Energy>  (254) 
267.398

>  <b_lp_Chiralities_Consistent>  (254) 
1

>  <s_lp_Variant>  (254) 
58:0-1

>  <s_i_glide_gridfile>  (254) 
pfpi4k_grid

>  <i_i_glide_lignum>  (254) 
20

>  <i_i_glide_rotatable_bonds>  (254) 
3

>  <r_i_docking_score>  (254) 
-4.60346

>  <r_i_glide_ligand_efficiency>  (254) 
-0.153449

>  <r_i_glide_ligand_efficiency_sa>  (254) 
-0.476801

>  <r_i_glide_ligand_efficiency_ln>  (254) 
-1.04596

>  <r_i_glide_gscore>  (254) 
-4.60346

>  <r_i_glide_lipo>  (254) 
-0.757679

>  <r_i_glide_hbond>  (254) 
-0.140061

>  <r_i_glide_metal>  (254) 
-0

>  <r_i_glide_rewards>  (254) 
-1.0827

>  <r_i_glide_evdw>  (254) 
-23.6281

>  <r_i_glide_ecoul>  (254) 
-9.61078

>  <r_i_glide_erotb>  (254) 
0

>  <r_i_glide_esite>  (254) 
0

>  <r_i_glide_emodel>  (254) 
-45.5942

>  <r_i_glide_energy>  (254) 
-33.2389

>  <r_i_glide_einternal>  (254) 
1.73365

>  <r_i_glide_intrahb_reward>  (254) 
-0.5

>  <i_i_glide_confnum>  (254) 
1

>  <i_i_glide_posenum>  (254) 
26

>  <r_i_glide_eff_state_penalty>  (254) 
0

>  <ligand_id>  (254) 
58

>  <original_smiles>  (254) 
COC1CC2CC3N4C1C1(O)CCC(O)C5c6ccccc6OC1C3(CCN5C)C24

>  <smiles>  (254) 
[H]OC1([H])C([H])([H])C([H])([H])C2(O[H])C3([H])Oc4c([H])c([H])c([H])c([H])c4C1([H])[N+]([H])(C([H])([H])[H])C([H])([H])C([H])([H])C31C3([H])C([H])([H])C4([H])C([H])([H])C([H])(OC([H])([H])[H])C2([H])[N+]3([H])C41[H]

$$$$
58:1:0
     RDKit          3D

 63 69  0  0  1  0  0  0  0  0999 V2000
   -0.5833   -7.3926    2.5120 C   0  0  0  0  0  0  0  0  0  0  0  0
    0.2475   -6.2289    2.4826 O   0  0  0  0  0  0  0  0  0  0  0  0
    1.5554   -6.4287    1.9290 C   0  0  2  0  0  0  0  0  0  0  0  0
    2.3972   -7.4974    2.9125 C   0  0  0  0  0  0  0  0  0  0  0  0
    4.0296   -7.2734    2.8912 C   0  0  2  0  0  0  0  0  0  0  0  0
    4.7794   -6.1258    3.6798 C   0  0  0  0  0  0  0  0  0  0  0  0
    4.6929   -4.9832    2.6357 C   0  0  2  0  0  0  0  0  0  0  0  0
    3.4615   -5.4478    2.2867 N   0  0  0  0  0  0  0  0  0  0  0  0
    2.3159   -5.0023    1.6522 C   0  0  1  0  0  0  0  0  0  0  0  0
    2.7774   -4.3501    0.2725 C   0  0  1  0  0  0  0  0  0  0  0  0
    1.8116   -4.7159   -0.6981 O   0  0  0  0  0  0  0  0  0  0  0  0
    2.7086   -2.7959    0.3763 C   0  0  0  0  0  0  0  0  0  0  0  0
    3.6127   -2.0866    1.4109 C   0  0  0  0  0  0  0  0  0  0  0  0
    5.0781   -1.6289    1.1075 C   0  0  1  0  0  0  0  0  0  0  0  0
    5.8158   -1.4659    2.3025 O   0  0  0  0  0  0  0  0  0  0  0  0
    5.9523   -2.0593   -0.1211 C   0  0  2  0  0  0  0  0  0  0  0  0
    5.1889   -1.9972   -1.4523 C   0  0  0  0  0  0  0  0  0  0  0  0
    4.9720   -0.7895   -2.1251 C   0  0  0  0  0  0  0  0  0  0  0  0
    4.2072   -0.9026   -3.3113 C   0  0  0  0  0  0  0  0  0  0  0  0
    3.7248   -2.1477   -3.7640 C   0  0  0  0  0  0  0  0  0  0  0  0
    3.9679   -3.3484   -3.0738 C   0  0  0  0  0  0  0  0  0  0  0  0
    4.7029   -3.2353   -1.8742 C   0  0  0  0  0  0  0  0  0  0  0  0
    5.0418   -4.3533   -1.1654 O   0  0  0  0  0  0  0  0  0  0  0  0
    4.2129   -4.8792   -0.1297 C   0  0  1  0  0  0  0  0  0  0  0  0
    5.0079   -5.3630    1.1542 C   0  0  1  0  0  0  0  0  0  0  0  0
    6.5097   -5.4188    0.9149 C   0  0  0  0  0  0  0  0  0  0  0  0
    7.1840   -4.0341    1.1113 C   0  0  0  0  0  0  0  0  0  0  0  0
    7.0137   -3.1426   -0.0726 N   0  0  2  0  0  0  0  0  0  0  0  0
    8.3147   -2.7432   -0.6820 C   0  0  0  0  0  0  0  0  0  0  0  0
    4.1461   -6.5590    1.6211 C   0  0  1  0  0  0  0  0  0  0  0  0
   -1.5352   -7.1769    3.0016 H   0  0  0  0  0  0  0  0  0  0  0  0
   -0.1490   -8.2333    3.0544 H   0  0  0  0  0  0  0  0  0  0  0  0
   -0.8067   -7.7262    1.5011 H   0  0  0  0  0  0  0  0  0  0  0  0
    1.4022   -6.8945    0.9504 H   0  0  0  0  0  0  0  0  0  0  0  0
    2.0441   -7.4546    3.9444 H   0  0  0  0  0  0  0  0  0  0  0  0
    2.1889   -8.5011    2.5457 H   0  0  0  0  0  0  0  0  0  0  0  0
    4.5809   -8.2163    2.8990 H   0  0  0  0  0  0  0  0  0  0  0  0
    4.2939   -5.8743    4.6277 H   0  0  0  0  0  0  0  0  0  0  0  0
    5.8201   -6.3821    3.8836 H   0  0  0  0  0  0  0  0  0  0  0  0
    4.7628   -3.9615    2.9823 H   0  0  0  0  0  0  0  0  0  0  0  0
    1.8319   -4.2463    2.2651 H   0  0  0  0  0  0  0  0  0  0  0  0
    2.2717   -5.1272   -1.4339 H   0  0  0  0  0  0  0  0  0  0  0  0
    2.7415   -2.2985   -0.5916 H   0  0  0  0  0  0  0  0  0  0  0  0
    1.7014   -2.5641    0.7081 H   0  0  0  0  0  0  0  0  0  0  0  0
    3.0781   -1.1658    1.6597 H   0  0  0  0  0  0  0  0  0  0  0  0
    3.5414   -2.5951    2.3628 H   0  0  0  0  0  0  0  0  0  0  0  0
    4.8914   -0.5799    0.8516 H   0  0  0  0  0  0  0  0  0  0  0  0
    6.5097   -0.8369    2.1664 H   0  0  0  0  0  0  0  0  0  0  0  0
    6.5821   -1.1815   -0.1954 H   0  0  0  0  0  0  0  0  0  0  0  0
    5.3436    0.1293   -1.7675 H   0  0  0  0  0  0  0  0  0  0  0  0
    3.9822   -0.0145   -3.8919 H   0  0  0  0  0  0  0  0  0  0  0  0
    3.1448   -2.1852   -4.6721 H   0  0  0  0  0  0  0  0  0  0  0  0
    3.5793   -4.2613   -3.4772 H   0  0  0  0  0  0  0  0  0  0  0  0
    3.9908   -5.7915   -0.6773 H   0  0  0  0  0  0  0  0  0  0  0  0
    6.9571   -6.1002    1.6377 H   0  0  0  0  0  0  0  0  0  0  0  0
    6.7557   -5.8547   -0.0510 H   0  0  0  0  0  0  0  0  0  0  0  0
    6.9179   -3.5845    2.0615 H   0  0  0  0  0  0  0  0  0  0  0  0
    8.2472   -4.2413    1.2293 H   0  0  0  0  0  0  0  0  0  0  0  0
    8.8786   -2.0659   -0.0336 H   0  0  0  0  0  0  0  0  0  0  0  0
    8.1671   -2.2633   -1.6496 H   0  0  0  0  0  0  0  0  0  0  0  0
    8.9448   -3.6134   -0.8677 H   0  0  0  0  0  0  0  0  0  0  0  0
    3.5991   -7.0510    0.8187 H   0  0  0  0  0  0  0  0  0  0  0  0
    6.6208   -3.8005   -0.7438 H   0  0  0  0  0  0  0  0  0  0  0  0
  1  2  1  0
  1 31  1  0
  1 32  1  0
  1 33  1  0
  2  3  1  0
  3  9  1  0
  3  4  1  0
  3 34  1  6
  4  5  1  0
  4 35  1  0
  4 36  1  0
  5 30  1  0
  5  6  1  0
  5 37  1  6
  6  7  1  0
  6 38  1  0
  6 39  1  0
  7 25  1  0
  7  8  1  0
  7 40  1  1
  8 30  1  0
  8  9  1  0
  9 10  1  0
  9 41  1  1
 10 24  1  0
 10 11  1  6
 10 12  1  0
 11 42  1  0
 12 13  1  0
 12 43  1  0
 12 44  1  0
 13 14  1  0
 13 45  1  0
 13 46  1  0
 14 15  1  0
 14 16  1  0
 14 47  1  6
 15 48  1  0
 16 28  1  0
 16 17  1  0
 16 49  1  6
 17 22  2  0
 17 18  1  0
 18 19  2  0
 18 50  1  0
 19 20  1  0
 19 51  1  0
 20 21  2  0
 20 52  1  0
 21 22  1  0
 21 53  1  0
 22 23  1  0
 23 24  1  0
 24 25  1  0
 24 54  1  6
 25 26  1  6
 25 30  1  0
 26 27  1  0
 26 55  1  0
 26 56  1  0
 27 28  1  0
 27 57  1  0
 27 58  1  0
 28 29  1  0
 28 63  1  6
 29 59  1  0
 29 60  1  0
 29 61  1  0
 30 62  1  6
M  CHG  1  28   1
M  END
>  <i_m_ct_stereo_status>  (255) 
1

>  <s_m_source_file>  (255) 
/var/tmp/pbs.5076255.sched01/tmp2a9bgmzv/100_xx7n39i.sdf

>  <i_m_source_file_index>  (255) 
21

>  <i_lp_mmshare_version>  (255) 
48012

>  <i_f3d_flags>  (255) 
0

>  <s_epik_input>  (255) 
W0NIMl0xW0NASF0oW0NAQEhdMjMpW0NIMl1bQ0BASF0oT1tDSDNdKVtDQEBIXShOMltDQEBIXTFbQ0BAXTM0NSlbQ0BdNihbT0hdKVtDQEhdNE9jN2MoW0NAQEhdKFtDQEhdKFtPSF0pW0NIMl1bQ0gyXTYpTihbQ0gzXSlbQ0gyXVtDSDJdNSlbY0hdW2NIXVtjSF1bY0hdNw==

>  <s_epik_cmdline>  (255) 
J2VwaWtfcHl0aG9uJywgJy1waHQnLCAnMi4wJywgJy1waCcsICc3LjAnLCAnLXRuJywgJzgnLCAnLW1hJywgJzIwMCcsICctaW1hZScsICc8aW5maWxlLm1hZT4nLCAnLW9tYWUnLCAnPG91dGZpbGUubWFlPic=

>  <r_epik_Ionization_Penalty>  (255) 
1.10594

>  <r_epik_Ionization_Penalty_Charging>  (255) 
0.0212516

>  <r_epik_Ionization_Penalty_Neutral>  (255) 
1.08469

>  <r_epik_State_Penalty>  (255) 
1.29073

>  <r_epik_Charging_Adjusted_Penalty>  (255) 
1.31199

>  <i_epik_Tot_Q>  (255) 
1

>  <i_epik_Tot_abs_Q>  (255) 
1

>  <s_lp_Force_Field>  (255) 
OPLS3e

>  <r_lp_Energy>  (255) 
251.006

>  <b_lp_Chiralities_Consistent>  (255) 
1

>  <s_lp_Variant>  (255) 
58:0-2

>  <s_i_glide_gridfile>  (255) 
pfpi4k_grid

>  <i_i_glide_lignum>  (255) 
21

>  <i_i_glide_rotatable_bonds>  (255) 
3

>  <r_i_docking_score>  (255) 
-4.63332

>  <r_i_glide_ligand_efficiency>  (255) 
-0.154444

>  <r_i_glide_ligand_efficiency_sa>  (255) 
-0.479894

>  <r_i_glide_ligand_efficiency_ln>  (255) 
-1.05274

>  <r_i_glide_gscore>  (255) 
-4.63332

>  <r_i_glide_lipo>  (255) 
-0.753335

>  <r_i_glide_hbond>  (255) 
-0.153238

>  <r_i_glide_metal>  (255) 
-0

>  <r_i_glide_rewards>  (255) 
-1.08957

>  <r_i_glide_evdw>  (255) 
-24.3044

>  <r_i_glide_ecoul>  (255) 
-9.47976

>  <r_i_glide_erotb>  (255) 
0

>  <r_i_glide_esite>  (255) 
0

>  <r_i_glide_emodel>  (255) 
-46.7538

>  <r_i_glide_energy>  (255) 
-33.7841

>  <r_i_glide_einternal>  (255) 
2.18047

>  <r_i_glide_intrahb_reward>  (255) 
-0.5

>  <i_i_glide_confnum>  (255) 
2

>  <i_i_glide_posenum>  (255) 
20

>  <r_i_glide_eff_state_penalty>  (255) 
0

>  <ligand_id>  (255) 
58

>  <original_smiles>  (255) 
COC1CC2CC3N4C1C1(O)CCC(O)C5c6ccccc6OC1C3(CCN5C)C24

>  <smiles>  (255) 
[H]OC1([H])C([H])([H])C([H])([H])C2(O[H])C3([H])Oc4c([H])c([H])c([H])c([H])c4C1([H])[N+]([H])(C([H])([H])[H])C([H])([H])C([H])([H])C31C3([H])N4C2([H])C([H])(OC([H])([H])[H])C([H])([H])C([H])(C3([H])[H])C41[H]

$$$$
58:1:1
     RDKit          3D

 63 69  0  0  1  0  0  0  0  0999 V2000
   -0.5809   -7.3903    2.5182 C   0  0  0  0  0  0  0  0  0  0  0  0
    0.2489   -6.2255    2.4865 O   0  0  0  0  0  0  0  0  0  0  0  0
    1.5559   -6.4251    1.9303 C   0  0  2  0  0  0  0  0  0  0  0  0
    2.3994   -7.4926    2.9135 C   0  0  0  0  0  0  0  0  0  0  0  0
    4.0314   -7.2689    2.8924 C   0  0  2  0  0  0  0  0  0  0  0  0
    4.7817   -6.1211    3.6793 C   0  0  0  0  0  0  0  0  0  0  0  0
    4.6927   -4.9793    2.6341 C   0  0  2  0  0  0  0  0  0  0  0  0
    3.4616   -5.4436    2.2842 N   0  0  0  0  0  0  0  0  0  0  0  0
    2.3158   -4.9992    1.6491 C   0  0  1  0  0  0  0  0  0  0  0  0
    2.7781   -4.3470    0.2681 C   0  0  1  0  0  0  0  0  0  0  0  0
    1.8164   -4.7077   -0.7120 O   0  0  0  0  0  0  0  0  0  0  0  0
    2.7089   -2.7926    0.3747 C   0  0  0  0  0  0  0  0  0  0  0  0
    3.6087   -2.0838    1.4110 C   0  0  0  0  0  0  0  0  0  0  0  0
    5.0733   -1.6301    1.1062 C   0  0  1  0  0  0  0  0  0  0  0  0
    5.8140   -1.4671    2.2982 O   0  0  0  0  0  0  0  0  0  0  0  0
    5.9501   -2.0577   -0.1227 C   0  0  2  0  0  0  0  0  0  0  0  0
    5.1894   -1.9965   -1.4507 C   0  0  0  0  0  0  0  0  0  0  0  0
    4.9682   -0.7945   -2.1314 C   0  0  0  0  0  0  0  0  0  0  0  0
    4.2057   -0.9086   -3.3138 C   0  0  0  0  0  0  0  0  0  0  0  0
    3.7215   -2.1534   -3.7662 C   0  0  0  0  0  0  0  0  0  0  0  0
    3.9739   -3.3534   -3.0737 C   0  0  0  0  0  0  0  0  0  0  0  0
    4.7051   -3.2356   -1.8733 C   0  0  0  0  0  0  0  0  0  0  0  0
    5.0447   -4.3552   -1.1635 O   0  0  0  0  0  0  0  0  0  0  0  0
    4.2146   -4.8781   -0.1302 C   0  0  1  0  0  0  0  0  0  0  0  0
    5.0088   -5.3603    1.1536 C   0  0  1  0  0  0  0  0  0  0  0  0
    6.5113   -5.4151    0.9153 C   0  0  0  0  0  0  0  0  0  0  0  0
    7.1878   -4.0314    1.1103 C   0  0  0  0  0  0  0  0  0  0  0  0
    7.0144   -3.1394   -0.0722 N   0  0  2  0  0  0  0  0  0  0  0  0
    8.3142   -2.7408   -0.6829 C   0  0  0  0  0  0  0  0  0  0  0  0
    4.1471   -6.5557    1.6216 C   0  0  1  0  0  0  0  0  0  0  0  0
   -1.5329   -7.1743    3.0075 H   0  0  0  0  0  0  0  0  0  0  0  0
   -0.1458   -8.2295    3.0622 H   0  0  0  0  0  0  0  0  0  0  0  0
   -0.8044   -7.7267    1.5080 H   0  0  0  0  0  0  0  0  0  0  0  0
    1.4010   -6.8928    0.9532 H   0  0  0  0  0  0  0  0  0  0  0  0
    2.0465   -7.4525    3.9447 H   0  0  0  0  0  0  0  0  0  0  0  0
    2.1913   -8.4959    2.5475 H   0  0  0  0  0  0  0  0  0  0  0  0
    4.5826   -8.2117    2.8986 H   0  0  0  0  0  0  0  0  0  0  0  0
    4.2963   -5.8688    4.6268 H   0  0  0  0  0  0  0  0  0  0  0  0
    5.8231   -6.3782    3.8812 H   0  0  0  0  0  0  0  0  0  0  0  0
    4.7687   -3.9573    2.9798 H   0  0  0  0  0  0  0  0  0  0  0  0
    1.8319   -4.2437    2.2627 H   0  0  0  0  0  0  0  0  0  0  0  0
    2.2774   -5.1187   -1.4461 H   0  0  0  0  0  0  0  0  0  0  0  0
    2.7420   -2.2968   -0.5940 H   0  0  0  0  0  0  0  0  0  0  0  0
    1.7004   -2.5630    0.7036 H   0  0  0  0  0  0  0  0  0  0  0  0
    3.0729   -1.1636    1.6560 H   0  0  0  0  0  0  0  0  0  0  0  0
    3.5358   -2.5964    2.3603 H   0  0  0  0  0  0  0  0  0  0  0  0
    4.8964   -0.5793    0.8555 H   0  0  0  0  0  0  0  0  0  0  0  0
    5.2932   -0.9722    2.9190 H   0  0  0  0  0  0  0  0  0  0  0  0
    6.5811   -1.1799   -0.1899 H   0  0  0  0  0  0  0  0  0  0  0  0
    5.3447    0.1261   -1.7717 H   0  0  0  0  0  0  0  0  0  0  0  0
    3.9838   -0.0246   -3.8919 H   0  0  0  0  0  0  0  0  0  0  0  0
    3.1405   -2.1893   -4.6715 H   0  0  0  0  0  0  0  0  0  0  0  0
    3.5945   -4.2618   -3.4824 H   0  0  0  0  0  0  0  0  0  0  0  0
    3.9917   -5.7904   -0.6776 H   0  0  0  0  0  0  0  0  0  0  0  0
    6.9587   -6.0982    1.6359 H   0  0  0  0  0  0  0  0  0  0  0  0
    6.7588   -5.8542   -0.0500 H   0  0  0  0  0  0  0  0  0  0  0  0
    6.9241   -3.5810    2.0570 H   0  0  0  0  0  0  0  0  0  0  0  0
    8.2511   -4.2379    1.2278 H   0  0  0  0  0  0  0  0  0  0  0  0
    8.8793   -2.0640   -0.0371 H   0  0  0  0  0  0  0  0  0  0  0  0
    8.1664   -2.2628   -1.6504 H   0  0  0  0  0  0  0  0  0  0  0  0
    8.9436   -3.6102   -0.8698 H   0  0  0  0  0  0  0  0  0  0  0  0
    3.5999   -7.0465    0.8190 H   0  0  0  0  0  0  0  0  0  0  0  0
    6.6213   -3.7969   -0.7434 H   0  0  0  0  0  0  0  0  0  0  0  0
  1  2  1  0
  1 31  1  0
  1 32  1  0
  1 33  1  0
  2  3  1  0
  3  9  1  0
  3  4  1  0
  3 34  1  6
  4  5  1  0
  4 35  1  0
  4 36  1  0
  5 30  1  0
  5  6  1  0
  5 37  1  6
  6  7  1  0
  6 38  1  0
  6 39  1  0
  7 25  1  0
  7  8  1  0
  7 40  1  1
  8 30  1  0
  8  9  1  0
  9 10  1  0
  9 41  1  1
 10 24  1  0
 10 11  1  6
 10 12  1  0
 11 42  1  0
 12 13  1  0
 12 43  1  0
 12 44  1  0
 13 14  1  0
 13 45  1  0
 13 46  1  0
 14 15  1  0
 14 16  1  0
 14 47  1  6
 15 48  1  0
 16 28  1  0
 16 17  1  0
 16 49  1  6
 17 22  2  0
 17 18  1  0
 18 19  2  0
 18 50  1  0
 19 20  1  0
 19 51  1  0
 20 21  2  0
 20 52  1  0
 21 22  1  0
 21 53  1  0
 22 23  1  0
 23 24  1  0
 24 25  1  0
 24 54  1  6
 25 26  1  6
 25 30  1  0
 26 27  1  0
 26 55  1  0
 26 56  1  0
 27 28  1  0
 27 57  1  0
 27 58  1  0
 28 29  1  0
 28 63  1  6
 29 59  1  0
 29 60  1  0
 29 61  1  0
 30 62  1  6
M  CHG  1  28   1
M  END
>  <i_m_ct_stereo_status>  (256) 
1

>  <s_m_source_file>  (256) 
/var/tmp/pbs.5076255.sched01/tmp2a9bgmzv/100_xx7n39i.sdf

>  <i_m_source_file_index>  (256) 
21

>  <i_lp_mmshare_version>  (256) 
48012

>  <i_f3d_flags>  (256) 
0

>  <s_epik_input>  (256) 
W0NIMl0xW0NASF0oW0NAQEhdMjMpW0NIMl1bQ0BASF0oT1tDSDNdKVtDQEBIXShOMltDQEBIXTFbQ0BAXTM0NSlbQ0BdNihbT0hdKVtDQEhdNE9jN2MoW0NAQEhdKFtDQEhdKFtPSF0pW0NIMl1bQ0gyXTYpTihbQ0gzXSlbQ0gyXVtDSDJdNSlbY0hdW2NIXVtjSF1bY0hdNw==

>  <s_epik_cmdline>  (256) 
J2VwaWtfcHl0aG9uJywgJy1waHQnLCAnMi4wJywgJy1waCcsICc3LjAnLCAnLXRuJywgJzgnLCAnLW1hJywgJzIwMCcsICctaW1hZScsICc8aW5maWxlLm1hZT4nLCAnLW9tYWUnLCAnPG91dGZpbGUubWFlPic=

>  <r_epik_Ionization_Penalty>  (256) 
1.10594

>  <r_epik_Ionization_Penalty_Charging>  (256) 
0.0212516

>  <r_epik_Ionization_Penalty_Neutral>  (256) 
1.08469

>  <r_epik_State_Penalty>  (256) 
1.29073

>  <r_epik_Charging_Adjusted_Penalty>  (256) 
1.31199

>  <i_epik_Tot_Q>  (256) 
1

>  <i_epik_Tot_abs_Q>  (256) 
1

>  <s_lp_Force_Field>  (256) 
OPLS3e

>  <r_lp_Energy>  (256) 
251.006

>  <b_lp_Chiralities_Consistent>  (256) 
1

>  <s_lp_Variant>  (256) 
58:0-2

>  <s_i_glide_gridfile>  (256) 
pfpi4k_grid

>  <i_i_glide_lignum>  (256) 
21

>  <i_i_glide_rotatable_bonds>  (256) 
3

>  <r_i_docking_score>  (256) 
-4.54462

>  <r_i_glide_ligand_efficiency>  (256) 
-0.151487

>  <r_i_glide_ligand_efficiency_sa>  (256) 
-0.470706

>  <r_i_glide_ligand_efficiency_ln>  (256) 
-1.03259

>  <r_i_glide_gscore>  (256) 
-4.54462

>  <r_i_glide_lipo>  (256) 
-0.751538

>  <r_i_glide_hbond>  (256) 
-0.152599

>  <r_i_glide_metal>  (256) 
-0

>  <r_i_glide_rewards>  (256) 
-1.08957

>  <r_i_glide_evdw>  (256) 
-24.4125

>  <r_i_glide_ecoul>  (256) 
-8.86854

>  <r_i_glide_erotb>  (256) 
0

>  <r_i_glide_esite>  (256) 
0

>  <r_i_glide_emodel>  (256) 
-46.149

>  <r_i_glide_energy>  (256) 
-33.2811

>  <r_i_glide_einternal>  (256) 
2.15992

>  <r_i_glide_intrahb_reward>  (256) 
-0.5

>  <i_i_glide_confnum>  (256) 
2

>  <i_i_glide_posenum>  (256) 
9

>  <r_i_glide_eff_state_penalty>  (256) 
0

>  <ligand_id>  (256) 
58

>  <original_smiles>  (256) 
COC1CC2CC3N4C1C1(O)CCC(O)C5c6ccccc6OC1C3(CCN5C)C24

>  <smiles>  (256) 
[H]OC1([H])C([H])([H])C([H])([H])C2(O[H])C3([H])Oc4c([H])c([H])c([H])c([H])c4C1([H])[N+]([H])(C([H])([H])[H])C([H])([H])C([H])([H])C31C3([H])N4C2([H])C([H])(OC([H])([H])[H])C([H])([H])C([H])(C3([H])[H])C41[H]

$$$$
58:1:2
     RDKit          3D

 63 69  0  0  1  0  0  0  0  0999 V2000
   -0.5824   -7.3883    2.5160 C   0  0  0  0  0  0  0  0  0  0  0  0
    0.2484   -6.2246    2.4858 O   0  0  0  0  0  0  0  0  0  0  0  0
    1.5550   -6.4242    1.9304 C   0  0  2  0  0  0  0  0  0  0  0  0
    2.3972   -7.4919    2.9136 C   0  0  0  0  0  0  0  0  0  0  0  0
    4.0298   -7.2689    2.8914 C   0  0  2  0  0  0  0  0  0  0  0  0
    4.7803   -6.1210    3.6802 C   0  0  0  0  0  0  0  0  0  0  0  0
    4.6944   -4.9788    2.6352 C   0  0  2  0  0  0  0  0  0  0  0  0
    3.4623   -5.4423    2.2869 N   0  0  0  0  0  0  0  0  0  0  0  0
    2.3155   -4.9986    1.6520 C   0  0  1  0  0  0  0  0  0  0  0  0
    2.7774   -4.3467    0.2717 C   0  0  1  0  0  0  0  0  0  0  0  0
    1.8140   -4.7132   -0.7000 O   0  0  0  0  0  0  0  0  0  0  0  0
    2.7072   -2.7926    0.3755 C   0  0  0  0  0  0  0  0  0  0  0  0
    3.6076   -2.0849    1.4105 C   0  0  0  0  0  0  0  0  0  0  0  0
    5.0745   -1.6350    1.1060 C   0  0  1  0  0  0  0  0  0  0  0  0
    5.8163   -1.4562    2.2902 O   0  0  0  0  0  0  0  0  0  0  0  0
    5.9514   -2.0574   -0.1232 C   0  0  2  0  0  0  0  0  0  0  0  0
    5.1891   -1.9936   -1.4525 C   0  0  0  0  0  0  0  0  0  0  0  0
    4.9708   -0.7882   -2.1279 C   0  0  0  0  0  0  0  0  0  0  0  0
    4.2069   -0.8999   -3.3132 C   0  0  0  0  0  0  0  0  0  0  0  0
    3.7239   -2.1464   -3.7662 C   0  0  0  0  0  0  0  0  0  0  0  0
    3.9662   -3.3504   -3.0746 C   0  0  0  0  0  0  0  0  0  0  0  0
    4.7030   -3.2341   -1.8758 C   0  0  0  0  0  0  0  0  0  0  0  0
    5.0427   -4.3481   -1.1642 O   0  0  0  0  0  0  0  0  0  0  0  0
    4.2130   -4.8764   -0.1291 C   0  0  1  0  0  0  0  0  0  0  0  0
    5.0095   -5.3589    1.1540 C   0  0  1  0  0  0  0  0  0  0  0  0
    6.5119   -5.4180    0.9123 C   0  0  0  0  0  0  0  0  0  0  0  0
    7.1918   -4.0376    1.1047 C   0  0  0  0  0  0  0  0  0  0  0  0
    7.0149   -3.1417   -0.0762 N   0  0  2  0  0  0  0  0  0  0  0  0
    8.3157   -2.7386   -0.6844 C   0  0  0  0  0  0  0  0  0  0  0  0
    4.1467   -6.5536    1.6211 C   0  0  1  0  0  0  0  0  0  0  0  0
   -1.5347   -7.1731    3.0054 H   0  0  0  0  0  0  0  0  0  0  0  0
   -0.1485   -8.2290    3.0586 H   0  0  0  0  0  0  0  0  0  0  0  0
   -0.8062   -7.7231    1.5055 H   0  0  0  0  0  0  0  0  0  0  0  0
    1.4007   -6.8907    0.9532 H   0  0  0  0  0  0  0  0  0  0  0  0
    2.0447   -7.4511    3.9458 H   0  0  0  0  0  0  0  0  0  0  0  0
    2.1900   -8.4952    2.5468 H   0  0  0  0  0  0  0  0  0  0  0  0
    4.5817   -8.2121    2.8993 H   0  0  0  0  0  0  0  0  0  0  0  0
    4.2940   -5.8688    4.6288 H   0  0  0  0  0  0  0  0  0  0  0  0
    5.8218   -6.3784    3.8829 H   0  0  0  0  0  0  0  0  0  0  0  0
    4.7598   -3.9588    2.9837 H   0  0  0  0  0  0  0  0  0  0  0  0
    1.8316   -4.2425    2.2641 H   0  0  0  0  0  0  0  0  0  0  0  0
    2.2732   -5.1281   -1.4348 H   0  0  0  0  0  0  0  0  0  0  0  0
    2.7409   -2.2957   -0.5928 H   0  0  0  0  0  0  0  0  0  0  0  0
    1.7000   -2.5611    0.7058 H   0  0  0  0  0  0  0  0  0  0  0  0
    3.0777   -1.1615    1.6567 H   0  0  0  0  0  0  0  0  0  0  0  0
    3.5344   -2.5926    2.3621 H   0  0  0  0  0  0  0  0  0  0  0  0
    4.8983   -0.5833    0.8588 H   0  0  0  0  0  0  0  0  0  0  0  0
    5.9920   -2.3010    2.6762 H   0  0  0  0  0  0  0  0  0  0  0  0
    6.5812   -1.1770   -0.1901 H   0  0  0  0  0  0  0  0  0  0  0  0
    5.3439    0.1301   -1.7697 H   0  0  0  0  0  0  0  0  0  0  0  0
    3.9830   -0.0145   -3.8935 H   0  0  0  0  0  0  0  0  0  0  0  0
    3.1452   -2.1839   -4.6723 H   0  0  0  0  0  0  0  0  0  0  0  0
    3.5797   -4.2581   -3.4749 H   0  0  0  0  0  0  0  0  0  0  0  0
    3.9910   -5.7888   -0.6768 H   0  0  0  0  0  0  0  0  0  0  0  0
    6.9576   -6.0980    1.6356 H   0  0  0  0  0  0  0  0  0  0  0  0
    6.7561   -5.8582   -0.0522 H   0  0  0  0  0  0  0  0  0  0  0  0
    6.9308   -3.5885    2.0543 H   0  0  0  0  0  0  0  0  0  0  0  0
    8.2555   -4.2424    1.2211 H   0  0  0  0  0  0  0  0  0  0  0  0
    8.8797   -2.0611   -0.0347 H   0  0  0  0  0  0  0  0  0  0  0  0
    8.1671   -2.2588   -1.6528 H   0  0  0  0  0  0  0  0  0  0  0  0
    8.9459   -3.6093   -0.8701 H   0  0  0  0  0  0  0  0  0  0  0  0
    3.5985   -7.0459    0.8194 H   0  0  0  0  0  0  0  0  0  0  0  0
    6.6221   -3.7962   -0.7516 H   0  0  0  0  0  0  0  0  0  0  0  0
  1  2  1  0
  1 31  1  0
  1 32  1  0
  1 33  1  0
  2  3  1  0
  3  9  1  0
  3  4  1  0
  3 34  1  6
  4  5  1  0
  4 35  1  0
  4 36  1  0
  5 30  1  0
  5  6  1  0
  5 37  1  6
  6  7  1  0
  6 38  1  0
  6 39  1  0
  7 25  1  0
  7  8  1  0
  7 40  1  1
  8 30  1  0
  8  9  1  0
  9 10  1  0
  9 41  1  1
 10 24  1  0
 10 11  1  6
 10 12  1  0
 11 42  1  0
 12 13  1  0
 12 43  1  0
 12 44  1  0
 13 14  1  0
 13 45  1  0
 13 46  1  0
 14 15  1  0
 14 16  1  0
 14 47  1  6
 15 48  1  0
 16 28  1  0
 16 17  1  0
 16 49  1  6
 17 22  2  0
 17 18  1  0
 18 19  2  0
 18 50  1  0
 19 20  1  0
 19 51  1  0
 20 21  2  0
 20 52  1  0
 21 22  1  0
 21 53  1  0
 22 23  1  0
 23 24  1  0
 24 25  1  0
 24 54  1  6
 25 26  1  6
 25 30  1  0
 26 27  1  0
 26 55  1  0
 26 56  1  0
 27 28  1  0
 27 57  1  0
 27 58  1  0
 28 29  1  0
 28 63  1  6
 29 59  1  0
 29 60  1  0
 29 61  1  0
 30 62  1  6
M  CHG  1  28   1
M  END
>  <i_m_ct_stereo_status>  (257) 
1

>  <s_m_source_file>  (257) 
/var/tmp/pbs.5076255.sched01/tmp2a9bgmzv/100_xx7n39i.sdf

>  <i_m_source_file_index>  (257) 
21

>  <i_lp_mmshare_version>  (257) 
48012

>  <i_f3d_flags>  (257) 
0

>  <s_epik_input>  (257) 
W0NIMl0xW0NASF0oW0NAQEhdMjMpW0NIMl1bQ0BASF0oT1tDSDNdKVtDQEBIXShOMltDQEBIXTFbQ0BAXTM0NSlbQ0BdNihbT0hdKVtDQEhdNE9jN2MoW0NAQEhdKFtDQEhdKFtPSF0pW0NIMl1bQ0gyXTYpTihbQ0gzXSlbQ0gyXVtDSDJdNSlbY0hdW2NIXVtjSF1bY0hdNw==

>  <s_epik_cmdline>  (257) 
J2VwaWtfcHl0aG9uJywgJy1waHQnLCAnMi4wJywgJy1waCcsICc3LjAnLCAnLXRuJywgJzgnLCAnLW1hJywgJzIwMCcsICctaW1hZScsICc8aW5maWxlLm1hZT4nLCAnLW9tYWUnLCAnPG91dGZpbGUubWFlPic=

>  <r_epik_Ionization_Penalty>  (257) 
1.10594

>  <r_epik_Ionization_Penalty_Charging>  (257) 
0.0212516

>  <r_epik_Ionization_Penalty_Neutral>  (257) 
1.08469

>  <r_epik_State_Penalty>  (257) 
1.29073

>  <r_epik_Charging_Adjusted_Penalty>  (257) 
1.31199

>  <i_epik_Tot_Q>  (257) 
1

>  <i_epik_Tot_abs_Q>  (257) 
1

>  <s_lp_Force_Field>  (257) 
OPLS3e

>  <r_lp_Energy>  (257) 
251.006

>  <b_lp_Chiralities_Consistent>  (257) 
1

>  <s_lp_Variant>  (257) 
58:0-2

>  <s_i_glide_gridfile>  (257) 
pfpi4k_grid

>  <i_i_glide_lignum>  (257) 
21

>  <i_i_glide_rotatable_bonds>  (257) 
3

>  <r_i_docking_score>  (257) 
-4.51134

>  <r_i_glide_ligand_efficiency>  (257) 
-0.150378

>  <r_i_glide_ligand_efficiency_sa>  (257) 
-0.467259

>  <r_i_glide_ligand_efficiency_ln>  (257) 
-1.02502

>  <r_i_glide_gscore>  (257) 
-4.51134

>  <r_i_glide_lipo>  (257) 
-0.753149

>  <r_i_glide_hbond>  (257) 
-0.15286

>  <r_i_glide_metal>  (257) 
-0

>  <r_i_glide_rewards>  (257) 
-1.08957

>  <r_i_glide_evdw>  (257) 
-24.3639

>  <r_i_glide_ecoul>  (257) 
-8.65043

>  <r_i_glide_erotb>  (257) 
0

>  <r_i_glide_esite>  (257) 
0

>  <r_i_glide_emodel>  (257) 
-45.9113

>  <r_i_glide_energy>  (257) 
-33.0143

>  <r_i_glide_einternal>  (257) 
1.84306

>  <r_i_glide_intrahb_reward>  (257) 
-0.5

>  <i_i_glide_confnum>  (257) 
2

>  <i_i_glide_posenum>  (257) 
25

>  <r_i_glide_eff_state_penalty>  (257) 
0

>  <ligand_id>  (257) 
58

>  <original_smiles>  (257) 
COC1CC2CC3N4C1C1(O)CCC(O)C5c6ccccc6OC1C3(CCN5C)C24

>  <smiles>  (257) 
[H]OC1([H])C([H])([H])C([H])([H])C2(O[H])C3([H])Oc4c([H])c([H])c([H])c([H])c4C1([H])[N+]([H])(C([H])([H])[H])C([H])([H])C([H])([H])C31C3([H])N4C2([H])C([H])(OC([H])([H])[H])C([H])([H])C([H])(C3([H])[H])C41[H]

$$$$
61:0:0
     RDKit          3D

 24 29  0  0  1  0  0  0  0  0999 V2000
    3.4464   -1.5817    0.7633 Cl  0  0  0  0  0  0  0  0  0  0  0  0
    3.8511   -2.8182   -0.4675 C   0  0  1  0  0  0  0  0  0  0  0  0
    2.7512   -3.8527   -0.5217 C   0  0  0  0  0  0  0  0  0  0  0  0
    1.8528   -3.4586   -1.6093 N   0  0  0  0  0  0  0  0  0  0  0  0
    2.5924   -2.7525   -2.6807 C   0  0  2  0  0  0  0  0  0  0  0  0
    3.9696   -3.4629   -3.0654 C   0  0  0  0  0  0  0  0  0  0  0  0
    5.2605   -3.1540   -2.5772 C   0  0  0  0  0  0  0  0  0  0  0  0
    5.4188   -1.5945   -2.1097 C   0  0  2  0  0  0  0  0  0  0  0  0
    4.4024   -0.4741   -2.6305 C   0  0  1  0  0  0  0  0  0  0  0  0
    3.4792   -0.9773   -3.5934 C   0  0  1  0  0  0  0  0  0  0  0  0
    4.1367   -2.2595   -3.6543 C   0  0  2  0  0  0  0  0  0  0  0  0
    4.1863   -2.1056   -1.9292 C   0  0  1  0  0  0  0  0  0  0  0  0
    3.0907   -1.3067   -2.2694 C   0  0  1  0  0  0  0  0  0  0  0  0
    4.7367   -3.2931   -0.0440 H   0  0  0  0  0  0  0  0  0  0  0  0
    3.2123   -4.8191   -0.7184 H   0  0  0  0  0  0  0  0  0  0  0  0
    2.2250   -3.9708    0.4227 H   0  0  0  0  0  0  0  0  0  0  0  0
    1.3799   -4.2669   -1.9942 H   0  0  0  0  0  0  0  0  0  0  0  0
    1.8960   -2.7076   -3.5287 H   0  0  0  0  0  0  0  0  0  0  0  0
    6.0340   -3.9036   -2.5089 H   0  0  0  0  0  0  0  0  0  0  0  0
    5.9078   -1.4151   -1.1574 H   0  0  0  0  0  0  0  0  0  0  0  0
    4.4346    0.5478   -2.3166 H   0  0  0  0  0  0  0  0  0  0  0  0
    2.9036   -0.4628   -4.3549 H   0  0  0  0  0  0  0  0  0  0  0  0
    4.9751   -2.1174   -4.3568 H   0  0  0  0  0  0  0  0  0  0  0  0
    1.2097   -2.7497   -1.2768 H   0  0  0  0  0  0  0  0  0  0  0  0
  1  2  1  0
 12  2  1  1
  2  3  1  0
  2 14  1  1
  3  4  1  0
  3 15  1  0
  3 16  1  0
  4  5  1  0
  4 17  1  0
  4 24  1  0
  5 13  1  0
  5  6  1  0
  5 18  1  6
  6 11  1  0
  6  7  2  0
  7  8  1  0
  7 19  1  0
  8 12  1  0
  8  9  1  0
  8 20  1  1
  9 13  1  0
  9 10  1  0
  9 21  1  1
 10 13  1  0
 10 11  1  0
 10 22  1  6
 11 12  1  0
 11 23  1  6
 13 12  1  1
M  CHG  1   4   1
M  END
>  <i_m_ct_stereo_status>  (258) 
1

>  <s_m_source_file>  (258) 
/var/tmp/pbs.5076255.sched01/tmp2a9bgmzv/100_xx7n39i.sdf

>  <i_m_source_file_index>  (258) 
26

>  <i_lp_mmshare_version>  (258) 
48012

>  <i_f3d_flags>  (258) 
2

>  <s_epik_input>  (258) 
Q2xbQ0BIXTFbQ0gyXVtOSF1bQ0BASF0oQzIzW0NAXTE0NSlDPTZbQ0BIXTVbQ0BASF0zW0NAQEhdMltDQEBIXTRbQ0hdNg==

>  <s_epik_cmdline>  (258) 
J2VwaWtfcHl0aG9uJywgJy1waHQnLCAnMi4wJywgJy1waCcsICc3LjAnLCAnLXRuJywgJzgnLCAnLW1hJywgJzIwMCcsICctaW1hZScsICc8aW5maWxlLm1hZT4nLCAnLW9tYWUnLCAnPG91dGZpbGUubWFlPic=

>  <r_epik_Ionization_Penalty>  (258) 
0.00806441

>  <r_epik_Ionization_Penalty_Charging>  (258) 
0.00806441

>  <r_epik_Ionization_Penalty_Neutral>  (258) 
0

>  <r_epik_State_Penalty>  (258) 
0.006058

>  <r_epik_Charging_Adjusted_Penalty>  (258) 
0.0141224

>  <i_epik_Tot_Q>  (258) 
1

>  <i_epik_Tot_abs_Q>  (258) 
1

>  <s_lp_Force_Field>  (258) 
OPLS3e

>  <r_lp_Energy>  (258) 
455.766

>  <b_lp_Chiralities_Consistent>  (258) 
0

>  <s_lp_Variant>  (258) 
61:0-1

>  <s_i_glide_gridfile>  (258) 
pfpi4k_grid

>  <i_i_glide_lignum>  (258) 
26

>  <i_i_glide_rotatable_bonds>  (258) 
0

>  <r_i_docking_score>  (258) 
-4.49908

>  <r_i_glide_ligand_efficiency>  (258) 
-0.346083

>  <r_i_glide_ligand_efficiency_sa>  (258) 
-0.813757

>  <r_i_glide_ligand_efficiency_ln>  (258) 
-1.26203

>  <r_i_glide_gscore>  (258) 
-4.49908

>  <r_i_glide_lipo>  (258) 
-0.715422

>  <r_i_glide_hbond>  (258) 
-0.2

>  <r_i_glide_metal>  (258) 
-0

>  <r_i_glide_rewards>  (258) 
-2.09547

>  <r_i_glide_evdw>  (258) 
-15.8885

>  <r_i_glide_ecoul>  (258) 
-4.62507

>  <r_i_glide_erotb>  (258) 
0

>  <r_i_glide_esite>  (258) 
0

>  <r_i_glide_emodel>  (258) 
-28.4598

>  <r_i_glide_energy>  (258) 
-20.5136

>  <r_i_glide_einternal>  (258) 
0

>  <r_i_glide_intrahb_reward>  (258) 
-0

>  <i_i_glide_confnum>  (258) 
1

>  <i_i_glide_posenum>  (258) 
22

>  <r_i_glide_eff_state_penalty>  (258) 
0

>  <ligand_id>  (258) 
61

>  <original_smiles>  (258) 
ClC1CNC2C3=CC4C5C6C3C14C256

>  <smiles>  (258) 
[H]C1=C2C3([H])C4([H])C5([H])C1([H])C31C([H])(Cl)C([H])([H])[N+]([H])([H])C2([H])C541

$$$$
61:0:1
     RDKit          3D

 24 29  0  0  1  0  0  0  0  0999 V2000
    1.4030   -1.3746    2.8664 Cl  0  0  0  0  0  0  0  0  0  0  0  0
    1.7470    0.3335    3.2768 C   0  0  1  0  0  0  0  0  0  0  0  0
    1.8914    1.1511    1.9825 C   0  0  0  0  0  0  0  0  0  0  0  0
    0.5806    1.7468    1.6860 N   0  0  0  0  0  0  0  0  0  0  0  0
   -0.1494    2.0251    2.9381 C   0  0  2  0  0  0  0  0  0  0  0  0
    0.7674    2.7153    4.0621 C   0  0  0  0  0  0  0  0  0  0  0  0
    1.4471    2.0719    5.1263 C   0  0  0  0  0  0  0  0  0  0  0  0
    0.7198    0.6760    5.6234 C   0  0  2  0  0  0  0  0  0  0  0  0
   -0.8048    0.3357    5.2216 C   0  0  1  0  0  0  0  0  0  0  0  0
   -1.4575    1.4647    4.6021 C   0  0  1  0  0  0  0  0  0  0  0  0
   -0.2885    2.3025    4.8311 C   0  0  1  0  0  0  0  0  0  0  0  0
    0.5804    0.9051    4.2971 C   0  0  1  0  0  0  0  0  0  0  0  0
   -0.6702    0.7154    3.6827 C   0  0  1  0  0  0  0  0  0  0  0  0
    2.7276    0.2969    3.7650 H   0  0  0  0  0  0  0  0  0  0  0  0
    2.6079    1.9610    2.1656 H   0  0  0  0  0  0  0  0  0  0  0  0
    2.2798    0.5590    1.1494 H   0  0  0  0  0  0  0  0  0  0  0  0
    0.6702    2.6226    1.1750 H   0  0  0  0  0  0  0  0  0  0  0  0
   -0.9801    2.6778    2.6367 H   0  0  0  0  0  0  0  0  0  0  0  0
    2.3696    2.4567    5.5673 H   0  0  0  0  0  0  0  0  0  0  0  0
    1.3922   -0.1749    5.8034 H   0  0  0  0  0  0  0  0  0  0  0  0
   -1.2838   -0.6027    5.4907 H   0  0  0  0  0  0  0  0  0  0  0  0
   -2.5129    1.7267    4.5460 H   0  0  0  0  0  0  0  0  0  0  0  0
   -0.4272    2.7379    5.8551 H   0  0  0  0  0  0  0  0  0  0  0  0
    0.0407    1.0928    1.1186 H   0  0  0  0  0  0  0  0  0  0  0  0
  1  2  1  0
 12  2  1  6
  2  3  1  0
  2 14  1  1
  3  4  1  0
  3 15  1  0
  3 16  1  0
  4  5  1  0
  4 17  1  0
  4 24  1  0
  5 13  1  0
  5  6  1  0
  5 18  1  6
  6 11  1  0
  6  7  2  0
  7  8  1  0
  7 19  1  0
  8 12  1  0
  8  9  1  0
  8 20  1  6
  9 13  1  0
  9 10  1  0
  9 21  1  6
 10 13  1  0
 10 11  1  0
 10 22  1  6
 11 12  1  0
 11 23  1  1
 13 12  1  6
M  CHG  1   4   1
M  END
>  <i_m_ct_stereo_status>  (259) 
1

>  <s_m_source_file>  (259) 
/var/tmp/pbs.5076255.sched01/tmp2a9bgmzv/100_xx7n39i.sdf

>  <i_m_source_file_index>  (259) 
26

>  <i_lp_mmshare_version>  (259) 
48012

>  <i_f3d_flags>  (259) 
2

>  <s_epik_input>  (259) 
Q2xbQ0BIXTFbQ0gyXVtOSF1bQ0BASF0oQzIzW0NAXTE0NSlDPTZbQ0BIXTVbQ0BASF0zW0NAQEhdMltDQEBIXTRbQ0hdNg==

>  <s_epik_cmdline>  (259) 
J2VwaWtfcHl0aG9uJywgJy1waHQnLCAnMi4wJywgJy1waCcsICc3LjAnLCAnLXRuJywgJzgnLCAnLW1hJywgJzIwMCcsICctaW1hZScsICc8aW5maWxlLm1hZT4nLCAnLW9tYWUnLCAnPG91dGZpbGUubWFlPic=

>  <r_epik_Ionization_Penalty>  (259) 
0.00806441

>  <r_epik_Ionization_Penalty_Charging>  (259) 
0.00806441

>  <r_epik_Ionization_Penalty_Neutral>  (259) 
0

>  <r_epik_State_Penalty>  (259) 
0.006058

>  <r_epik_Charging_Adjusted_Penalty>  (259) 
0.0141224

>  <i_epik_Tot_Q>  (259) 
1

>  <i_epik_Tot_abs_Q>  (259) 
1

>  <s_lp_Force_Field>  (259) 
OPLS3e

>  <r_lp_Energy>  (259) 
455.766

>  <b_lp_Chiralities_Consistent>  (259) 
0

>  <s_lp_Variant>  (259) 
61:0-1

>  <s_i_glide_gridfile>  (259) 
pfpi4k_grid

>  <i_i_glide_lignum>  (259) 
26

>  <i_i_glide_rotatable_bonds>  (259) 
0

>  <r_i_docking_score>  (259) 
-3.66277

>  <r_i_glide_ligand_efficiency>  (259) 
-0.281751

>  <r_i_glide_ligand_efficiency_sa>  (259) 
-0.662491

>  <r_i_glide_ligand_efficiency_ln>  (259) 
-1.02744

>  <r_i_glide_gscore>  (259) 
-3.66277

>  <r_i_glide_lipo>  (259) 
0

>  <r_i_glide_hbond>  (259) 
-0.238846

>  <r_i_glide_metal>  (259) 
-0

>  <r_i_glide_rewards>  (259) 
-2.09547

>  <r_i_glide_evdw>  (259) 
-12.4612

>  <r_i_glide_ecoul>  (259) 
-4.20805

>  <r_i_glide_erotb>  (259) 
0

>  <r_i_glide_esite>  (259) 
-0.074181

>  <r_i_glide_emodel>  (259) 
-23.1402

>  <r_i_glide_energy>  (259) 
-16.6693

>  <r_i_glide_einternal>  (259) 
0

>  <r_i_glide_intrahb_reward>  (259) 
-0

>  <i_i_glide_confnum>  (259) 
2

>  <i_i_glide_posenum>  (259) 
1

>  <r_i_glide_eff_state_penalty>  (259) 
0

>  <ligand_id>  (259) 
61

>  <original_smiles>  (259) 
ClC1CNC2C3=CC4C5C6C3C14C256

>  <smiles>  (259) 
[H]C1=C2C3([H])C4([H])C5([H])C1([H])C31C([H])(Cl)C([H])([H])[N+]([H])([H])C2([H])C541

$$$$
61:0:2
     RDKit          3D

 24 29  0  0  1  0  0  0  0  0999 V2000
    2.7324   -2.9532    1.4879 Cl  0  0  0  0  0  0  0  0  0  0  0  0
    4.4546   -3.1425    1.0394 C   0  0  1  0  0  0  0  0  0  0  0  0
    4.8043   -4.6365    1.0583 C   0  0  0  0  0  0  0  0  0  0  0  0
    4.6115   -5.1332   -0.3071 N   0  0  0  0  0  0  0  0  0  0  0  0
    4.8994   -4.0517   -1.2840 C   0  0  2  0  0  0  0  0  0  0  0  0
    6.2367   -3.2202   -0.9142 C   0  0  0  0  0  0  0  0  0  0  0  0
    6.3087   -1.9735   -0.2481 C   0  0  0  0  0  0  0  0  0  0  0  0
    4.9660   -1.0520   -0.4021 C   0  0  2  0  0  0  0  0  0  0  0  0
    3.8995   -1.3258   -1.5717 C   0  0  1  0  0  0  0  0  0  0  0  0
    4.3703   -2.3030   -2.5080 C   0  0  1  0  0  0  0  0  0  0  0  0
    5.7010   -2.4405   -1.8789 C   0  0  2  0  0  0  0  0  0  0  0  0
    4.7542   -2.3915   -0.4130 C   0  0  1  0  0  0  0  0  0  0  0  0
    3.8048   -2.9028   -1.3273 C   0  0  1  0  0  0  0  0  0  0  0  0
    4.9951   -2.6830    1.8638 H   0  0  0  0  0  0  0  0  0  0  0  0
    5.8559   -4.7383    1.3448 H   0  0  0  0  0  0  0  0  0  0  0  0
    4.2183   -5.2095    1.7907 H   0  0  0  0  0  0  0  0  0  0  0  0
    5.2321   -5.9146   -0.4695 H   0  0  0  0  0  0  0  0  0  0  0  0
    4.9440   -4.5460   -2.2607 H   0  0  0  0  0  0  0  0  0  0  0  0
    7.1678   -1.7013    0.3531 H   0  0  0  0  0  0  0  0  0  0  0  0
    4.5128   -0.6144    0.4831 H   0  0  0  0  0  0  0  0  0  0  0  0
    2.9505   -0.7851   -1.6495 H   0  0  0  0  0  0  0  0  0  0  0  0
    4.0802   -2.5087   -3.5344 H   0  0  0  0  0  0  0  0  0  0  0  0
    6.3365   -1.6507   -2.3283 H   0  0  0  0  0  0  0  0  0  0  0  0
    3.6510   -5.4155   -0.4648 H   0  0  0  0  0  0  0  0  0  0  0  0
  1  2  1  0
 12  2  1  1
  2  3  1  0
  2 14  1  1
  3  4  1  0
  3 15  1  0
  3 16  1  0
  4  5  1  0
  4 17  1  0
  4 24  1  0
  5 13  1  0
  5  6  1  0
  5 18  1  6
  6 11  1  0
  6  7  2  0
  7  8  1  0
  7 19  1  0
  8 12  1  0
  8  9  1  0
  8 20  1  1
  9 13  1  0
  9 10  1  0
  9 21  1  6
 10 13  1  0
 10 11  1  0
 10 22  1  6
 11 12  1  0
 11 23  1  1
 13 12  1  6
M  CHG  1   4   1
M  END
>  <i_m_ct_stereo_status>  (260) 
1

>  <s_m_source_file>  (260) 
/var/tmp/pbs.5076255.sched01/tmp2a9bgmzv/100_xx7n39i.sdf

>  <i_m_source_file_index>  (260) 
26

>  <i_lp_mmshare_version>  (260) 
48012

>  <i_f3d_flags>  (260) 
2

>  <s_epik_input>  (260) 
Q2xbQ0BIXTFbQ0gyXVtOSF1bQ0BASF0oQzIzW0NAXTE0NSlDPTZbQ0BIXTVbQ0BASF0zW0NAQEhdMltDQEBIXTRbQ0hdNg==

>  <s_epik_cmdline>  (260) 
J2VwaWtfcHl0aG9uJywgJy1waHQnLCAnMi4wJywgJy1waCcsICc3LjAnLCAnLXRuJywgJzgnLCAnLW1hJywgJzIwMCcsICctaW1hZScsICc8aW5maWxlLm1hZT4nLCAnLW9tYWUnLCAnPG91dGZpbGUubWFlPic=

>  <r_epik_Ionization_Penalty>  (260) 
0.00806441

>  <r_epik_Ionization_Penalty_Charging>  (260) 
0.00806441

>  <r_epik_Ionization_Penalty_Neutral>  (260) 
0

>  <r_epik_State_Penalty>  (260) 
0.006058

>  <r_epik_Charging_Adjusted_Penalty>  (260) 
0.0141224

>  <i_epik_Tot_Q>  (260) 
1

>  <i_epik_Tot_abs_Q>  (260) 
1

>  <s_lp_Force_Field>  (260) 
OPLS3e

>  <r_lp_Energy>  (260) 
455.766

>  <b_lp_Chiralities_Consistent>  (260) 
0

>  <s_lp_Variant>  (260) 
61:0-1

>  <s_i_glide_gridfile>  (260) 
pfpi4k_grid

>  <i_i_glide_lignum>  (260) 
26

>  <i_i_glide_rotatable_bonds>  (260) 
0

>  <r_i_docking_score>  (260) 
-3.45825

>  <r_i_glide_ligand_efficiency>  (260) 
-0.266019

>  <r_i_glide_ligand_efficiency_sa>  (260) 
-0.625501

>  <r_i_glide_ligand_efficiency_ln>  (260) 
-0.970071

>  <r_i_glide_gscore>  (260) 
-3.45825

>  <r_i_glide_lipo>  (260) 
-0.242056

>  <r_i_glide_hbond>  (260) 
0

>  <r_i_glide_metal>  (260) 
-0

>  <r_i_glide_rewards>  (260) 
-2.09547

>  <r_i_glide_evdw>  (260) 
-15.5286

>  <r_i_glide_ecoul>  (260) 
-2.16135

>  <r_i_glide_erotb>  (260) 
0

>  <r_i_glide_esite>  (260) 
-0.0200921

>  <r_i_glide_emodel>  (260) 
-23.8026

>  <r_i_glide_energy>  (260) 
-17.69

>  <r_i_glide_einternal>  (260) 
0

>  <r_i_glide_intrahb_reward>  (260) 
-0

>  <i_i_glide_confnum>  (260) 
1

>  <i_i_glide_posenum>  (260) 
27

>  <r_i_glide_eff_state_penalty>  (260) 
0

>  <ligand_id>  (260) 
61

>  <original_smiles>  (260) 
ClC1CNC2C3=CC4C5C6C3C14C256

>  <smiles>  (260) 
[H]C1=C2C3([H])C4([H])C5([H])C1([H])C31C([H])(Cl)C([H])([H])[N+]([H])([H])C2([H])C541

$$$$
61:1:0
     RDKit          3D

 23 28  0  0  1  0  0  0  0  0999 V2000
   -7.4973   -6.2621   -5.3378 Cl  0  0  0  0  0  0  0  0  0  0  0  0
   -6.2590   -7.0916   -6.2867 C   0  0  1  0  0  0  0  0  0  0  0  0
   -4.9594   -7.1379   -5.4711 C   0  0  0  0  0  0  0  0  0  0  0  0
   -4.8674   -8.4619   -4.8839 N   0  0  0  0  0  0  0  0  0  0  0  0
   -5.5636   -9.4194   -5.7705 C   0  0  2  0  0  0  0  0  0  0  0  0
   -5.1977   -9.2475   -7.3182 C   0  0  0  0  0  0  0  0  0  0  0  0
   -5.9718   -8.5910   -8.3213 C   0  0  0  0  0  0  0  0  0  0  0  0
   -7.5624   -8.5553   -8.0118 C   0  0  2  0  0  0  0  0  0  0  0  0
   -8.2393   -9.5502   -7.0028 C   0  0  1  0  0  0  0  0  0  0  0  0
   -7.3079  -10.5586   -6.5309 C   0  0  1  0  0  0  0  0  0  0  0  0
   -6.2031  -10.1560   -7.4053 C   0  0  2  0  0  0  0  0  0  0  0  0
   -6.7384   -8.5709   -6.9292 C   0  0  1  0  0  0  0  0  0  0  0  0
   -7.1584   -9.3132   -5.8441 C   0  0  1  0  0  0  0  0  0  0  0  0
   -6.1770   -6.3769   -7.0835 H   0  0  0  0  0  0  0  0  0  0  0  0
   -4.1292   -6.9697   -6.1545 H   0  0  0  0  0  0  0  0  0  0  0  0
   -4.9330   -6.3697   -4.6942 H   0  0  0  0  0  0  0  0  0  0  0  0
   -3.8898   -8.7106   -4.7505 H   0  0  0  0  0  0  0  0  0  0  0  0
   -5.2844  -10.4048   -5.3919 H   0  0  0  0  0  0  0  0  0  0  0  0
   -5.4937   -8.1024   -9.1368 H   0  0  0  0  0  0  0  0  0  0  0  0
   -8.0930   -7.5891   -8.0618 H   0  0  0  0  0  0  0  0  0  0  0  0
   -9.2839   -9.4948   -6.7270 H   0  0  0  0  0  0  0  0  0  0  0  0
   -7.4726  -11.5095   -6.0657 H   0  0  0  0  0  0  0  0  0  0  0  0
   -6.3953  -10.6659   -8.3874 H   0  0  0  0  0  0  0  0  0  0  0  0
  1  2  1  0
  2 12  1  0
  2  3  1  0
  2 14  1  6
  3  4  1  0
  3 15  1  0
  3 16  1  0
  4  5  1  0
  4 17  1  0
 13  5  1  6
  5  6  1  0
  5 18  1  1
  6 11  1  0
  6  7  2  0
  7  8  1  0
  7 19  1  0
  8 12  1  0
  8  9  1  0
  8 20  1  6
  9 13  1  0
  9 10  1  0
  9 21  1  1
 10 13  1  0
 10 11  1  0
 10 22  1  1
 11 12  1  0
 11 23  1  6
 12 13  1  1
M  END
>  <i_m_ct_stereo_status>  (261) 
1

>  <s_m_source_file>  (261) 
/var/tmp/pbs.5076255.sched01/tmp2a9bgmzv/100_xx7n39i.sdf

>  <i_m_source_file_index>  (261) 
27

>  <i_lp_mmshare_version>  (261) 
48012

>  <i_f3d_flags>  (261) 
2

>  <s_epik_input>  (261) 
Q2xbQ0BIXTFbQ0gyXVtOSF1bQ0BASF0oQzIzW0NAXTE0NSlDPTZbQ0BIXTVbQ0BASF0zW0NAQEhdMltDQEBIXTRbQ0hdNg==

>  <s_epik_cmdline>  (261) 
J2VwaWtfcHl0aG9uJywgJy1waHQnLCAnMi4wJywgJy1waCcsICc3LjAnLCAnLXRuJywgJzgnLCAnLW1hJywgJzIwMCcsICctaW1hZScsICc8aW5maWxlLm1hZT4nLCAnLW9tYWUnLCAnPG91dGZpbGUubWFlPic=

>  <r_epik_Ionization_Penalty>  (261) 
2.54986

>  <r_epik_Ionization_Penalty_Charging>  (261) 
0

>  <r_epik_Ionization_Penalty_Neutral>  (261) 
2.54986

>  <r_epik_State_Penalty>  (261) 
2.71836

>  <r_epik_Charging_Adjusted_Penalty>  (261) 
2.71836

>  <i_epik_Tot_Q>  (261) 
0

>  <i_epik_Tot_abs_Q>  (261) 
0

>  <s_lp_Force_Field>  (261) 
OPLS3e

>  <r_lp_Energy>  (261) 
457.187

>  <b_lp_Chiralities_Consistent>  (261) 
0

>  <s_lp_Variant>  (261) 
61:0-2

>  <s_i_glide_gridfile>  (261) 
pfpi4k_grid

>  <i_i_glide_lignum>  (261) 
27

>  <i_i_glide_rotatable_bonds>  (261) 
0

>  <r_i_docking_score>  (261) 
-5.50159

>  <r_i_glide_ligand_efficiency>  (261) 
-0.423199

>  <r_i_glide_ligand_efficiency_sa>  (261) 
-0.995084

>  <r_i_glide_ligand_efficiency_ln>  (261) 
-1.54325

>  <r_i_glide_gscore>  (261) 
-5.50159

>  <r_i_glide_lipo>  (261) 
-2.2227

>  <r_i_glide_hbond>  (261) 
0

>  <r_i_glide_metal>  (261) 
-0

>  <r_i_glide_rewards>  (261) 
-2.57552

>  <r_i_glide_evdw>  (261) 
-13.5456

>  <r_i_glide_ecoul>  (261) 
-0.173975

>  <r_i_glide_erotb>  (261) 
0

>  <r_i_glide_esite>  (261) 
0

>  <r_i_glide_emodel>  (261) 
-16.7312

>  <r_i_glide_energy>  (261) 
-13.7196

>  <r_i_glide_einternal>  (261) 
0

>  <r_i_glide_intrahb_reward>  (261) 
-0

>  <i_i_glide_confnum>  (261) 
1

>  <i_i_glide_posenum>  (261) 
8

>  <r_i_glide_eff_state_penalty>  (261) 
0

>  <ligand_id>  (261) 
61

>  <original_smiles>  (261) 
ClC1CNC2C3=CC4C5C6C3C14C256

>  <smiles>  (261) 
[H]C1=C2C3([H])N([H])C([H])([H])C([H])(Cl)C45C1([H])C1([H])C([H])(C24[H])C315

$$$$
62:0:0
     RDKit          3D

 32 35  0  0  1  0  0  0  0  0999 V2000
    2.9793   -4.1310   -0.2517 C   0  0  0  0  0  0  0  0  0  0  0  0
    4.4981   -3.8450   -0.1557 C   0  0  0  0  0  0  0  0  0  0  0  0
    5.1018   -4.7893    0.9007 C   0  0  0  0  0  0  0  0  0  0  0  0
    5.2542   -3.9663   -1.5325 C   0  0  2  0  0  0  0  0  0  0  0  0
    6.5791   -3.1856   -1.2511 C   0  0  0  0  0  0  0  0  0  0  0  0
    6.0667   -1.9977   -0.4465 C   0  0  1  0  0  0  0  0  0  0  0  0
    4.7702   -1.3418   -0.9189 C   0  0  1  0  0  0  0  0  0  0  0  0
    4.2860   -1.8529   -2.2374 C   0  0  0  0  0  0  0  0  0  0  0  0
    4.5155   -3.1284   -2.5479 C   0  0  0  0  0  0  0  0  0  0  0  0
    4.0103   -3.4325   -3.8042 N   0  0  0  0  0  0  0  0  0  0  0  0
    3.4138   -2.3577   -4.2369 N   0  0  0  0  0  0  0  0  0  0  0  0
    3.5885   -1.3591   -3.3116 N   0  0  0  0  0  0  0  0  0  0  0  0
    3.0422   -0.0317   -3.5206 C   0  0  0  0  0  0  0  0  0  0  0  0
    2.4412    0.2177   -4.9160 C   0  0  0  0  0  0  0  0  0  0  0  0
    3.3999    0.1866   -5.8421 F   0  0  0  0  0  0  0  0  0  0  0  0
    4.7833   -2.3846    0.1899 C   0  0  1  0  0  0  0  0  0  0  0  0
    2.8047   -5.1349   -0.6372 H   0  0  0  0  0  0  0  0  0  0  0  0
    2.4492   -3.4405   -0.9099 H   0  0  0  0  0  0  0  0  0  0  0  0
    2.5037   -4.0744    0.7273 H   0  0  0  0  0  0  0  0  0  0  0  0
    6.1543   -4.5824    1.0838 H   0  0  0  0  0  0  0  0  0  0  0  0
    5.0152   -5.8314    0.5893 H   0  0  0  0  0  0  0  0  0  0  0  0
    4.5866   -4.6792    1.8532 H   0  0  0  0  0  0  0  0  0  0  0  0
    5.3823   -4.9944   -1.8679 H   0  0  0  0  0  0  0  0  0  0  0  0
    7.2903   -3.7715   -0.6681 H   0  0  0  0  0  0  0  0  0  0  0  0
    7.0641   -2.8511   -2.1713 H   0  0  0  0  0  0  0  0  0  0  0  0
    6.7739   -1.4100    0.1355 H   0  0  0  0  0  0  0  0  0  0  0  0
    4.5638   -0.3124   -0.7068 H   0  0  0  0  0  0  0  0  0  0  0  0
    2.2599    0.1162   -2.7767 H   0  0  0  0  0  0  0  0  0  0  0  0
    3.8280    0.7007   -3.3154 H   0  0  0  0  0  0  0  0  0  0  0  0
    1.6832   -0.5319   -5.1358 H   0  0  0  0  0  0  0  0  0  0  0  0
    1.9570    1.1937   -4.9848 H   0  0  0  0  0  0  0  0  0  0  0  0
    4.5709   -2.0442    1.1977 H   0  0  0  0  0  0  0  0  0  0  0  0
  1  2  1  0
  1 17  1  0
  1 18  1  0
  1 19  1  0
  2 16  1  0
  2  3  1  0
  2  4  1  0
  3 20  1  0
  3 21  1  0
  3 22  1  0
  4  9  1  0
  4  5  1  0
  4 23  1  6
  5  6  1  0
  5 24  1  0
  5 25  1  0
  6 16  1  0
  6  7  1  0
  6 26  1  1
  7  8  1  0
  7 16  1  0
  7 27  1  1
  8 12  1  0
  8  9  2  0
  9 10  1  0
 10 11  2  0
 11 12  1  0
 12 13  1  0
 13 14  1  0
 13 28  1  0
 13 29  1  0
 14 15  1  0
 14 30  1  0
 14 31  1  0
 16 32  1  1
M  END
>  <i_m_ct_stereo_status>  (262) 
1

>  <s_m_source_file>  (262) 
/var/tmp/pbs.5076255.sched01/tmp2a9bgmzv/100_xx7n39i.sdf

>  <i_m_source_file_index>  (262) 
28

>  <i_lp_mmshare_version>  (262) 
48012

>  <i_f3d_flags>  (262) 
0

>  <s_epik_input>  (262) 
W0NIM11DMShbQ0gzXSlbQ0BIXTJbQ0BASF0oW0NIMl0zKVtDQEhdMmMoYzRbQ0BIXTEzKW4obm40KVtDSDJdW0NIMl1G

>  <s_epik_cmdline>  (262) 
J2VwaWtfcHl0aG9uJywgJy1waHQnLCAnMi4wJywgJy1waCcsICc3LjAnLCAnLXRuJywgJzgnLCAnLW1hJywgJzIwMCcsICctaW1hZScsICc8aW5maWxlLm1hZT4nLCAnLW9tYWUnLCAnPG91dGZpbGUubWFlPic=

>  <r_lp_tautomer_probability>  (262) 
1

>  <r_epik_Ionization_Penalty>  (262) 
0.000799205

>  <r_epik_Ionization_Penalty_Charging>  (262) 
0

>  <r_epik_Ionization_Penalty_Neutral>  (262) 
0.000799205

>  <r_epik_State_Penalty>  (262) 
0.000513155

>  <r_epik_Charging_Adjusted_Penalty>  (262) 
0.000513155

>  <i_epik_Tot_Q>  (262) 
0

>  <i_epik_Tot_abs_Q>  (262) 
0

>  <s_lp_Force_Field>  (262) 
OPLS3e

>  <r_lp_Energy>  (262) 
35.9127

>  <b_lp_Chiralities_Consistent>  (262) 
1

>  <s_lp_Variant>  (262) 
62:0-1

>  <s_i_glide_gridfile>  (262) 
pfpi4k_grid

>  <i_i_glide_lignum>  (262) 
28

>  <i_i_glide_rotatable_bonds>  (262) 
2

>  <r_i_docking_score>  (262) 
-3.63568

>  <r_i_glide_ligand_efficiency>  (262) 
-0.22723

>  <r_i_glide_ligand_efficiency_sa>  (262) 
-0.572584

>  <r_i_glide_ligand_efficiency_ln>  (262) 
-0.96371

>  <r_i_glide_gscore>  (262) 
-3.63568

>  <r_i_glide_lipo>  (262) 
-0.259568

>  <r_i_glide_hbond>  (262) 
0

>  <r_i_glide_metal>  (262) 
-0

>  <r_i_glide_rewards>  (262) 
-2.1764

>  <r_i_glide_evdw>  (262) 
-22.4044

>  <r_i_glide_ecoul>  (262) 
-2.64459

>  <r_i_glide_erotb>  (262) 
0.344636

>  <r_i_glide_esite>  (262) 
-0.0274394

>  <r_i_glide_emodel>  (262) 
-29.2982

>  <r_i_glide_energy>  (262) 
-25.049

>  <r_i_glide_einternal>  (262) 
2.49785

>  <r_i_glide_intrahb_reward>  (262) 
-0

>  <i_i_glide_confnum>  (262) 
2

>  <i_i_glide_posenum>  (262) 
1

>  <r_i_glide_eff_state_penalty>  (262) 
0

>  <ligand_id>  (262) 
62

>  <original_smiles>  (262) 
CC1(C)C2CC3C(c4c2nnn4CCF)C31

>  <smiles>  (262) 
[H]C([H])([H])C1(C([H])([H])[H])C2([H])c3nnn(C([H])([H])C([H])([H])F)c3C3([H])C([H])(C2([H])[H])C31[H]

$$$$
62:0:1
     RDKit          3D

 32 35  0  0  1  0  0  0  0  0999 V2000
    3.5776   -2.8391   -2.9583 C   0  0  0  0  0  0  0  0  0  0  0  0
    4.4294   -1.9099   -2.0648 C   0  0  0  0  0  0  0  0  0  0  0  0
    4.5029   -0.5501   -2.7717 C   0  0  0  0  0  0  0  0  0  0  0  0
    3.8889   -1.7763   -0.5890 C   0  0  2  0  0  0  0  0  0  0  0  0
    5.1367   -1.2121    0.1590 C   0  0  0  0  0  0  0  0  0  0  0  0
    6.2790   -2.0145   -0.4606 C   0  0  1  0  0  0  0  0  0  0  0  0
    6.0290   -3.5042   -0.6960 C   0  0  1  0  0  0  0  0  0  0  0  0
    4.7563   -4.0037   -0.1035 C   0  0  0  0  0  0  0  0  0  0  0  0
    3.6942   -3.1757   -0.0422 C   0  0  0  0  0  0  0  0  0  0  0  0
    2.6131   -3.8442    0.5249 N   0  0  0  0  0  0  0  0  0  0  0  0
    3.0038   -5.0627    0.7955 N   0  0  0  0  0  0  0  0  0  0  0  0
    4.3166   -5.1855    0.4390 N   0  0  0  0  0  0  0  0  0  0  0  0
    5.0128   -6.4428    0.6094 C   0  0  0  0  0  0  0  0  0  0  0  0
    4.9470   -6.9333    2.0628 C   0  0  0  0  0  0  0  0  0  0  0  0
    5.6201   -8.0756    2.1786 F   0  0  0  0  0  0  0  0  0  0  0  0
    5.8375   -2.4768   -1.8097 C   0  0  1  0  0  0  0  0  0  0  0  0
    2.5417   -2.4957   -3.0055 H   0  0  0  0  0  0  0  0  0  0  0  0
    3.5572   -3.8545   -2.5781 H   0  0  0  0  0  0  0  0  0  0  0  0
    3.9648   -2.8899   -3.9774 H   0  0  0  0  0  0  0  0  0  0  0  0
    5.1698    0.1365   -2.2568 H   0  0  0  0  0  0  0  0  0  0  0  0
    3.5198   -0.0837   -2.8390 H   0  0  0  0  0  0  0  0  0  0  0  0
    4.8833   -0.6659   -3.7833 H   0  0  0  0  0  0  0  0  0  0  0  0
    3.0055   -1.1506   -0.4885 H   0  0  0  0  0  0  0  0  0  0  0  0
    5.2719   -0.1438   -0.0105 H   0  0  0  0  0  0  0  0  0  0  0  0
    5.0862   -1.3859    1.2345 H   0  0  0  0  0  0  0  0  0  0  0  0
    7.2983   -1.6546   -0.3290 H   0  0  0  0  0  0  0  0  0  0  0  0
    6.8652   -4.1953   -0.7114 H   0  0  0  0  0  0  0  0  0  0  0  0
    4.5715   -7.1768   -0.0722 H   0  0  0  0  0  0  0  0  0  0  0  0
    6.0535   -6.2980    0.3131 H   0  0  0  0  0  0  0  0  0  0  0  0
    5.3957   -6.2125    2.7468 H   0  0  0  0  0  0  0  0  0  0  0  0
    3.9225   -7.1226    2.3850 H   0  0  0  0  0  0  0  0  0  0  0  0
    6.5462   -2.4988   -2.6370 H   0  0  0  0  0  0  0  0  0  0  0  0
  1  2  1  0
  1 17  1  0
  1 18  1  0
  1 19  1  0
  2 16  1  0
  2  3  1  0
  2  4  1  0
  3 20  1  0
  3 21  1  0
  3 22  1  0
  4  9  1  0
  4  5  1  0
  4 23  1  6
  5  6  1  0
  5 24  1  0
  5 25  1  0
  6 16  1  0
  6  7  1  0
  6 26  1  6
  7  8  1  0
  7 16  1  0
  7 27  1  6
  8 12  1  0
  8  9  2  0
  9 10  1  0
 10 11  2  0
 11 12  1  0
 12 13  1  0
 13 14  1  0
 13 28  1  0
 13 29  1  0
 14 15  1  0
 14 30  1  0
 14 31  1  0
 16 32  1  6
M  END
>  <i_m_ct_stereo_status>  (263) 
1

>  <s_m_source_file>  (263) 
/var/tmp/pbs.5076255.sched01/tmp2a9bgmzv/100_xx7n39i.sdf

>  <i_m_source_file_index>  (263) 
28

>  <i_lp_mmshare_version>  (263) 
48012

>  <i_f3d_flags>  (263) 
0

>  <s_epik_input>  (263) 
W0NIM11DMShbQ0gzXSlbQ0BIXTJbQ0BASF0oW0NIMl0zKVtDQEhdMmMoYzRbQ0BIXTEzKW4obm40KVtDSDJdW0NIMl1G

>  <s_epik_cmdline>  (263) 
J2VwaWtfcHl0aG9uJywgJy1waHQnLCAnMi4wJywgJy1waCcsICc3LjAnLCAnLXRuJywgJzgnLCAnLW1hJywgJzIwMCcsICctaW1hZScsICc8aW5maWxlLm1hZT4nLCAnLW9tYWUnLCAnPG91dGZpbGUubWFlPic=

>  <r_lp_tautomer_probability>  (263) 
1

>  <r_epik_Ionization_Penalty>  (263) 
0.000799205

>  <r_epik_Ionization_Penalty_Charging>  (263) 
0

>  <r_epik_Ionization_Penalty_Neutral>  (263) 
0.000799205

>  <r_epik_State_Penalty>  (263) 
0.000513155

>  <r_epik_Charging_Adjusted_Penalty>  (263) 
0.000513155

>  <i_epik_Tot_Q>  (263) 
0

>  <i_epik_Tot_abs_Q>  (263) 
0

>  <s_lp_Force_Field>  (263) 
OPLS3e

>  <r_lp_Energy>  (263) 
35.9127

>  <b_lp_Chiralities_Consistent>  (263) 
1

>  <s_lp_Variant>  (263) 
62:0-1

>  <s_i_glide_gridfile>  (263) 
pfpi4k_grid

>  <i_i_glide_lignum>  (263) 
28

>  <i_i_glide_rotatable_bonds>  (263) 
2

>  <r_i_docking_score>  (263) 
-2.88478

>  <r_i_glide_ligand_efficiency>  (263) 
-0.180299

>  <r_i_glide_ligand_efficiency_sa>  (263) 
-0.454325

>  <r_i_glide_ligand_efficiency_ln>  (263) 
-0.76467

>  <r_i_glide_gscore>  (263) 
-2.88478

>  <r_i_glide_lipo>  (263) 
-0.395794

>  <r_i_glide_hbond>  (263) 
0

>  <r_i_glide_metal>  (263) 
-0

>  <r_i_glide_rewards>  (263) 
-2.01403

>  <r_i_glide_evdw>  (263) 
-17.1731

>  <r_i_glide_ecoul>  (263) 
0.582793

>  <r_i_glide_erotb>  (263) 
0.344636

>  <r_i_glide_esite>  (263) 
-0.0483655

>  <r_i_glide_emodel>  (263) 
-20.9042

>  <r_i_glide_energy>  (263) 
-16.5903

>  <r_i_glide_einternal>  (263) 
0.165379

>  <r_i_glide_intrahb_reward>  (263) 
-0

>  <i_i_glide_confnum>  (263) 
2

>  <i_i_glide_posenum>  (263) 
36

>  <r_i_glide_eff_state_penalty>  (263) 
0

>  <ligand_id>  (263) 
62

>  <original_smiles>  (263) 
CC1(C)C2CC3C(c4c2nnn4CCF)C31

>  <smiles>  (263) 
[H]C([H])([H])C1(C([H])([H])[H])C2([H])c3nnn(C([H])([H])C([H])([H])F)c3C3([H])C([H])(C2([H])[H])C31[H]

$$$$
62:0:2
     RDKit          3D

 32 35  0  0  1  0  0  0  0  0999 V2000
    4.0674   -3.2496   -3.0432 C   0  0  0  0  0  0  0  0  0  0  0  0
    4.4848   -2.1271   -2.0604 C   0  0  0  0  0  0  0  0  0  0  0  0
    4.3672   -0.7803   -2.7987 C   0  0  0  0  0  0  0  0  0  0  0  0
    3.6590   -2.1278   -0.7189 C   0  0  2  0  0  0  0  0  0  0  0  0
    4.5766   -1.2698    0.2122 C   0  0  0  0  0  0  0  0  0  0  0  0
    5.9748   -1.7748   -0.1511 C   0  0  1  0  0  0  0  0  0  0  0  0
    6.1377   -3.2796   -0.3558 C   0  0  1  0  0  0  0  0  0  0  0  0
    4.9297   -4.0689    0.0227 C   0  0  0  0  0  0  0  0  0  0  0  0
    3.7071   -3.5264   -0.1467 C   0  0  0  0  0  0  0  0  0  0  0  0
    2.7286   -4.4232    0.2638 N   0  0  0  0  0  0  0  0  0  0  0  0
    3.3361   -5.5122    0.6628 N   0  0  0  0  0  0  0  0  0  0  0  0
    4.6850   -5.3232    0.5341 N   0  0  0  0  0  0  0  0  0  0  0  0
    5.6185   -6.3698    0.8896 C   0  0  0  0  0  0  0  0  0  0  0  0
    5.7380   -6.5389    2.4085 C   0  0  0  0  0  0  0  0  0  0  0  0
    6.2416   -5.4365    2.9662 F   0  0  0  0  0  0  0  0  0  0  0  0
    5.9139   -2.3340   -1.5297 C   0  0  1  0  0  0  0  0  0  0  0  0
    3.0074   -3.1642   -3.2920 H   0  0  0  0  0  0  0  0  0  0  0  0
    4.2267   -4.2490   -2.6400 H   0  0  0  0  0  0  0  0  0  0  0  0
    4.6308   -3.1914   -3.9753 H   0  0  0  0  0  0  0  0  0  0  0  0
    4.7329    0.0575   -2.2067 H   0  0  0  0  0  0  0  0  0  0  0  0
    3.3318   -0.5645   -3.0673 H   0  0  0  0  0  0  0  0  0  0  0  0
    4.9481   -0.7981   -3.7190 H   0  0  0  0  0  0  0  0  0  0  0  0
    2.6373   -1.7614   -0.8205 H   0  0  0  0  0  0  0  0  0  0  0  0
    4.4903   -0.1989    0.0187 H   0  0  0  0  0  0  0  0  0  0  0  0
    4.3713   -1.4405    1.2713 H   0  0  0  0  0  0  0  0  0  0  0  0
    6.8347   -1.1687    0.1316 H   0  0  0  0  0  0  0  0  0  0  0  0
    7.0965   -3.7573   -0.1902 H   0  0  0  0  0  0  0  0  0  0  0  0
    5.2733   -7.3024    0.4426 H   0  0  0  0  0  0  0  0  0  0  0  0
    6.5935   -6.1335    0.4583 H   0  0  0  0  0  0  0  0  0  0  0  0
    4.7721   -6.7420    2.8765 H   0  0  0  0  0  0  0  0  0  0  0  0
    6.4131   -7.3608    2.6540 H   0  0  0  0  0  0  0  0  0  0  0  0
    6.7440   -2.1884   -2.2170 H   0  0  0  0  0  0  0  0  0  0  0  0
  1  2  1  0
  1 17  1  0
  1 18  1  0
  1 19  1  0
  2 16  1  0
  2  3  1  0
  2  4  1  0
  3 20  1  0
  3 21  1  0
  3 22  1  0
  4  9  1  0
  4  5  1  0
  4 23  1  6
  5  6  1  0
  5 24  1  0
  5 25  1  0
  6 16  1  0
  6  7  1  0
  6 26  1  6
  7  8  1  0
  7 16  1  0
  7 27  1  6
  8 12  1  0
  8  9  2  0
  9 10  1  0
 10 11  2  0
 11 12  1  0
 12 13  1  0
 13 14  1  0
 13 28  1  0
 13 29  1  0
 14 15  1  0
 14 30  1  0
 14 31  1  0
 16 32  1  6
M  END
>  <i_m_ct_stereo_status>  (264) 
1

>  <s_m_source_file>  (264) 
/var/tmp/pbs.5076255.sched01/tmp2a9bgmzv/100_xx7n39i.sdf

>  <i_m_source_file_index>  (264) 
28

>  <i_lp_mmshare_version>  (264) 
48012

>  <i_f3d_flags>  (264) 
0

>  <s_epik_input>  (264) 
W0NIM11DMShbQ0gzXSlbQ0BIXTJbQ0BASF0oW0NIMl0zKVtDQEhdMmMoYzRbQ0BIXTEzKW4obm40KVtDSDJdW0NIMl1G

>  <s_epik_cmdline>  (264) 
J2VwaWtfcHl0aG9uJywgJy1waHQnLCAnMi4wJywgJy1waCcsICc3LjAnLCAnLXRuJywgJzgnLCAnLW1hJywgJzIwMCcsICctaW1hZScsICc8aW5maWxlLm1hZT4nLCAnLW9tYWUnLCAnPG91dGZpbGUubWFlPic=

>  <r_lp_tautomer_probability>  (264) 
1

>  <r_epik_Ionization_Penalty>  (264) 
0.000799205

>  <r_epik_Ionization_Penalty_Charging>  (264) 
0

>  <r_epik_Ionization_Penalty_Neutral>  (264) 
0.000799205

>  <r_epik_State_Penalty>  (264) 
0.000513155

>  <r_epik_Charging_Adjusted_Penalty>  (264) 
0.000513155

>  <i_epik_Tot_Q>  (264) 
0

>  <i_epik_Tot_abs_Q>  (264) 
0

>  <s_lp_Force_Field>  (264) 
OPLS3e

>  <r_lp_Energy>  (264) 
35.9127

>  <b_lp_Chiralities_Consistent>  (264) 
1

>  <s_lp_Variant>  (264) 
62:0-1

>  <s_i_glide_gridfile>  (264) 
pfpi4k_grid

>  <i_i_glide_lignum>  (264) 
28

>  <i_i_glide_rotatable_bonds>  (264) 
2

>  <r_i_docking_score>  (264) 
-2.81272

>  <r_i_glide_ligand_efficiency>  (264) 
-0.175795

>  <r_i_glide_ligand_efficiency_sa>  (264) 
-0.442976

>  <r_i_glide_ligand_efficiency_ln>  (264) 
-0.745568

>  <r_i_glide_gscore>  (264) 
-2.81272

>  <r_i_glide_lipo>  (264) 
-0.308822

>  <r_i_glide_hbond>  (264) 
0

>  <r_i_glide_metal>  (264) 
-0

>  <r_i_glide_rewards>  (264) 
-2.01799

>  <r_i_glide_evdw>  (264) 
-16.8676

>  <r_i_glide_ecoul>  (264) 
0.385907

>  <r_i_glide_erotb>  (264) 
0.344636

>  <r_i_glide_esite>  (264) 
-0.0450542

>  <r_i_glide_emodel>  (264) 
-20.3557

>  <r_i_glide_energy>  (264) 
-16.4817

>  <r_i_glide_einternal>  (264) 
0.846049

>  <r_i_glide_intrahb_reward>  (264) 
-0

>  <i_i_glide_confnum>  (264) 
2

>  <i_i_glide_posenum>  (264) 
33

>  <r_i_glide_eff_state_penalty>  (264) 
0

>  <ligand_id>  (264) 
62

>  <original_smiles>  (264) 
CC1(C)C2CC3C(c4c2nnn4CCF)C31

>  <smiles>  (264) 
[H]C([H])([H])C1(C([H])([H])[H])C2([H])c3nnn(C([H])([H])C([H])([H])F)c3C3([H])C([H])(C2([H])[H])C31[H]

$$$$
63:0:0
     RDKit          3D

 52 58  0  0  1  0  0  0  0  0999 V2000
    4.1776   -3.0811   -3.8835 C   0  0  0  0  0  0  0  0  0  0  0  0
    3.9752   -3.0678   -2.3638 C   0  0  2  0  0  0  0  0  0  0  0  0
    3.6311   -1.6663   -1.8514 C   0  0  0  0  0  0  0  0  0  0  0  0
    4.9265   -1.0443   -1.2818 C   0  0  0  0  0  0  0  0  0  0  0  0
    5.8646   -2.2015   -0.9321 C   0  0  2  0  0  0  0  0  0  0  0  0
    5.2706   -3.4325   -1.6219 C   0  0  1  0  0  0  0  0  0  0  0  0
    5.1870   -4.0903   -0.2441 C   0  0  1  0  0  0  0  0  0  0  0  0
    4.0545   -5.0555    0.1646 C   0  0  2  0  0  0  0  0  0  0  0  0
    2.7559   -4.3941    0.6805 C   0  0  0  0  0  0  0  0  0  0  0  0
    2.6836   -4.5953    2.1921 C   0  0  0  0  0  0  0  0  0  0  0  0
    3.6790   -5.7155    2.5193 C   0  0  1  0  0  0  0  0  0  0  0  0
    3.1496   -7.1135    2.8840 C   0  0  2  0  0  0  0  0  0  0  0  0
    4.1812   -8.0843    2.3427 C   0  0  1  0  0  0  0  0  0  0  0  0
    3.3564   -9.3487    2.1041 C   0  0  0  0  0  0  0  0  0  0  0  0
    1.9975   -8.9297    1.9725 O   0  0  0  0  0  0  0  0  0  0  0  0
    1.8729   -7.5549    2.1493 C   0  0  1  0  0  0  0  0  0  0  0  0
    0.7175   -7.2102    2.8772 O   0  0  0  0  0  0  0  0  0  0  0  0
    4.7452   -7.4032    1.0936 C   0  0  0  0  0  0  0  0  0  0  0  0
    4.6416   -5.8848    1.3358 C   0  0  1  0  0  0  0  0  0  0  0  0
    6.0074   -5.2672    1.5977 C   0  0  0  0  0  0  0  0  0  0  0  0
    6.7462   -5.6395    2.5338 O   0  0  0  0  0  0  0  0  0  0  0  0
    6.4015   -4.2667    0.5755 C   0  0  2  0  0  0  0  0  0  0  0  0
    5.7290   -2.8841    0.4174 C   0  0  1  0  0  0  0  0  0  0  0  0
    5.2051   -2.1309    1.6191 C   0  0  0  0  0  0  0  0  0  0  0  0
    4.9594   -2.3736   -4.1390 H   0  0  0  0  0  0  0  0  0  0  0  0
    3.2761   -2.7900   -4.4138 H   0  0  0  0  0  0  0  0  0  0  0  0
    4.4770   -4.0638   -4.2491 H   0  0  0  0  0  0  0  0  0  0  0  0
    3.1635   -3.7682   -2.1478 H   0  0  0  0  0  0  0  0  0  0  0  0
    3.1575   -1.0376   -2.6107 H   0  0  0  0  0  0  0  0  0  0  0  0
    2.9313   -1.7601   -1.0351 H   0  0  0  0  0  0  0  0  0  0  0  0
    5.3753   -0.4906   -2.0920 H   0  0  0  0  0  0  0  0  0  0  0  0
    4.7552   -0.3214   -0.4710 H   0  0  0  0  0  0  0  0  0  0  0  0
    6.8993   -2.0362   -1.2487 H   0  0  0  0  0  0  0  0  0  0  0  0
    6.0251   -3.8928   -2.2531 H   0  0  0  0  0  0  0  0  0  0  0  0
    3.8268   -5.7017   -0.6895 H   0  0  0  0  0  0  0  0  0  0  0  0
    2.7140   -3.3377    0.4318 H   0  0  0  0  0  0  0  0  0  0  0  0
    1.8897   -4.8674    0.2161 H   0  0  0  0  0  0  0  0  0  0  0  0
    3.0103   -3.6957    2.7020 H   0  0  0  0  0  0  0  0  0  0  0  0
    1.6830   -4.7972    2.5524 H   0  0  0  0  0  0  0  0  0  0  0  0
    4.2410   -5.3875    3.3879 H   0  0  0  0  0  0  0  0  0  0  0  0
    3.0399   -7.2519    3.9570 H   0  0  0  0  0  0  0  0  0  0  0  0
    4.9935   -8.2416    3.0610 H   0  0  0  0  0  0  0  0  0  0  0  0
    3.6790   -9.8963    1.2219 H   0  0  0  0  0  0  0  0  0  0  0  0
    3.4208  -10.0215    2.9567 H   0  0  0  0  0  0  0  0  0  0  0  0
    1.7923   -7.1014    1.1639 H   0  0  0  0  0  0  0  0  0  0  0  0
    0.7465   -7.6452    3.7106 H   0  0  0  0  0  0  0  0  0  0  0  0
    5.7592   -7.7575    0.8825 H   0  0  0  0  0  0  0  0  0  0  0  0
    4.1285   -7.6677    0.2346 H   0  0  0  0  0  0  0  0  0  0  0  0
    7.3319   -4.4099    0.0490 H   0  0  0  0  0  0  0  0  0  0  0  0
    5.1545   -2.8073    2.4626 H   0  0  0  0  0  0  0  0  0  0  0  0
    4.2032   -1.8085    1.3384 H   0  0  0  0  0  0  0  0  0  0  0  0
    5.8575   -1.2924    1.8889 H   0  0  0  0  0  0  0  0  0  0  0  0
  1  2  1  0
  1 25  1  0
  1 26  1  0
  1 27  1  0
  2  6  1  0
  2  3  1  0
  2 28  1  6
  3  4  1  0
  3 29  1  0
  3 30  1  0
  4  5  1  0
  4 31  1  0
  4 32  1  0
  5 23  1  0
  5  6  1  0
  5 33  1  6
  6  7  1  0
  6 34  1  6
  7 22  1  0
  7 23  1  1
  7  8  1  0
  8 19  1  0
  8  9  1  0
  8 35  1  6
  9 10  1  0
  9 36  1  0
  9 37  1  0
 10 11  1  0
 10 38  1  0
 10 39  1  0
 11 19  1  0
 11 12  1  0
 11 40  1  1
 12 16  1  0
 12 13  1  0
 12 41  1  1
 13 14  1  0
 13 18  1  0
 13 42  1  1
 14 15  1  0
 14 43  1  0
 14 44  1  0
 15 16  1  0
 16 17  1  0
 16 45  1  6
 17 46  1  0
 19 18  1  6
 18 47  1  0
 18 48  1  0
 19 20  1  0
 20 21  2  0
 20 22  1  0
 22 23  1  0
 22 49  1  6
 23 24  1  1
 24 50  1  0
 24 51  1  0
 24 52  1  0
M  END
>  <i_m_ct_stereo_status>  (265) 
1

>  <s_m_source_file>  (265) 
/var/tmp/pbs.5076255.sched01/tmp2a9bgmzv/100_xx7n39i.sdf

>  <i_m_source_file_index>  (265) 
29

>  <i_lp_mmshare_version>  (265) 
48012

>  <i_f3d_flags>  (265) 
0

>  <s_epik_input>  (265) 
W0NIM11bQ0BASF0xW0NIMl1bQ0gyXVtDQEhdKFtDQEhdMVtDQEBdMjM0KVtDQF00KFtDSDNdKVtDQEhdM0MoPU8pW0NAXTU2W0NASF0yW0NIMl1bQ0gyXVtDQEhdNVtDQEBIXTdbQ0BIXShbQ0gyXTYpW0NIMl1PW0NASF03W09IXQ==

>  <s_epik_cmdline>  (265) 
J2VwaWtfcHl0aG9uJywgJy1waHQnLCAnMi4wJywgJy1waCcsICc3LjAnLCAnLXRuJywgJzgnLCAnLW1hJywgJzIwMCcsICctaW1hZScsICc8aW5maWxlLm1hZT4nLCAnLW9tYWUnLCAnPG91dGZpbGUubWFlPic=

>  <r_lp_tautomer_probability>  (265) 
1

>  <r_epik_Ionization_Penalty>  (265) 
4.56943e-08

>  <r_epik_Ionization_Penalty_Charging>  (265) 
0

>  <r_epik_Ionization_Penalty_Neutral>  (265) 
4.56943e-08

>  <r_epik_State_Penalty>  (265) 
-0

>  <r_epik_Charging_Adjusted_Penalty>  (265) 
0

>  <i_epik_Tot_Q>  (265) 
0

>  <i_epik_Tot_abs_Q>  (265) 
0

>  <s_epik_Chemistry_Notes>  (265) 
This compound contains an acetal/aminal-like group ( X-CH(R)-Y where X, Y are N, S, or O) that may be acid/base labile, releasing an aldehyde.

>  <s_lp_Force_Field>  (265) 
OPLS3e

>  <r_lp_Energy>  (265) 
87.6699

>  <b_lp_Chiralities_Consistent>  (265) 
1

>  <s_lp_Variant>  (265) 
63:0-1

>  <s_i_glide_gridfile>  (265) 
pfpi4k_grid

>  <i_i_glide_lignum>  (265) 
29

>  <i_i_glide_rotatable_bonds>  (265) 
1

>  <r_i_docking_score>  (265) 
-3.3907

>  <r_i_glide_ligand_efficiency>  (265) 
-0.141279

>  <r_i_glide_ligand_efficiency_sa>  (265) 
-0.40752

>  <r_i_glide_ligand_efficiency_ln>  (265) 
-0.811551

>  <r_i_glide_gscore>  (265) 
-3.3907

>  <r_i_glide_lipo>  (265) 
-0.598319

>  <r_i_glide_hbond>  (265) 
0

>  <r_i_glide_metal>  (265) 
-0

>  <r_i_glide_rewards>  (265) 
-1.25887

>  <r_i_glide_evdw>  (265) 
-29.445

>  <r_i_glide_ecoul>  (265) 
-0.283125

>  <r_i_glide_erotb>  (265) 
0

>  <r_i_glide_esite>  (265) 
-0.0188006

>  <r_i_glide_emodel>  (265) 
-35.5177

>  <r_i_glide_energy>  (265) 
-29.7281

>  <r_i_glide_einternal>  (265) 
0.0553175

>  <r_i_glide_intrahb_reward>  (265) 
-0

>  <i_i_glide_confnum>  (265) 
2

>  <i_i_glide_posenum>  (265) 
32

>  <r_i_glide_eff_state_penalty>  (265) 
0

>  <ligand_id>  (265) 
63

>  <original_smiles>  (265) 
CC1CCC2C1C13C4CCC5C6C(COC6O)CC54C(=O)C1C23C

>  <smiles>  (265) 
[H]OC1([H])OC([H])([H])C2([H])C([H])([H])C34C(=O)C5([H])C6(C([H])([H])[H])C7([H])C([H])([H])C([H])([H])C([H])(C([H])([H])[H])C7([H])C56C3([H])C([H])([H])C([H])([H])C4([H])C12[H]

$$$$
63:0:1
     RDKit          3D

 52 58  0  0  1  0  0  0  0  0999 V2000
    2.6554   -2.9506   -3.5053 C   0  0  0  0  0  0  0  0  0  0  0  0
    3.0487   -2.5779   -2.0630 C   0  0  2  0  0  0  0  0  0  0  0  0
    3.4843   -1.1123   -1.9537 C   0  0  0  0  0  0  0  0  0  0  0  0
    5.0245   -1.0893   -1.9605 C   0  0  0  0  0  0  0  0  0  0  0  0
    5.4886   -2.4658   -1.4966 C   0  0  2  0  0  0  0  0  0  0  0  0
    4.2668   -3.3823   -1.5766 C   0  0  1  0  0  0  0  0  0  0  0  0
    4.4079   -3.6490   -0.0816 C   0  0  1  0  0  0  0  0  0  0  0  0
    3.2482   -3.8341    0.9056 C   0  0  2  0  0  0  0  0  0  0  0  0
    2.6256   -2.5342    1.4753 C   0  0  0  0  0  0  0  0  0  0  0  0
    3.0496   -2.4138    2.9321 C   0  0  0  0  0  0  0  0  0  0  0  0
    3.5542   -3.7957    3.3566 C   0  0  1  0  0  0  0  0  0  0  0  0
    2.6897   -4.6769    4.2795 C   0  0  2  0  0  0  0  0  0  0  0  0
    2.9614   -6.1021    3.8504 C   0  0  1  0  0  0  0  0  0  0  0  0
    1.6836   -6.8346    4.2582 C   0  0  0  0  0  0  0  0  0  0  0  0
    0.6566   -5.8422    4.3176 O   0  0  0  0  0  0  0  0  0  0  0  0
    1.1710   -4.5678    4.0750 C   0  0  1  0  0  0  0  0  0  0  0  0
    0.6086   -3.5862    4.9172 O   0  0  0  0  0  0  0  0  0  0  0  0
    3.2316   -6.0159    2.3415 C   0  0  0  0  0  0  0  0  0  0  0  0
    3.8469   -4.6212    2.0977 C   0  0  1  0  0  0  0  0  0  0  0  0
    5.3447   -4.7208    1.7785 C   0  0  0  0  0  0  0  0  0  0  0  0
    6.1504   -5.2047    2.5740 O   0  0  0  0  0  0  0  0  0  0  0  0
    5.6896   -4.2292    0.4227 C   0  0  2  0  0  0  0  0  0  0  0  0
    5.6036   -2.7489   -0.0023 C   0  0  1  0  0  0  0  0  0  0  0  0
    5.9106   -1.6252    0.9754 C   0  0  0  0  0  0  0  0  0  0  0  0
    3.4806   -2.7940   -4.1895 H   0  0  0  0  0  0  0  0  0  0  0  0
    1.8201   -2.3521   -3.8563 H   0  0  0  0  0  0  0  0  0  0  0  0
    2.3535   -3.9901   -3.5804 H   0  0  0  0  0  0  0  0  0  0  0  0
    2.1743   -2.7435   -1.4375 H   0  0  0  0  0  0  0  0  0  0  0  0
    3.0594   -0.4880   -2.7415 H   0  0  0  0  0  0  0  0  0  0  0  0
    3.1422   -0.6984   -1.0080 H   0  0  0  0  0  0  0  0  0  0  0  0
    5.2936   -0.9971   -3.0104 H   0  0  0  0  0  0  0  0  0  0  0  0
    5.4614   -0.2663   -1.4070 H   0  0  0  0  0  0  0  0  0  0  0  0
    6.3160   -2.8708   -2.0892 H   0  0  0  0  0  0  0  0  0  0  0  0
    4.4796   -4.2669   -2.1746 H   0  0  0  0  0  0  0  0  0  0  0  0
    2.4762   -4.4098    0.3877 H   0  0  0  0  0  0  0  0  0  0  0  0
    2.9185   -1.6602    0.9064 H   0  0  0  0  0  0  0  0  0  0  0  0
    1.5395   -2.5812    1.4415 H   0  0  0  0  0  0  0  0  0  0  0  0
    3.8675   -1.7046    3.0231 H   0  0  0  0  0  0  0  0  0  0  0  0
    2.2559   -2.0425    3.5675 H   0  0  0  0  0  0  0  0  0  0  0  0
    4.4831   -3.6369    3.9007 H   0  0  0  0  0  0  0  0  0  0  0  0
    2.9398   -4.5431    5.3346 H   0  0  0  0  0  0  0  0  0  0  0  0
    3.8485   -6.4975    4.3543 H   0  0  0  0  0  0  0  0  0  0  0  0
    1.4112   -7.6341    3.5679 H   0  0  0  0  0  0  0  0  0  0  0  0
    1.7929   -7.2714    5.2516 H   0  0  0  0  0  0  0  0  0  0  0  0
    0.9176   -4.3045    3.0453 H   0  0  0  0  0  0  0  0  0  0  0  0
    0.9354   -3.7232    5.7958 H   0  0  0  0  0  0  0  0  0  0  0  0
    3.8501   -6.8453    1.9875 H   0  0  0  0  0  0  0  0  0  0  0  0
    2.2843   -6.0941    1.8106 H   0  0  0  0  0  0  0  0  0  0  0  0
    6.2059   -4.9148   -0.2402 H   0  0  0  0  0  0  0  0  0  0  0  0
    5.9192   -2.0329    1.9887 H   0  0  0  0  0  0  0  0  0  0  0  0
    5.1047   -0.8891    0.8772 H   0  0  0  0  0  0  0  0  0  0  0  0
    6.9013   -1.1768    0.7825 H   0  0  0  0  0  0  0  0  0  0  0  0
  1  2  1  0
  1 25  1  0
  1 26  1  0
  1 27  1  0
  2  6  1  0
  2  3  1  0
  2 28  1  1
  3  4  1  0
  3 29  1  0
  3 30  1  0
  4  5  1  0
  4 31  1  0
  4 32  1  0
  5 23  1  0
  5  6  1  0
  5 33  1  6
  6  7  1  0
  6 34  1  6
  7 22  1  0
  7 23  1  1
  7  8  1  0
  8 19  1  0
  8  9  1  0
  8 35  1  6
  9 10  1  0
  9 36  1  0
  9 37  1  0
 10 11  1  0
 10 38  1  0
 10 39  1  0
 11 19  1  0
 11 12  1  0
 11 40  1  1
 12 16  1  0
 12 13  1  0
 12 41  1  1
 13 14  1  0
 13 18  1  0
 13 42  1  1
 14 15  1  0
 14 43  1  0
 14 44  1  0
 15 16  1  0
 16 17  1  0
 16 45  1  6
 17 46  1  0
 19 18  1  1
 18 47  1  0
 18 48  1  0
 19 20  1  0
 20 21  2  0
 20 22  1  0
 22 23  1  0
 22 49  1  6
 23 24  1  1
 24 50  1  0
 24 51  1  0
 24 52  1  0
M  END
>  <i_m_ct_stereo_status>  (266) 
1

>  <s_m_source_file>  (266) 
/var/tmp/pbs.5076255.sched01/tmp2a9bgmzv/100_xx7n39i.sdf

>  <i_m_source_file_index>  (266) 
29

>  <i_lp_mmshare_version>  (266) 
48012

>  <i_f3d_flags>  (266) 
0

>  <s_epik_input>  (266) 
W0NIM11bQ0BASF0xW0NIMl1bQ0gyXVtDQEhdKFtDQEhdMVtDQEBdMjM0KVtDQF00KFtDSDNdKVtDQEhdM0MoPU8pW0NAXTU2W0NASF0yW0NIMl1bQ0gyXVtDQEhdNVtDQEBIXTdbQ0BIXShbQ0gyXTYpW0NIMl1PW0NASF03W09IXQ==

>  <s_epik_cmdline>  (266) 
J2VwaWtfcHl0aG9uJywgJy1waHQnLCAnMi4wJywgJy1waCcsICc3LjAnLCAnLXRuJywgJzgnLCAnLW1hJywgJzIwMCcsICctaW1hZScsICc8aW5maWxlLm1hZT4nLCAnLW9tYWUnLCAnPG91dGZpbGUubWFlPic=

>  <r_lp_tautomer_probability>  (266) 
1

>  <r_epik_Ionization_Penalty>  (266) 
4.56943e-08

>  <r_epik_Ionization_Penalty_Charging>  (266) 
0

>  <r_epik_Ionization_Penalty_Neutral>  (266) 
4.56943e-08

>  <r_epik_State_Penalty>  (266) 
-0

>  <r_epik_Charging_Adjusted_Penalty>  (266) 
0

>  <i_epik_Tot_Q>  (266) 
0

>  <i_epik_Tot_abs_Q>  (266) 
0

>  <s_epik_Chemistry_Notes>  (266) 
This compound contains an acetal/aminal-like group ( X-CH(R)-Y where X, Y are N, S, or O) that may be acid/base labile, releasing an aldehyde.

>  <s_lp_Force_Field>  (266) 
OPLS3e

>  <r_lp_Energy>  (266) 
87.6699

>  <b_lp_Chiralities_Consistent>  (266) 
1

>  <s_lp_Variant>  (266) 
63:0-1

>  <s_i_glide_gridfile>  (266) 
pfpi4k_grid

>  <i_i_glide_lignum>  (266) 
29

>  <i_i_glide_rotatable_bonds>  (266) 
1

>  <r_i_docking_score>  (266) 
-3.03769

>  <r_i_glide_ligand_efficiency>  (266) 
-0.12657

>  <r_i_glide_ligand_efficiency_sa>  (266) 
-0.365092

>  <r_i_glide_ligand_efficiency_ln>  (266) 
-0.727059

>  <r_i_glide_gscore>  (266) 
-3.03769

>  <r_i_glide_lipo>  (266) 
-0.485081

>  <r_i_glide_hbond>  (266) 
0

>  <r_i_glide_metal>  (266) 
-0

>  <r_i_glide_rewards>  (266) 
-1.2196

>  <r_i_glide_evdw>  (266) 
-24.3394

>  <r_i_glide_ecoul>  (266) 
-0.743111

>  <r_i_glide_erotb>  (266) 
0

>  <r_i_glide_esite>  (266) 
-0.00457624

>  <r_i_glide_emodel>  (266) 
-30.1887

>  <r_i_glide_energy>  (266) 
-25.0825

>  <r_i_glide_einternal>  (266) 
0.0264704

>  <r_i_glide_intrahb_reward>  (266) 
-0

>  <i_i_glide_confnum>  (266) 
1

>  <i_i_glide_posenum>  (266) 
28

>  <r_i_glide_eff_state_penalty>  (266) 
0

>  <ligand_id>  (266) 
63

>  <original_smiles>  (266) 
CC1CCC2C1C13C4CCC5C6C(COC6O)CC54C(=O)C1C23C

>  <smiles>  (266) 
[H]OC1([H])OC([H])([H])C2([H])C([H])([H])C34C(=O)C5([H])C6(C([H])([H])[H])C7([H])C([H])([H])C([H])([H])C([H])(C([H])([H])[H])C7([H])C56C3([H])C([H])([H])C([H])([H])C4([H])C12[H]

$$$$
63:0:2
     RDKit          3D

 52 58  0  0  1  0  0  0  0  0999 V2000
    2.4708   -3.1436   -3.8778 C   0  0  0  0  0  0  0  0  0  0  0  0
    2.8993   -2.6324   -2.4920 C   0  0  2  0  0  0  0  0  0  0  0  0
    3.2484   -1.1380   -2.5349 C   0  0  0  0  0  0  0  0  0  0  0  0
    4.7726   -1.0468   -2.6344 C   0  0  0  0  0  0  0  0  0  0  0  0
    5.3470   -2.3299   -2.0577 C   0  0  2  0  0  0  0  0  0  0  0  0
    4.1810   -3.3230   -2.0051 C   0  0  1  0  0  0  0  0  0  0  0  0
    4.4111   -3.4475   -0.5064 C   0  0  1  0  0  0  0  0  0  0  0  0
    3.3108   -3.6312    0.5420 C   0  0  2  0  0  0  0  0  0  0  0  0
    2.6524   -2.3271    1.0561 C   0  0  0  0  0  0  0  0  0  0  0  0
    3.1337   -2.0622    2.4809 C   0  0  0  0  0  0  0  0  0  0  0  0
    3.7353   -3.3774    2.9804 C   0  0  1  0  0  0  0  0  0  0  0  0
    2.9562   -4.2188    4.0162 C   0  0  2  0  0  0  0  0  0  0  0  0
    3.2934   -5.6555    3.6893 C   0  0  1  0  0  0  0  0  0  0  0  0
    2.0861   -6.4263    4.2202 C   0  0  0  0  0  0  0  0  0  0  0  0
    1.0071   -5.4918    4.2650 O   0  0  0  0  0  0  0  0  0  0  0  0
    1.4272   -4.2237    3.8672 C   0  0  1  0  0  0  0  0  0  0  0  0
    0.8359   -3.2046    4.6426 O   0  0  0  0  0  0  0  0  0  0  0  0
    3.4837   -5.6825    2.1637 C   0  0  0  0  0  0  0  0  0  0  0  0
    4.0066   -4.2832    1.7667 C   0  0  1  0  0  0  0  0  0  0  0  0
    5.4935   -4.3280    1.3762 C   0  0  0  0  0  0  0  0  0  0  0  0
    6.3783   -4.7167    2.1372 O   0  0  0  0  0  0  0  0  0  0  0  0
    5.7362   -3.9195   -0.0284 C   0  0  2  0  0  0  0  0  0  0  0  0
    5.5399   -2.4838   -0.5500 C   0  0  1  0  0  0  0  0  0  0  0  0
    5.8254   -1.2760    0.3402 C   0  0  0  0  0  0  0  0  0  0  0  0
    3.2500   -2.9978   -4.6198 H   0  0  0  0  0  0  0  0  0  0  0  0
    1.5755   -2.6321   -4.2245 H   0  0  0  0  0  0  0  0  0  0  0  0
    2.2338   -4.2057   -3.8518 H   0  0  0  0  0  0  0  0  0  0  0  0
    2.0658   -2.8024   -1.8117 H   0  0  0  0  0  0  0  0  0  0  0  0
    2.7372   -0.6005   -3.3357 H   0  0  0  0  0  0  0  0  0  0  0  0
    2.9549   -0.6660   -1.6055 H   0  0  0  0  0  0  0  0  0  0  0  0
    5.0050   -1.0335   -3.6974 H   0  0  0  0  0  0  0  0  0  0  0  0
    5.1839   -0.1257   -2.2100 H   0  0  0  0  0  0  0  0  0  0  0  0
    6.1930   -2.7165   -2.6336 H   0  0  0  0  0  0  0  0  0  0  0  0
    4.4137   -4.2453   -2.5368 H   0  0  0  0  0  0  0  0  0  0  0  0
    2.5446   -4.2898    0.1210 H   0  0  0  0  0  0  0  0  0  0  0  0
    2.8554   -1.4773    0.4132 H   0  0  0  0  0  0  0  0  0  0  0  0
    1.5701   -2.4370    1.0793 H   0  0  0  0  0  0  0  0  0  0  0  0
    3.9062   -1.2961    2.4710 H   0  0  0  0  0  0  0  0  0  0  0  0
    2.3438   -1.6765    3.1165 H   0  0  0  0  0  0  0  0  0  0  0  0
    4.6806   -3.1293    3.4649 H   0  0  0  0  0  0  0  0  0  0  0  0
    3.2274   -3.9808    5.0460 H   0  0  0  0  0  0  0  0  0  0  0  0
    4.2245   -5.9582    4.1774 H   0  0  0  0  0  0  0  0  0  0  0  0
    1.8384   -7.2910    3.6033 H   0  0  0  0  0  0  0  0  0  0  0  0
    2.2776   -6.7853    5.2316 H   0  0  0  0  0  0  0  0  0  0  0  0
    1.1178   -4.0865    2.8330 H   0  0  0  0  0  0  0  0  0  0  0  0
    1.2758   -2.3939    4.4404 H   0  0  0  0  0  0  0  0  0  0  0  0
    4.1369   -6.5036    1.8585 H   0  0  0  0  0  0  0  0  0  0  0  0
    2.5208   -5.8649    1.6870 H   0  0  0  0  0  0  0  0  0  0  0  0
    6.2453   -4.6312   -0.6795 H   0  0  0  0  0  0  0  0  0  0  0  0
    5.9151   -1.5969    1.3778 H   0  0  0  0  0  0  0  0  0  0  0  0
    5.0037   -0.5648    0.2609 H   0  0  0  0  0  0  0  0  0  0  0  0
    6.7712   -0.8009    0.0675 H   0  0  0  0  0  0  0  0  0  0  0  0
  1  2  1  0
  1 25  1  0
  1 26  1  0
  1 27  1  0
  2  6  1  0
  2  3  1  0
  2 28  1  1
  3  4  1  0
  3 29  1  0
  3 30  1  0
  4  5  1  0
  4 31  1  0
  4 32  1  0
  5 23  1  0
  5  6  1  0
  5 33  1  6
  6  7  1  0
  6 34  1  6
  7 22  1  0
  7 23  1  1
  7  8  1  0
  8 19  1  0
  8  9  1  0
  8 35  1  6
  9 10  1  0
  9 36  1  0
  9 37  1  0
 10 11  1  0
 10 38  1  0
 10 39  1  0
 11 19  1  0
 11 12  1  0
 11 40  1  1
 12 16  1  0
 12 13  1  0
 12 41  1  1
 13 14  1  0
 13 18  1  0
 13 42  1  1
 14 15  1  0
 14 43  1  0
 14 44  1  0
 15 16  1  0
 16 17  1  0
 16 45  1  6
 17 46  1  0
 19 18  1  1
 18 47  1  0
 18 48  1  0
 19 20  1  0
 20 21  2  0
 20 22  1  0
 22 23  1  0
 22 49  1  6
 23 24  1  1
 24 50  1  0
 24 51  1  0
 24 52  1  0
M  END
>  <i_m_ct_stereo_status>  (267) 
1

>  <s_m_source_file>  (267) 
/var/tmp/pbs.5076255.sched01/tmp2a9bgmzv/100_xx7n39i.sdf

>  <i_m_source_file_index>  (267) 
29

>  <i_lp_mmshare_version>  (267) 
48012

>  <i_f3d_flags>  (267) 
0

>  <s_epik_input>  (267) 
W0NIM11bQ0BASF0xW0NIMl1bQ0gyXVtDQEhdKFtDQEhdMVtDQEBdMjM0KVtDQF00KFtDSDNdKVtDQEhdM0MoPU8pW0NAXTU2W0NASF0yW0NIMl1bQ0gyXVtDQEhdNVtDQEBIXTdbQ0BIXShbQ0gyXTYpW0NIMl1PW0NASF03W09IXQ==

>  <s_epik_cmdline>  (267) 
J2VwaWtfcHl0aG9uJywgJy1waHQnLCAnMi4wJywgJy1waCcsICc3LjAnLCAnLXRuJywgJzgnLCAnLW1hJywgJzIwMCcsICctaW1hZScsICc8aW5maWxlLm1hZT4nLCAnLW9tYWUnLCAnPG91dGZpbGUubWFlPic=

>  <r_lp_tautomer_probability>  (267) 
1

>  <r_epik_Ionization_Penalty>  (267) 
4.56943e-08

>  <r_epik_Ionization_Penalty_Charging>  (267) 
0

>  <r_epik_Ionization_Penalty_Neutral>  (267) 
4.56943e-08

>  <r_epik_State_Penalty>  (267) 
-0

>  <r_epik_Charging_Adjusted_Penalty>  (267) 
0

>  <i_epik_Tot_Q>  (267) 
0

>  <i_epik_Tot_abs_Q>  (267) 
0

>  <s_epik_Chemistry_Notes>  (267) 
This compound contains an acetal/aminal-like group ( X-CH(R)-Y where X, Y are N, S, or O) that may be acid/base labile, releasing an aldehyde.

>  <s_lp_Force_Field>  (267) 
OPLS3e

>  <r_lp_Energy>  (267) 
87.6699

>  <b_lp_Chiralities_Consistent>  (267) 
1

>  <s_lp_Variant>  (267) 
63:0-1

>  <s_i_glide_gridfile>  (267) 
pfpi4k_grid

>  <i_i_glide_lignum>  (267) 
29

>  <i_i_glide_rotatable_bonds>  (267) 
1

>  <r_i_docking_score>  (267) 
-3.03067

>  <r_i_glide_ligand_efficiency>  (267) 
-0.126278

>  <r_i_glide_ligand_efficiency_sa>  (267) 
-0.364249

>  <r_i_glide_ligand_efficiency_ln>  (267) 
-0.725379

>  <r_i_glide_gscore>  (267) 
-3.03067

>  <r_i_glide_lipo>  (267) 
-0.348782

>  <r_i_glide_hbond>  (267) 
0

>  <r_i_glide_metal>  (267) 
-0

>  <r_i_glide_rewards>  (267) 
-1.23995

>  <r_i_glide_evdw>  (267) 
-24.4842

>  <r_i_glide_ecoul>  (267) 
-1.43322

>  <r_i_glide_erotb>  (267) 
0

>  <r_i_glide_esite>  (267) 
-0.0027501

>  <r_i_glide_emodel>  (267) 
-30.1345

>  <r_i_glide_energy>  (267) 
-25.9175

>  <r_i_glide_einternal>  (267) 
1.90529

>  <r_i_glide_intrahb_reward>  (267) 
-0

>  <i_i_glide_confnum>  (267) 
1

>  <i_i_glide_posenum>  (267) 
26

>  <r_i_glide_eff_state_penalty>  (267) 
0

>  <ligand_id>  (267) 
63

>  <original_smiles>  (267) 
CC1CCC2C1C13C4CCC5C6C(COC6O)CC54C(=O)C1C23C

>  <smiles>  (267) 
[H]OC1([H])OC([H])([H])C2([H])C([H])([H])C34C(=O)C5([H])C6(C([H])([H])[H])C7([H])C([H])([H])C([H])([H])C([H])(C([H])([H])[H])C7([H])C56C3([H])C([H])([H])C([H])([H])C4([H])C12[H]

$$$$
64:0:0
     RDKit          3D

 38 41  0  0  1  0  0  0  0  0999 V2000
    2.9878   -3.7733    3.5783 C   0  0  0  0  0  0  0  0  0  0  0  0
    2.9377   -2.4648    2.8185 C   0  0  0  0  0  0  0  0  0  0  0  0
    1.8355   -1.5641    3.3331 C   0  0  0  0  0  0  0  0  0  0  0  0
    4.2020   -1.7962    2.3244 C   0  0  2  0  0  0  0  0  0  0  0  0
    4.6011   -0.5703    1.5470 C   0  0  0  0  0  0  0  0  0  0  0  0
    5.4707   -1.0522    0.5062 O   0  0  0  0  0  0  0  0  0  0  0  0
    5.0165   -2.1479   -0.3293 C   0  0  2  0  0  0  0  0  0  0  0  0
    4.3186   -1.6871   -1.6048 C   0  0  0  0  0  0  0  0  0  0  0  0
    4.8256   -0.5632   -2.2736 C   0  0  0  0  0  0  0  0  0  0  0  0
    4.2109   -0.0682   -3.4350 C   0  0  0  0  0  0  0  0  0  0  0  0
    3.1201   -0.7366   -3.9855 C   0  0  0  0  0  0  0  0  0  0  0  0
    2.5734   -0.2378   -5.1217 O   0  0  0  0  0  0  0  0  0  0  0  0
    2.6218   -1.8949   -3.3650 C   0  0  0  0  0  0  0  0  0  0  0  0
    3.1972   -2.3488   -2.1639 C   0  0  0  0  0  0  0  0  0  0  0  0
    2.5652   -3.5183   -1.4538 C   0  0  0  0  0  0  0  0  0  0  0  0
    3.5272   -4.2255   -0.4930 C   0  0  0  0  0  0  0  0  0  0  0  0
    4.2301   -3.2469    0.4500 C   0  0  2  0  0  0  0  0  0  0  0  0
    3.2763   -2.5122    1.3581 C   0  0  1  0  0  0  0  0  0  0  0  0
    3.1876   -3.5957    4.6338 H   0  0  0  0  0  0  0  0  0  0  0  0
    3.7793   -4.4064    3.1801 H   0  0  0  0  0  0  0  0  0  0  0  0
    2.0450   -4.3085    3.4741 H   0  0  0  0  0  0  0  0  0  0  0  0
    1.8268   -0.6301    2.7734 H   0  0  0  0  0  0  0  0  0  0  0  0
    2.0095   -1.3263    4.3808 H   0  0  0  0  0  0  0  0  0  0  0  0
    0.8612   -2.0389    3.2260 H   0  0  0  0  0  0  0  0  0  0  0  0
    5.0863   -2.3144    2.7004 H   0  0  0  0  0  0  0  0  0  0  0  0
    3.7354   -0.0358    1.1490 H   0  0  0  0  0  0  0  0  0  0  0  0
    5.1501    0.1085    2.2005 H   0  0  0  0  0  0  0  0  0  0  0  0
    5.9287   -2.6101   -0.7014 H   0  0  0  0  0  0  0  0  0  0  0  0
    5.6671   -0.0420   -1.8605 H   0  0  0  0  0  0  0  0  0  0  0  0
    4.5653    0.8454   -3.8958 H   0  0  0  0  0  0  0  0  0  0  0  0
    2.0704   -0.8918   -5.6060 H   0  0  0  0  0  0  0  0  0  0  0  0
    1.7500   -2.3998   -3.7698 H   0  0  0  0  0  0  0  0  0  0  0  0
    1.6862   -3.1727   -0.9183 H   0  0  0  0  0  0  0  0  0  0  0  0
    2.1962   -4.2162   -2.2042 H   0  0  0  0  0  0  0  0  0  0  0  0
    3.0223   -5.0207    0.0584 H   0  0  0  0  0  0  0  0  0  0  0  0
    4.2970   -4.7217   -1.0864 H   0  0  0  0  0  0  0  0  0  0  0  0
    4.9337   -3.8213    1.0624 H   0  0  0  0  0  0  0  0  0  0  0  0
    2.5661   -1.9188    0.7781 H   0  0  0  0  0  0  0  0  0  0  0  0
  1  2  1  0
  1 19  1  0
  1 20  1  0
  1 21  1  0
  2 18  1  0
  2  3  1  0
  2  4  1  0
  3 22  1  0
  3 23  1  0
  3 24  1  0
  4 18  1  0
  4  5  1  0
  4 25  1  1
  5  6  1  0
  5 26  1  0
  5 27  1  0
  6  7  1  0
  7 17  1  0
  7  8  1  0
  7 28  1  6
  8 14  2  0
  8  9  1  0
  9 10  2  0
  9 29  1  0
 10 11  1  0
 10 30  1  0
 11 12  1  0
 11 13  2  0
 12 31  1  0
 13 14  1  0
 13 32  1  0
 14 15  1  0
 15 16  1  0
 15 33  1  0
 15 34  1  0
 16 17  1  0
 16 35  1  0
 16 36  1  0
 17 18  1  0
 17 37  1  1
 18 38  1  6
M  END
>  <i_m_ct_stereo_status>  (268) 
1

>  <s_m_source_file>  (268) 
/var/tmp/pbs.5076255.sched01/tmp2a9bgmzv/100_xx7n39i.sdf

>  <i_m_source_file_index>  (268) 
30

>  <i_lp_mmshare_version>  (268) 
48012

>  <i_f3d_flags>  (268) 
0

>  <s_epik_input>  (268) 
W0NIM11DMShbQ0gzXSlbQ0BASF0oW0NASF0xMilbQ0BASF0zW0NASF0oT1tDSDJdMiljNGMoW0NIMl1bQ0gyXTMpW2NIXWMoW09IXSlbY0hdW2NIXTQ=

>  <s_epik_cmdline>  (268) 
J2VwaWtfcHl0aG9uJywgJy1waHQnLCAnMi4wJywgJy1waCcsICc3LjAnLCAnLXRuJywgJzgnLCAnLW1hJywgJzIwMCcsICctaW1hZScsICc8aW5maWxlLm1hZT4nLCAnLW9tYWUnLCAnPG91dGZpbGUubWFlPic=

>  <r_lp_tautomer_probability>  (268) 
1

>  <r_epik_Ionization_Penalty>  (268) 
0.000338347

>  <r_epik_Ionization_Penalty_Charging>  (268) 
0

>  <r_epik_Ionization_Penalty_Neutral>  (268) 
0.000338347

>  <r_epik_State_Penalty>  (268) 
0.000205049

>  <r_epik_Charging_Adjusted_Penalty>  (268) 
0.000205049

>  <i_epik_Tot_Q>  (268) 
0

>  <i_epik_Tot_abs_Q>  (268) 
0

>  <s_lp_Force_Field>  (268) 
OPLS3e

>  <r_lp_Energy>  (268) 
54.2884

>  <b_lp_Chiralities_Consistent>  (268) 
1

>  <s_lp_Variant>  (268) 
64:0-1

>  <s_i_glide_gridfile>  (268) 
pfpi4k_grid

>  <i_i_glide_lignum>  (268) 
30

>  <i_i_glide_rotatable_bonds>  (268) 
1

>  <r_i_docking_score>  (268) 
-4.19843

>  <r_i_glide_ligand_efficiency>  (268) 
-0.233246

>  <r_i_glide_ligand_efficiency_sa>  (268) 
-0.611278

>  <r_i_glide_ligand_efficiency_ln>  (268) 
-1.07919

>  <r_i_glide_gscore>  (268) 
-4.19843

>  <r_i_glide_lipo>  (268) 
-0.642601

>  <r_i_glide_hbond>  (268) 
-0.32

>  <r_i_glide_metal>  (268) 
-0

>  <r_i_glide_rewards>  (268) 
-1.74321

>  <r_i_glide_evdw>  (268) 
-14.5836

>  <r_i_glide_ecoul>  (268) 
-5.0896

>  <r_i_glide_erotb>  (268) 
0

>  <r_i_glide_esite>  (268) 
0

>  <r_i_glide_emodel>  (268) 
-25.1218

>  <r_i_glide_energy>  (268) 
-19.6732

>  <r_i_glide_einternal>  (268) 
0.54835

>  <r_i_glide_intrahb_reward>  (268) 
-0

>  <i_i_glide_confnum>  (268) 
1

>  <i_i_glide_posenum>  (268) 
7

>  <r_i_glide_eff_state_penalty>  (268) 
0

>  <ligand_id>  (268) 
64

>  <original_smiles>  (268) 
CC1(C)C2COC3c4ccc(O)cc4CCC3C21

>  <smiles>  (268) 
[H]Oc1c([H])c([H])c2c(c1[H])C([H])([H])C([H])([H])C1([H])C2([H])OC([H])([H])C2([H])C1([H])C2(C([H])([H])[H])C([H])([H])[H]

$$$$
64:0:1
     RDKit          3D

 38 41  0  0  1  0  0  0  0  0999 V2000
    3.4760   -0.3993   -3.2421 C   0  0  0  0  0  0  0  0  0  0  0  0
    3.5194   -1.7988   -2.6652 C   0  0  0  0  0  0  0  0  0  0  0  0
    2.4152   -2.6658   -3.2371 C   0  0  0  0  0  0  0  0  0  0  0  0
    4.8253   -2.4549   -2.3499 C   0  0  2  0  0  0  0  0  0  0  0  0
    5.2991   -3.7655   -1.8036 C   0  0  0  0  0  0  0  0  0  0  0  0
    6.2412   -3.4106   -0.7743 O   0  0  0  0  0  0  0  0  0  0  0  0
    5.8221   -2.4811    0.2560 C   0  0  2  0  0  0  0  0  0  0  0  0
    5.2226   -3.1927    1.4743 C   0  0  0  0  0  0  0  0  0  0  0  0
    5.8168   -4.3930    1.9176 C   0  0  0  0  0  0  0  0  0  0  0  0
    5.3249   -5.0607    3.0583 C   0  0  0  0  0  0  0  0  0  0  0  0
    4.2335   -4.5248    3.7693 C   0  0  0  0  0  0  0  0  0  0  0  0
    3.7485   -5.1637    4.8739 O   0  0  0  0  0  0  0  0  0  0  0  0
    3.6361   -3.3253    3.3399 C   0  0  0  0  0  0  0  0  0  0  0  0
    4.1217   -2.6560    2.1980 C   0  0  0  0  0  0  0  0  0  0  0  0
    3.4281   -1.3747    1.7638 C   0  0  0  0  0  0  0  0  0  0  0  0
    4.2947   -0.5047    0.8562 C   0  0  0  0  0  0  0  0  0  0  0  0
    4.9399   -1.3086   -0.2815 C   0  0  2  0  0  0  0  0  0  0  0  0
    3.9371   -1.9373   -1.2277 C   0  0  1  0  0  0  0  0  0  0  0  0
    3.5994   -0.4098   -4.3239 H   0  0  0  0  0  0  0  0  0  0  0  0
    4.2608    0.2117   -2.7960 H   0  0  0  0  0  0  0  0  0  0  0  0
    2.5214    0.0688   -3.0012 H   0  0  0  0  0  0  0  0  0  0  0  0
    2.4732   -3.6734   -2.8247 H   0  0  0  0  0  0  0  0  0  0  0  0
    2.5036   -2.7329   -4.3216 H   0  0  0  0  0  0  0  0  0  0  0  0
    1.4363   -2.2638   -2.9787 H   0  0  0  0  0  0  0  0  0  0  0  0
    5.6645   -1.8647   -2.7090 H   0  0  0  0  0  0  0  0  0  0  0  0
    4.4935   -4.3995   -1.4277 H   0  0  0  0  0  0  0  0  0  0  0  0
    5.8029   -4.2902   -2.6103 H   0  0  0  0  0  0  0  0  0  0  0  0
    6.7438   -2.0430    0.6388 H   0  0  0  0  0  0  0  0  0  0  0  0
    6.6620   -4.8060    1.3839 H   0  0  0  0  0  0  0  0  0  0  0  0
    5.7890   -5.9838    3.3776 H   0  0  0  0  0  0  0  0  0  0  0  0
    4.2171   -5.9608    5.0720 H   0  0  0  0  0  0  0  0  0  0  0  0
    2.7949   -2.9195    3.8859 H   0  0  0  0  0  0  0  0  0  0  0  0
    2.5113   -1.6476    1.2392 H   0  0  0  0  0  0  0  0  0  0  0  0
    3.1213   -0.7996    2.6368 H   0  0  0  0  0  0  0  0  0  0  0  0
    3.7173    0.3396    0.4775 H   0  0  0  0  0  0  0  0  0  0  0  0
    5.0964   -0.0695    1.4525 H   0  0  0  0  0  0  0  0  0  0  0  0
    5.5734   -0.6252   -0.8496 H   0  0  0  0  0  0  0  0  0  0  0  0
    3.2882   -2.6374   -0.7026 H   0  0  0  0  0  0  0  0  0  0  0  0
  1  2  1  0
  1 19  1  0
  1 20  1  0
  1 21  1  0
  2 18  1  0
  2  3  1  0
  2  4  1  0
  3 22  1  0
  3 23  1  0
  3 24  1  0
  4 18  1  0
  4  5  1  0
  4 25  1  6
  5  6  1  0
  5 26  1  0
  5 27  1  0
  6  7  1  0
  7 17  1  0
  7  8  1  0
  7 28  1  1
  8 14  2  0
  8  9  1  0
  9 10  2  0
  9 29  1  0
 10 11  1  0
 10 30  1  0
 11 12  1  0
 11 13  2  0
 12 31  1  0
 13 14  1  0
 13 32  1  0
 14 15  1  0
 15 16  1  0
 15 33  1  0
 15 34  1  0
 16 17  1  0
 16 35  1  0
 16 36  1  0
 17 18  1  0
 17 37  1  6
 18 38  1  1
M  END
>  <i_m_ct_stereo_status>  (269) 
1

>  <s_m_source_file>  (269) 
/var/tmp/pbs.5076255.sched01/tmp2a9bgmzv/100_xx7n39i.sdf

>  <i_m_source_file_index>  (269) 
30

>  <i_lp_mmshare_version>  (269) 
48012

>  <i_f3d_flags>  (269) 
0

>  <s_epik_input>  (269) 
W0NIM11DMShbQ0gzXSlbQ0BASF0oW0NASF0xMilbQ0BASF0zW0NASF0oT1tDSDJdMiljNGMoW0NIMl1bQ0gyXTMpW2NIXWMoW09IXSlbY0hdW2NIXTQ=

>  <s_epik_cmdline>  (269) 
J2VwaWtfcHl0aG9uJywgJy1waHQnLCAnMi4wJywgJy1waCcsICc3LjAnLCAnLXRuJywgJzgnLCAnLW1hJywgJzIwMCcsICctaW1hZScsICc8aW5maWxlLm1hZT4nLCAnLW9tYWUnLCAnPG91dGZpbGUubWFlPic=

>  <r_lp_tautomer_probability>  (269) 
1

>  <r_epik_Ionization_Penalty>  (269) 
0.000338347

>  <r_epik_Ionization_Penalty_Charging>  (269) 
0

>  <r_epik_Ionization_Penalty_Neutral>  (269) 
0.000338347

>  <r_epik_State_Penalty>  (269) 
0.000205049

>  <r_epik_Charging_Adjusted_Penalty>  (269) 
0.000205049

>  <i_epik_Tot_Q>  (269) 
0

>  <i_epik_Tot_abs_Q>  (269) 
0

>  <s_lp_Force_Field>  (269) 
OPLS3e

>  <r_lp_Energy>  (269) 
54.2884

>  <b_lp_Chiralities_Consistent>  (269) 
1

>  <s_lp_Variant>  (269) 
64:0-1

>  <s_i_glide_gridfile>  (269) 
pfpi4k_grid

>  <i_i_glide_lignum>  (269) 
30

>  <i_i_glide_rotatable_bonds>  (269) 
1

>  <r_i_docking_score>  (269) 
-3.64015

>  <r_i_glide_ligand_efficiency>  (269) 
-0.202231

>  <r_i_glide_ligand_efficiency_sa>  (269) 
-0.529995

>  <r_i_glide_ligand_efficiency_ln>  (269) 
-0.935683

>  <r_i_glide_gscore>  (269) 
-3.64015

>  <r_i_glide_lipo>  (269) 
-0.656716

>  <r_i_glide_hbond>  (269) 
0

>  <r_i_glide_metal>  (269) 
-0

>  <r_i_glide_rewards>  (269) 
-1.74321

>  <r_i_glide_evdw>  (269) 
-21.8548

>  <r_i_glide_ecoul>  (269) 
-0.983241

>  <r_i_glide_erotb>  (269) 
0

>  <r_i_glide_esite>  (269) 
0

>  <r_i_glide_emodel>  (269) 
-27.993

>  <r_i_glide_energy>  (269) 
-22.838

>  <r_i_glide_einternal>  (269) 
0.000173613

>  <r_i_glide_intrahb_reward>  (269) 
-0

>  <i_i_glide_confnum>  (269) 
1

>  <i_i_glide_posenum>  (269) 
1

>  <r_i_glide_eff_state_penalty>  (269) 
0

>  <ligand_id>  (269) 
64

>  <original_smiles>  (269) 
CC1(C)C2COC3c4ccc(O)cc4CCC3C21

>  <smiles>  (269) 
[H]Oc1c([H])c([H])c2c(c1[H])C([H])([H])C([H])([H])C1([H])C2([H])OC([H])([H])C2([H])C1([H])C2(C([H])([H])[H])C([H])([H])[H]

$$$$
64:0:2
     RDKit          3D

 38 41  0  0  1  0  0  0  0  0999 V2000
    3.8086   -0.4853   -3.1860 C   0  0  0  0  0  0  0  0  0  0  0  0
    3.6759   -1.8579   -2.5606 C   0  0  0  0  0  0  0  0  0  0  0  0
    2.6352   -2.6999   -3.2732 C   0  0  0  0  0  0  0  0  0  0  0  0
    4.8771   -2.5749   -2.0124 C   0  0  2  0  0  0  0  0  0  0  0  0
    5.1785   -3.8802   -1.3336 C   0  0  0  0  0  0  0  0  0  0  0  0
    5.9573   -3.5236   -0.1799 O   0  0  0  0  0  0  0  0  0  0  0  0
    5.4298   -2.5262    0.7306 C   0  0  2  0  0  0  0  0  0  0  0  0
    4.5995   -3.1458    1.8622 C   0  0  0  0  0  0  0  0  0  0  0  0
    5.0412   -4.3505    2.4455 C   0  0  0  0  0  0  0  0  0  0  0  0
    4.3262   -4.9352    3.5128 C   0  0  0  0  0  0  0  0  0  0  0  0
    3.1655   -4.3113    4.0085 C   0  0  0  0  0  0  0  0  0  0  0  0
    2.4663   -4.8688    5.0381 O   0  0  0  0  0  0  0  0  0  0  0  0
    2.7206   -3.1002    3.4418 C   0  0  0  0  0  0  0  0  0  0  0  0
    3.4307   -2.5135    2.3715 C   0  0  0  0  0  0  0  0  0  0  0  0
    2.8995   -1.2195    1.7792 C   0  0  0  0  0  0  0  0  0  0  0  0
    3.9532   -0.4458    0.9887 C   0  0  0  0  0  0  0  0  0  0  0  0
    4.7253   -1.3345    0.0052 C   0  0  2  0  0  0  0  0  0  0  0  0
    3.8546   -1.9532   -1.0698 C   0  0  1  0  0  0  0  0  0  0  0  0
    4.1110   -0.5601   -4.2288 H   0  0  0  0  0  0  0  0  0  0  0  0
    4.5499    0.0999   -2.6413 H   0  0  0  0  0  0  0  0  0  0  0  0
    2.8578    0.0434   -3.1280 H   0  0  0  0  0  0  0  0  0  0  0  0
    2.5687   -3.6839   -2.8132 H   0  0  0  0  0  0  0  0  0  0  0  0
    2.8945   -2.8200   -4.3230 H   0  0  0  0  0  0  0  0  0  0  0  0
    1.6441   -2.2574   -3.1990 H   0  0  0  0  0  0  0  0  0  0  0  0
    5.8004   -2.0467   -2.2508 H   0  0  0  0  0  0  0  0  0  0  0  0
    4.2819   -4.4452   -1.0748 H   0  0  0  0  0  0  0  0  0  0  0  0
    5.7794   -4.4871   -2.0038 H   0  0  0  0  0  0  0  0  0  0  0  0
    6.3011   -2.1214    1.2453 H   0  0  0  0  0  0  0  0  0  0  0  0
    5.9345   -4.8325    2.0711 H   0  0  0  0  0  0  0  0  0  0  0  0
    4.6706   -5.8670    3.9374 H   0  0  0  0  0  0  0  0  0  0  0  0
    2.8553   -5.6730    5.3484 H   0  0  0  0  0  0  0  0  0  0  0  0
    1.8272   -2.6235    3.8226 H   0  0  0  0  0  0  0  0  0  0  0  0
    2.0639   -1.4750    1.1284 H   0  0  0  0  0  0  0  0  0  0  0  0
    2.4894   -0.5855    2.5667 H   0  0  0  0  0  0  0  0  0  0  0  0
    3.4999    0.4069    0.4878 H   0  0  0  0  0  0  0  0  0  0  0  0
    4.6659   -0.0196    1.6904 H   0  0  0  0  0  0  0  0  0  0  0  0
    5.4868   -0.7147   -0.4738 H   0  0  0  0  0  0  0  0  0  0  0  0
    3.0848   -2.5881   -0.6275 H   0  0  0  0  0  0  0  0  0  0  0  0
  1  2  1  0
  1 19  1  0
  1 20  1  0
  1 21  1  0
  2 18  1  0
  2  3  1  0
  2  4  1  0
  3 22  1  0
  3 23  1  0
  3 24  1  0
  4 18  1  0
  4  5  1  0
  4 25  1  6
  5  6  1  0
  5 26  1  0
  5 27  1  0
  6  7  1  0
  7 17  1  0
  7  8  1  0
  7 28  1  1
  8 14  2  0
  8  9  1  0
  9 10  2  0
  9 29  1  0
 10 11  1  0
 10 30  1  0
 11 12  1  0
 11 13  2  0
 12 31  1  0
 13 14  1  0
 13 32  1  0
 14 15  1  0
 15 16  1  0
 15 33  1  0
 15 34  1  0
 16 17  1  0
 16 35  1  0
 16 36  1  0
 17 18  1  0
 17 37  1  6
 18 38  1  1
M  END
>  <i_m_ct_stereo_status>  (270) 
1

>  <s_m_source_file>  (270) 
/var/tmp/pbs.5076255.sched01/tmp2a9bgmzv/100_xx7n39i.sdf

>  <i_m_source_file_index>  (270) 
30

>  <i_lp_mmshare_version>  (270) 
48012

>  <i_f3d_flags>  (270) 
0

>  <s_epik_input>  (270) 
W0NIM11DMShbQ0gzXSlbQ0BASF0oW0NASF0xMilbQ0BASF0zW0NASF0oT1tDSDJdMiljNGMoW0NIMl1bQ0gyXTMpW2NIXWMoW09IXSlbY0hdW2NIXTQ=

>  <s_epik_cmdline>  (270) 
J2VwaWtfcHl0aG9uJywgJy1waHQnLCAnMi4wJywgJy1waCcsICc3LjAnLCAnLXRuJywgJzgnLCAnLW1hJywgJzIwMCcsICctaW1hZScsICc8aW5maWxlLm1hZT4nLCAnLW9tYWUnLCAnPG91dGZpbGUubWFlPic=

>  <r_lp_tautomer_probability>  (270) 
1

>  <r_epik_Ionization_Penalty>  (270) 
0.000338347

>  <r_epik_Ionization_Penalty_Charging>  (270) 
0

>  <r_epik_Ionization_Penalty_Neutral>  (270) 
0.000338347

>  <r_epik_State_Penalty>  (270) 
0.000205049

>  <r_epik_Charging_Adjusted_Penalty>  (270) 
0.000205049

>  <i_epik_Tot_Q>  (270) 
0

>  <i_epik_Tot_abs_Q>  (270) 
0

>  <s_lp_Force_Field>  (270) 
OPLS3e

>  <r_lp_Energy>  (270) 
54.2884

>  <b_lp_Chiralities_Consistent>  (270) 
1

>  <s_lp_Variant>  (270) 
64:0-1

>  <s_i_glide_gridfile>  (270) 
pfpi4k_grid

>  <i_i_glide_lignum>  (270) 
30

>  <i_i_glide_rotatable_bonds>  (270) 
1

>  <r_i_docking_score>  (270) 
-3.49811

>  <r_i_glide_ligand_efficiency>  (270) 
-0.194339

>  <r_i_glide_ligand_efficiency_sa>  (270) 
-0.509313

>  <r_i_glide_ligand_efficiency_ln>  (270) 
-0.89917

>  <r_i_glide_gscore>  (270) 
-3.49811

>  <r_i_glide_lipo>  (270) 
-0.511127

>  <r_i_glide_hbond>  (270) 
0

>  <r_i_glide_metal>  (270) 
-0

>  <r_i_glide_rewards>  (270) 
-1.74321

>  <r_i_glide_evdw>  (270) 
-21.9792

>  <r_i_glide_ecoul>  (270) 
-0.965385

>  <r_i_glide_erotb>  (270) 
0

>  <r_i_glide_esite>  (270) 
0

>  <r_i_glide_emodel>  (270) 
-27.8998

>  <r_i_glide_energy>  (270) 
-22.9446

>  <r_i_glide_einternal>  (270) 
2.8942e-05

>  <r_i_glide_intrahb_reward>  (270) 
-0

>  <i_i_glide_confnum>  (270) 
2

>  <i_i_glide_posenum>  (270) 
11

>  <r_i_glide_eff_state_penalty>  (270) 
0

>  <ligand_id>  (270) 
64

>  <original_smiles>  (270) 
CC1(C)C2COC3c4ccc(O)cc4CCC3C21

>  <smiles>  (270) 
[H]Oc1c([H])c([H])c2c(c1[H])C([H])([H])C([H])([H])C1([H])C2([H])OC([H])([H])C2([H])C1([H])C2(C([H])([H])[H])C([H])([H])[H]

$$$$
65:0:0
     RDKit          3D

 79 83  0  0  1  0  0  0  0  0999 V2000
    1.1050   -9.4410    3.2337 C   0  0  0  0  0  0  0  0  0  0  0  0
    1.0088   -8.2209    3.9677 O   0  0  0  0  0  0  0  0  0  0  0  0
    1.8703   -7.8311    5.0679 C   0  0  2  0  0  0  0  0  0  0  0  0
    3.3733   -7.9467    4.7231 C   0  0  1  0  0  0  0  0  0  0  0  0
    3.8185   -9.3872    5.0197 C   0  0  0  0  0  0  0  0  0  0  0  0
    2.6796  -10.0205    5.8343 C   0  0  0  0  0  0  0  0  0  0  0  0
    1.7299   -8.8711    6.2661 C   0  0  0  0  0  0  0  0  0  0  0  0
    2.2626   -8.4204    7.6490 C   0  0  0  0  0  0  0  0  0  0  0  0
    0.2993   -9.4002    6.5210 C   0  0  0  0  0  0  0  0  0  0  0  0
    3.8019   -7.3396    3.3725 C   0  0  0  0  0  0  0  0  0  0  0  0
    2.8512   -6.2200    2.8688 C   0  0  1  0  0  0  0  0  0  0  0  0
    2.2576   -5.4159    4.0708 C   0  0  1  0  0  0  0  0  0  0  0  0
    1.4338   -4.2281    3.5202 C   0  0  0  0  0  0  0  0  0  0  0  0
    2.2802   -3.2267    2.7248 C   0  0  0  0  0  0  0  0  0  0  0  0
    3.5425   -3.8317    2.0644 C   0  0  1  0  0  0  0  0  0  0  0  0
    3.3657   -5.3369    1.6401 C   0  0  2  0  0  0  0  0  0  0  0  0
    2.3250   -5.5383    0.5128 C   0  0  0  0  0  0  0  0  0  0  0  0
    4.7284   -5.8100    1.0793 C   0  0  0  0  0  0  0  0  0  0  0  0
    5.2814   -4.9108   -0.0368 C   0  0  0  0  0  0  0  0  0  0  0  0
    5.5407   -3.4444    0.3960 C   0  0  1  0  0  0  0  0  0  0  0  0
    6.7698   -3.4165    1.3236 C   0  0  0  0  0  0  0  0  0  0  0  0
    5.7998   -2.5235   -0.8301 C   0  0  1  0  0  0  0  0  0  0  0  0
    6.6772   -3.0855   -1.9647 C   0  0  0  0  0  0  0  0  0  0  0  0
    4.4029   -2.1319   -1.2744 C   0  0  0  0  0  0  0  0  0  0  0  0
    4.1307   -1.6650   -2.3783 O   0  0  0  0  0  0  0  0  0  0  0  0
    3.3904   -2.3930   -0.1676 C   0  0  0  0  0  0  0  0  0  0  0  0
    4.2474   -2.8370    1.0549 C   0  0  1  0  0  0  0  0  0  0  0  0
    4.5936   -1.5288    1.8300 C   0  0  0  0  0  0  0  0  0  0  0  0
    1.5141   -6.2717    5.2019 C   0  0  0  0  0  0  0  0  0  0  0  0
   -0.0310   -6.0892    5.1576 C   0  0  0  0  0  0  0  0  0  0  0  0
    1.9463   -5.6072    6.5349 C   0  0  0  0  0  0  0  0  0  0  0  0
    0.5227   -9.3309    2.3179 H   0  0  0  0  0  0  0  0  0  0  0  0
    0.6675  -10.2903    3.7555 H   0  0  0  0  0  0  0  0  0  0  0  0
    2.1183   -9.6875    2.9308 H   0  0  0  0  0  0  0  0  0  0  0  0
    3.8941   -7.3493    5.4705 H   0  0  0  0  0  0  0  0  0  0  0  0
    4.0132   -9.9636    4.1152 H   0  0  0  0  0  0  0  0  0  0  0  0
    4.7424   -9.3812    5.5994 H   0  0  0  0  0  0  0  0  0  0  0  0
    2.1611  -10.7636    5.2297 H   0  0  0  0  0  0  0  0  0  0  0  0
    3.0713  -10.5973    6.6734 H   0  0  0  0  0  0  0  0  0  0  0  0
    2.3846   -9.2775    8.3127 H   0  0  0  0  0  0  0  0  0  0  0  0
    1.5649   -7.7737    8.1709 H   0  0  0  0  0  0  0  0  0  0  0  0
    3.2347   -7.9343    7.5949 H   0  0  0  0  0  0  0  0  0  0  0  0
    0.3158  -10.2450    7.2115 H   0  0  0  0  0  0  0  0  0  0  0  0
   -0.2034   -9.7503    5.6237 H   0  0  0  0  0  0  0  0  0  0  0  0
   -0.3352   -8.6430    6.9729 H   0  0  0  0  0  0  0  0  0  0  0  0
    4.8086   -6.9559    3.5176 H   0  0  0  0  0  0  0  0  0  0  0  0
    3.8754   -8.1231    2.6203 H   0  0  0  0  0  0  0  0  0  0  0  0
    1.9910   -6.7600    2.4833 H   0  0  0  0  0  0  0  0  0  0  0  0
    3.1392   -4.9763    4.5514 H   0  0  0  0  0  0  0  0  0  0  0  0
    0.6340   -4.6130    2.8896 H   0  0  0  0  0  0  0  0  0  0  0  0
    0.9479   -3.6741    4.3221 H   0  0  0  0  0  0  0  0  0  0  0  0
    1.6585   -2.7204    1.9866 H   0  0  0  0  0  0  0  0  0  0  0  0
    2.6066   -2.4507    3.4196 H   0  0  0  0  0  0  0  0  0  0  0  0
    4.2533   -3.8967    2.8843 H   0  0  0  0  0  0  0  0  0  0  0  0
    2.5983   -5.1353   -0.4533 H   0  0  0  0  0  0  0  0  0  0  0  0
    1.3873   -5.0903    0.7897 H   0  0  0  0  0  0  0  0  0  0  0  0
    2.1419   -6.5984    0.3416 H   0  0  0  0  0  0  0  0  0  0  0  0
    5.4793   -5.8301    1.8634 H   0  0  0  0  0  0  0  0  0  0  0  0
    4.6480   -6.8288    0.6989 H   0  0  0  0  0  0  0  0  0  0  0  0
    6.2205   -5.3551   -0.3450 H   0  0  0  0  0  0  0  0  0  0  0  0
    4.6489   -4.9496   -0.9208 H   0  0  0  0  0  0  0  0  0  0  0  0
    7.0874   -2.3926    1.5131 H   0  0  0  0  0  0  0  0  0  0  0  0
    7.6208   -3.9395    0.8852 H   0  0  0  0  0  0  0  0  0  0  0  0
    6.5563   -3.8827    2.2859 H   0  0  0  0  0  0  0  0  0  0  0  0
    6.2734   -1.6049   -0.4841 H   0  0  0  0  0  0  0  0  0  0  0  0
    6.8897   -2.3176   -2.7006 H   0  0  0  0  0  0  0  0  0  0  0  0
    6.1822   -3.8935   -2.4969 H   0  0  0  0  0  0  0  0  0  0  0  0
    7.6365   -3.4498   -1.5997 H   0  0  0  0  0  0  0  0  0  0  0  0
    2.8110   -1.4945    0.0371 H   0  0  0  0  0  0  0  0  0  0  0  0
    2.6902   -3.1422   -0.5137 H   0  0  0  0  0  0  0  0  0  0  0  0
    5.2107   -0.8449    1.2489 H   0  0  0  0  0  0  0  0  0  0  0  0
    5.1247   -1.7327    2.7593 H   0  0  0  0  0  0  0  0  0  0  0  0
    3.6950   -0.9681    2.0890 H   0  0  0  0  0  0  0  0  0  0  0  0
   -0.3346   -5.0821    5.4370 H   0  0  0  0  0  0  0  0  0  0  0  0
   -0.5248   -6.7491    5.8644 H   0  0  0  0  0  0  0  0  0  0  0  0
   -0.4502   -6.2956    4.1748 H   0  0  0  0  0  0  0  0  0  0  0  0
    1.8666   -4.5215    6.4703 H   0  0  0  0  0  0  0  0  0  0  0  0
    2.9817   -5.8190    6.7992 H   0  0  0  0  0  0  0  0  0  0  0  0
    1.3029   -5.8820    7.3655 H   0  0  0  0  0  0  0  0  0  0  0  0
  1  2  1  0
  1 32  1  0
  1 33  1  0
  1 34  1  0
  3  2  1  6
  3  7  1  0
  3 29  1  0
  3  4  1  0
  4  5  1  0
  4 10  1  0
  4 35  1  1
  5  6  1  0
  5 36  1  0
  5 37  1  0
  6  7  1  0
  6 38  1  0
  6 39  1  0
  7  8  1  0
  7  9  1  0
  8 40  1  0
  8 41  1  0
  8 42  1  0
  9 43  1  0
  9 44  1  0
  9 45  1  0
 10 11  1  0
 10 46  1  0
 10 47  1  0
 11 16  1  0
 11 12  1  0
 11 48  1  6
 12 13  1  0
 12 29  1  0
 12 49  1  1
 13 14  1  0
 13 50  1  0
 13 51  1  0
 14 15  1  0
 14 52  1  0
 14 53  1  0
 15 27  1  0
 15 16  1  0
 15 54  1  1
 16 17  1  6
 16 18  1  0
 17 55  1  0
 17 56  1  0
 17 57  1  0
 18 19  1  0
 18 58  1  0
 18 59  1  0
 19 20  1  0
 19 60  1  0
 19 61  1  0
 20 27  1  0
 20 21  1  1
 20 22  1  0
 21 62  1  0
 21 63  1  0
 21 64  1  0
 22 23  1  0
 22 24  1  0
 22 65  1  1
 23 66  1  0
 23 67  1  0
 23 68  1  0
 24 25  2  0
 24 26  1  0
 26 27  1  0
 26 69  1  0
 26 70  1  0
 27 28  1  1
 28 71  1  0
 28 72  1  0
 28 73  1  0
 29 30  1  0
 29 31  1  0
 30 74  1  0
 30 75  1  0
 30 76  1  0
 31 77  1  0
 31 78  1  0
 31 79  1  0
M  END
>  <i_m_ct_stereo_status>  (271) 
1

>  <s_m_source_file>  (271) 
/var/tmp/pbs.5076255.sched01/tmp2a9bgmzv/100_xx7n39i.sdf

>  <i_m_source_file_index>  (271) 
31

>  <i_lp_mmshare_version>  (271) 
48012

>  <i_f3d_flags>  (271) 
0

>  <s_epik_input>  (271) 
W0NIM11DMShbQ0gzXSlbQ0gyXVtDSDJdW0NASF0oW0NAQF0xMk9bQ0gzXSlbQ0gyXVtDQEhdM1tDQEhdKEMyKFtDSDNdKVtDSDNdKVtDSDJdW0NIMl1bQ0BIXTRbQ0BAXTMoW0NIM10pW0NIMl1bQ0gyXVtDQF01KFtDSDNdKVtDQEBdNChbQ0gzXSlbQ0gyXUMoPU8pW0NAQEhdNVtDSDNd

>  <s_epik_cmdline>  (271) 
J2VwaWtfcHl0aG9uJywgJy1waHQnLCAnMi4wJywgJy1waCcsICc3LjAnLCAnLXRuJywgJzgnLCAnLW1hJywgJzIwMCcsICctaW1hZScsICc8aW5maWxlLm1hZT4nLCAnLW9tYWUnLCAnPG91dGZpbGUubWFlPic=

>  <r_lp_tautomer_probability>  (271) 
1

>  <r_epik_Ionization_Penalty>  (271) 
1.17103e-10

>  <r_epik_Ionization_Penalty_Charging>  (271) 
0

>  <r_epik_Ionization_Penalty_Neutral>  (271) 
1.17103e-10

>  <r_epik_State_Penalty>  (271) 
-0

>  <r_epik_Charging_Adjusted_Penalty>  (271) 
0

>  <i_epik_Tot_Q>  (271) 
0

>  <i_epik_Tot_abs_Q>  (271) 
0

>  <s_lp_Force_Field>  (271) 
OPLS3e

>  <r_lp_Energy>  (271) 
101.251

>  <b_lp_Chiralities_Consistent>  (271) 
1

>  <s_lp_Variant>  (271) 
65:0-1

>  <s_i_glide_gridfile>  (271) 
pfpi4k_grid

>  <i_i_glide_lignum>  (271) 
31

>  <i_i_glide_rotatable_bonds>  (271) 
1

>  <r_i_docking_score>  (271) 
-2.01436

>  <r_i_glide_ligand_efficiency>  (271) 
-0.0649795

>  <r_i_glide_ligand_efficiency_sa>  (271) 
-0.204125

>  <r_i_glide_ligand_efficiency_ln>  (271) 
-0.454301

>  <r_i_glide_gscore>  (271) 
-2.01436

>  <r_i_glide_lipo>  (271) 
-0.296472

>  <r_i_glide_hbond>  (271) 
0

>  <r_i_glide_metal>  (271) 
-0

>  <r_i_glide_rewards>  (271) 
-0.486203

>  <r_i_glide_evdw>  (271) 
-21.6944

>  <r_i_glide_ecoul>  (271) 
-0.797579

>  <r_i_glide_erotb>  (271) 
0

>  <r_i_glide_esite>  (271) 
-0.0273344

>  <r_i_glide_emodel>  (271) 
-24.8814

>  <r_i_glide_energy>  (271) 
-22.4919

>  <r_i_glide_einternal>  (271) 
0.0203234

>  <r_i_glide_intrahb_reward>  (271) 
-0

>  <i_i_glide_confnum>  (271) 
1

>  <i_i_glide_posenum>  (271) 
1

>  <r_i_glide_eff_state_penalty>  (271) 
0

>  <ligand_id>  (271) 
65

>  <original_smiles>  (271) 
COC12C(CCC1(C)C)CC1C(CCC3C1(C)CCC1(C)C(C)C(=O)CC31C)C2(C)C

>  <smiles>  (271) 
[H]C([H])([H])OC12C([H])(C([H])([H])C([H])([H])C1(C([H])([H])[H])C([H])([H])[H])C([H])([H])C1([H])C([H])(C([H])([H])C([H])([H])C3([H])C1(C([H])([H])[H])C([H])([H])C([H])([H])C1(C([H])([H])[H])C([H])(C([H])([H])[H])C(=O)C([H])([H])C31C([H])([H])[H])C2(C([H])([H])[H])C([H])([H])[H]

$$$$
65:0:1
     RDKit          3D

 79 83  0  0  1  0  0  0  0  0999 V2000
   -0.4653   -7.3327    4.5918 C   0  0  0  0  0  0  0  0  0  0  0  0
    0.9143   -7.4801    4.9158 O   0  0  0  0  0  0  0  0  0  0  0  0
    1.8035   -8.4923    4.3763 C   0  0  2  0  0  0  0  0  0  0  0  0
    1.7639   -8.5682    2.8356 C   0  0  1  0  0  0  0  0  0  0  0  0
    0.6195   -9.5067    2.4356 C   0  0  0  0  0  0  0  0  0  0  0  0
    0.2097  -10.2255    3.7189 C   0  0  0  0  0  0  0  0  0  0  0  0
    1.2911   -9.9384    4.7861 C   0  0  0  0  0  0  0  0  0  0  0  0
    2.2901  -11.1150    4.6384 C   0  0  0  0  0  0  0  0  0  0  0  0
    0.7023  -10.0458    6.2078 C   0  0  0  0  0  0  0  0  0  0  0  0
    1.8534   -7.2182    2.0979 C   0  0  0  0  0  0  0  0  0  0  0  0
    2.5613   -6.1130    2.9316 C   0  0  1  0  0  0  0  0  0  0  0  0
    3.6837   -6.7320    3.8233 C   0  0  1  0  0  0  0  0  0  0  0  0
    4.4608   -5.5896    4.5200 C   0  0  0  0  0  0  0  0  0  0  0  0
    5.1783   -4.6627    3.5323 C   0  0  0  0  0  0  0  0  0  0  0  0
    4.5315   -4.6044    2.1258 C   0  0  1  0  0  0  0  0  0  0  0  0
    2.9635   -4.7822    2.1546 C   0  0  2  0  0  0  0  0  0  0  0  0
    2.2284   -3.6204    2.8833 C   0  0  0  0  0  0  0  0  0  0  0  0
    2.5065   -4.7802    0.6716 C   0  0  0  0  0  0  0  0  0  0  0  0
    2.9525   -3.5397   -0.1301 C   0  0  0  0  0  0  0  0  0  0  0  0
    4.4986   -3.3959   -0.2175 C   0  0  1  0  0  0  0  0  0  0  0  0
    5.0584   -4.4642   -1.1790 C   0  0  0  0  0  0  0  0  0  0  0  0
    4.9076   -1.9860   -0.7359 C   0  0  1  0  0  0  0  0  0  0  0  0
    4.0860   -1.3943   -1.8957 C   0  0  0  0  0  0  0  0  0  0  0  0
    4.9118   -1.1375    0.5334 C   0  0  0  0  0  0  0  0  0  0  0  0
    4.8385    0.0895    0.5890 O   0  0  0  0  0  0  0  0  0  0  0  0
    4.9818   -2.0273    1.7610 C   0  0  0  0  0  0  0  0  0  0  0  0
    5.1429   -3.4667    1.2120 C   0  0  1  0  0  0  0  0  0  0  0  0
    6.6761   -3.7175    1.1018 C   0  0  0  0  0  0  0  0  0  0  0  0
    3.2340   -7.9169    4.8032 C   0  0  0  0  0  0  0  0  0  0  0  0
    3.1856   -7.4690    6.2914 C   0  0  0  0  0  0  0  0  0  0  0  0
    4.4020   -8.9362    4.7401 C   0  0  0  0  0  0  0  0  0  0  0  0
   -0.7869   -6.3499    4.9395 H   0  0  0  0  0  0  0  0  0  0  0  0
   -1.1060   -8.0473    5.1034 H   0  0  0  0  0  0  0  0  0  0  0  0
   -0.6625   -7.3705    3.5262 H   0  0  0  0  0  0  0  0  0  0  0  0
    2.6603   -9.1111    2.5371 H   0  0  0  0  0  0  0  0  0  0  0  0
   -0.2368   -8.9753    2.0220 H   0  0  0  0  0  0  0  0  0  0  0  0
    0.9609  -10.2145    1.6776 H   0  0  0  0  0  0  0  0  0  0  0  0
   -0.7605   -9.8514    4.0329 H   0  0  0  0  0  0  0  0  0  0  0  0
    0.0613  -11.2890    3.5476 H   0  0  0  0  0  0  0  0  0  0  0  0
    1.7665  -12.0726    4.6654 H   0  0  0  0  0  0  0  0  0  0  0  0
    2.9872  -11.1758    5.4670 H   0  0  0  0  0  0  0  0  0  0  0  0
    2.8381  -11.0967    3.6961 H   0  0  0  0  0  0  0  0  0  0  0  0
    0.1800  -10.9954    6.3065 H   0  0  0  0  0  0  0  0  0  0  0  0
   -0.0183   -9.2731    6.4637 H   0  0  0  0  0  0  0  0  0  0  0  0
    1.4857  -10.0280    6.9630 H   0  0  0  0  0  0  0  0  0  0  0  0
    2.3938   -7.4127    1.1756 H   0  0  0  0  0  0  0  0  0  0  0  0
    0.8525   -6.8930    1.8081 H   0  0  0  0  0  0  0  0  0  0  0  0
    1.8139   -5.7867    3.6475 H   0  0  0  0  0  0  0  0  0  0  0  0
    4.3781   -7.1784    3.1061 H   0  0  0  0  0  0  0  0  0  0  0  0
    3.7659   -5.0041    5.1194 H   0  0  0  0  0  0  0  0  0  0  0  0
    5.2130   -5.9782    5.2111 H   0  0  0  0  0  0  0  0  0  0  0  0
    5.2711   -3.6622    3.9608 H   0  0  0  0  0  0  0  0  0  0  0  0
    6.1916   -5.0426    3.4175 H   0  0  0  0  0  0  0  0  0  0  0  0
    4.8781   -5.5266    1.6459 H   0  0  0  0  0  0  0  0  0  0  0  0
    2.2625   -2.6619    2.3805 H   0  0  0  0  0  0  0  0  0  0  0  0
    2.5972   -3.4691    3.8942 H   0  0  0  0  0  0  0  0  0  0  0  0
    1.1658   -3.8380    2.9668 H   0  0  0  0  0  0  0  0  0  0  0  0
    2.9094   -5.6383    0.1451 H   0  0  0  0  0  0  0  0  0  0  0  0
    1.4216   -4.8889    0.6081 H   0  0  0  0  0  0  0  0  0  0  0  0
    2.5468   -3.6141   -1.1418 H   0  0  0  0  0  0  0  0  0  0  0  0
    2.5184   -2.6291    0.2805 H   0  0  0  0  0  0  0  0  0  0  0  0
    6.0984   -4.2343   -1.4144 H   0  0  0  0  0  0  0  0  0  0  0  0
    4.5263   -4.4726   -2.1318 H   0  0  0  0  0  0  0  0  0  0  0  0
    5.0047   -5.4736   -0.7558 H   0  0  0  0  0  0  0  0  0  0  0  0
    5.9347   -2.0308   -1.0846 H   0  0  0  0  0  0  0  0  0  0  0  0
    4.5376   -0.4760   -2.2637 H   0  0  0  0  0  0  0  0  0  0  0  0
    3.0678   -1.1499   -1.5962 H   0  0  0  0  0  0  0  0  0  0  0  0
    4.0232   -2.0725   -2.7458 H   0  0  0  0  0  0  0  0  0  0  0  0
    5.8130   -1.7190    2.3936 H   0  0  0  0  0  0  0  0  0  0  0  0
    4.0793   -1.8659    2.3364 H   0  0  0  0  0  0  0  0  0  0  0  0
    7.1639   -3.0471    0.3909 H   0  0  0  0  0  0  0  0  0  0  0  0
    6.9157   -4.7460    0.8094 H   0  0  0  0  0  0  0  0  0  0  0  0
    7.1493   -3.5374    2.0667 H   0  0  0  0  0  0  0  0  0  0  0  0
    4.1784   -7.2518    6.6876 H   0  0  0  0  0  0  0  0  0  0  0  0
    2.7869   -8.2613    6.9220 H   0  0  0  0  0  0  0  0  0  0  0  0
    2.5697   -6.5818    6.4451 H   0  0  0  0  0  0  0  0  0  0  0  0
    5.3633   -8.4268    4.8342 H   0  0  0  0  0  0  0  0  0  0  0  0
    4.4352   -9.4854    3.7998 H   0  0  0  0  0  0  0  0  0  0  0  0
    4.3764   -9.6422    5.5671 H   0  0  0  0  0  0  0  0  0  0  0  0
  1  2  1  0
  1 32  1  0
  1 33  1  0
  1 34  1  0
  3  2  1  1
  3  7  1  0
  3 29  1  0
  3  4  1  0
  4  5  1  0
  4 10  1  0
  4 35  1  6
  5  6  1  0
  5 36  1  0
  5 37  1  0
  6  7  1  0
  6 38  1  0
  6 39  1  0
  7  8  1  0
  7  9  1  0
  8 40  1  0
  8 41  1  0
  8 42  1  0
  9 43  1  0
  9 44  1  0
  9 45  1  0
 10 11  1  0
 10 46  1  0
 10 47  1  0
 11 16  1  0
 11 12  1  0
 11 48  1  1
 12 13  1  0
 12 29  1  0
 12 49  1  6
 13 14  1  0
 13 50  1  0
 13 51  1  0
 14 15  1  0
 14 52  1  0
 14 53  1  0
 15 27  1  0
 15 16  1  0
 15 54  1  6
 16 17  1  1
 16 18  1  0
 17 55  1  0
 17 56  1  0
 17 57  1  0
 18 19  1  0
 18 58  1  0
 18 59  1  0
 19 20  1  0
 19 60  1  0
 19 61  1  0
 20 27  1  0
 20 21  1  6
 20 22  1  0
 21 62  1  0
 21 63  1  0
 21 64  1  0
 22 23  1  0
 22 24  1  0
 22 65  1  6
 23 66  1  0
 23 67  1  0
 23 68  1  0
 24 25  2  0
 24 26  1  0
 26 27  1  0
 26 69  1  0
 26 70  1  0
 27 28  1  6
 28 71  1  0
 28 72  1  0
 28 73  1  0
 29 30  1  0
 29 31  1  0
 30 74  1  0
 30 75  1  0
 30 76  1  0
 31 77  1  0
 31 78  1  0
 31 79  1  0
M  END
>  <i_m_ct_stereo_status>  (272) 
1

>  <s_m_source_file>  (272) 
/var/tmp/pbs.5076255.sched01/tmp2a9bgmzv/100_xx7n39i.sdf

>  <i_m_source_file_index>  (272) 
31

>  <i_lp_mmshare_version>  (272) 
48012

>  <i_f3d_flags>  (272) 
0

>  <s_epik_input>  (272) 
W0NIM11DMShbQ0gzXSlbQ0gyXVtDSDJdW0NASF0oW0NAQF0xMk9bQ0gzXSlbQ0gyXVtDQEhdM1tDQEhdKEMyKFtDSDNdKVtDSDNdKVtDSDJdW0NIMl1bQ0BIXTRbQ0BAXTMoW0NIM10pW0NIMl1bQ0gyXVtDQF01KFtDSDNdKVtDQEBdNChbQ0gzXSlbQ0gyXUMoPU8pW0NAQEhdNVtDSDNd

>  <s_epik_cmdline>  (272) 
J2VwaWtfcHl0aG9uJywgJy1waHQnLCAnMi4wJywgJy1waCcsICc3LjAnLCAnLXRuJywgJzgnLCAnLW1hJywgJzIwMCcsICctaW1hZScsICc8aW5maWxlLm1hZT4nLCAnLW9tYWUnLCAnPG91dGZpbGUubWFlPic=

>  <r_lp_tautomer_probability>  (272) 
1

>  <r_epik_Ionization_Penalty>  (272) 
1.17103e-10

>  <r_epik_Ionization_Penalty_Charging>  (272) 
0

>  <r_epik_Ionization_Penalty_Neutral>  (272) 
1.17103e-10

>  <r_epik_State_Penalty>  (272) 
-0

>  <r_epik_Charging_Adjusted_Penalty>  (272) 
0

>  <i_epik_Tot_Q>  (272) 
0

>  <i_epik_Tot_abs_Q>  (272) 
0

>  <s_lp_Force_Field>  (272) 
OPLS3e

>  <r_lp_Energy>  (272) 
101.251

>  <b_lp_Chiralities_Consistent>  (272) 
1

>  <s_lp_Variant>  (272) 
65:0-1

>  <s_i_glide_gridfile>  (272) 
pfpi4k_grid

>  <i_i_glide_lignum>  (272) 
31

>  <i_i_glide_rotatable_bonds>  (272) 
1

>  <r_i_docking_score>  (272) 
-1.8521

>  <r_i_glide_ligand_efficiency>  (272) 
-0.0597453

>  <r_i_glide_ligand_efficiency_sa>  (272) 
-0.187683

>  <r_i_glide_ligand_efficiency_ln>  (272) 
-0.417706

>  <r_i_glide_gscore>  (272) 
-1.8521

>  <r_i_glide_lipo>  (272) 
-0.253041

>  <r_i_glide_hbond>  (272) 
-0.0187375

>  <r_i_glide_metal>  (272) 
-0

>  <r_i_glide_rewards>  (272) 
-0.581483

>  <r_i_glide_evdw>  (272) 
-20.8833

>  <r_i_glide_ecoul>  (272) 
0.302152

>  <r_i_glide_erotb>  (272) 
0

>  <r_i_glide_esite>  (272) 
0

>  <r_i_glide_emodel>  (272) 
-22.7586

>  <r_i_glide_energy>  (272) 
-20.5811

>  <r_i_glide_einternal>  (272) 
0.00803702

>  <r_i_glide_intrahb_reward>  (272) 
-0

>  <i_i_glide_confnum>  (272) 
2

>  <i_i_glide_posenum>  (272) 
15

>  <r_i_glide_eff_state_penalty>  (272) 
0

>  <ligand_id>  (272) 
65

>  <original_smiles>  (272) 
COC12C(CCC1(C)C)CC1C(CCC3C1(C)CCC1(C)C(C)C(=O)CC31C)C2(C)C

>  <smiles>  (272) 
[H]C([H])([H])OC12C([H])(C([H])([H])C([H])([H])C1(C([H])([H])[H])C([H])([H])[H])C([H])([H])C1([H])C([H])(C([H])([H])C([H])([H])C3([H])C1(C([H])([H])[H])C([H])([H])C([H])([H])C1(C([H])([H])[H])C([H])(C([H])([H])[H])C(=O)C([H])([H])C31C([H])([H])[H])C2(C([H])([H])[H])C([H])([H])[H]

$$$$
65:0:2
     RDKit          3D

 79 83  0  0  1  0  0  0  0  0999 V2000
    0.0622   -5.9905    5.5477 C   0  0  0  0  0  0  0  0  0  0  0  0
    1.2652   -6.7281    5.3465 O   0  0  0  0  0  0  0  0  0  0  0  0
    1.4255   -7.8813    4.4854 C   0  0  2  0  0  0  0  0  0  0  0  0
    0.9737   -7.6082    3.0346 C   0  0  1  0  0  0  0  0  0  0  0  0
   -0.5339   -7.8717    2.9498 C   0  0  0  0  0  0  0  0  0  0  0  0
   -0.8936   -8.6031    4.2384 C   0  0  0  0  0  0  0  0  0  0  0  0
    0.4243   -9.0490    4.9232 C   0  0  0  0  0  0  0  0  0  0  0  0
    0.7237  -10.4563    4.3598 C   0  0  0  0  0  0  0  0  0  0  0  0
    0.2644   -9.2547    6.4517 C   0  0  0  0  0  0  0  0  0  0  0  0
    1.4794   -6.2901    2.4122 C   0  0  0  0  0  0  0  0  0  0  0  0
    2.7987   -5.7711    3.0515 C   0  0  1  0  0  0  0  0  0  0  0  0
    3.6997   -6.9703    3.4906 C   0  0  1  0  0  0  0  0  0  0  0  0
    5.0588   -6.4301    3.9873 C   0  0  0  0  0  0  0  0  0  0  0  0
    5.8345   -5.6822    2.9013 C   0  0  0  0  0  0  0  0  0  0  0  0
    4.9509   -5.0819    1.7812 C   0  0  1  0  0  0  0  0  0  0  0  0
    3.5565   -4.5941    2.2981 C   0  0  2  0  0  0  0  0  0  0  0  0
    3.6326   -3.4182    3.3097 C   0  0  0  0  0  0  0  0  0  0  0  0
    2.7960   -4.0780    1.0517 C   0  0  0  0  0  0  0  0  0  0  0  0
    3.5368   -3.0017    0.2341 C   0  0  0  0  0  0  0  0  0  0  0  0
    4.8901   -3.4916   -0.3338 C   0  0  1  0  0  0  0  0  0  0  0  0
    4.6108   -4.4637   -1.4730 C   0  0  0  0  0  0  0  0  0  0  0  0
    5.7324   -2.3190   -0.8810 C   0  0  1  0  0  0  0  0  0  0  0  0
    5.0034   -1.2024   -1.6514 C   0  0  0  0  0  0  0  0  0  0  0  0
    6.4164   -1.8609    0.3796 C   0  0  0  0  0  0  0  0  0  0  0  0
    6.9581   -0.7671    0.4829 O   0  0  0  0  0  0  0  0  0  0  0  0
    6.3940   -2.8837    1.4802 C   0  0  0  0  0  0  0  0  0  0  0  0
    5.7551   -4.1147    0.8242 C   0  0  1  0  0  0  0  0  0  0  0  0
    6.9505   -4.9126    0.2382 C   0  0  0  0  0  0  0  0  0  0  0  0
    3.0205   -8.0401    4.4675 C   0  0  0  0  0  0  0  0  0  0  0  0
    3.5570   -7.9381    5.9234 C   0  0  0  0  0  0  0  0  0  0  0  0
    3.5445   -9.4116    3.9634 C   0  0  0  0  0  0  0  0  0  0  0  0
    0.3157   -5.0424    6.0190 H   0  0  0  0  0  0  0  0  0  0  0  0
   -0.6090   -6.4719    6.2468 H   0  0  0  0  0  0  0  0  0  0  0  0
   -0.4682   -5.7660    4.6328 H   0  0  0  0  0  0  0  0  0  0  0  0
    1.4166   -8.3974    2.4207 H   0  0  0  0  0  0  0  0  0  0  0  0
   -1.1319   -6.9652    2.8348 H   0  0  0  0  0  0  0  0  0  0  0  0
   -0.7463   -8.5018    2.0871 H   0  0  0  0  0  0  0  0  0  0  0  0
   -1.4903   -7.9574    4.8779 H   0  0  0  0  0  0  0  0  0  0  0  0
   -1.5574   -9.4227    3.9751 H   0  0  0  0  0  0  0  0  0  0  0  0
   -0.1423  -11.1098    4.4636 H   0  0  0  0  0  0  0  0  0  0  0  0
    1.4974  -10.9721    4.9157 H   0  0  0  0  0  0  0  0  0  0  0  0
    0.9768  -10.4654    3.2984 H   0  0  0  0  0  0  0  0  0  0  0  0
   -0.5671   -9.9284    6.6511 H   0  0  0  0  0  0  0  0  0  0  0  0
    0.0754   -8.3560    7.0298 H   0  0  0  0  0  0  0  0  0  0  0  0
    1.1405   -9.7226    6.8908 H   0  0  0  0  0  0  0  0  0  0  0  0
    1.6193   -6.4889    1.3508 H   0  0  0  0  0  0  0  0  0  0  0  0
    0.7015   -5.5280    2.4859 H   0  0  0  0  0  0  0  0  0  0  0  0
    2.4850   -5.3288    3.9884 H   0  0  0  0  0  0  0  0  0  0  0  0
    3.9085   -7.5057    2.5632 H   0  0  0  0  0  0  0  0  0  0  0  0
    4.8775   -5.7430    4.8070 H   0  0  0  0  0  0  0  0  0  0  0  0
    5.7002   -7.2274    4.3822 H   0  0  0  0  0  0  0  0  0  0  0  0
    6.4936   -4.9326    3.3535 H   0  0  0  0  0  0  0  0  0  0  0  0
    6.4925   -6.4127    2.4430 H   0  0  0  0  0  0  0  0  0  0  0  0
    4.7200   -5.9414    1.1415 H   0  0  0  0  0  0  0  0  0  0  0  0
    3.9609   -2.4774    2.8958 H   0  0  0  0  0  0  0  0  0  0  0  0
    4.2692   -3.6424    4.1593 H   0  0  0  0  0  0  0  0  0  0  0  0
    2.6397   -3.1959    3.7013 H   0  0  0  0  0  0  0  0  0  0  0  0
    2.5812   -4.8898    0.3601 H   0  0  0  0  0  0  0  0  0  0  0  0
    1.8431   -3.6466    1.3652 H   0  0  0  0  0  0  0  0  0  0  0  0
    2.8920   -2.6947   -0.5904 H   0  0  0  0  0  0  0  0  0  0  0  0
    3.6732   -2.0978    0.8262 H   0  0  0  0  0  0  0  0  0  0  0  0
    5.5069   -4.6438   -2.0699 H   0  0  0  0  0  0  0  0  0  0  0  0
    3.8658   -4.0682   -2.1567 H   0  0  0  0  0  0  0  0  0  0  0  0
    4.2687   -5.4076   -1.0520 H   0  0  0  0  0  0  0  0  0  0  0  0
    6.5159   -2.7029   -1.5330 H   0  0  0  0  0  0  0  0  0  0  0  0
    5.7127   -0.4937   -2.0652 H   0  0  0  0  0  0  0  0  0  0  0  0
    4.3318   -0.6389   -1.0115 H   0  0  0  0  0  0  0  0  0  0  0  0
    4.4290   -1.6004   -2.4829 H   0  0  0  0  0  0  0  0  0  0  0  0
    7.4149   -3.1141    1.7831 H   0  0  0  0  0  0  0  0  0  0  0  0
    5.8565   -2.4839    2.3295 H   0  0  0  0  0  0  0  0  0  0  0  0
    7.4979   -4.3287   -0.5091 H   0  0  0  0  0  0  0  0  0  0  0  0
    6.6088   -5.8489   -0.1985 H   0  0  0  0  0  0  0  0  0  0  0  0
    7.6947   -5.1711    0.9947 H   0  0  0  0  0  0  0  0  0  0  0  0
    4.6039   -8.2333    5.9998 H   0  0  0  0  0  0  0  0  0  0  0  0
    3.0206   -8.6134    6.5924 H   0  0  0  0  0  0  0  0  0  0  0  0
    3.4750   -6.9321    6.3321 H   0  0  0  0  0  0  0  0  0  0  0  0
    4.6212   -9.3754    3.7826 H   0  0  0  0  0  0  0  0  0  0  0  0
    3.0932   -9.7230    3.0201 H   0  0  0  0  0  0  0  0  0  0  0  0
    3.4150  -10.2109    4.6966 H   0  0  0  0  0  0  0  0  0  0  0  0
  1  2  1  0
  1 32  1  0
  1 33  1  0
  1 34  1  0
  3  2  1  1
  3  7  1  0
  3 29  1  0
  3  4  1  0
  4  5  1  0
  4 10  1  0
  4 35  1  6
  5  6  1  0
  5 36  1  0
  5 37  1  0
  6  7  1  0
  6 38  1  0
  6 39  1  0
  7  8  1  0
  7  9  1  0
  8 40  1  0
  8 41  1  0
  8 42  1  0
  9 43  1  0
  9 44  1  0
  9 45  1  0
 10 11  1  0
 10 46  1  0
 10 47  1  0
 11 16  1  0
 11 12  1  0
 11 48  1  1
 12 13  1  0
 12 29  1  0
 12 49  1  6
 13 14  1  0
 13 50  1  0
 13 51  1  0
 14 15  1  0
 14 52  1  0
 14 53  1  0
 15 27  1  0
 15 16  1  0
 15 54  1  6
 16 17  1  1
 16 18  1  0
 17 55  1  0
 17 56  1  0
 17 57  1  0
 18 19  1  0
 18 58  1  0
 18 59  1  0
 19 20  1  0
 19 60  1  0
 19 61  1  0
 20 27  1  0
 20 21  1  6
 20 22  1  0
 21 62  1  0
 21 63  1  0
 21 64  1  0
 22 23  1  0
 22 24  1  0
 22 65  1  6
 23 66  1  0
 23 67  1  0
 23 68  1  0
 24 25  2  0
 24 26  1  0
 26 27  1  0
 26 69  1  0
 26 70  1  0
 27 28  1  6
 28 71  1  0
 28 72  1  0
 28 73  1  0
 29 30  1  0
 29 31  1  0
 30 74  1  0
 30 75  1  0
 30 76  1  0
 31 77  1  0
 31 78  1  0
 31 79  1  0
M  END
>  <i_m_ct_stereo_status>  (273) 
1

>  <s_m_source_file>  (273) 
/var/tmp/pbs.5076255.sched01/tmp2a9bgmzv/100_xx7n39i.sdf

>  <i_m_source_file_index>  (273) 
31

>  <i_lp_mmshare_version>  (273) 
48012

>  <i_f3d_flags>  (273) 
0

>  <s_epik_input>  (273) 
W0NIM11DMShbQ0gzXSlbQ0gyXVtDSDJdW0NASF0oW0NAQF0xMk9bQ0gzXSlbQ0gyXVtDQEhdM1tDQEhdKEMyKFtDSDNdKVtDSDNdKVtDSDJdW0NIMl1bQ0BIXTRbQ0BAXTMoW0NIM10pW0NIMl1bQ0gyXVtDQF01KFtDSDNdKVtDQEBdNChbQ0gzXSlbQ0gyXUMoPU8pW0NAQEhdNVtDSDNd

>  <s_epik_cmdline>  (273) 
J2VwaWtfcHl0aG9uJywgJy1waHQnLCAnMi4wJywgJy1waCcsICc3LjAnLCAnLXRuJywgJzgnLCAnLW1hJywgJzIwMCcsICctaW1hZScsICc8aW5maWxlLm1hZT4nLCAnLW9tYWUnLCAnPG91dGZpbGUubWFlPic=

>  <r_lp_tautomer_probability>  (273) 
1

>  <r_epik_Ionization_Penalty>  (273) 
1.17103e-10

>  <r_epik_Ionization_Penalty_Charging>  (273) 
0

>  <r_epik_Ionization_Penalty_Neutral>  (273) 
1.17103e-10

>  <r_epik_State_Penalty>  (273) 
-0

>  <r_epik_Charging_Adjusted_Penalty>  (273) 
0

>  <i_epik_Tot_Q>  (273) 
0

>  <i_epik_Tot_abs_Q>  (273) 
0

>  <s_lp_Force_Field>  (273) 
OPLS3e

>  <r_lp_Energy>  (273) 
101.251

>  <b_lp_Chiralities_Consistent>  (273) 
1

>  <s_lp_Variant>  (273) 
65:0-1

>  <s_i_glide_gridfile>  (273) 
pfpi4k_grid

>  <i_i_glide_lignum>  (273) 
31

>  <i_i_glide_rotatable_bonds>  (273) 
1

>  <r_i_docking_score>  (273) 
-1.71633

>  <r_i_glide_ligand_efficiency>  (273) 
-0.0553655

>  <r_i_glide_ligand_efficiency_sa>  (273) 
-0.173924

>  <r_i_glide_ligand_efficiency_ln>  (273) 
-0.387085

>  <r_i_glide_gscore>  (273) 
-1.71633

>  <r_i_glide_lipo>  (273) 
-0.329853

>  <r_i_glide_hbond>  (273) 
-0.0139095

>  <r_i_glide_metal>  (273) 
-0

>  <r_i_glide_rewards>  (273) 
-0.55844

>  <r_i_glide_evdw>  (273) 
-17.4803

>  <r_i_glide_ecoul>  (273) 
0.399234

>  <r_i_glide_erotb>  (273) 
0

>  <r_i_glide_esite>  (273) 
0

>  <r_i_glide_emodel>  (273) 
-18.7051

>  <r_i_glide_energy>  (273) 
-17.081

>  <r_i_glide_einternal>  (273) 
0.153039

>  <r_i_glide_intrahb_reward>  (273) 
-0

>  <i_i_glide_confnum>  (273) 
2

>  <i_i_glide_posenum>  (273) 
19

>  <r_i_glide_eff_state_penalty>  (273) 
0

>  <ligand_id>  (273) 
65

>  <original_smiles>  (273) 
COC12C(CCC1(C)C)CC1C(CCC3C1(C)CCC1(C)C(C)C(=O)CC31C)C2(C)C

>  <smiles>  (273) 
[H]C([H])([H])OC12C([H])(C([H])([H])C([H])([H])C1(C([H])([H])[H])C([H])([H])[H])C([H])([H])C1([H])C([H])(C([H])([H])C([H])([H])C3([H])C1(C([H])([H])[H])C([H])([H])C([H])([H])C1(C([H])([H])[H])C([H])(C([H])([H])[H])C(=O)C([H])([H])C31C([H])([H])[H])C2(C([H])([H])[H])C([H])([H])[H]

$$$$
66:0:0
     RDKit          3D

 36 38  0  0  1  0  0  0  0  0999 V2000
    3.3131    0.0745   -4.2412 C   0  0  0  0  0  0  0  0  0  0  0  0
    3.9686   -0.1453   -3.0005 O   0  0  0  0  0  0  0  0  0  0  0  0
    3.6729   -1.4006   -2.3960 C   0  0  2  0  0  0  0  0  0  0  0  0
    4.1403   -1.3797   -0.9204 C   0  0  2  0  0  0  0  0  0  0  0  0
    5.5957   -1.8363   -1.0233 C   0  0  0  0  0  0  0  0  0  0  0  0
    5.4489   -3.0434   -1.9516 C   0  0  1  0  0  0  0  0  0  0  0  0
    4.8155   -4.1902   -1.1225 C   0  0  0  0  0  0  0  0  0  0  0  0
    3.4097   -3.8209   -0.6071 C   0  0  1  0  0  0  0  0  0  0  0  0
    2.9716   -4.7979    0.3744 N   0  0  0  0  0  0  0  0  0  0  0  0
    3.5757   -5.2233    1.4852 C   0  0  0  0  0  0  0  0  0  0  0  0
    2.9053   -6.1542    2.1406 N   0  0  0  0  0  0  0  0  0  0  0  0
    1.8222   -6.2798    1.3136 C   0  0  0  0  0  0  0  0  0  0  0  0
    1.8113   -5.4713    0.2430 N   0  0  0  0  0  0  0  0  0  0  0  0
    3.3680   -2.3929   -0.0325 C   0  0  0  0  0  0  0  0  0  0  0  0
    4.5409   -2.4889   -3.0775 C   0  0  1  0  0  0  0  0  0  0  0  0
    3.7458   -3.4508   -3.7509 O   0  0  0  0  0  0  0  0  0  0  0  0
    4.4847   -4.4849   -4.3623 C   0  0  0  0  0  0  0  0  0  0  0  0
    3.5537    1.0720   -4.6128 H   0  0  0  0  0  0  0  0  0  0  0  0
    2.2296    0.0131   -4.1383 H   0  0  0  0  0  0  0  0  0  0  0  0
    3.6333   -0.6509   -4.9889 H   0  0  0  0  0  0  0  0  0  0  0  0
    2.6038   -1.6137   -2.4411 H   0  0  0  0  0  0  0  0  0  0  0  0
    4.0622   -0.3826   -0.4789 H   0  0  0  0  0  0  0  0  0  0  0  0
    6.2124   -1.0583   -1.4667 H   0  0  0  0  0  0  0  0  0  0  0  0
    6.0275   -2.0914   -0.0558 H   0  0  0  0  0  0  0  0  0  0  0  0
    6.4184   -3.3481   -2.3473 H   0  0  0  0  0  0  0  0  0  0  0  0
    4.7185   -5.1126   -1.6871 H   0  0  0  0  0  0  0  0  0  0  0  0
    5.5015   -4.4149   -0.3015 H   0  0  0  0  0  0  0  0  0  0  0  0
    2.7151   -3.8479   -1.4507 H   0  0  0  0  0  0  0  0  0  0  0  0
    4.5312   -4.8315    1.7996 H   0  0  0  0  0  0  0  0  0  0  0  0
    1.0165   -6.9678    1.5175 H   0  0  0  0  0  0  0  0  0  0  0  0
    3.8112   -2.3803    0.9625 H   0  0  0  0  0  0  0  0  0  0  0  0
    2.3282   -2.0957    0.1007 H   0  0  0  0  0  0  0  0  0  0  0  0
    5.1705   -2.0036   -3.8232 H   0  0  0  0  0  0  0  0  0  0  0  0
    3.8137   -5.2514   -4.7236 H   0  0  0  0  0  0  0  0  0  0  0  0
    5.0993   -5.0110   -3.6603 H   0  0  0  0  0  0  0  0  0  0  0  0
    5.1008   -4.1140   -5.1762 H   0  0  0  0  0  0  0  0  0  0  0  0
  1  2  1  0
  1 18  1  0
  1 19  1  0
  1 20  1  0
  2  3  1  0
  3 15  1  0
  3  4  1  0
  3 21  1  1
  4 14  1  0
  4  5  1  0
  4 22  1  1
  5  6  1  0
  5 23  1  0
  5 24  1  0
  6  7  1  0
  6 15  1  0
  6 25  1  6
  7  8  1  0
  7 26  1  0
  7 27  1  0
  8  9  1  0
  8 14  1  0
  8 28  1  6
  9 13  1  0
  9 10  1  0
 10 11  2  0
 10 29  1  0
 11 12  1  0
 12 13  2  0
 12 30  1  0
 14 31  1  0
 14 32  1  0
 15 16  1  0
 15 33  1  6
 16 17  1  0
 17 34  1  0
 17 35  1  0
 17 36  1  0
M  END
>  <i_m_ct_stereo_status>  (274) 
1

>  <s_m_source_file>  (274) 
/var/tmp/pbs.5076255.sched01/tmp2a9bgmzv/100_xx7n39i.sdf

>  <i_m_source_file_index>  (274) 
32

>  <i_lp_mmshare_version>  (274) 
48012

>  <i_f3d_flags>  (274) 
0

>  <s_epik_input>  (274) 
W0NIM11PW0NASF0oW0NASF0xMilbQ0BIXShPW0NIM10pW0NAQEhdKFtDSDJdMSlbQ0gyXVtDQEhdKFtDSDJdMiluM1tjSF1uW2NIXW4z

>  <s_epik_cmdline>  (274) 
J2VwaWtfcHl0aG9uJywgJy1waHQnLCAnMi4wJywgJy1waCcsICc3LjAnLCAnLXRuJywgJzgnLCAnLW1hJywgJzIwMCcsICctaW1hZScsICc8aW5maWxlLm1hZT4nLCAnLW9tYWUnLCAnPG91dGZpbGUubWFlPic=

>  <r_lp_tautomer_probability>  (274) 
1

>  <r_epik_Ionization_Penalty>  (274) 
0.000142677

>  <r_epik_Ionization_Penalty_Charging>  (274) 
0

>  <r_epik_Ionization_Penalty_Neutral>  (274) 
0.000142677

>  <r_epik_State_Penalty>  (274) 
-0

>  <r_epik_Charging_Adjusted_Penalty>  (274) 
0

>  <i_epik_Tot_Q>  (274) 
0

>  <i_epik_Tot_abs_Q>  (274) 
0

>  <s_lp_Force_Field>  (274) 
OPLS3e

>  <r_lp_Energy>  (274) 
25.0213

>  <b_lp_Chiralities_Consistent>  (274) 
1

>  <s_lp_Variant>  (274) 
66:0-1

>  <s_i_glide_gridfile>  (274) 
pfpi4k_grid

>  <i_i_glide_lignum>  (274) 
32

>  <i_i_glide_rotatable_bonds>  (274) 
3

>  <r_i_docking_score>  (274) 
-3.02397

>  <r_i_glide_ligand_efficiency>  (274) 
-0.177881

>  <r_i_glide_ligand_efficiency_sa>  (274) 
-0.457382

>  <r_i_glide_ligand_efficiency_ln>  (274) 
-0.788887

>  <r_i_glide_gscore>  (274) 
-3.02397

>  <r_i_glide_lipo>  (274) 
-0.332216

>  <r_i_glide_hbond>  (274) 
-0.0882534

>  <r_i_glide_metal>  (274) 
-0

>  <r_i_glide_rewards>  (274) 
-1.80647

>  <r_i_glide_evdw>  (274) 
-20.0137

>  <r_i_glide_ecoul>  (274) 
-0.216405

>  <r_i_glide_erotb>  (274) 
0.306096

>  <r_i_glide_esite>  (274) 
-0.0699816

>  <r_i_glide_emodel>  (274) 
-23.2576

>  <r_i_glide_energy>  (274) 
-20.2301

>  <r_i_glide_einternal>  (274) 
1.76359

>  <r_i_glide_intrahb_reward>  (274) 
-0

>  <i_i_glide_confnum>  (274) 
3

>  <i_i_glide_posenum>  (274) 
21

>  <r_i_glide_eff_state_penalty>  (274) 
0

>  <ligand_id>  (274) 
66

>  <original_smiles>  (274) 
COC1C2CC(CC(n3cncn3)C2)C1OC

>  <smiles>  (274) 
[H]c1nc([H])n(C2([H])C([H])([H])C3([H])C([H])([H])C([H])(C2([H])[H])C([H])(OC([H])([H])[H])C3([H])OC([H])([H])[H])n1

$$$$
66:0:1
     RDKit          3D

 36 38  0  0  1  0  0  0  0  0999 V2000
    3.7734    0.1557   -3.5224 C   0  0  0  0  0  0  0  0  0  0  0  0
    4.4166   -0.2544   -2.3298 O   0  0  0  0  0  0  0  0  0  0  0  0
    3.9918   -1.5068   -1.8075 C   0  0  2  0  0  0  0  0  0  0  0  0
    4.5187   -1.6589   -0.3698 C   0  0  2  0  0  0  0  0  0  0  0  0
    5.9024   -2.2736   -0.5754 C   0  0  0  0  0  0  0  0  0  0  0  0
    5.5728   -3.3669   -1.5963 C   0  0  1  0  0  0  0  0  0  0  0  0
    4.8342   -4.5035   -0.8515 C   0  0  0  0  0  0  0  0  0  0  0  0
    3.5047   -4.0303   -0.2171 C   0  0  1  0  0  0  0  0  0  0  0  0
    3.0069   -5.0199    0.7278 N   0  0  0  0  0  0  0  0  0  0  0  0
    3.5175   -5.4387    1.8764 C   0  0  0  0  0  0  0  0  0  0  0  0
    2.7970   -6.3665    2.4907 N   0  0  0  0  0  0  0  0  0  0  0  0
    1.7853   -6.4985    1.5752 C   0  0  0  0  0  0  0  0  0  0  0  0
    1.8495   -5.7018    0.5065 N   0  0  0  0  0  0  0  0  0  0  0  0
    3.6509   -2.6424    0.4585 C   0  0  0  0  0  0  0  0  0  0  0  0
    4.6839   -2.6261   -2.6235 C   0  0  1  0  0  0  0  0  0  0  0  0
    3.7912   -3.5118   -3.2932 O   0  0  0  0  0  0  0  0  0  0  0  0
    2.8646   -2.9495   -4.2084 C   0  0  0  0  0  0  0  0  0  0  0  0
    4.0770    1.1688   -3.8057 H   0  0  0  0  0  0  0  0  0  0  0  0
    2.6893    0.1429   -3.4155 H   0  0  0  0  0  0  0  0  0  0  0  0
    4.0477   -0.4805   -4.3603 H   0  0  0  0  0  0  0  0  0  0  0  0
    2.9096   -1.5639   -1.7606 H   0  0  0  0  0  0  0  0  0  0  0  0
    4.5691   -0.6965    0.1449 H   0  0  0  0  0  0  0  0  0  0  0  0
    6.5937   -1.5381   -0.9850 H   0  0  0  0  0  0  0  0  0  0  0  0
    6.3334   -2.6633    0.3481 H   0  0  0  0  0  0  0  0  0  0  0  0
    6.4801   -3.7546   -2.0672 H   0  0  0  0  0  0  0  0  0  0  0  0
    4.6400   -5.3315   -1.5276 H   0  0  0  0  0  0  0  0  0  0  0  0
    5.5079   -4.9121   -0.0983 H   0  0  0  0  0  0  0  0  0  0  0  0
    2.7712   -3.9272   -1.0152 H   0  0  0  0  0  0  0  0  0  0  0  0
    4.4467   -5.0477    2.2752 H   0  0  0  0  0  0  0  0  0  0  0  0
    0.9647   -7.1918    1.7267 H   0  0  0  0  0  0  0  0  0  0  0  0
    4.1176   -2.7396    1.4384 H   0  0  0  0  0  0  0  0  0  0  0  0
    2.6633   -2.2125    0.6363 H   0  0  0  0  0  0  0  0  0  0  0  0
    5.3603   -2.1948   -3.3647 H   0  0  0  0  0  0  0  0  0  0  0  0
    2.2137   -3.7260   -4.6141 H   0  0  0  0  0  0  0  0  0  0  0  0
    3.4050   -2.4864   -5.0296 H   0  0  0  0  0  0  0  0  0  0  0  0
    2.2040   -2.2167   -3.7504 H   0  0  0  0  0  0  0  0  0  0  0  0
  1  2  1  0
  1 18  1  0
  1 19  1  0
  1 20  1  0
  2  3  1  0
  3 15  1  0
  3  4  1  0
  3 21  1  1
  4 14  1  0
  4  5  1  0
  4 22  1  1
  5  6  1  0
  5 23  1  0
  5 24  1  0
  6  7  1  0
  6 15  1  0
  6 25  1  6
  7  8  1  0
  7 26  1  0
  7 27  1  0
  8  9  1  0
  8 14  1  0
  8 28  1  6
  9 13  1  0
  9 10  1  0
 10 11  2  0
 10 29  1  0
 11 12  1  0
 12 13  2  0
 12 30  1  0
 14 31  1  0
 14 32  1  0
 15 16  1  0
 15 33  1  6
 16 17  1  0
 17 34  1  0
 17 35  1  0
 17 36  1  0
M  END
>  <i_m_ct_stereo_status>  (275) 
1

>  <s_m_source_file>  (275) 
/var/tmp/pbs.5076255.sched01/tmp2a9bgmzv/100_xx7n39i.sdf

>  <i_m_source_file_index>  (275) 
32

>  <i_lp_mmshare_version>  (275) 
48012

>  <i_f3d_flags>  (275) 
0

>  <s_epik_input>  (275) 
W0NIM11PW0NASF0oW0NASF0xMilbQ0BIXShPW0NIM10pW0NAQEhdKFtDSDJdMSlbQ0gyXVtDQEhdKFtDSDJdMiluM1tjSF1uW2NIXW4z

>  <s_epik_cmdline>  (275) 
J2VwaWtfcHl0aG9uJywgJy1waHQnLCAnMi4wJywgJy1waCcsICc3LjAnLCAnLXRuJywgJzgnLCAnLW1hJywgJzIwMCcsICctaW1hZScsICc8aW5maWxlLm1hZT4nLCAnLW9tYWUnLCAnPG91dGZpbGUubWFlPic=

>  <r_lp_tautomer_probability>  (275) 
1

>  <r_epik_Ionization_Penalty>  (275) 
0.000142677

>  <r_epik_Ionization_Penalty_Charging>  (275) 
0

>  <r_epik_Ionization_Penalty_Neutral>  (275) 
0.000142677

>  <r_epik_State_Penalty>  (275) 
-0

>  <r_epik_Charging_Adjusted_Penalty>  (275) 
0

>  <i_epik_Tot_Q>  (275) 
0

>  <i_epik_Tot_abs_Q>  (275) 
0

>  <s_lp_Force_Field>  (275) 
OPLS3e

>  <r_lp_Energy>  (275) 
25.0213

>  <b_lp_Chiralities_Consistent>  (275) 
1

>  <s_lp_Variant>  (275) 
66:0-1

>  <s_i_glide_gridfile>  (275) 
pfpi4k_grid

>  <i_i_glide_lignum>  (275) 
32

>  <i_i_glide_rotatable_bonds>  (275) 
3

>  <r_i_docking_score>  (275) 
-2.95451

>  <r_i_glide_ligand_efficiency>  (275) 
-0.173795

>  <r_i_glide_ligand_efficiency_sa>  (275) 
-0.446875

>  <r_i_glide_ligand_efficiency_ln>  (275) 
-0.770765

>  <r_i_glide_gscore>  (275) 
-2.95451

>  <r_i_glide_lipo>  (275) 
-0.259363

>  <r_i_glide_hbond>  (275) 
-0.073403

>  <r_i_glide_metal>  (275) 
-0

>  <r_i_glide_rewards>  (275) 
-1.80199

>  <r_i_glide_evdw>  (275) 
-20.6936

>  <r_i_glide_ecoul>  (275) 
-0.229252

>  <r_i_glide_erotb>  (275) 
0.306096

>  <r_i_glide_esite>  (275) 
-0.0567833

>  <r_i_glide_emodel>  (275) 
-24.2038

>  <r_i_glide_energy>  (275) 
-20.9228

>  <r_i_glide_einternal>  (275) 
1.41528

>  <r_i_glide_intrahb_reward>  (275) 
-0

>  <i_i_glide_confnum>  (275) 
2

>  <i_i_glide_posenum>  (275) 
19

>  <r_i_glide_eff_state_penalty>  (275) 
0

>  <ligand_id>  (275) 
66

>  <original_smiles>  (275) 
COC1C2CC(CC(n3cncn3)C2)C1OC

>  <smiles>  (275) 
[H]c1nc([H])n(C2([H])C([H])([H])C3([H])C([H])([H])C([H])(C2([H])[H])C([H])(OC([H])([H])[H])C3([H])OC([H])([H])[H])n1

$$$$
66:0:2
     RDKit          3D

 36 38  0  0  1  0  0  0  0  0999 V2000
    3.7463    0.2116   -4.0028 C   0  0  0  0  0  0  0  0  0  0  0  0
    4.3087   -0.0688   -2.7293 O   0  0  0  0  0  0  0  0  0  0  0  0
    3.8988   -1.3113   -2.1735 C   0  0  2  0  0  0  0  0  0  0  0  0
    4.3088   -1.3316   -0.6880 C   0  0  2  0  0  0  0  0  0  0  0  0
    5.7208   -1.9140   -0.7220 C   0  0  0  0  0  0  0  0  0  0  0  0
    5.5231   -3.1027   -1.6632 C   0  0  1  0  0  0  0  0  0  0  0  0
    4.7635   -4.2009   -0.8783 C   0  0  0  0  0  0  0  0  0  0  0  0
    3.3724   -3.7088   -0.4298 C   0  0  1  0  0  0  0  0  0  0  0  0
    2.7634   -4.6669    0.4752 N   0  0  0  0  0  0  0  0  0  0  0  0
    1.8519   -5.6041    0.2611 C   0  0  0  0  0  0  0  0  0  0  0  0
    1.5161   -6.2832    1.3489 N   0  0  0  0  0  0  0  0  0  0  0  0
    2.3975   -5.7326    2.2383 C   0  0  0  0  0  0  0  0  0  0  0  0
    3.1714   -4.7639    1.7655 N   0  0  0  0  0  0  0  0  0  0  0  0
    3.4197   -2.2727    0.1561 C   0  0  0  0  0  0  0  0  0  0  0  0
    4.7140   -2.4638   -2.8228 C   0  0  1  0  0  0  0  0  0  0  0  0
    3.8784   -3.3479   -3.5661 O   0  0  0  0  0  0  0  0  0  0  0  0
    4.5654   -4.3938   -4.2271 C   0  0  0  0  0  0  0  0  0  0  0  0
    4.0861    1.1877   -4.3520 H   0  0  0  0  0  0  0  0  0  0  0  0
    2.6591    0.2356   -3.9492 H   0  0  0  0  0  0  0  0  0  0  0  0
    4.0376   -0.5282   -4.7473 H   0  0  0  0  0  0  0  0  0  0  0  0
    2.8225   -1.4389   -2.2754 H   0  0  0  0  0  0  0  0  0  0  0  0
    4.2918   -0.3297   -0.2528 H   0  0  0  0  0  0  0  0  0  0  0  0
    6.4220   -1.1838   -1.1214 H   0  0  0  0  0  0  0  0  0  0  0  0
    6.0792   -2.2118    0.2622 H   0  0  0  0  0  0  0  0  0  0  0  0
    6.4835   -3.4745   -2.0218 H   0  0  0  0  0  0  0  0  0  0  0  0
    4.6310   -5.1077   -1.4670 H   0  0  0  0  0  0  0  0  0  0  0  0
    5.3648   -4.4886   -0.0135 H   0  0  0  0  0  0  0  0  0  0  0  0
    2.7286   -3.6625   -1.3096 H   0  0  0  0  0  0  0  0  0  0  0  0
    1.4165   -5.7754   -0.7185 H   0  0  0  0  0  0  0  0  0  0  0  0
    2.4606   -6.0425    3.2680 H   0  0  0  0  0  0  0  0  0  0  0  0
    3.8318   -2.2767    1.1622 H   0  0  0  0  0  0  0  0  0  0  0  0
    2.4130   -1.8686    0.2500 H   0  0  0  0  0  0  0  0  0  0  0  0
    5.4111   -2.0299   -3.5293 H   0  0  0  0  0  0  0  0  0  0  0  0
    3.8448   -5.0636   -4.6906 H   0  0  0  0  0  0  0  0  0  0  0  0
    5.1001   -5.0006   -3.5096 H   0  0  0  0  0  0  0  0  0  0  0  0
    5.2463   -4.0262   -4.9923 H   0  0  0  0  0  0  0  0  0  0  0  0
  1  2  1  0
  1 18  1  0
  1 19  1  0
  1 20  1  0
  2  3  1  0
  3 15  1  0
  3  4  1  0
  3 21  1  1
  4 14  1  0
  4  5  1  0
  4 22  1  1
  5  6  1  0
  5 23  1  0
  5 24  1  0
  6  7  1  0
  6 15  1  0
  6 25  1  6
  7  8  1  0
  7 26  1  0
  7 27  1  0
  8  9  1  0
  8 14  1  0
  8 28  1  6
  9 13  1  0
  9 10  1  0
 10 11  2  0
 10 29  1  0
 11 12  1  0
 12 13  2  0
 12 30  1  0
 14 31  1  0
 14 32  1  0
 15 16  1  0
 15 33  1  6
 16 17  1  0
 17 34  1  0
 17 35  1  0
 17 36  1  0
M  END
>  <i_m_ct_stereo_status>  (276) 
1

>  <s_m_source_file>  (276) 
/var/tmp/pbs.5076255.sched01/tmp2a9bgmzv/100_xx7n39i.sdf

>  <i_m_source_file_index>  (276) 
32

>  <i_lp_mmshare_version>  (276) 
48012

>  <i_f3d_flags>  (276) 
0

>  <s_epik_input>  (276) 
W0NIM11PW0NASF0oW0NASF0xMilbQ0BIXShPW0NIM10pW0NAQEhdKFtDSDJdMSlbQ0gyXVtDQEhdKFtDSDJdMiluM1tjSF1uW2NIXW4z

>  <s_epik_cmdline>  (276) 
J2VwaWtfcHl0aG9uJywgJy1waHQnLCAnMi4wJywgJy1waCcsICc3LjAnLCAnLXRuJywgJzgnLCAnLW1hJywgJzIwMCcsICctaW1hZScsICc8aW5maWxlLm1hZT4nLCAnLW9tYWUnLCAnPG91dGZpbGUubWFlPic=

>  <r_lp_tautomer_probability>  (276) 
1

>  <r_epik_Ionization_Penalty>  (276) 
0.000142677

>  <r_epik_Ionization_Penalty_Charging>  (276) 
0

>  <r_epik_Ionization_Penalty_Neutral>  (276) 
0.000142677

>  <r_epik_State_Penalty>  (276) 
-0

>  <r_epik_Charging_Adjusted_Penalty>  (276) 
0

>  <i_epik_Tot_Q>  (276) 
0

>  <i_epik_Tot_abs_Q>  (276) 
0

>  <s_lp_Force_Field>  (276) 
OPLS3e

>  <r_lp_Energy>  (276) 
25.0213

>  <b_lp_Chiralities_Consistent>  (276) 
1

>  <s_lp_Variant>  (276) 
66:0-1

>  <s_i_glide_gridfile>  (276) 
pfpi4k_grid

>  <i_i_glide_lignum>  (276) 
32

>  <i_i_glide_rotatable_bonds>  (276) 
3

>  <r_i_docking_score>  (276) 
-2.90953

>  <r_i_glide_ligand_efficiency>  (276) 
-0.171149

>  <r_i_glide_ligand_efficiency_sa>  (276) 
-0.440072

>  <r_i_glide_ligand_efficiency_ln>  (276) 
-0.759032

>  <r_i_glide_gscore>  (276) 
-2.90953

>  <r_i_glide_lipo>  (276) 
-0.262087

>  <r_i_glide_hbond>  (276) 
-0.0274536

>  <r_i_glide_metal>  (276) 
-0

>  <r_i_glide_rewards>  (276) 
-1.79115

>  <r_i_glide_evdw>  (276) 
-19.8361

>  <r_i_glide_ecoul>  (276) 
-0.0814468

>  <r_i_glide_erotb>  (276) 
0.306096

>  <r_i_glide_esite>  (276) 
-0.13092

>  <r_i_glide_emodel>  (276) 
-23.302

>  <r_i_glide_energy>  (276) 
-19.9175

>  <r_i_glide_einternal>  (276) 
1.17478

>  <r_i_glide_intrahb_reward>  (276) 
-0

>  <i_i_glide_confnum>  (276) 
6

>  <i_i_glide_posenum>  (276) 
31

>  <r_i_glide_eff_state_penalty>  (276) 
0

>  <ligand_id>  (276) 
66

>  <original_smiles>  (276) 
COC1C2CC(CC(n3cncn3)C2)C1OC

>  <smiles>  (276) 
[H]c1nc([H])n(C2([H])C([H])([H])C3([H])C([H])([H])C([H])(C2([H])[H])C([H])(OC([H])([H])[H])C3([H])OC([H])([H])[H])n1

$$$$
67:0:0
     RDKit          3D

 63 67  0  0  1  0  0  0  0  0999 V2000
    7.4628   -2.6577   -1.3538 C   0  0  0  0  0  0  0  0  0  0  0  0
    6.4383   -3.0250   -0.2690 C   0  0  0  0  0  0  0  0  0  0  0  0
    6.0660   -1.7543    0.5279 C   0  0  0  0  0  0  0  0  0  0  0  0
    5.1755   -3.6779   -0.8579 C   0  0  0  0  0  0  0  0  0  0  0  0
    4.6456   -4.5874    0.2305 C   0  0  0  0  0  0  0  0  0  0  0  0
    3.3970   -5.1088    0.2075 C   0  0  0  0  0  0  0  0  0  0  0  0
    2.6991   -5.9857    1.1623 C   0  0  0  0  0  0  0  0  0  0  0  0
    1.4295   -6.2515    0.8145 C   0  0  0  0  0  0  0  0  0  0  0  0
    0.3995   -6.9856    1.6221 C   0  0  0  0  0  0  0  0  0  0  0  0
    0.7936   -7.2812    3.0907 C   0  0  1  0  0  0  0  0  0  0  0  0
   -0.2083   -8.3506    3.6933 C   0  0  0  0  0  0  0  0  0  0  0  0
   -0.1687   -8.4411    5.2431 C   0  0  0  0  0  0  0  0  0  0  0  0
   -1.6818   -7.9937    3.3516 C   0  0  0  0  0  0  0  0  0  0  0  0
    0.0918   -9.7394    3.0856 C   0  0  0  0  0  0  0  0  0  0  0  0
    1.5752  -10.1299    3.1297 C   0  0  0  0  0  0  0  0  0  0  0  0
    2.5162   -9.0337    2.5771 C   0  0  0  0  0  0  0  0  0  0  0  0
    2.3404   -7.6126    3.2115 C   0  0  2  0  0  0  0  0  0  0  0  0
    2.7438   -7.7180    4.7243 C   0  0  0  0  0  0  0  0  0  0  0  0
    3.2865   -6.4904    2.5025 C   0  0  2  0  0  0  0  0  0  0  0  0
    3.3208   -5.2292    3.4393 C   0  0  0  0  0  0  0  0  0  0  0  0
    4.3208   -5.0192    4.1649 O   0  0  0  0  0  0  0  0  0  0  0  0
    2.2994   -4.5026    3.4687 O   0  0  0  0  0  0  0  0  0  0  0  0
    4.6990   -7.1068    2.1213 C   0  0  2  0  0  0  0  0  0  0  0  0
    5.6764   -7.4796    3.2356 C   0  0  0  0  0  0  0  0  0  0  0  0
    6.6326   -6.6476    2.8040 C   0  0  0  0  0  0  0  0  0  0  0  0
    5.8792   -6.2862    1.5428 C   0  0  2  0  0  0  0  0  0  0  0  0
    5.7240   -4.8014    1.2574 C   0  0  1  0  0  0  0  0  0  0  0  0
    6.9703   -4.1304    0.6647 C   0  0  0  0  0  0  0  0  0  0  0  0
    7.0454   -1.9249   -2.0428 H   0  0  0  0  0  0  0  0  0  0  0  0
    7.7545   -3.5230   -1.9487 H   0  0  0  0  0  0  0  0  0  0  0  0
    8.3760   -2.2536   -0.9118 H   0  0  0  0  0  0  0  0  0  0  0  0
    5.3173   -1.9595    1.2945 H   0  0  0  0  0  0  0  0  0  0  0  0
    5.6494   -0.9841   -0.1237 H   0  0  0  0  0  0  0  0  0  0  0  0
    6.9376   -1.3274    1.0282 H   0  0  0  0  0  0  0  0  0  0  0  0
    4.4302   -2.9549   -1.1913 H   0  0  0  0  0  0  0  0  0  0  0  0
    5.4328   -4.3045   -1.7124 H   0  0  0  0  0  0  0  0  0  0  0  0
    2.8379   -4.8124   -0.6670 H   0  0  0  0  0  0  0  0  0  0  0  0
    1.0572   -5.8963   -0.1366 H   0  0  0  0  0  0  0  0  0  0  0  0
   -0.5017   -6.3748    1.5941 H   0  0  0  0  0  0  0  0  0  0  0  0
    0.1755   -7.8813    1.0542 H   0  0  0  0  0  0  0  0  0  0  0  0
    0.6117   -6.3555    3.6373 H   0  0  0  0  0  0  0  0  0  0  0  0
   -1.0767   -8.8951    5.6465 H   0  0  0  0  0  0  0  0  0  0  0  0
   -0.0586   -7.4582    5.7046 H   0  0  0  0  0  0  0  0  0  0  0  0
    0.6279   -9.0872    5.6053 H   0  0  0  0  0  0  0  0  0  0  0  0
   -2.3792   -8.6695    3.8496 H   0  0  0  0  0  0  0  0  0  0  0  0
   -1.8965   -8.0888    2.2862 H   0  0  0  0  0  0  0  0  0  0  0  0
   -1.9286   -6.9785    3.6621 H   0  0  0  0  0  0  0  0  0  0  0  0
   -0.4984  -10.5039    3.5928 H   0  0  0  0  0  0  0  0  0  0  0  0
   -0.2390   -9.7753    2.0509 H   0  0  0  0  0  0  0  0  0  0  0  0
    1.8504  -10.4095    4.1440 H   0  0  0  0  0  0  0  0  0  0  0  0
    1.7171  -11.0389    2.5448 H   0  0  0  0  0  0  0  0  0  0  0  0
    3.5344   -9.3927    2.7216 H   0  0  0  0  0  0  0  0  0  0  0  0
    2.3658   -8.9708    1.4978 H   0  0  0  0  0  0  0  0  0  0  0  0
    3.7822   -7.4786    4.9121 H   0  0  0  0  0  0  0  0  0  0  0  0
    2.6295   -8.7085    5.1504 H   0  0  0  0  0  0  0  0  0  0  0  0
    2.1830   -7.0155    5.3400 H   0  0  0  0  0  0  0  0  0  0  0  0
    4.5636   -7.9173    1.4055 H   0  0  0  0  0  0  0  0  0  0  0  0
    5.6204   -8.1666    4.0735 H   0  0  0  0  0  0  0  0  0  0  0  0
    7.6346   -6.4249    3.1633 H   0  0  0  0  0  0  0  0  0  0  0  0
    6.2593   -6.8112    0.6677 H   0  0  0  0  0  0  0  0  0  0  0  0
    5.4566   -4.2294    2.1380 H   0  0  0  0  0  0  0  0  0  0  0  0
    7.5352   -4.8622    0.0870 H   0  0  0  0  0  0  0  0  0  0  0  0
    7.6415   -3.7472    1.4337 H   0  0  0  0  0  0  0  0  0  0  0  0
  1  2  1  0
  1 29  1  0
  1 30  1  0
  1 31  1  0
  2 28  1  0
  2  3  1  0
  2  4  1  0
  3 32  1  0
  3 33  1  0
  3 34  1  0
  4  5  1  0
  4 35  1  0
  4 36  1  0
  5 27  1  0
  5  6  2  0
  6  7  1  0
  6 37  1  0
  7 19  1  0
  7  8  2  0
  8  9  1  0
  8 38  1  0
  9 10  1  0
  9 39  1  0
  9 40  1  0
 10 17  1  0
 10 11  1  0
 10 41  1  1
 11 12  1  0
 11 13  1  0
 11 14  1  0
 12 42  1  0
 12 43  1  0
 12 44  1  0
 13 45  1  0
 13 46  1  0
 13 47  1  0
 14 15  1  0
 14 48  1  0
 14 49  1  0
 15 16  1  0
 15 50  1  0
 15 51  1  0
 16 17  1  0
 16 52  1  0
 16 53  1  0
 17 18  1  1
 17 19  1  0
 18 54  1  0
 18 55  1  0
 18 56  1  0
 19 20  1  1
 19 23  1  0
 20 21  2  0
 20 22  1  0
 23 26  1  0
 23 24  1  0
 23 57  1  6
 24 25  2  0
 24 58  1  0
 25 26  1  0
 25 59  1  0
 26 27  1  0
 26 60  1  6
 27 28  1  0
 27 61  1  1
 28 62  1  0
 28 63  1  0
M  CHG  1  22  -1
M  END
>  <i_m_ct_stereo_status>  (277) 
1

>  <s_m_source_file>  (277) 
/var/tmp/pbs.5076255.sched01/tmp2a9bgmzv/100_xx7n39i.sdf

>  <i_m_source_file_index>  (277) 
34

>  <i_lp_mmshare_version>  (277) 
48012

>  <i_f3d_flags>  (277) 
0

>  <s_epik_input>  (277) 
W0NIM11DKFtDSDNdKShbQ0gyXTEpW0NIMl1DKD1bQ0hdMilbQ0BIXTFbQ0BASF0oW0NIXT1bQ0hdMylbQ0BASF0zW0NAQF00KEMoPU8pW09IXSlDMj1bQ0hdW0NIMl1bQ0BIXShbQ0BdNDVbQ0gzXSlDKFtDSDNdKShbQ0gzXSlbQ0gyXVtDSDJdW0NIMl01

>  <s_epik_cmdline>  (277) 
J2VwaWtfcHl0aG9uJywgJy1waHQnLCAnMi4wJywgJy1waCcsICc3LjAnLCAnLXRuJywgJzgnLCAnLW1hJywgJzIwMCcsICctaW1hZScsICc8aW5maWxlLm1hZT4nLCAnLW9tYWUnLCAnPG91dGZpbGUubWFlPic=

>  <r_epik_Ionization_Penalty>  (277) 
0.00311182

>  <r_epik_Ionization_Penalty_Charging>  (277) 
0.00311182

>  <r_epik_Ionization_Penalty_Neutral>  (277) 
0

>  <r_epik_State_Penalty>  (277) 
0.00219033

>  <r_epik_Charging_Adjusted_Penalty>  (277) 
0.00530215

>  <i_epik_Tot_Q>  (277) 
-1

>  <i_epik_Tot_abs_Q>  (277) 
1

>  <s_lp_Force_Field>  (277) 
OPLS3e

>  <r_lp_Energy>  (277) 
64.7497

>  <b_lp_Chiralities_Consistent>  (277) 
1

>  <s_lp_Variant>  (277) 
67:0-1

>  <s_i_glide_gridfile>  (277) 
pfpi4k_grid

>  <i_i_glide_lignum>  (277) 
34

>  <i_i_glide_rotatable_bonds>  (277) 
1

>  <r_i_docking_score>  (277) 
-2.87942

>  <r_i_glide_ligand_efficiency>  (277) 
-0.102836

>  <r_i_glide_ligand_efficiency_sa>  (277) 
-0.312272

>  <r_i_glide_ligand_efficiency_ln>  (277) 
-0.664655

>  <r_i_glide_gscore>  (277) 
-2.87942

>  <r_i_glide_lipo>  (277) 
-0.638889

>  <r_i_glide_hbond>  (277) 
0

>  <r_i_glide_metal>  (277) 
-0

>  <r_i_glide_rewards>  (277) 
-0.821217

>  <r_i_glide_evdw>  (277) 
-32.889

>  <r_i_glide_ecoul>  (277) 
1.50088

>  <r_i_glide_erotb>  (277) 
0

>  <r_i_glide_esite>  (277) 
0

>  <r_i_glide_emodel>  (277) 
-37.3389

>  <r_i_glide_energy>  (277) 
-31.3881

>  <r_i_glide_einternal>  (277) 
0.00721684

>  <r_i_glide_intrahb_reward>  (277) 
-0

>  <i_i_glide_confnum>  (277) 
2

>  <i_i_glide_posenum>  (277) 
10

>  <r_i_glide_eff_state_penalty>  (277) 
0

>  <ligand_id>  (277) 
67

>  <original_smiles>  (277) 
CC1(C)CC2=CC3=CCC4C(C)(C)CCCC4(C)C3(C(=O)O)C3C=CC3C2C1

>  <smiles>  (277) 
[H]C1=C2C([H])([H])C(C([H])([H])[H])(C([H])([H])[H])C([H])([H])C2([H])C2([H])C([H])=C([H])C2([H])C2(C(=O)[O-])C1=C([H])C([H])([H])C1([H])C(C([H])([H])[H])(C([H])([H])[H])C([H])([H])C([H])([H])C([H])([H])C21C([H])([H])[H]

$$$$
67:0:1
     RDKit          3D

 63 67  0  0  1  0  0  0  0  0999 V2000
    0.6265  -10.2109    4.9363 C   0  0  0  0  0  0  0  0  0  0  0  0
    1.5922   -9.5678    3.9280 C   0  0  0  0  0  0  0  0  0  0  0  0
    2.2081  -10.6715    3.0450 C   0  0  0  0  0  0  0  0  0  0  0  0
    0.8996   -8.5103    3.0544 C   0  0  0  0  0  0  0  0  0  0  0  0
    1.9823   -7.5197    2.6782 C   0  0  0  0  0  0  0  0  0  0  0  0
    1.8322   -6.6102    1.6903 C   0  0  0  0  0  0  0  0  0  0  0  0
    2.7606   -5.5862    1.1759 C   0  0  0  0  0  0  0  0  0  0  0  0
    2.2855   -4.9099    0.1215 C   0  0  0  0  0  0  0  0  0  0  0  0
    3.0051   -3.8778   -0.6989 C   0  0  0  0  0  0  0  0  0  0  0  0
    4.5348   -3.8264   -0.4830 C   0  0  1  0  0  0  0  0  0  0  0  0
    5.0936   -2.5144   -1.1728 C   0  0  0  0  0  0  0  0  0  0  0  0
    6.6355   -2.5254   -1.3614 C   0  0  0  0  0  0  0  0  0  0  0  0
    4.5278   -2.3446   -2.6113 C   0  0  0  0  0  0  0  0  0  0  0  0
    4.6577   -1.2753   -0.3515 C   0  0  0  0  0  0  0  0  0  0  0  0
    4.9438   -1.4027    1.1516 C   0  0  0  0  0  0  0  0  0  0  0  0
    4.4294   -2.7272    1.7656 C   0  0  0  0  0  0  0  0  0  0  0  0
    4.8975   -4.0345    1.0447 C   0  0  2  0  0  0  0  0  0  0  0  0
    6.4545   -4.1226    1.2098 C   0  0  0  0  0  0  0  0  0  0  0  0
    4.2131   -5.3757    1.6734 C   0  0  2  0  0  0  0  0  0  0  0  0
    5.0132   -6.6347    1.1679 C   0  0  0  0  0  0  0  0  0  0  0  0
    6.0230   -7.0168    1.8016 O   0  0  0  0  0  0  0  0  0  0  0  0
    4.6158   -7.1962    0.1183 O   0  0  0  0  0  0  0  0  0  0  0  0
    4.0837   -5.2509    3.2460 C   0  0  2  0  0  0  0  0  0  0  0  0
    5.3511   -5.2832    4.0949 C   0  0  0  0  0  0  0  0  0  0  0  0
    4.9791   -6.3701    4.7821 C   0  0  0  0  0  0  0  0  0  0  0  0
    3.5974   -6.3933    4.1704 C   0  0  2  0  0  0  0  0  0  0  0  0
    3.1645   -7.7229    3.5873 C   0  0  1  0  0  0  0  0  0  0  0  0
    2.6896   -8.7479    4.6278 C   0  0  0  0  0  0  0  0  0  0  0  0
   -0.1690  -10.7451    4.4153 H   0  0  0  0  0  0  0  0  0  0  0  0
    0.1538   -9.4715    5.5827 H   0  0  0  0  0  0  0  0  0  0  0  0
    1.1407  -10.9305    5.5782 H   0  0  0  0  0  0  0  0  0  0  0  0
    2.8805  -10.2675    2.2853 H   0  0  0  0  0  0  0  0  0  0  0  0
    1.4264  -11.2228    2.5229 H   0  0  0  0  0  0  0  0  0  0  0  0
    2.7731  -11.3899    3.6422 H   0  0  0  0  0  0  0  0  0  0  0  0
    0.4030   -8.9329    2.1807 H   0  0  0  0  0  0  0  0  0  0  0  0
    0.1513   -7.9765    3.6399 H   0  0  0  0  0  0  0  0  0  0  0  0
    0.8699   -6.6727    1.2071 H   0  0  0  0  0  0  0  0  0  0  0  0
    1.2955   -5.1145   -0.2559 H   0  0  0  0  0  0  0  0  0  0  0  0
    2.7935   -4.1436   -1.7313 H   0  0  0  0  0  0  0  0  0  0  0  0
    2.5034   -2.9318   -0.5152 H   0  0  0  0  0  0  0  0  0  0  0  0
    4.9419   -4.6779   -1.0316 H   0  0  0  0  0  0  0  0  0  0  0  0
    6.9486   -1.8598   -2.1597 H   0  0  0  0  0  0  0  0  0  0  0  0
    7.0022   -3.5188   -1.6305 H   0  0  0  0  0  0  0  0  0  0  0  0
    7.1641   -2.1833   -0.4723 H   0  0  0  0  0  0  0  0  0  0  0  0
    4.9855   -1.4982   -3.1271 H   0  0  0  0  0  0  0  0  0  0  0  0
    3.4555   -2.1390   -2.6125 H   0  0  0  0  0  0  0  0  0  0  0  0
    4.7020   -3.2378   -3.2133 H   0  0  0  0  0  0  0  0  0  0  0  0
    5.1421   -0.3771   -0.7357 H   0  0  0  0  0  0  0  0  0  0  0  0
    3.5900   -1.0864   -0.4753 H   0  0  0  0  0  0  0  0  0  0  0  0
    6.0080   -1.2746    1.3352 H   0  0  0  0  0  0  0  0  0  0  0  0
    4.4695   -0.5697    1.6715 H   0  0  0  0  0  0  0  0  0  0  0  0
    4.7456   -2.7382    2.8072 H   0  0  0  0  0  0  0  0  0  0  0  0
    3.3388   -2.6934    1.7763 H   0  0  0  0  0  0  0  0  0  0  0  0
    6.7642   -4.6721    2.0868 H   0  0  0  0  0  0  0  0  0  0  0  0
    6.9481   -3.1665    1.3390 H   0  0  0  0  0  0  0  0  0  0  0  0
    6.9186   -4.6387    0.3696 H   0  0  0  0  0  0  0  0  0  0  0  0
    3.4390   -4.4109    3.5028 H   0  0  0  0  0  0  0  0  0  0  0  0
    6.2320   -4.6556    4.1372 H   0  0  0  0  0  0  0  0  0  0  0  0
    5.4499   -6.9279    5.5881 H   0  0  0  0  0  0  0  0  0  0  0  0
    2.8359   -5.9850    4.8335 H   0  0  0  0  0  0  0  0  0  0  0  0
    3.9539   -8.1909    3.0096 H   0  0  0  0  0  0  0  0  0  0  0  0
    2.2573   -8.2251    5.4809 H   0  0  0  0  0  0  0  0  0  0  0  0
    3.5003   -9.3696    5.0124 H   0  0  0  0  0  0  0  0  0  0  0  0
  1  2  1  0
  1 29  1  0
  1 30  1  0
  1 31  1  0
  2 28  1  0
  2  3  1  0
  2  4  1  0
  3 32  1  0
  3 33  1  0
  3 34  1  0
  4  5  1  0
  4 35  1  0
  4 36  1  0
  5 27  1  0
  5  6  2  0
  6  7  1  0
  6 37  1  0
  7 19  1  0
  7  8  2  0
  8  9  1  0
  8 38  1  0
  9 10  1  0
  9 39  1  0
  9 40  1  0
 10 17  1  0
 10 11  1  0
 10 41  1  6
 11 12  1  0
 11 13  1  0
 11 14  1  0
 12 42  1  0
 12 43  1  0
 12 44  1  0
 13 45  1  0
 13 46  1  0
 13 47  1  0
 14 15  1  0
 14 48  1  0
 14 49  1  0
 15 16  1  0
 15 50  1  0
 15 51  1  0
 16 17  1  0
 16 52  1  0
 16 53  1  0
 17 18  1  6
 17 19  1  0
 18 54  1  0
 18 55  1  0
 18 56  1  0
 19 20  1  1
 19 23  1  0
 20 21  2  0
 20 22  1  0
 23 26  1  0
 23 24  1  0
 23 57  1  6
 24 25  2  0
 24 58  1  0
 25 26  1  0
 25 59  1  0
 26 27  1  0
 26 60  1  1
 27 28  1  0
 27 61  1  6
 28 62  1  0
 28 63  1  0
M  CHG  1  22  -1
M  END
>  <i_m_ct_stereo_status>  (278) 
1

>  <s_m_source_file>  (278) 
/var/tmp/pbs.5076255.sched01/tmp2a9bgmzv/100_xx7n39i.sdf

>  <i_m_source_file_index>  (278) 
34

>  <i_lp_mmshare_version>  (278) 
48012

>  <i_f3d_flags>  (278) 
0

>  <s_epik_input>  (278) 
W0NIM11DKFtDSDNdKShbQ0gyXTEpW0NIMl1DKD1bQ0hdMilbQ0BIXTFbQ0BASF0oW0NIXT1bQ0hdMylbQ0BASF0zW0NAQF00KEMoPU8pW09IXSlDMj1bQ0hdW0NIMl1bQ0BIXShbQ0BdNDVbQ0gzXSlDKFtDSDNdKShbQ0gzXSlbQ0gyXVtDSDJdW0NIMl01

>  <s_epik_cmdline>  (278) 
J2VwaWtfcHl0aG9uJywgJy1waHQnLCAnMi4wJywgJy1waCcsICc3LjAnLCAnLXRuJywgJzgnLCAnLW1hJywgJzIwMCcsICctaW1hZScsICc8aW5maWxlLm1hZT4nLCAnLW9tYWUnLCAnPG91dGZpbGUubWFlPic=

>  <r_epik_Ionization_Penalty>  (278) 
0.00311182

>  <r_epik_Ionization_Penalty_Charging>  (278) 
0.00311182

>  <r_epik_Ionization_Penalty_Neutral>  (278) 
0

>  <r_epik_State_Penalty>  (278) 
0.00219033

>  <r_epik_Charging_Adjusted_Penalty>  (278) 
0.00530215

>  <i_epik_Tot_Q>  (278) 
-1

>  <i_epik_Tot_abs_Q>  (278) 
1

>  <s_lp_Force_Field>  (278) 
OPLS3e

>  <r_lp_Energy>  (278) 
64.7497

>  <b_lp_Chiralities_Consistent>  (278) 
1

>  <s_lp_Variant>  (278) 
67:0-1

>  <s_i_glide_gridfile>  (278) 
pfpi4k_grid

>  <i_i_glide_lignum>  (278) 
34

>  <i_i_glide_rotatable_bonds>  (278) 
1

>  <r_i_docking_score>  (278) 
-2.56875

>  <r_i_glide_ligand_efficiency>  (278) 
-0.0917411

>  <r_i_glide_ligand_efficiency_sa>  (278) 
-0.27858

>  <r_i_glide_ligand_efficiency_ln>  (278) 
-0.592943

>  <r_i_glide_gscore>  (278) 
-2.56875

>  <r_i_glide_lipo>  (278) 
-0.424059

>  <r_i_glide_hbond>  (278) 
0

>  <r_i_glide_metal>  (278) 
-0

>  <r_i_glide_rewards>  (278) 
-0.947407

>  <r_i_glide_evdw>  (278) 
-27.7018

>  <r_i_glide_ecoul>  (278) 
1.25204

>  <r_i_glide_erotb>  (278) 
0

>  <r_i_glide_esite>  (278) 
0

>  <r_i_glide_emodel>  (278) 
-31.3372

>  <r_i_glide_energy>  (278) 
-26.4498

>  <r_i_glide_einternal>  (278) 
0.634737

>  <r_i_glide_intrahb_reward>  (278) 
-0

>  <i_i_glide_confnum>  (278) 
2

>  <i_i_glide_posenum>  (278) 
7

>  <r_i_glide_eff_state_penalty>  (278) 
0

>  <ligand_id>  (278) 
67

>  <original_smiles>  (278) 
CC1(C)CC2=CC3=CCC4C(C)(C)CCCC4(C)C3(C(=O)O)C3C=CC3C2C1

>  <smiles>  (278) 
[H]C1=C2C([H])([H])C(C([H])([H])[H])(C([H])([H])[H])C([H])([H])C2([H])C2([H])C([H])=C([H])C2([H])C2(C(=O)[O-])C1=C([H])C([H])([H])C1([H])C(C([H])([H])[H])(C([H])([H])[H])C([H])([H])C([H])([H])C([H])([H])C21C([H])([H])[H]

$$$$
67:0:2
     RDKit          3D

 63 67  0  0  1  0  0  0  0  0999 V2000
    5.9195   -2.0185   -1.9162 C   0  0  0  0  0  0  0  0  0  0  0  0
    5.0728   -2.4711   -0.7254 C   0  0  0  0  0  0  0  0  0  0  0  0
    4.6359   -1.2331    0.0862 C   0  0  0  0  0  0  0  0  0  0  0  0
    3.8551   -3.2811   -1.1779 C   0  0  0  0  0  0  0  0  0  0  0  0
    3.5609   -4.2264   -0.0309 C   0  0  0  0  0  0  0  0  0  0  0  0
    2.4008   -4.9068    0.0730 C   0  0  0  0  0  0  0  0  0  0  0  0
    1.9180   -5.8546    1.0858 C   0  0  0  0  0  0  0  0  0  0  0  0
    0.6707   -6.2890    0.8582 C   0  0  0  0  0  0  0  0  0  0  0  0
   -0.1786   -7.1146    1.7753 C   0  0  0  0  0  0  0  0  0  0  0  0
    0.3843   -7.3088    3.2000 C   0  0  1  0  0  0  0  0  0  0  0  0
   -0.4136   -8.4792    3.8955 C   0  0  0  0  0  0  0  0  0  0  0  0
   -0.2089   -8.5348    5.4357 C   0  0  0  0  0  0  0  0  0  0  0  0
   -1.9420   -8.2996    3.6853 C   0  0  0  0  0  0  0  0  0  0  0  0
   -0.0093   -9.8292    3.2585 C   0  0  0  0  0  0  0  0  0  0  0  0
    1.5056  -10.0398    3.1769 C   0  0  0  0  0  0  0  0  0  0  0  0
    2.2485   -8.8484    2.5334 C   0  0  0  0  0  0  0  0  0  0  0  0
    1.9615   -7.4486    3.1734 C   0  0  2  0  0  0  0  0  0  0  0  0
    2.5120   -7.4703    4.6410 C   0  0  0  0  0  0  0  0  0  0  0  0
    2.6847   -6.2362    2.3654 C   0  0  2  0  0  0  0  0  0  0  0  0
    2.6391   -4.9578    3.2765 C   0  0  0  0  0  0  0  0  0  0  0  0
    3.6612   -4.6145    3.9141 O   0  0  0  0  0  0  0  0  0  0  0  0
    1.5379   -4.3661    3.3873 O   0  0  0  0  0  0  0  0  0  0  0  0
    4.1148   -6.6803    1.8498 C   0  0  2  0  0  0  0  0  0  0  0  0
    5.2303   -6.9043    2.8645 C   0  0  0  0  0  0  0  0  0  0  0  0
    6.0303   -5.9687    2.3310 C   0  0  0  0  0  0  0  0  0  0  0  0
    5.1208   -5.7328    1.1485 C   0  0  2  0  0  0  0  0  0  0  0  0
    4.7561   -4.2842    0.8755 C   0  0  1  0  0  0  0  0  0  0  0  0
    5.8382   -3.4763    0.1509 C   0  0  0  0  0  0  0  0  0  0  0  0
    5.3702   -1.3296   -2.5580 H   0  0  0  0  0  0  0  0  0  0  0  0
    6.2560   -2.8536   -2.5317 H   0  0  0  0  0  0  0  0  0  0  0  0
    6.7985   -1.4948   -1.5471 H   0  0  0  0  0  0  0  0  0  0  0  0
    3.9945   -1.5085    0.9251 H   0  0  0  0  0  0  0  0  0  0  0  0
    4.0700   -0.5376   -0.5329 H   0  0  0  0  0  0  0  0  0  0  0  0
    5.4945   -0.6927    0.4897 H   0  0  0  0  0  0  0  0  0  0  0  0
    2.9983   -2.6603   -1.4467 H   0  0  0  0  0  0  0  0  0  0  0  0
    4.1132   -3.8866   -2.0466 H   0  0  0  0  0  0  0  0  0  0  0  0
    1.7331   -4.6990   -0.7487 H   0  0  0  0  0  0  0  0  0  0  0  0
    0.1596   -6.0143   -0.0558 H   0  0  0  0  0  0  0  0  0  0  0  0
   -1.1467   -6.6231    1.8299 H   0  0  0  0  0  0  0  0  0  0  0  0
   -0.3436   -8.0512    1.2564 H   0  0  0  0  0  0  0  0  0  0  0  0
    0.1330   -6.4019    3.7548 H   0  0  0  0  0  0  0  0  0  0  0  0
   -1.0222   -9.0747    5.9266 H   0  0  0  0  0  0  0  0  0  0  0  0
   -0.1855   -7.5350    5.8758 H   0  0  0  0  0  0  0  0  0  0  0  0
    0.6858   -9.0763    5.7310 H   0  0  0  0  0  0  0  0  0  0  0  0
   -2.4964   -9.0515    4.2493 H   0  0  0  0  0  0  0  0  0  0  0  0
   -2.2510   -8.4447    2.6486 H   0  0  0  0  0  0  0  0  0  0  0  0
   -2.2825   -7.3187    4.0202 H   0  0  0  0  0  0  0  0  0  0  0  0
   -0.4392  -10.6560    3.8185 H   0  0  0  0  0  0  0  0  0  0  0  0
   -0.4264   -9.9296    2.2543 H   0  0  0  0  0  0  0  0  0  0  0  0
    1.8980  -10.2586    4.1677 H   0  0  0  0  0  0  0  0  0  0  0  0
    1.7037  -10.9383    2.5926 H   0  0  0  0  0  0  0  0  0  0  0  0
    3.3130   -9.0778    2.5818 H   0  0  0  0  0  0  0  0  0  0  0  0
    1.9850   -8.8262    1.4730 H   0  0  0  0  0  0  0  0  0  0  0  0
    3.5248   -7.0987    4.7217 H   0  0  0  0  0  0  0  0  0  0  0  0
    2.5617   -8.4588    5.0831 H   0  0  0  0  0  0  0  0  0  0  0  0
    1.9265   -6.8262    5.2980 H   0  0  0  0  0  0  0  0  0  0  0  0
    4.0122   -7.5157    1.1560 H   0  0  0  0  0  0  0  0  0  0  0  0
    5.3391   -7.5663    3.7166 H   0  0  0  0  0  0  0  0  0  0  0  0
    7.0213   -5.6122    2.5934 H   0  0  0  0  0  0  0  0  0  0  0  0
    5.4667   -6.2305    0.2428 H   0  0  0  0  0  0  0  0  0  0  0  0
    4.5060   -3.7328    1.7737 H   0  0  0  0  0  0  0  0  0  0  0  0
    6.4309   -4.1408   -0.4781 H   0  0  0  0  0  0  0  0  0  0  0  0
    6.5288   -2.9951    0.8455 H   0  0  0  0  0  0  0  0  0  0  0  0
  1  2  1  0
  1 29  1  0
  1 30  1  0
  1 31  1  0
  2 28  1  0
  2  3  1  0
  2  4  1  0
  3 32  1  0
  3 33  1  0
  3 34  1  0
  4  5  1  0
  4 35  1  0
  4 36  1  0
  5 27  1  0
  5  6  2  0
  6  7  1  0
  6 37  1  0
  7 19  1  0
  7  8  2  0
  8  9  1  0
  8 38  1  0
  9 10  1  0
  9 39  1  0
  9 40  1  0
 10 17  1  0
 10 11  1  0
 10 41  1  1
 11 12  1  0
 11 13  1  0
 11 14  1  0
 12 42  1  0
 12 43  1  0
 12 44  1  0
 13 45  1  0
 13 46  1  0
 13 47  1  0
 14 15  1  0
 14 48  1  0
 14 49  1  0
 15 16  1  0
 15 50  1  0
 15 51  1  0
 16 17  1  0
 16 52  1  0
 16 53  1  0
 17 18  1  1
 17 19  1  0
 18 54  1  0
 18 55  1  0
 18 56  1  0
 19 20  1  1
 19 23  1  0
 20 21  2  0
 20 22  1  0
 23 26  1  0
 23 24  1  0
 23 57  1  6
 24 25  2  0
 24 58  1  0
 25 26  1  0
 25 59  1  0
 26 27  1  0
 26 60  1  6
 27 28  1  0
 27 61  1  1
 28 62  1  0
 28 63  1  0
M  CHG  1  22  -1
M  END
>  <i_m_ct_stereo_status>  (279) 
1

>  <s_m_source_file>  (279) 
/var/tmp/pbs.5076255.sched01/tmp2a9bgmzv/100_xx7n39i.sdf

>  <i_m_source_file_index>  (279) 
34

>  <i_lp_mmshare_version>  (279) 
48012

>  <i_f3d_flags>  (279) 
0

>  <s_epik_input>  (279) 
W0NIM11DKFtDSDNdKShbQ0gyXTEpW0NIMl1DKD1bQ0hdMilbQ0BIXTFbQ0BASF0oW0NIXT1bQ0hdMylbQ0BASF0zW0NAQF00KEMoPU8pW09IXSlDMj1bQ0hdW0NIMl1bQ0BIXShbQ0BdNDVbQ0gzXSlDKFtDSDNdKShbQ0gzXSlbQ0gyXVtDSDJdW0NIMl01

>  <s_epik_cmdline>  (279) 
J2VwaWtfcHl0aG9uJywgJy1waHQnLCAnMi4wJywgJy1waCcsICc3LjAnLCAnLXRuJywgJzgnLCAnLW1hJywgJzIwMCcsICctaW1hZScsICc8aW5maWxlLm1hZT4nLCAnLW9tYWUnLCAnPG91dGZpbGUubWFlPic=

>  <r_epik_Ionization_Penalty>  (279) 
0.00311182

>  <r_epik_Ionization_Penalty_Charging>  (279) 
0.00311182

>  <r_epik_Ionization_Penalty_Neutral>  (279) 
0

>  <r_epik_State_Penalty>  (279) 
0.00219033

>  <r_epik_Charging_Adjusted_Penalty>  (279) 
0.00530215

>  <i_epik_Tot_Q>  (279) 
-1

>  <i_epik_Tot_abs_Q>  (279) 
1

>  <s_lp_Force_Field>  (279) 
OPLS3e

>  <r_lp_Energy>  (279) 
64.7497

>  <b_lp_Chiralities_Consistent>  (279) 
1

>  <s_lp_Variant>  (279) 
67:0-1

>  <s_i_glide_gridfile>  (279) 
pfpi4k_grid

>  <i_i_glide_lignum>  (279) 
34

>  <i_i_glide_rotatable_bonds>  (279) 
1

>  <r_i_docking_score>  (279) 
-2.12934

>  <r_i_glide_ligand_efficiency>  (279) 
-0.0760478

>  <r_i_glide_ligand_efficiency_sa>  (279) 
-0.230926

>  <r_i_glide_ligand_efficiency_ln>  (279) 
-0.491514

>  <r_i_glide_gscore>  (279) 
-2.12934

>  <r_i_glide_lipo>  (279) 
-0.318991

>  <r_i_glide_hbond>  (279) 
0

>  <r_i_glide_metal>  (279) 
-0

>  <r_i_glide_rewards>  (279) 
-0.821217

>  <r_i_glide_evdw>  (279) 
-28.941

>  <r_i_glide_ecoul>  (279) 
3.05747

>  <r_i_glide_erotb>  (279) 
0

>  <r_i_glide_esite>  (279) 
-0.00070057

>  <r_i_glide_emodel>  (279) 
-30.1572

>  <r_i_glide_energy>  (279) 
-25.8836

>  <r_i_glide_einternal>  (279) 
0.00689808

>  <r_i_glide_intrahb_reward>  (279) 
-0

>  <i_i_glide_confnum>  (279) 
2

>  <i_i_glide_posenum>  (279) 
35

>  <r_i_glide_eff_state_penalty>  (279) 
0

>  <ligand_id>  (279) 
67

>  <original_smiles>  (279) 
CC1(C)CC2=CC3=CCC4C(C)(C)CCCC4(C)C3(C(=O)O)C3C=CC3C2C1

>  <smiles>  (279) 
[H]C1=C2C([H])([H])C(C([H])([H])[H])(C([H])([H])[H])C([H])([H])C2([H])C2([H])C([H])=C([H])C2([H])C2(C(=O)[O-])C1=C([H])C([H])([H])C1([H])C(C([H])([H])[H])(C([H])([H])[H])C([H])([H])C([H])([H])C([H])([H])C21C([H])([H])[H]

$$$$
68:0:0
     RDKit          3D

 20 22  0  0  1  0  0  0  0  0999 V2000
    3.3172   -1.2870   -4.3204 C   0  0  0  0  0  0  0  0  0  0  0  0
    3.8166   -0.0775   -3.5193 C   0  0  0  0  0  0  0  0  0  0  0  0
    4.5892   -0.4522   -2.3807 O   0  0  0  0  0  0  0  0  0  0  0  0
    4.1219   -1.6018   -1.7538 C   0  0  1  0  0  0  0  0  0  0  0  0
    4.2393   -2.7919   -2.7692 C   0  0  2  0  0  0  0  0  0  0  0  0
    5.5813   -3.4888   -2.4362 C   0  0  0  0  0  0  0  0  0  0  0  0
    5.8547   -3.0140   -1.0737 C   0  0  0  0  0  0  0  0  0  0  0  0
    6.6368   -3.3606   -0.0688 N   0  0  0  0  0  0  0  0  0  0  0  0
    6.2540   -2.4414    0.9148 N   0  0  0  0  0  0  0  0  0  0  0  0
    5.3187   -1.6265    0.4842 N   0  0  0  0  0  0  0  0  0  0  0  0
    5.0773   -2.0166   -0.7797 N   0  0  0  0  0  0  0  0  0  0  0  0
    4.2194   -2.3580   -4.1276 O   0  0  0  0  0  0  0  0  0  0  0  0
    3.2675   -1.0193   -5.3741 H   0  0  0  0  0  0  0  0  0  0  0  0
    2.3202   -1.5934   -3.9945 H   0  0  0  0  0  0  0  0  0  0  0  0
    4.4195    0.5605   -4.1585 H   0  0  0  0  0  0  0  0  0  0  0  0
    2.9680    0.5257   -3.2056 H   0  0  0  0  0  0  0  0  0  0  0  0
    3.1408   -1.4699   -1.3032 H   0  0  0  0  0  0  0  0  0  0  0  0
    3.4090   -3.4716   -2.5611 H   0  0  0  0  0  0  0  0  0  0  0  0
    5.4897   -4.5737   -2.4741 H   0  0  0  0  0  0  0  0  0  0  0  0
    6.3984   -3.1414   -3.0736 H   0  0  0  0  0  0  0  0  0  0  0  0
  1 12  1  0
  1  2  1  0
  1 13  1  0
  1 14  1  0
  2  3  1  0
  2 15  1  0
  2 16  1  0
  3  4  1  0
  4 11  1  0
  4  5  1  0
  4 17  1  1
  5  6  1  0
  5 12  1  0
  5 18  1  6
  6  7  1  0
  6 19  1  0
  6 20  1  0
  7 11  1  0
  7  8  2  0
  8  9  1  0
  9 10  2  0
 10 11  1  0
M  END
>  <i_m_ct_stereo_status>  (280) 
1

>  <s_m_source_file>  (280) 
/var/tmp/pbs.5076255.sched01/tmp2a9bgmzv/100_xx7n39i.sdf

>  <i_m_source_file_index>  (280) 
35

>  <i_lp_mmshare_version>  (280) 
48012

>  <i_f3d_flags>  (280) 
0

>  <s_epik_input>  (280) 
TzFbQ0gyXVtDSDJdT1tDQEhdKFtDQEhdMTIpW0NIMl1jM24ybm5uMw==

>  <s_epik_cmdline>  (280) 
J2VwaWtfcHl0aG9uJywgJy1waHQnLCAnMi4wJywgJy1waCcsICc3LjAnLCAnLXRuJywgJzgnLCAnLW1hJywgJzIwMCcsICctaW1hZScsICc8aW5maWxlLm1hZT4nLCAnLW9tYWUnLCAnPG91dGZpbGUubWFlPic=

>  <r_lp_tautomer_probability>  (280) 
1

>  <r_epik_Ionization_Penalty>  (280) 
3.92323e-10

>  <r_epik_Ionization_Penalty_Charging>  (280) 
0

>  <r_epik_Ionization_Penalty_Neutral>  (280) 
3.92323e-10

>  <r_epik_State_Penalty>  (280) 
-0

>  <r_epik_Charging_Adjusted_Penalty>  (280) 
0

>  <i_epik_Tot_Q>  (280) 
0

>  <i_epik_Tot_abs_Q>  (280) 
0

>  <s_epik_Chemistry_Notes>  (280) 
This compound contains an acetal/aminal-like group ( X-CH(R)-Y where X, Y are N, S, or O) that may be acid/base labile, releasing an aldehyde.

>  <s_lp_Force_Field>  (280) 
OPLS3e

>  <r_lp_Energy>  (280) 
19.0462

>  <b_lp_Chiralities_Consistent>  (280) 
1

>  <s_lp_Variant>  (280) 
68:0-1

>  <s_i_glide_gridfile>  (280) 
pfpi4k_grid

>  <i_i_glide_lignum>  (280) 
35

>  <i_i_glide_rotatable_bonds>  (280) 
0

>  <r_i_docking_score>  (280) 
-4.6218

>  <r_i_glide_ligand_efficiency>  (280) 
-0.38515

>  <r_i_glide_ligand_efficiency_sa>  (280) 
-0.881773

>  <r_i_glide_ligand_efficiency_ln>  (280) 
-1.32623

>  <r_i_glide_gscore>  (280) 
-4.6218

>  <r_i_glide_lipo>  (280) 
-0.375096

>  <r_i_glide_hbond>  (280) 
-0.32

>  <r_i_glide_metal>  (280) 
-0

>  <r_i_glide_rewards>  (280) 
-2.30663

>  <r_i_glide_evdw>  (280) 
-18.7366

>  <r_i_glide_ecoul>  (280) 
-4.15015

>  <r_i_glide_erotb>  (280) 
0

>  <r_i_glide_esite>  (280) 
-0.0607193

>  <r_i_glide_emodel>  (280) 
-29.6101

>  <r_i_glide_energy>  (280) 
-22.8868

>  <r_i_glide_einternal>  (280) 
0

>  <r_i_glide_intrahb_reward>  (280) 
-0

>  <i_i_glide_confnum>  (280) 
1

>  <i_i_glide_posenum>  (280) 
1

>  <r_i_glide_eff_state_penalty>  (280) 
0

>  <ligand_id>  (280) 
68

>  <original_smiles>  (280) 
C1COC2C(Cc3nnnn32)O1

>  <smiles>  (280) 
[H]C1([H])OC2([H])n3nnnc3C([H])([H])C2([H])OC1([H])[H]

$$$$
68:0:1
     RDKit          3D

 20 22  0  0  1  0  0  0  0  0999 V2000
    3.0582   -2.1284   -3.6625 C   0  0  0  0  0  0  0  0  0  0  0  0
    3.6737   -0.7286   -3.4578 C   0  0  0  0  0  0  0  0  0  0  0  0
    4.4746   -0.6590   -2.2786 O   0  0  0  0  0  0  0  0  0  0  0  0
    3.9762   -1.4275   -1.2310 C   0  0  1  0  0  0  0  0  0  0  0  0
    3.9713   -2.9376   -1.6697 C   0  0  2  0  0  0  0  0  0  0  0  0
    5.2801   -3.5514   -1.0944 C   0  0  0  0  0  0  0  0  0  0  0  0
    5.6483   -2.5767   -0.0579 C   0  0  0  0  0  0  0  0  0  0  0  0
    6.4510   -2.5381    0.9840 N   0  0  0  0  0  0  0  0  0  0  0  0
    6.1715   -1.2715    1.5085 N   0  0  0  0  0  0  0  0  0  0  0  0
    5.2671   -0.6368    0.7995 N   0  0  0  0  0  0  0  0  0  0  0  0
    4.9533   -1.4873   -0.1918 N   0  0  0  0  0  0  0  0  0  0  0  0
    3.9293   -3.0762   -3.0820 O   0  0  0  0  0  0  0  0  0  0  0  0
    2.9507   -2.3488   -4.7169 H   0  0  0  0  0  0  0  0  0  0  0  0
    2.0690   -2.2037   -3.2104 H   0  0  0  0  0  0  0  0  0  0  0  0
    4.3103   -0.4788   -4.3084 H   0  0  0  0  0  0  0  0  0  0  0  0
    2.8909    0.0277   -3.4128 H   0  0  0  0  0  0  0  0  0  0  0  0
    3.0241   -1.0601   -0.8516 H   0  0  0  0  0  0  0  0  0  0  0  0
    3.1053   -3.3988   -1.1917 H   0  0  0  0  0  0  0  0  0  0  0  0
    5.1537   -4.5572   -0.6859 H   0  0  0  0  0  0  0  0  0  0  0  0
    6.0765   -3.5465   -1.8393 H   0  0  0  0  0  0  0  0  0  0  0  0
  1 12  1  0
  1  2  1  0
  1 13  1  0
  1 14  1  0
  2  3  1  0
  2 15  1  0
  2 16  1  0
  3  4  1  0
  4 11  1  0
  4  5  1  0
  4 17  1  1
  5  6  1  0
  5 12  1  0
  5 18  1  1
  6  7  1  0
  6 19  1  0
  6 20  1  0
  7 11  1  0
  7  8  2  0
  8  9  1  0
  9 10  2  0
 10 11  1  0
M  END
>  <i_m_ct_stereo_status>  (281) 
1

>  <s_m_source_file>  (281) 
/var/tmp/pbs.5076255.sched01/tmp2a9bgmzv/100_xx7n39i.sdf

>  <i_m_source_file_index>  (281) 
35

>  <i_lp_mmshare_version>  (281) 
48012

>  <i_f3d_flags>  (281) 
0

>  <s_epik_input>  (281) 
TzFbQ0gyXVtDSDJdT1tDQEhdKFtDQEhdMTIpW0NIMl1jM24ybm5uMw==

>  <s_epik_cmdline>  (281) 
J2VwaWtfcHl0aG9uJywgJy1waHQnLCAnMi4wJywgJy1waCcsICc3LjAnLCAnLXRuJywgJzgnLCAnLW1hJywgJzIwMCcsICctaW1hZScsICc8aW5maWxlLm1hZT4nLCAnLW9tYWUnLCAnPG91dGZpbGUubWFlPic=

>  <r_lp_tautomer_probability>  (281) 
1

>  <r_epik_Ionization_Penalty>  (281) 
3.92323e-10

>  <r_epik_Ionization_Penalty_Charging>  (281) 
0

>  <r_epik_Ionization_Penalty_Neutral>  (281) 
3.92323e-10

>  <r_epik_State_Penalty>  (281) 
-0

>  <r_epik_Charging_Adjusted_Penalty>  (281) 
0

>  <i_epik_Tot_Q>  (281) 
0

>  <i_epik_Tot_abs_Q>  (281) 
0

>  <s_epik_Chemistry_Notes>  (281) 
This compound contains an acetal/aminal-like group ( X-CH(R)-Y where X, Y are N, S, or O) that may be acid/base labile, releasing an aldehyde.

>  <s_lp_Force_Field>  (281) 
OPLS3e

>  <r_lp_Energy>  (281) 
19.0462

>  <b_lp_Chiralities_Consistent>  (281) 
1

>  <s_lp_Variant>  (281) 
68:0-1

>  <s_i_glide_gridfile>  (281) 
pfpi4k_grid

>  <i_i_glide_lignum>  (281) 
35

>  <i_i_glide_rotatable_bonds>  (281) 
0

>  <r_i_docking_score>  (281) 
-4.13875

>  <r_i_glide_ligand_efficiency>  (281) 
-0.344896

>  <r_i_glide_ligand_efficiency_sa>  (281) 
-0.789615

>  <r_i_glide_ligand_efficiency_ln>  (281) 
-1.18762

>  <r_i_glide_gscore>  (281) 
-4.13875

>  <r_i_glide_lipo>  (281) 
-0.496406

>  <r_i_glide_hbond>  (281) 
0

>  <r_i_glide_metal>  (281) 
-0

>  <r_i_glide_rewards>  (281) 
-2.26557

>  <r_i_glide_evdw>  (281) 
-21.505

>  <r_i_glide_ecoul>  (281) 
-1.53359

>  <r_i_glide_erotb>  (281) 
0

>  <r_i_glide_esite>  (281) 
-0.0714876

>  <r_i_glide_emodel>  (281) 
-29.069

>  <r_i_glide_energy>  (281) 
-23.0386

>  <r_i_glide_einternal>  (281) 
0

>  <r_i_glide_intrahb_reward>  (281) 
-0

>  <i_i_glide_confnum>  (281) 
2

>  <i_i_glide_posenum>  (281) 
11

>  <r_i_glide_eff_state_penalty>  (281) 
0

>  <ligand_id>  (281) 
68

>  <original_smiles>  (281) 
C1COC2C(Cc3nnnn32)O1

>  <smiles>  (281) 
[H]C1([H])OC2([H])n3nnnc3C([H])([H])C2([H])OC1([H])[H]

$$$$
68:0:2
     RDKit          3D

 20 22  0  0  1  0  0  0  0  0999 V2000
    3.5715   -1.6831   -4.3458 C   0  0  0  0  0  0  0  0  0  0  0  0
    3.5686   -0.4070   -3.5099 C   0  0  0  0  0  0  0  0  0  0  0  0
    3.9691   -0.6822   -2.1798 O   0  0  0  0  0  0  0  0  0  0  0  0
    3.5057   -1.9043   -1.7155 C   0  0  1  0  0  0  0  0  0  0  0  0
    4.1620   -3.0510   -2.5650 C   0  0  2  0  0  0  0  0  0  0  0  0
    5.3839   -3.5288   -1.7310 C   0  0  0  0  0  0  0  0  0  0  0  0
    5.0826   -3.0081   -0.3939 C   0  0  0  0  0  0  0  0  0  0  0  0
    5.4792   -3.2001    0.8387 N   0  0  0  0  0  0  0  0  0  0  0  0
    4.6371   -2.3662    1.5671 N   0  0  0  0  0  0  0  0  0  0  0  0
    3.8043   -1.7316    0.7749 N   0  0  0  0  0  0  0  0  0  0  0  0
    4.1041   -2.1497   -0.4686 N   0  0  0  0  0  0  0  0  0  0  0  0
    4.5431   -2.5903   -3.8529 O   0  0  0  0  0  0  0  0  0  0  0  0
    3.7919   -1.3962   -5.3636 H   0  0  0  0  0  0  0  0  0  0  0  0
    2.5984   -2.1745   -4.3396 H   0  0  0  0  0  0  0  0  0  0  0  0
    4.2585    0.3105   -3.9541 H   0  0  0  0  0  0  0  0  0  0  0  0
    2.5778    0.0481   -3.5583 H   0  0  0  0  0  0  0  0  0  0  0  0
    2.4131   -1.9795   -1.6763 H   0  0  0  0  0  0  0  0  0  0  0  0
    3.4276   -3.8551   -2.6165 H   0  0  0  0  0  0  0  0  0  0  0  0
    5.4835   -4.6137   -1.6993 H   0  0  0  0  0  0  0  0  0  0  0  0
    6.3023   -3.0471   -2.0632 H   0  0  0  0  0  0  0  0  0  0  0  0
  1 12  1  0
  1  2  1  0
  1 13  1  0
  1 14  1  0
  2  3  1  0
  2 15  1  0
  2 16  1  0
  3  4  1  0
  4 11  1  0
  4  5  1  0
  4 17  1  1
  5  6  1  0
  5 12  1  0
  5 18  1  6
  6  7  1  0
  6 19  1  0
  6 20  1  0
  7 11  1  0
  7  8  2  0
  8  9  1  0
  9 10  2  0
 10 11  1  0
M  END
>  <i_m_ct_stereo_status>  (282) 
1

>  <s_m_source_file>  (282) 
/var/tmp/pbs.5076255.sched01/tmp2a9bgmzv/100_xx7n39i.sdf

>  <i_m_source_file_index>  (282) 
35

>  <i_lp_mmshare_version>  (282) 
48012

>  <i_f3d_flags>  (282) 
0

>  <s_epik_input>  (282) 
TzFbQ0gyXVtDSDJdT1tDQEhdKFtDQEhdMTIpW0NIMl1jM24ybm5uMw==

>  <s_epik_cmdline>  (282) 
J2VwaWtfcHl0aG9uJywgJy1waHQnLCAnMi4wJywgJy1waCcsICc3LjAnLCAnLXRuJywgJzgnLCAnLW1hJywgJzIwMCcsICctaW1hZScsICc8aW5maWxlLm1hZT4nLCAnLW9tYWUnLCAnPG91dGZpbGUubWFlPic=

>  <r_lp_tautomer_probability>  (282) 
1

>  <r_epik_Ionization_Penalty>  (282) 
3.92323e-10

>  <r_epik_Ionization_Penalty_Charging>  (282) 
0

>  <r_epik_Ionization_Penalty_Neutral>  (282) 
3.92323e-10

>  <r_epik_State_Penalty>  (282) 
-0

>  <r_epik_Charging_Adjusted_Penalty>  (282) 
0

>  <i_epik_Tot_Q>  (282) 
0

>  <i_epik_Tot_abs_Q>  (282) 
0

>  <s_epik_Chemistry_Notes>  (282) 
This compound contains an acetal/aminal-like group ( X-CH(R)-Y where X, Y are N, S, or O) that may be acid/base labile, releasing an aldehyde.

>  <s_lp_Force_Field>  (282) 
OPLS3e

>  <r_lp_Energy>  (282) 
19.0462

>  <b_lp_Chiralities_Consistent>  (282) 
1

>  <s_lp_Variant>  (282) 
68:0-1

>  <s_i_glide_gridfile>  (282) 
pfpi4k_grid

>  <i_i_glide_lignum>  (282) 
35

>  <i_i_glide_rotatable_bonds>  (282) 
0

>  <r_i_docking_score>  (282) 
-4.03968

>  <r_i_glide_ligand_efficiency>  (282) 
-0.33664

>  <r_i_glide_ligand_efficiency_sa>  (282) 
-0.770713

>  <r_i_glide_ligand_efficiency_ln>  (282) 
-1.15919

>  <r_i_glide_gscore>  (282) 
-4.03968

>  <r_i_glide_lipo>  (282) 
-0.317334

>  <r_i_glide_hbond>  (282) 
-0.0842585

>  <r_i_glide_metal>  (282) 
-0

>  <r_i_glide_rewards>  (282) 
-2.27955

>  <r_i_glide_evdw>  (282) 
-16.8321

>  <r_i_glide_ecoul>  (282) 
-2.63569

>  <r_i_glide_erotb>  (282) 
0

>  <r_i_glide_esite>  (282) 
-0.121578

>  <r_i_glide_emodel>  (282) 
-25.2093

>  <r_i_glide_energy>  (282) 
-19.4678

>  <r_i_glide_einternal>  (282) 
0

>  <r_i_glide_intrahb_reward>  (282) 
-0

>  <i_i_glide_confnum>  (282) 
2

>  <i_i_glide_posenum>  (282) 
17

>  <r_i_glide_eff_state_penalty>  (282) 
0

>  <ligand_id>  (282) 
68

>  <original_smiles>  (282) 
C1COC2C(Cc3nnnn32)O1

>  <smiles>  (282) 
[H]C1([H])OC2([H])n3nnnc3C([H])([H])C2([H])OC1([H])[H]

$$$$
69:0:0
     RDKit          3D

 21 23  0  0  1  0  0  0  0  0999 V2000
    0.3448   -2.9695    4.8611 Cl  0  0  0  0  0  0  0  0  0  0  0  0
   -0.0527   -1.2869    4.8505 C   0  0  0  0  0  0  0  0  0  0  0  0
   -0.9447   -0.8168    5.8235 C   0  0  0  0  0  0  0  0  0  0  0  0
   -1.3116    0.5386    5.8964 C   0  0  0  0  0  0  0  0  0  0  0  0
   -2.1660    0.9443    6.8688 N   0  0  0  0  0  0  0  0  0  0  0  0
   -2.4948    2.2512    6.9021 C   0  0  0  0  0  0  0  0  0  0  0  0
   -1.9684    3.1514    5.9637 C   0  0  0  0  0  0  0  0  0  0  0  0
   -1.1164    2.7596    4.9966 N   0  0  0  0  0  0  0  0  0  0  0  0
   -0.7686    1.4500    4.9419 C   0  0  0  0  0  0  0  0  0  0  0  0
    0.1312    0.9646    3.9558 C   0  0  0  0  0  0  0  0  0  0  0  0
    0.6929    1.8405    2.9964 C   0  0  0  0  0  0  0  0  0  0  0  0
    1.5865    1.3342    2.0379 C   0  0  0  0  0  0  0  0  0  0  0  0
    1.8794   -0.0377    2.0574 C   0  0  0  0  0  0  0  0  0  0  0  0
    1.3557   -0.8836    2.9634 N   0  0  0  0  0  0  0  0  0  0  0  0
    0.5013   -0.4094    3.8977 C   0  0  0  0  0  0  0  0  0  0  0  0
   -1.3436   -1.5273    6.5268 H   0  0  0  0  0  0  0  0  0  0  0  0
   -3.1840    2.5728    7.6683 H   0  0  0  0  0  0  0  0  0  0  0  0
   -2.2316    4.1926    5.9851 H   0  0  0  0  0  0  0  0  0  0  0  0
    0.4546    2.8946    2.9778 H   0  0  0  0  0  0  0  0  0  0  0  0
    2.0153    1.9812    1.2856 H   0  0  0  0  0  0  0  0  0  0  0  0
    2.5510   -0.4655    1.3284 H   0  0  0  0  0  0  0  0  0  0  0  0
  1  2  1  0
  2 15  2  0
  2  3  1  0
  3  4  2  0
  3 16  1  0
  4  9  1  0
  4  5  1  0
  5  6  2  0
  6  7  1  0
  6 17  1  0
  7  8  2  0
  7 18  1  0
  8  9  1  0
  9 10  2  0
 10 15  1  0
 10 11  1  0
 11 12  2  0
 11 19  1  0
 12 13  1  0
 12 20  1  0
 13 14  2  0
 13 21  1  0
 14 15  1  0
M  END
>  <i_m_ct_stereo_status>  (283) 
1

>  <s_m_source_file>  (283) 
/var/tmp/pbs.5076255.sched01/tmp2a9bgmzv/100_xx7n39i.sdf

>  <i_m_source_file_index>  (283) 
36

>  <i_lp_mmshare_version>  (283) 
48012

>  <i_f3d_flags>  (283) 
0

>  <s_epik_input>  (283) 
W2NIXTFbY0hdW2NIXW5jKGMoQ2wpW2NIXTIpYzFjKGMyMyluW2NIXVtjSF1uMw==

>  <s_epik_cmdline>  (283) 
J2VwaWtfcHl0aG9uJywgJy1waHQnLCAnMi4wJywgJy1waCcsICc3LjAnLCAnLXRuJywgJzgnLCAnLW1hJywgJzIwMCcsICctaW1hZScsICc8aW5maWxlLm1hZT4nLCAnLW9tYWUnLCAnPG91dGZpbGUubWFlPic=

>  <r_lp_tautomer_probability>  (283) 
1

>  <r_epik_Ionization_Penalty>  (283) 
6.56607e-08

>  <r_epik_Ionization_Penalty_Charging>  (283) 
0

>  <r_epik_Ionization_Penalty_Neutral>  (283) 
6.56607e-08

>  <r_epik_State_Penalty>  (283) 
-0

>  <r_epik_Charging_Adjusted_Penalty>  (283) 
0

>  <i_epik_Tot_Q>  (283) 
0

>  <i_epik_Tot_abs_Q>  (283) 
0

>  <s_lp_Force_Field>  (283) 
OPLS3e

>  <r_lp_Energy>  (283) 
33.838

>  <b_lp_Chiralities_Consistent>  (283) 
1

>  <s_lp_Variant>  (283) 
69:0-1

>  <s_i_glide_gridfile>  (283) 
pfpi4k_grid

>  <i_i_glide_lignum>  (283) 
36

>  <i_i_glide_rotatable_bonds>  (283) 
0

>  <r_i_docking_score>  (283) 
-3.17795

>  <r_i_glide_ligand_efficiency>  (283) 
-0.211863

>  <r_i_glide_ligand_efficiency_sa>  (283) 
-0.5225

>  <r_i_glide_ligand_efficiency_ln>  (283) 
-0.85704

>  <r_i_glide_gscore>  (283) 
-3.17795

>  <r_i_glide_lipo>  (283) 
-0.100183

>  <r_i_glide_hbond>  (283) 
-0.16

>  <r_i_glide_metal>  (283) 
-0

>  <r_i_glide_rewards>  (283) 
-1.93883

>  <r_i_glide_evdw>  (283) 
-16.552

>  <r_i_glide_ecoul>  (283) 
-1.0089

>  <r_i_glide_erotb>  (283) 
0

>  <r_i_glide_esite>  (283) 
0

>  <r_i_glide_emodel>  (283) 
-21.5153

>  <r_i_glide_energy>  (283) 
-17.5609

>  <r_i_glide_einternal>  (283) 
0

>  <r_i_glide_intrahb_reward>  (283) 
-0

>  <i_i_glide_confnum>  (283) 
1

>  <i_i_glide_posenum>  (283) 
13

>  <r_i_glide_eff_state_penalty>  (283) 
0

>  <ligand_id>  (283) 
69

>  <original_smiles>  (283) 
Clc1cc2nccnc2c2cccnc12

>  <smiles>  (283) 
[H]c1nc2c([H])c(Cl)c3nc([H])c([H])c([H])c3c2nc1[H]

$$$$
69:0:1
     RDKit          3D

 21 23  0  0  1  0  0  0  0  0999 V2000
    0.5978   -0.7181    8.0468 Cl  0  0  0  0  0  0  0  0  0  0  0  0
   -0.1829    0.3877    6.9707 C   0  0  0  0  0  0  0  0  0  0  0  0
    0.0104    0.2246    5.5910 C   0  0  0  0  0  0  0  0  0  0  0  0
   -0.6046    1.0809    4.6619 C   0  0  0  0  0  0  0  0  0  0  0  0
   -0.3841    0.8871    3.3421 N   0  0  0  0  0  0  0  0  0  0  0  0
   -0.9757    1.7359    2.4801 C   0  0  0  0  0  0  0  0  0  0  0  0
   -1.8073    2.7755    2.9313 C   0  0  0  0  0  0  0  0  0  0  0  0
   -2.0435    2.9731    4.2454 N   0  0  0  0  0  0  0  0  0  0  0  0
   -1.4446    2.1368    5.1328 C   0  0  0  0  0  0  0  0  0  0  0  0
   -1.6382    2.2880    6.5326 C   0  0  0  0  0  0  0  0  0  0  0  0
   -2.4692    3.3136    7.0429 C   0  0  0  0  0  0  0  0  0  0  0  0
   -2.6467    3.4461    8.4297 C   0  0  0  0  0  0  0  0  0  0  0  0
   -1.9849    2.5423    9.2710 C   0  0  0  0  0  0  0  0  0  0  0  0
   -1.2011    1.5510    8.7990 N   0  0  0  0  0  0  0  0  0  0  0  0
   -1.0085    1.4201    7.4663 C   0  0  0  0  0  0  0  0  0  0  0  0
    0.6466   -0.5735    5.2373 H   0  0  0  0  0  0  0  0  0  0  0  0
   -0.7868    1.5773    1.4284 H   0  0  0  0  0  0  0  0  0  0  0  0
   -2.2874    3.4463    2.2367 H   0  0  0  0  0  0  0  0  0  0  0  0
   -2.9731    4.0024    6.3839 H   0  0  0  0  0  0  0  0  0  0  0  0
   -3.2752    4.2208    8.8428 H   0  0  0  0  0  0  0  0  0  0  0  0
   -2.0988    2.6000   10.3429 H   0  0  0  0  0  0  0  0  0  0  0  0
  1  2  1  0
  2 15  2  0
  2  3  1  0
  3  4  2  0
  3 16  1  0
  4  9  1  0
  4  5  1  0
  5  6  2  0
  6  7  1  0
  6 17  1  0
  7  8  2  0
  7 18  1  0
  8  9  1  0
  9 10  2  0
 10 15  1  0
 10 11  1  0
 11 12  2  0
 11 19  1  0
 12 13  1  0
 12 20  1  0
 13 14  2  0
 13 21  1  0
 14 15  1  0
M  END
>  <i_m_ct_stereo_status>  (284) 
1

>  <s_m_source_file>  (284) 
/var/tmp/pbs.5076255.sched01/tmp2a9bgmzv/100_xx7n39i.sdf

>  <i_m_source_file_index>  (284) 
36

>  <i_lp_mmshare_version>  (284) 
48012

>  <i_f3d_flags>  (284) 
0

>  <s_epik_input>  (284) 
W2NIXTFbY0hdW2NIXW5jKGMoQ2wpW2NIXTIpYzFjKGMyMyluW2NIXVtjSF1uMw==

>  <s_epik_cmdline>  (284) 
J2VwaWtfcHl0aG9uJywgJy1waHQnLCAnMi4wJywgJy1waCcsICc3LjAnLCAnLXRuJywgJzgnLCAnLW1hJywgJzIwMCcsICctaW1hZScsICc8aW5maWxlLm1hZT4nLCAnLW9tYWUnLCAnPG91dGZpbGUubWFlPic=

>  <r_lp_tautomer_probability>  (284) 
1

>  <r_epik_Ionization_Penalty>  (284) 
6.56607e-08

>  <r_epik_Ionization_Penalty_Charging>  (284) 
0

>  <r_epik_Ionization_Penalty_Neutral>  (284) 
6.56607e-08

>  <r_epik_State_Penalty>  (284) 
-0

>  <r_epik_Charging_Adjusted_Penalty>  (284) 
0

>  <i_epik_Tot_Q>  (284) 
0

>  <i_epik_Tot_abs_Q>  (284) 
0

>  <s_lp_Force_Field>  (284) 
OPLS3e

>  <r_lp_Energy>  (284) 
33.838

>  <b_lp_Chiralities_Consistent>  (284) 
1

>  <s_lp_Variant>  (284) 
69:0-1

>  <s_i_glide_gridfile>  (284) 
pfpi4k_grid

>  <i_i_glide_lignum>  (284) 
36

>  <i_i_glide_rotatable_bonds>  (284) 
0

>  <r_i_docking_score>  (284) 
-3.09151

>  <r_i_glide_ligand_efficiency>  (284) 
-0.206101

>  <r_i_glide_ligand_efficiency_sa>  (284) 
-0.508288

>  <r_i_glide_ligand_efficiency_ln>  (284) 
-0.833729

>  <r_i_glide_gscore>  (284) 
-3.09151

>  <r_i_glide_lipo>  (284) 
-0.192205

>  <r_i_glide_hbond>  (284) 
0

>  <r_i_glide_metal>  (284) 
-0

>  <r_i_glide_rewards>  (284) 
-1.93883

>  <r_i_glide_evdw>  (284) 
-17.089

>  <r_i_glide_ecoul>  (284) 
-0.70681

>  <r_i_glide_erotb>  (284) 
0

>  <r_i_glide_esite>  (284) 
0

>  <r_i_glide_emodel>  (284) 
-21.6433

>  <r_i_glide_energy>  (284) 
-17.7958

>  <r_i_glide_einternal>  (284) 
0

>  <r_i_glide_intrahb_reward>  (284) 
-0

>  <i_i_glide_confnum>  (284) 
2

>  <i_i_glide_posenum>  (284) 
1

>  <r_i_glide_eff_state_penalty>  (284) 
0

>  <ligand_id>  (284) 
69

>  <original_smiles>  (284) 
Clc1cc2nccnc2c2cccnc12

>  <smiles>  (284) 
[H]c1nc2c([H])c(Cl)c3nc([H])c([H])c([H])c3c2nc1[H]

$$$$
69:0:2
     RDKit          3D

 21 23  0  0  1  0  0  0  0  0999 V2000
   -1.7780   -8.6372    2.4807 Cl  0  0  0  0  0  0  0  0  0  0  0  0
   -0.4062   -8.1043    3.3839 C   0  0  0  0  0  0  0  0  0  0  0  0
   -0.3309   -8.4598    4.7400 C   0  0  0  0  0  0  0  0  0  0  0  0
    0.7440   -8.0540    5.5476 C   0  0  0  0  0  0  0  0  0  0  0  0
    0.7615   -8.4048    6.8556 N   0  0  0  0  0  0  0  0  0  0  0  0
    1.8182   -8.0154    7.5951 C   0  0  0  0  0  0  0  0  0  0  0  0
    2.8559   -7.2485    7.0371 C   0  0  0  0  0  0  0  0  0  0  0  0
    2.8381   -6.8787    5.7387 N   0  0  0  0  0  0  0  0  0  0  0  0
    1.7919   -7.2760    4.9680 C   0  0  0  0  0  0  0  0  0  0  0  0
    1.7109   -6.9215    3.5937 C   0  0  0  0  0  0  0  0  0  0  0  0
    2.7287   -6.1490    2.9881 C   0  0  0  0  0  0  0  0  0  0  0  0
    2.6309   -5.8114    1.6271 C   0  0  0  0  0  0  0  0  0  0  0  0
    1.5090   -6.2560    0.9134 C   0  0  0  0  0  0  0  0  0  0  0  0
    0.5091   -6.9560    1.4815 N   0  0  0  0  0  0  0  0  0  0  0  0
    0.6074   -7.3231    2.7855 C   0  0  0  0  0  0  0  0  0  0  0  0
   -1.1205   -9.0564    5.1733 H   0  0  0  0  0  0  0  0  0  0  0  0
    1.8316   -8.3133    8.6337 H   0  0  0  0  0  0  0  0  0  0  0  0
    3.6990   -6.9267    7.6321 H   0  0  0  0  0  0  0  0  0  0  0  0
    3.5835   -5.8068    3.5517 H   0  0  0  0  0  0  0  0  0  0  0  0
    3.3980   -5.2245    1.1441 H   0  0  0  0  0  0  0  0  0  0  0  0
    1.3970   -6.0216   -0.1356 H   0  0  0  0  0  0  0  0  0  0  0  0
  1  2  1  0
  2 15  2  0
  2  3  1  0
  3  4  2  0
  3 16  1  0
  4  9  1  0
  4  5  1  0
  5  6  2  0
  6  7  1  0
  6 17  1  0
  7  8  2  0
  7 18  1  0
  8  9  1  0
  9 10  2  0
 10 15  1  0
 10 11  1  0
 11 12  2  0
 11 19  1  0
 12 13  1  0
 12 20  1  0
 13 14  2  0
 13 21  1  0
 14 15  1  0
M  END
>  <i_m_ct_stereo_status>  (285) 
1

>  <s_m_source_file>  (285) 
/var/tmp/pbs.5076255.sched01/tmp2a9bgmzv/100_xx7n39i.sdf

>  <i_m_source_file_index>  (285) 
36

>  <i_lp_mmshare_version>  (285) 
48012

>  <i_f3d_flags>  (285) 
0

>  <s_epik_input>  (285) 
W2NIXTFbY0hdW2NIXW5jKGMoQ2wpW2NIXTIpYzFjKGMyMyluW2NIXVtjSF1uMw==

>  <s_epik_cmdline>  (285) 
J2VwaWtfcHl0aG9uJywgJy1waHQnLCAnMi4wJywgJy1waCcsICc3LjAnLCAnLXRuJywgJzgnLCAnLW1hJywgJzIwMCcsICctaW1hZScsICc8aW5maWxlLm1hZT4nLCAnLW9tYWUnLCAnPG91dGZpbGUubWFlPic=

>  <r_lp_tautomer_probability>  (285) 
1

>  <r_epik_Ionization_Penalty>  (285) 
6.56607e-08

>  <r_epik_Ionization_Penalty_Charging>  (285) 
0

>  <r_epik_Ionization_Penalty_Neutral>  (285) 
6.56607e-08

>  <r_epik_State_Penalty>  (285) 
-0

>  <r_epik_Charging_Adjusted_Penalty>  (285) 
0

>  <i_epik_Tot_Q>  (285) 
0

>  <i_epik_Tot_abs_Q>  (285) 
0

>  <s_lp_Force_Field>  (285) 
OPLS3e

>  <r_lp_Energy>  (285) 
33.838

>  <b_lp_Chiralities_Consistent>  (285) 
1

>  <s_lp_Variant>  (285) 
69:0-1

>  <s_i_glide_gridfile>  (285) 
pfpi4k_grid

>  <i_i_glide_lignum>  (285) 
36

>  <i_i_glide_rotatable_bonds>  (285) 
0

>  <r_i_docking_score>  (285) 
-3.07935

>  <r_i_glide_ligand_efficiency>  (285) 
-0.20529

>  <r_i_glide_ligand_efficiency_sa>  (285) 
-0.506288

>  <r_i_glide_ligand_efficiency_ln>  (285) 
-0.83045

>  <r_i_glide_gscore>  (285) 
-3.07935

>  <r_i_glide_lipo>  (285) 
-0.179632

>  <r_i_glide_hbond>  (285) 
0

>  <r_i_glide_metal>  (285) 
-0

>  <r_i_glide_rewards>  (285) 
-1.93883

>  <r_i_glide_evdw>  (285) 
-17.3918

>  <r_i_glide_ecoul>  (285) 
-0.608641

>  <r_i_glide_erotb>  (285) 
0

>  <r_i_glide_esite>  (285) 
0

>  <r_i_glide_emodel>  (285) 
-21.831

>  <r_i_glide_energy>  (285) 
-18.0004

>  <r_i_glide_einternal>  (285) 
0

>  <r_i_glide_intrahb_reward>  (285) 
-0

>  <i_i_glide_confnum>  (285) 
2

>  <i_i_glide_posenum>  (285) 
9

>  <r_i_glide_eff_state_penalty>  (285) 
0

>  <ligand_id>  (285) 
69

>  <original_smiles>  (285) 
Clc1cc2nccnc2c2cccnc12

>  <smiles>  (285) 
[H]c1nc2c([H])c(Cl)c3nc([H])c([H])c([H])c3c2nc1[H]

$$$$
70:0:0
     RDKit          3D

 62 66  0  0  1  0  0  0  0  0999 V2000
    5.0049   -6.5043    5.1080 C   0  0  0  0  0  0  0  0  0  0  0  0
    4.8818   -6.7058    3.5648 C   0  0  0  0  0  0  0  0  0  0  0  0
    5.5626   -8.0750    3.3153 C   0  0  0  0  0  0  0  0  0  0  0  0
    3.4036   -6.8265    3.1659 C   0  0  0  0  0  0  0  0  0  0  0  0
    2.6413   -5.5120    3.2904 C   0  0  0  0  0  0  0  0  0  0  0  0
    3.3075   -4.3793    2.4862 C   0  0  0  0  0  0  0  0  0  0  0  0
    4.8203   -4.1436    2.7662 C   0  0  1  0  0  0  0  0  0  0  0  0
    4.9588   -3.5059    4.1855 C   0  0  0  0  0  0  0  0  0  0  0  0
    5.5724   -5.5335    2.7645 C   0  0  2  0  0  0  0  0  0  0  0  0
    5.9130   -5.9669    1.3159 C   0  0  0  0  0  0  0  0  0  0  0  0
    6.7555   -4.9081    0.6301 C   0  0  0  0  0  0  0  0  0  0  0  0
    6.0355   -3.5633    0.3959 C   0  0  2  0  0  0  0  0  0  0  0  0
    7.1362   -2.5779   -0.0791 C   0  0  0  0  0  0  0  0  0  0  0  0
    5.4710   -3.0891    1.7658 C   0  0  1  0  0  0  0  0  0  0  0  0
    4.6754   -1.7827    1.5541 C   0  0  0  0  0  0  0  0  0  0  0  0
    3.6068   -1.8884    0.4486 C   0  0  1  0  0  0  0  0  0  0  0  0
    3.0142   -0.6457    0.4067 O   0  0  0  0  0  0  0  0  0  0  0  0
    4.0619   -2.4040   -0.9339 C   0  0  2  0  0  0  0  0  0  0  0  0
    2.9257   -2.6616   -1.9417 C   0  0  0  0  0  0  0  0  0  0  0  0
    3.9507   -2.5361   -3.0419 C   0  0  2  0  0  0  0  0  0  0  0  0
    4.6748   -3.7351   -3.3111 C   0  0  0  0  0  0  0  0  0  0  0  0
    4.7900   -4.3118   -4.3721 O   0  0  0  0  0  0  0  0  0  0  0  0
    5.3482   -4.2550   -2.0265 C   0  0  0  0  0  0  0  0  0  0  0  0
    4.8814   -3.6782   -0.6808 C   0  0  1  0  0  0  0  0  0  0  0  0
    4.6483   -1.5669   -2.1238 C   0  0  1  0  0  0  0  0  0  0  0  0
    4.2807   -0.2749   -2.4297 O   0  0  0  0  0  0  0  0  0  0  0  0
    4.7582   -7.4101    5.6559 H   0  0  0  0  0  0  0  0  0  0  0  0
    4.3240   -5.7568    5.4930 H   0  0  0  0  0  0  0  0  0  0  0  0
    6.0091   -6.2094    5.4037 H   0  0  0  0  0  0  0  0  0  0  0  0
    5.3600   -8.4405    2.3071 H   0  0  0  0  0  0  0  0  0  0  0  0
    5.1756   -8.8469    3.9812 H   0  0  0  0  0  0  0  0  0  0  0  0
    6.6415   -8.0304    3.4479 H   0  0  0  0  0  0  0  0  0  0  0  0
    3.3430   -7.1617    2.1257 H   0  0  0  0  0  0  0  0  0  0  0  0
    2.9140   -7.6047    3.7554 H   0  0  0  0  0  0  0  0  0  0  0  0
    1.6290   -5.6577    2.9274 H   0  0  0  0  0  0  0  0  0  0  0  0
    2.5348   -5.2305    4.3370 H   0  0  0  0  0  0  0  0  0  0  0  0
    3.1513   -4.6338    1.4421 H   0  0  0  0  0  0  0  0  0  0  0  0
    2.7437   -3.4750    2.6871 H   0  0  0  0  0  0  0  0  0  0  0  0
    5.8695   -3.8178    4.6862 H   0  0  0  0  0  0  0  0  0  0  0  0
    4.1320   -3.7426    4.8484 H   0  0  0  0  0  0  0  0  0  0  0  0
    4.9999   -2.4172    4.1703 H   0  0  0  0  0  0  0  0  0  0  0  0
    6.5516   -5.3880    3.2247 H   0  0  0  0  0  0  0  0  0  0  0  0
    6.5010   -6.8693    1.2891 H   0  0  0  0  0  0  0  0  0  0  0  0
    5.0133   -6.1671    0.7363 H   0  0  0  0  0  0  0  0  0  0  0  0
    7.6459   -4.7394    1.2393 H   0  0  0  0  0  0  0  0  0  0  0  0
    7.1393   -5.2889   -0.3074 H   0  0  0  0  0  0  0  0  0  0  0  0
    6.7600   -1.5671   -0.2246 H   0  0  0  0  0  0  0  0  0  0  0  0
    7.6062   -2.8845   -1.0107 H   0  0  0  0  0  0  0  0  0  0  0  0
    7.9429   -2.5030    0.6502 H   0  0  0  0  0  0  0  0  0  0  0  0
    6.3488   -2.7629    2.3146 H   0  0  0  0  0  0  0  0  0  0  0  0
    4.1690   -1.4710    2.4617 H   0  0  0  0  0  0  0  0  0  0  0  0
    5.3535   -0.9617    1.3143 H   0  0  0  0  0  0  0  0  0  0  0  0
    2.7822   -2.5034    0.7755 H   0  0  0  0  0  0  0  0  0  0  0  0
    2.1503   -0.7149   -0.0530 H   0  0  0  0  0  0  0  0  0  0  0  0
    2.4775   -3.6545   -1.8585 H   0  0  0  0  0  0  0  0  0  0  0  0
    2.2190   -1.8717   -1.9995 H   0  0  0  0  0  0  0  0  0  0  0  0
    3.5288   -2.0381   -3.9276 H   0  0  0  0  0  0  0  0  0  0  0  0
    5.1239   -5.3284   -1.9930 H   0  0  0  0  0  0  0  0  0  0  0  0
    6.4089   -4.1157   -2.1894 H   0  0  0  0  0  0  0  0  0  0  0  0
    4.2021   -4.4394   -0.3310 H   0  0  0  0  0  0  0  0  0  0  0  0
    5.7403   -1.6534   -2.2056 H   0  0  0  0  0  0  0  0  0  0  0  0
    3.4238   -0.1471   -2.0737 H   0  0  0  0  0  0  0  0  0  0  0  0
  1  2  1  0
  1 27  1  0
  1 28  1  0
  1 29  1  0
  2  9  1  0
  2  3  1  0
  2  4  1  0
  3 30  1  0
  3 31  1  0
  3 32  1  0
  4  5  1  0
  4 33  1  0
  4 34  1  0
  5  6  1  0
  5 35  1  0
  5 36  1  0
  6  7  1  0
  6 37  1  0
  6 38  1  0
  7 14  1  0
  7  8  1  1
  7  9  1  0
  8 39  1  0
  8 40  1  0
  8 41  1  0
  9 10  1  0
  9 42  1  1
 10 11  1  0
 10 43  1  0
 10 44  1  0
 11 12  1  0
 11 45  1  0
 11 46  1  0
 12 24  1  0
 12 13  1  6
 12 14  1  0
 13 47  1  0
 13 48  1  0
 13 49  1  0
 14 15  1  0
 14 50  1  1
 15 16  1  0
 15 51  1  0
 15 52  1  0
 16 17  1  0
 16 18  1  0
 16 53  1  1
 17 54  1  0
 18 24  1  0
 18 25  1  0
 18 19  1  6
 19 20  1  0
 19 55  1  0
 19 56  1  0
 20 21  1  0
 20 25  1  0
 20 57  1  6
 21 22  2  0
 21 23  1  0
 23 24  1  0
 23 58  1  0
 23 59  1  0
 24 60  1  1
 25 26  1  0
 25 61  1  6
 26 62  1  0
M  END
>  <i_m_ct_stereo_status>  (286) 
1

>  <s_m_source_file>  (286) 
/var/tmp/pbs.5076255.sched01/tmp2a9bgmzv/100_xx7n39i.sdf

>  <i_m_source_file_index>  (286) 
37

>  <i_lp_mmshare_version>  (286) 
48012

>  <i_f3d_flags>  (286) 
0

>  <s_epik_input>  (286) 
W0NIMl0xW0NIMl1bQ0gyXUMoW0NIM10pKFtDSDNdKVtDQEBIXShbQ0gyXVtDSDJdMilbQ0BAXTEoW0NIM10pW0NASF0oW0NIMl1bQ0BIXTNbT0hdKVtDQF0yKFtDSDNdKVtDQEBIXShbQ0BdMzQ1KVtDSDJdQyg9TylbQ0BASF0oW0NIMl00KVtDQEhdNVtPSF0=

>  <s_epik_cmdline>  (286) 
J2VwaWtfcHl0aG9uJywgJy1waHQnLCAnMi4wJywgJy1waCcsICc3LjAnLCAnLXRuJywgJzgnLCAnLW1hJywgJzIwMCcsICctaW1hZScsICc8aW5maWxlLm1hZT4nLCAnLW9tYWUnLCAnPG91dGZpbGUubWFlPic=

>  <r_lp_tautomer_probability>  (286) 
1

>  <r_epik_Ionization_Penalty>  (286) 
7.76202e-07

>  <r_epik_Ionization_Penalty_Charging>  (286) 
0

>  <r_epik_Ionization_Penalty_Neutral>  (286) 
7.76202e-07

>  <r_epik_State_Penalty>  (286) 
-0

>  <r_epik_Charging_Adjusted_Penalty>  (286) 
0

>  <i_epik_Tot_Q>  (286) 
0

>  <i_epik_Tot_abs_Q>  (286) 
0

>  <s_lp_Force_Field>  (286) 
OPLS3e

>  <r_lp_Energy>  (286) 
85.2213

>  <b_lp_Chiralities_Consistent>  (286) 
1

>  <s_lp_Variant>  (286) 
70:0-1

>  <s_i_glide_gridfile>  (286) 
pfpi4k_grid

>  <i_i_glide_lignum>  (286) 
37

>  <i_i_glide_rotatable_bonds>  (286) 
2

>  <r_i_docking_score>  (286) 
-3.60571

>  <r_i_glide_ligand_efficiency>  (286) 
-0.138681

>  <r_i_glide_ligand_efficiency_sa>  (286) 
-0.410843

>  <r_i_glide_ligand_efficiency_ln>  (286) 
-0.84679

>  <r_i_glide_gscore>  (286) 
-3.60571

>  <r_i_glide_lipo>  (286) 
-0.607416

>  <r_i_glide_hbond>  (286) 
0

>  <r_i_glide_metal>  (286) 
-0

>  <r_i_glide_rewards>  (286) 
-1.0208

>  <r_i_glide_evdw>  (286) 
-18.6944

>  <r_i_glide_ecoul>  (286) 
-6.95188

>  <r_i_glide_erotb>  (286) 
0

>  <r_i_glide_esite>  (286) 
0

>  <r_i_glide_emodel>  (286) 
-29.7328

>  <r_i_glide_energy>  (286) 
-25.6463

>  <r_i_glide_einternal>  (286) 
0.576714

>  <r_i_glide_intrahb_reward>  (286) 
-0

>  <i_i_glide_confnum>  (286) 
2

>  <i_i_glide_posenum>  (286) 
23

>  <r_i_glide_eff_state_penalty>  (286) 
0

>  <ligand_id>  (286) 
70

>  <original_smiles>  (286) 
CC1(C)CCCC2(C)C1CCC1(C)C2CC(O)C23CC(C(=O)CC12)C3O

>  <smiles>  (286) 
[H]OC1([H])C([H])([H])C2([H])C3(C([H])([H])[H])C([H])([H])C([H])([H])C([H])([H])C(C([H])([H])[H])(C([H])([H])[H])C3([H])C([H])([H])C([H])([H])C2(C([H])([H])[H])C2([H])C([H])([H])C(=O)C3([H])C([H])([H])C12C3([H])O[H]

$$$$
70:0:1
     RDKit          3D

 62 66  0  0  1  0  0  0  0  0999 V2000
    2.6001   -8.7517    3.9165 C   0  0  0  0  0  0  0  0  0  0  0  0
    2.7061   -8.1689    2.4838 C   0  0  0  0  0  0  0  0  0  0  0  0
    2.8647   -9.4130    1.5714 C   0  0  0  0  0  0  0  0  0  0  0  0
    1.3894   -7.4660    2.0897 C   0  0  0  0  0  0  0  0  0  0  0  0
    1.1589   -6.1703    2.8708 C   0  0  0  0  0  0  0  0  0  0  0  0
    2.3268   -5.1874    2.7056 C   0  0  0  0  0  0  0  0  0  0  0  0
    3.7384   -5.7525    3.0406 C   0  0  1  0  0  0  0  0  0  0  0  0
    3.8468   -5.9496    4.5840 C   0  0  0  0  0  0  0  0  0  0  0  0
    3.9160   -7.1589    2.3295 C   0  0  2  0  0  0  0  0  0  0  0  0
    4.3294   -6.9721    0.8547 C   0  0  0  0  0  0  0  0  0  0  0  0
    5.6247   -6.1827    0.7479 C   0  0  0  0  0  0  0  0  0  0  0  0
    5.4987   -4.7299    1.2151 C   0  0  2  0  0  0  0  0  0  0  0  0
    6.9548   -4.1846    1.2701 C   0  0  0  0  0  0  0  0  0  0  0  0
    4.9106   -4.7292    2.6674 C   0  0  1  0  0  0  0  0  0  0  0  0
    4.7055   -3.2626    3.1378 C   0  0  0  0  0  0  0  0  0  0  0  0
    3.9287   -2.3643    2.1579 C   0  0  1  0  0  0  0  0  0  0  0  0
    3.9042   -1.0581    2.7024 O   0  0  0  0  0  0  0  0  0  0  0  0
    4.3961   -2.3983    0.6797 C   0  0  2  0  0  0  0  0  0  0  0  0
    3.4461   -1.6557   -0.2848 C   0  0  0  0  0  0  0  0  0  0  0  0
    4.6444   -1.4653   -1.2114 C   0  0  2  0  0  0  0  0  0  0  0  0
    4.9042   -2.6667   -2.0775 C   0  0  0  0  0  0  0  0  0  0  0  0
    4.9981   -2.6904   -3.3035 O   0  0  0  0  0  0  0  0  0  0  0  0
    5.0857   -3.9611   -1.2696 C   0  0  0  0  0  0  0  0  0  0  0  0
    4.6186   -3.8732    0.2294 C   0  0  1  0  0  0  0  0  0  0  0  0
    5.4738   -1.4422    0.0845 C   0  0  1  0  0  0  0  0  0  0  0  0
    5.7024   -0.1886    0.6687 O   0  0  0  0  0  0  0  0  0  0  0  0
    1.9387   -9.6186    3.9495 H   0  0  0  0  0  0  0  0  0  0  0  0
    2.1850   -8.0558    4.6407 H   0  0  0  0  0  0  0  0  0  0  0  0
    3.5736   -9.0764    4.2880 H   0  0  0  0  0  0  0  0  0  0  0  0
    2.7428   -9.1758    0.5152 H   0  0  0  0  0  0  0  0  0  0  0  0
    2.1032  -10.1657    1.7871 H   0  0  0  0  0  0  0  0  0  0  0  0
    3.8400   -9.8877    1.6990 H   0  0  0  0  0  0  0  0  0  0  0  0
    1.4008   -7.2353    1.0246 H   0  0  0  0  0  0  0  0  0  0  0  0
    0.5473   -8.1421    2.2361 H   0  0  0  0  0  0  0  0  0  0  0  0
    0.2468   -5.7009    2.5076 H   0  0  0  0  0  0  0  0  0  0  0  0
    0.9734   -6.3789    3.9216 H   0  0  0  0  0  0  0  0  0  0  0  0
    2.2928   -4.8387    1.6802 H   0  0  0  0  0  0  0  0  0  0  0  0
    2.1176   -4.3228    3.3339 H   0  0  0  0  0  0  0  0  0  0  0  0
    4.4788   -6.7998    4.8387 H   0  0  0  0  0  0  0  0  0  0  0  0
    2.8822   -6.0987    5.0605 H   0  0  0  0  0  0  0  0  0  0  0  0
    4.2855   -5.1004    5.1034 H   0  0  0  0  0  0  0  0  0  0  0  0
    4.7738   -7.6523    2.7894 H   0  0  0  0  0  0  0  0  0  0  0  0
    4.5383   -7.9257    0.3775 H   0  0  0  0  0  0  0  0  0  0  0  0
    3.5368   -6.5090    0.2692 H   0  0  0  0  0  0  0  0  0  0  0  0
    6.3871   -6.6963    1.3405 H   0  0  0  0  0  0  0  0  0  0  0  0
    5.9782   -6.2129   -0.2799 H   0  0  0  0  0  0  0  0  0  0  0  0
    7.0156   -3.1671    1.6483 H   0  0  0  0  0  0  0  0  0  0  0  0
    7.4437   -4.1914    0.2974 H   0  0  0  0  0  0  0  0  0  0  0  0
    7.5828   -4.7888    1.9266 H   0  0  0  0  0  0  0  0  0  0  0  0
    5.7413   -5.0900    3.2785 H   0  0  0  0  0  0  0  0  0  0  0  0
    4.1985   -3.2192    4.0995 H   0  0  0  0  0  0  0  0  0  0  0  0
    5.6733   -2.8018    3.3250 H   0  0  0  0  0  0  0  0  0  0  0  0
    2.8792   -2.6595    2.1669 H   0  0  0  0  0  0  0  0  0  0  0  0
    3.3759   -0.5132    2.1446 H   0  0  0  0  0  0  0  0  0  0  0  0
    2.6452   -2.2736   -0.6912 H   0  0  0  0  0  0  0  0  0  0  0  0
    3.0500   -0.7166    0.1007 H   0  0  0  0  0  0  0  0  0  0  0  0
    4.6159   -0.5125   -1.7426 H   0  0  0  0  0  0  0  0  0  0  0  0
    4.5413   -4.7539   -1.7766 H   0  0  0  0  0  0  0  0  0  0  0  0
    6.1425   -4.2138   -1.3424 H   0  0  0  0  0  0  0  0  0  0  0  0
    3.6339   -4.3293    0.1990 H   0  0  0  0  0  0  0  0  0  0  0  0
    6.4419   -1.9173   -0.0585 H   0  0  0  0  0  0  0  0  0  0  0  0
    4.9734    0.3690    0.4412 H   0  0  0  0  0  0  0  0  0  0  0  0
  1  2  1  0
  1 27  1  0
  1 28  1  0
  1 29  1  0
  2  9  1  0
  2  3  1  0
  2  4  1  0
  3 30  1  0
  3 31  1  0
  3 32  1  0
  4  5  1  0
  4 33  1  0
  4 34  1  0
  5  6  1  0
  5 35  1  0
  5 36  1  0
  6  7  1  0
  6 37  1  0
  6 38  1  0
  7 14  1  0
  7  8  1  1
  7  9  1  0
  8 39  1  0
  8 40  1  0
  8 41  1  0
  9 10  1  0
  9 42  1  1
 10 11  1  0
 10 43  1  0
 10 44  1  0
 11 12  1  0
 11 45  1  0
 11 46  1  0
 12 24  1  0
 12 13  1  1
 12 14  1  0
 13 47  1  0
 13 48  1  0
 13 49  1  0
 14 15  1  0
 14 50  1  1
 15 16  1  0
 15 51  1  0
 15 52  1  0
 16 17  1  0
 16 18  1  0
 16 53  1  6
 17 54  1  0
 18 24  1  0
 18 25  1  0
 18 19  1  6
 19 20  1  0
 19 55  1  0
 19 56  1  0
 20 21  1  0
 20 25  1  0
 20 57  1  6
 21 22  2  0
 21 23  1  0
 23 24  1  0
 23 58  1  0
 23 59  1  0
 24 60  1  6
 25 26  1  0
 25 61  1  6
 26 62  1  0
M  END
>  <i_m_ct_stereo_status>  (287) 
1

>  <s_m_source_file>  (287) 
/var/tmp/pbs.5076255.sched01/tmp2a9bgmzv/100_xx7n39i.sdf

>  <i_m_source_file_index>  (287) 
37

>  <i_lp_mmshare_version>  (287) 
48012

>  <i_f3d_flags>  (287) 
0

>  <s_epik_input>  (287) 
W0NIMl0xW0NIMl1bQ0gyXUMoW0NIM10pKFtDSDNdKVtDQEBIXShbQ0gyXVtDSDJdMilbQ0BAXTEoW0NIM10pW0NASF0oW0NIMl1bQ0BIXTNbT0hdKVtDQF0yKFtDSDNdKVtDQEBIXShbQ0BdMzQ1KVtDSDJdQyg9TylbQ0BASF0oW0NIMl00KVtDQEhdNVtPSF0=

>  <s_epik_cmdline>  (287) 
J2VwaWtfcHl0aG9uJywgJy1waHQnLCAnMi4wJywgJy1waCcsICc3LjAnLCAnLXRuJywgJzgnLCAnLW1hJywgJzIwMCcsICctaW1hZScsICc8aW5maWxlLm1hZT4nLCAnLW9tYWUnLCAnPG91dGZpbGUubWFlPic=

>  <r_lp_tautomer_probability>  (287) 
1

>  <r_epik_Ionization_Penalty>  (287) 
7.76202e-07

>  <r_epik_Ionization_Penalty_Charging>  (287) 
0

>  <r_epik_Ionization_Penalty_Neutral>  (287) 
7.76202e-07

>  <r_epik_State_Penalty>  (287) 
-0

>  <r_epik_Charging_Adjusted_Penalty>  (287) 
0

>  <i_epik_Tot_Q>  (287) 
0

>  <i_epik_Tot_abs_Q>  (287) 
0

>  <s_lp_Force_Field>  (287) 
OPLS3e

>  <r_lp_Energy>  (287) 
85.2213

>  <b_lp_Chiralities_Consistent>  (287) 
1

>  <s_lp_Variant>  (287) 
70:0-1

>  <s_i_glide_gridfile>  (287) 
pfpi4k_grid

>  <i_i_glide_lignum>  (287) 
37

>  <i_i_glide_rotatable_bonds>  (287) 
2

>  <r_i_docking_score>  (287) 
-3.22317

>  <r_i_glide_ligand_efficiency>  (287) 
-0.123968

>  <r_i_glide_ligand_efficiency_sa>  (287) 
-0.367255

>  <r_i_glide_ligand_efficiency_ln>  (287) 
-0.756951

>  <r_i_glide_gscore>  (287) 
-3.22317

>  <r_i_glide_lipo>  (287) 
-0.459637

>  <r_i_glide_hbond>  (287) 
0

>  <r_i_glide_metal>  (287) 
-0

>  <r_i_glide_rewards>  (287) 
-1.02563

>  <r_i_glide_evdw>  (287) 
-26.6873

>  <r_i_glide_ecoul>  (287) 
-2.69029

>  <r_i_glide_erotb>  (287) 
0

>  <r_i_glide_esite>  (287) 
0

>  <r_i_glide_emodel>  (287) 
-34.6242

>  <r_i_glide_energy>  (287) 
-29.3776

>  <r_i_glide_einternal>  (287) 
0.723057

>  <r_i_glide_intrahb_reward>  (287) 
-0

>  <i_i_glide_confnum>  (287) 
1

>  <i_i_glide_posenum>  (287) 
34

>  <r_i_glide_eff_state_penalty>  (287) 
0

>  <ligand_id>  (287) 
70

>  <original_smiles>  (287) 
CC1(C)CCCC2(C)C1CCC1(C)C2CC(O)C23CC(C(=O)CC12)C3O

>  <smiles>  (287) 
[H]OC1([H])C([H])([H])C2([H])C3(C([H])([H])[H])C([H])([H])C([H])([H])C([H])([H])C(C([H])([H])[H])(C([H])([H])[H])C3([H])C([H])([H])C([H])([H])C2(C([H])([H])[H])C2([H])C([H])([H])C(=O)C3([H])C([H])([H])C12C3([H])O[H]

$$$$
70:0:2
     RDKit          3D

 62 66  0  0  1  0  0  0  0  0999 V2000
    2.6628   -8.7757    3.9191 C   0  0  0  0  0  0  0  0  0  0  0  0
    2.7686   -8.1975    2.4849 C   0  0  0  0  0  0  0  0  0  0  0  0
    2.9484   -9.4451    1.5809 C   0  0  0  0  0  0  0  0  0  0  0  0
    1.4450   -7.5133    2.0807 C   0  0  0  0  0  0  0  0  0  0  0  0
    1.1947   -6.2164    2.8527 C   0  0  0  0  0  0  0  0  0  0  0  0
    2.3508   -5.2203    2.6884 C   0  0  0  0  0  0  0  0  0  0  0  0
    3.7673   -5.7653    3.0346 C   0  0  1  0  0  0  0  0  0  0  0  0
    3.8694   -5.9522    4.5790 C   0  0  0  0  0  0  0  0  0  0  0  0
    3.9669   -7.1739    2.3341 C   0  0  2  0  0  0  0  0  0  0  0  0
    4.3860   -6.9906    0.8613 C   0  0  0  0  0  0  0  0  0  0  0  0
    5.6713   -6.1849    0.7571 C   0  0  0  0  0  0  0  0  0  0  0  0
    5.5237   -4.7324    1.2155 C   0  0  2  0  0  0  0  0  0  0  0  0
    6.9723   -4.1684    1.2721 C   0  0  0  0  0  0  0  0  0  0  0  0
    4.9286   -4.7302    2.6627 C   0  0  1  0  0  0  0  0  0  0  0  0
    4.7030   -3.2630    3.1250 C   0  0  0  0  0  0  0  0  0  0  0  0
    3.9240   -2.3760    2.1309 C   0  0  1  0  0  0  0  0  0  0  0  0
    3.8900   -1.0593    2.6488 O   0  0  0  0  0  0  0  0  0  0  0  0
    4.4001   -2.4175    0.6591 C   0  0  2  0  0  0  0  0  0  0  0  0
    3.4466   -1.6886   -0.3118 C   0  0  0  0  0  0  0  0  0  0  0  0
    4.6446   -1.4924   -1.2357 C   0  0  2  0  0  0  0  0  0  0  0  0
    4.9199   -2.6963   -2.0937 C   0  0  0  0  0  0  0  0  0  0  0  0
    5.0105   -2.7263   -3.3174 O   0  0  0  0  0  0  0  0  0  0  0  0
    5.1190   -3.9828   -1.2757 C   0  0  0  0  0  0  0  0  0  0  0  0
    4.6374   -3.8938    0.2182 C   0  0  1  0  0  0  0  0  0  0  0  0
    5.4727   -1.4565    0.0573 C   0  0  1  0  0  0  0  0  0  0  0  0
    5.6986   -0.1921    0.6214 O   0  0  0  0  0  0  0  0  0  0  0  0
    2.0117   -9.6510    3.9513 H   0  0  0  0  0  0  0  0  0  0  0  0
    2.2358   -8.0809    4.6383 H   0  0  0  0  0  0  0  0  0  0  0  0
    3.6394   -9.0880    4.2953 H   0  0  0  0  0  0  0  0  0  0  0  0
    2.8298   -9.2156    0.5221 H   0  0  0  0  0  0  0  0  0  0  0  0
    2.1952  -10.2064    1.7993 H   0  0  0  0  0  0  0  0  0  0  0  0
    3.9293   -9.9064    1.7199 H   0  0  0  0  0  0  0  0  0  0  0  0
    1.4575   -7.2893    1.0147 H   0  0  0  0  0  0  0  0  0  0  0  0
    0.6114   -8.1992    2.2287 H   0  0  0  0  0  0  0  0  0  0  0  0
    0.2787   -5.7606    2.4820 H   0  0  0  0  0  0  0  0  0  0  0  0
    1.0074   -6.4211    3.9038 H   0  0  0  0  0  0  0  0  0  0  0  0
    2.3180   -4.8760    1.6616 H   0  0  0  0  0  0  0  0  0  0  0  0
    2.1271   -4.3562    3.3115 H   0  0  0  0  0  0  0  0  0  0  0  0
    4.5121   -6.7922    4.8405 H   0  0  0  0  0  0  0  0  0  0  0  0
    2.9038   -6.1115    5.0500 H   0  0  0  0  0  0  0  0  0  0  0  0
    4.2946   -5.0947    5.0960 H   0  0  0  0  0  0  0  0  0  0  0  0
    4.8275   -7.6546    2.8024 H   0  0  0  0  0  0  0  0  0  0  0  0
    4.6118   -7.9440    0.3915 H   0  0  0  0  0  0  0  0  0  0  0  0
    3.5908   -6.5412    0.2687 H   0  0  0  0  0  0  0  0  0  0  0  0
    6.4381   -6.6831    1.3571 H   0  0  0  0  0  0  0  0  0  0  0  0
    6.0286   -6.2121   -0.2698 H   0  0  0  0  0  0  0  0  0  0  0  0
    7.0194   -3.1471    1.6420 H   0  0  0  0  0  0  0  0  0  0  0  0
    7.4651   -4.1760    0.3018 H   0  0  0  0  0  0  0  0  0  0  0  0
    7.6050   -4.7619    1.9333 H   0  0  0  0  0  0  0  0  0  0  0  0
    5.7616   -5.0792    3.2801 H   0  0  0  0  0  0  0  0  0  0  0  0
    4.1926   -3.2262    4.0843 H   0  0  0  0  0  0  0  0  0  0  0  0
    5.6651   -2.7943    3.3144 H   0  0  0  0  0  0  0  0  0  0  0  0
    2.8776   -2.6856    2.1409 H   0  0  0  0  0  0  0  0  0  0  0  0
    3.4190   -1.0638    3.4638 H   0  0  0  0  0  0  0  0  0  0  0  0
    2.6513   -2.3128   -0.7164 H   0  0  0  0  0  0  0  0  0  0  0  0
    3.0438   -0.7536    0.0797 H   0  0  0  0  0  0  0  0  0  0  0  0
    4.6057   -0.5420   -1.7672 H   0  0  0  0  0  0  0  0  0  0  0  0
    4.6039   -4.7960   -1.7840 H   0  0  0  0  0  0  0  0  0  0  0  0
    6.1830   -4.2073   -1.3357 H   0  0  0  0  0  0  0  0  0  0  0  0
    3.6568   -4.3609    0.1831 H   0  0  0  0  0  0  0  0  0  0  0  0
    6.4417   -1.9278   -0.0763 H   0  0  0  0  0  0  0  0  0  0  0  0
    4.9694    0.3587    0.3783 H   0  0  0  0  0  0  0  0  0  0  0  0
  1  2  1  0
  1 27  1  0
  1 28  1  0
  1 29  1  0
  2  9  1  0
  2  3  1  0
  2  4  1  0
  3 30  1  0
  3 31  1  0
  3 32  1  0
  4  5  1  0
  4 33  1  0
  4 34  1  0
  5  6  1  0
  5 35  1  0
  5 36  1  0
  6  7  1  0
  6 37  1  0
  6 38  1  0
  7 14  1  0
  7  8  1  1
  7  9  1  0
  8 39  1  0
  8 40  1  0
  8 41  1  0
  9 10  1  0
  9 42  1  1
 10 11  1  0
 10 43  1  0
 10 44  1  0
 11 12  1  0
 11 45  1  0
 11 46  1  0
 12 24  1  0
 12 13  1  1
 12 14  1  0
 13 47  1  0
 13 48  1  0
 13 49  1  0
 14 15  1  0
 14 50  1  1
 15 16  1  0
 15 51  1  0
 15 52  1  0
 16 17  1  0
 16 18  1  0
 16 53  1  6
 17 54  1  0
 18 24  1  0
 18 25  1  0
 18 19  1  6
 19 20  1  0
 19 55  1  0
 19 56  1  0
 20 21  1  0
 20 25  1  0
 20 57  1  6
 21 22  2  0
 21 23  1  0
 23 24  1  0
 23 58  1  0
 23 59  1  0
 24 60  1  6
 25 26  1  0
 25 61  1  6
 26 62  1  0
M  END
>  <i_m_ct_stereo_status>  (288) 
1

>  <s_m_source_file>  (288) 
/var/tmp/pbs.5076255.sched01/tmp2a9bgmzv/100_xx7n39i.sdf

>  <i_m_source_file_index>  (288) 
37

>  <i_lp_mmshare_version>  (288) 
48012

>  <i_f3d_flags>  (288) 
0

>  <s_epik_input>  (288) 
W0NIMl0xW0NIMl1bQ0gyXUMoW0NIM10pKFtDSDNdKVtDQEBIXShbQ0gyXVtDSDJdMilbQ0BAXTEoW0NIM10pW0NASF0oW0NIMl1bQ0BIXTNbT0hdKVtDQF0yKFtDSDNdKVtDQEBIXShbQ0BdMzQ1KVtDSDJdQyg9TylbQ0BASF0oW0NIMl00KVtDQEhdNVtPSF0=

>  <s_epik_cmdline>  (288) 
J2VwaWtfcHl0aG9uJywgJy1waHQnLCAnMi4wJywgJy1waCcsICc3LjAnLCAnLXRuJywgJzgnLCAnLW1hJywgJzIwMCcsICctaW1hZScsICc8aW5maWxlLm1hZT4nLCAnLW9tYWUnLCAnPG91dGZpbGUubWFlPic=

>  <r_lp_tautomer_probability>  (288) 
1

>  <r_epik_Ionization_Penalty>  (288) 
7.76202e-07

>  <r_epik_Ionization_Penalty_Charging>  (288) 
0

>  <r_epik_Ionization_Penalty_Neutral>  (288) 
7.76202e-07

>  <r_epik_State_Penalty>  (288) 
-0

>  <r_epik_Charging_Adjusted_Penalty>  (288) 
0

>  <i_epik_Tot_Q>  (288) 
0

>  <i_epik_Tot_abs_Q>  (288) 
0

>  <s_lp_Force_Field>  (288) 
OPLS3e

>  <r_lp_Energy>  (288) 
85.2213

>  <b_lp_Chiralities_Consistent>  (288) 
1

>  <s_lp_Variant>  (288) 
70:0-1

>  <s_i_glide_gridfile>  (288) 
pfpi4k_grid

>  <i_i_glide_lignum>  (288) 
37

>  <i_i_glide_rotatable_bonds>  (288) 
2

>  <r_i_docking_score>  (288) 
-3.14937

>  <r_i_glide_ligand_efficiency>  (288) 
-0.12113

>  <r_i_glide_ligand_efficiency_sa>  (288) 
-0.358846

>  <r_i_glide_ligand_efficiency_ln>  (288) 
-0.73962

>  <r_i_glide_gscore>  (288) 
-3.14937

>  <r_i_glide_lipo>  (288) 
-0.447142

>  <r_i_glide_hbond>  (288) 
0

>  <r_i_glide_metal>  (288) 
-0

>  <r_i_glide_rewards>  (288) 
-1.03451

>  <r_i_glide_evdw>  (288) 
-26.8008

>  <r_i_glide_ecoul>  (288) 
-2.1845

>  <r_i_glide_erotb>  (288) 
0

>  <r_i_glide_esite>  (288) 
0

>  <r_i_glide_emodel>  (288) 
-33.9331

>  <r_i_glide_energy>  (288) 
-28.9853

>  <r_i_glide_einternal>  (288) 
0.964786

>  <r_i_glide_intrahb_reward>  (288) 
-0

>  <i_i_glide_confnum>  (288) 
1

>  <i_i_glide_posenum>  (288) 
5

>  <r_i_glide_eff_state_penalty>  (288) 
0

>  <ligand_id>  (288) 
70

>  <original_smiles>  (288) 
CC1(C)CCCC2(C)C1CCC1(C)C2CC(O)C23CC(C(=O)CC12)C3O

>  <smiles>  (288) 
[H]OC1([H])C([H])([H])C2([H])C3(C([H])([H])[H])C([H])([H])C([H])([H])C([H])([H])C(C([H])([H])[H])(C([H])([H])[H])C3([H])C([H])([H])C([H])([H])C2(C([H])([H])[H])C2([H])C([H])([H])C(=O)C3([H])C([H])([H])C12C3([H])O[H]

$$$$
71:0:0
     RDKit          3D

 54 58  0  0  1  0  0  0  0  0999 V2000
    8.6239   -4.2789    1.2804 C   0  0  0  0  0  0  0  0  0  0  0  0
    7.3591   -3.6466    1.3432 O   0  0  0  0  0  0  0  0  0  0  0  0
    6.2495   -4.3716    1.2070 C   0  0  0  0  0  0  0  0  0  0  0  0
    6.2497   -5.6016    1.0783 O   0  0  0  0  0  0  0  0  0  0  0  0
    4.9536   -3.5248    1.0541 C   0  0  1  0  0  0  0  0  0  0  0  0
    4.9093   -2.0861    1.7353 C   0  0  0  0  0  0  0  0  0  0  0  0
    5.0475   -0.9034    0.6936 C   0  0  0  0  0  0  0  0  0  0  0  0
    4.2517   -1.6200   -0.4371 C   0  0  1  0  0  0  0  0  0  0  0  0
    3.5412   -1.3640   -1.8114 C   0  0  2  0  0  0  0  0  0  0  0  0
    2.7138   -2.6694   -1.7375 C   0  0  0  0  0  0  0  0  0  0  0  0
    3.9251   -3.6440   -1.6355 C   0  0  1  0  0  0  0  0  0  0  0  0
    4.4509   -3.2925   -3.0757 C   0  0  1  0  0  0  0  0  0  0  0  0
    3.6828   -3.8799   -4.0847 O   0  0  0  0  0  0  0  0  0  0  0  0
    4.2295   -1.7828   -3.1035 C   0  0  0  0  0  0  0  0  0  0  0  0
    4.5198   -1.0521   -4.0473 O   0  0  0  0  0  0  0  0  0  0  0  0
    4.8562   -3.0172   -0.5084 C   0  0  2  0  0  0  0  0  0  0  0  0
    6.3139   -2.8364   -1.1253 C   0  0  0  0  0  0  0  0  0  0  0  0
    4.7663   -2.1488    3.2744 C   0  0  0  0  0  0  0  0  0  0  0  0
    4.2435   -3.6092    3.4706 C   0  0  1  0  0  0  0  0  0  0  0  0
    5.3299   -4.3310    4.3063 C   0  0  0  0  0  0  0  0  0  0  0  0
    3.0152   -4.0566    4.2334 C   0  0  0  0  0  0  0  0  0  0  0  0
    2.4119   -3.4027    5.0901 O   0  0  0  0  0  0  0  0  0  0  0  0
    2.6811   -5.4788    3.7583 C   0  0  0  0  0  0  0  0  0  0  0  0
    3.5126   -5.6368    2.4215 C   0  0  0  0  0  0  0  0  0  0  0  0
    3.8277   -4.1466    2.0261 C   0  0  2  0  0  0  0  0  0  0  0  0
    2.4135   -3.7285    1.4939 C   0  0  0  0  0  0  0  0  0  0  0  0
    9.4070   -3.5156    1.2654 H   0  0  0  0  0  0  0  0  0  0  0  0
    8.6702   -4.8822    0.3779 H   0  0  0  0  0  0  0  0  0  0  0  0
    8.8309   -4.9399    2.1498 H   0  0  0  0  0  0  0  0  0  0  0  0
    3.8744   -1.8161    1.8665 H   0  0  0  0  0  0  0  0  0  0  0  0
    4.5775    0.0264    1.0094 H   0  0  0  0  0  0  0  0  0  0  0  0
    6.0876   -0.6838    0.4718 H   0  0  0  0  0  0  0  0  0  0  0  0
    3.3049   -1.5597    0.0777 H   0  0  0  0  0  0  0  0  0  0  0  0
    2.9281   -0.4958   -1.9466 H   0  0  0  0  0  0  0  0  0  0  0  0
    2.0206   -2.7424   -0.9053 H   0  0  0  0  0  0  0  0  0  0  0  0
    2.0631   -2.8070   -2.6093 H   0  0  0  0  0  0  0  0  0  0  0  0
    3.6770   -4.6474   -1.3998 H   0  0  0  0  0  0  0  0  0  0  0  0
    5.4716   -3.6064   -3.2873 H   0  0  0  0  0  0  0  0  0  0  0  0
    3.4857   -4.7726   -3.8024 H   0  0  0  0  0  0  0  0  0  0  0  0
    6.3862   -2.2722   -2.0553 H   0  0  0  0  0  0  0  0  0  0  0  0
    6.7380   -3.8055   -1.3739 H   0  0  0  0  0  0  0  0  0  0  0  0
    7.0108   -2.2716   -0.5145 H   0  0  0  0  0  0  0  0  0  0  0  0
    5.7456   -1.9793    3.7212 H   0  0  0  0  0  0  0  0  0  0  0  0
    4.0949   -1.3966    3.7125 H   0  0  0  0  0  0  0  0  0  0  0  0
    6.2410   -4.3395    3.7646 H   0  0  0  0  0  0  0  0  0  0  0  0
    5.1304   -5.3743    4.5592 H   0  0  0  0  0  0  0  0  0  0  0  0
    5.4797   -3.8177    5.2612 H   0  0  0  0  0  0  0  0  0  0  0  0
    3.0250   -6.2110    4.4797 H   0  0  0  0  0  0  0  0  0  0  0  0
    1.6050   -5.6140    3.6253 H   0  0  0  0  0  0  0  0  0  0  0  0
    4.3819   -6.2483    2.6674 H   0  0  0  0  0  0  0  0  0  0  0  0
    2.9416   -6.1562    1.6458 H   0  0  0  0  0  0  0  0  0  0  0  0
    1.5745   -4.0668    2.1002 H   0  0  0  0  0  0  0  0  0  0  0  0
    2.2613   -4.2217    0.5404 H   0  0  0  0  0  0  0  0  0  0  0  0
    2.1665   -2.6773    1.3971 H   0  0  0  0  0  0  0  0  0  0  0  0
  1  2  1  0
  1 27  1  0
  1 28  1  0
  1 29  1  0
  2  3  1  0
  3  4  2  0
  5  3  1  6
  5 16  1  0
  5 25  1  0
  5  6  1  0
  6  7  1  0
  6 18  1  0
  6 30  1  0
  7  8  1  0
  7 31  1  0
  7 32  1  0
  8 16  1  0
  8  9  1  0
  8 33  1  1
  9 14  1  0
  9 10  1  0
  9 34  1  6
 10 11  1  0
 10 35  1  0
 10 36  1  0
 11 12  1  0
 11 16  1  0
 11 37  1  1
 12 13  1  0
 12 14  1  0
 12 38  1  1
 13 39  1  0
 14 15  2  0
 16 17  1  6
 17 40  1  0
 17 41  1  0
 17 42  1  0
 18 19  1  0
 18 43  1  0
 18 44  1  0
 19 25  1  0
 19 20  1  1
 19 21  1  0
 20 45  1  0
 20 46  1  0
 20 47  1  0
 21 22  2  0
 21 23  1  0
 23 24  1  0
 23 48  1  0
 23 49  1  0
 24 25  1  0
 24 50  1  0
 24 51  1  0
 25 26  1  6
 26 52  1  0
 26 53  1  0
 26 54  1  0
M  END
>  <i_m_ct_stereo_status>  (289) 
1

>  <s_m_source_file>  (289) 
/var/tmp/pbs.5076255.sched01/tmp2a9bgmzv/100_xx7n39i.sdf

>  <i_m_source_file_index>  (289) 
38

>  <i_lp_mmshare_version>  (289) 
48012

>  <i_f3d_flags>  (289) 
0

>  <s_epik_input>  (289) 
Tz1DMVtDSDJdW0NIMl1bQ0BAXTIoW0NIM10pW0NAQF0xKFtDSDNdKVtDSDJdW0NASF0oW0NAQF0yM0MoPU8pT1tDSDNdKVtDSDJdW0NASF00W0NAQEhdNVtDSDJdW0NAQEhdKFtDQEBIXShbT0hdKUM1PU8pW0NAXTM0W0NIM10=

>  <s_epik_cmdline>  (289) 
J2VwaWtfcHl0aG9uJywgJy1waHQnLCAnMi4wJywgJy1waCcsICc3LjAnLCAnLXRuJywgJzgnLCAnLW1hJywgJzIwMCcsICctaW1hZScsICc8aW5maWxlLm1hZT4nLCAnLW9tYWUnLCAnPG91dGZpbGUubWFlPic=

>  <r_lp_tautomer_probability>  (289) 
1

>  <r_epik_Ionization_Penalty>  (289) 
7.58817e-08

>  <r_epik_Ionization_Penalty_Charging>  (289) 
0

>  <r_epik_Ionization_Penalty_Neutral>  (289) 
7.58817e-08

>  <r_epik_State_Penalty>  (289) 
-0

>  <r_epik_Charging_Adjusted_Penalty>  (289) 
0

>  <i_epik_Tot_Q>  (289) 
0

>  <i_epik_Tot_abs_Q>  (289) 
0

>  <s_epik_Chemistry_Notes>  (289) 
This compound has an ester and may undergo hydrolysis at high or low pH.

>  <s_lp_Force_Field>  (289) 
OPLS3e

>  <r_lp_Energy>  (289) 
192.521

>  <b_lp_Chiralities_Consistent>  (289) 
1

>  <s_lp_Variant>  (289) 
71:0-1

>  <s_i_glide_gridfile>  (289) 
pfpi4k_grid

>  <i_i_glide_lignum>  (289) 
38

>  <i_i_glide_rotatable_bonds>  (289) 
3

>  <r_i_docking_score>  (289) 
-3.43564

>  <r_i_glide_ligand_efficiency>  (289) 
-0.13214

>  <r_i_glide_ligand_efficiency_sa>  (289) 
-0.391464

>  <r_i_glide_ligand_efficiency_ln>  (289) 
-0.806849

>  <r_i_glide_gscore>  (289) 
-3.43564

>  <r_i_glide_lipo>  (289) 
-0.377821

>  <r_i_glide_hbond>  (289) 
0

>  <r_i_glide_metal>  (289) 
-0

>  <r_i_glide_rewards>  (289) 
-1.18244

>  <r_i_glide_evdw>  (289) 
-19.0751

>  <r_i_glide_ecoul>  (289) 
-7.1283

>  <r_i_glide_erotb>  (289) 
0.147622

>  <r_i_glide_esite>  (289) 
0

>  <r_i_glide_emodel>  (289) 
-27.03

>  <r_i_glide_energy>  (289) 
-26.2034

>  <r_i_glide_einternal>  (289) 
5.8064

>  <r_i_glide_intrahb_reward>  (289) 
-0

>  <i_i_glide_confnum>  (289) 
4

>  <i_i_glide_posenum>  (289) 
15

>  <r_i_glide_eff_state_penalty>  (289) 
0

>  <ligand_id>  (289) 
71

>  <original_smiles>  (289) 
COC(=O)C12C(CC3C4CC(C(O)C4=O)C31C)CC1(C)C(=O)CCC12C

>  <smiles>  (289) 
[H]OC1([H])C(=O)C2([H])C([H])([H])C1([H])C1(C([H])([H])[H])C2([H])C([H])([H])C2([H])C([H])([H])C3(C([H])([H])[H])C(=O)C([H])([H])C([H])([H])C3(C([H])([H])[H])C21C(=O)OC([H])([H])[H]

$$$$
71:0:1
     RDKit          3D

 54 58  0  0  1  0  0  0  0  0999 V2000
    8.6749   -3.9730    1.0703 C   0  0  0  0  0  0  0  0  0  0  0  0
    7.3596   -3.4694    1.2750 O   0  0  0  0  0  0  0  0  0  0  0  0
    6.3159   -4.2704    1.1425 C   0  0  0  0  0  0  0  0  0  0  0  0
    6.4247   -5.5124    1.0300 O   0  0  0  0  0  0  0  0  0  0  0  0
    4.9529   -3.5395    0.9784 C   0  0  1  0  0  0  0  0  0  0  0  0
    4.7488   -2.1454    1.7438 C   0  0  0  0  0  0  0  0  0  0  0  0
    4.8245   -0.8959    0.7752 C   0  0  0  0  0  0  0  0  0  0  0  0
    4.1688   -1.6165   -0.4370 C   0  0  1  0  0  0  0  0  0  0  0  0
    3.4703   -1.3394   -1.8172 C   0  0  2  0  0  0  0  0  0  0  0  0
    2.7542   -2.7089   -1.8629 C   0  0  0  0  0  0  0  0  0  0  0  0
    4.0485   -3.5617   -1.7535 C   0  0  1  0  0  0  0  0  0  0  0  0
    4.6042   -3.1175   -3.1542 C   0  0  1  0  0  0  0  0  0  0  0  0
    3.9870   -3.7550   -4.2464 O   0  0  0  0  0  0  0  0  0  0  0  0
    4.2254   -1.6231   -3.1117 C   0  0  0  0  0  0  0  0  0  0  0  0
    4.4141   -0.8131   -4.0189 O   0  0  0  0  0  0  0  0  0  0  0  0
    4.8830   -2.9502   -0.5559 C   0  0  2  0  0  0  0  0  0  0  0  0
    6.3373   -2.6237   -1.1140 C   0  0  0  0  0  0  0  0  0  0  0  0
    4.5250   -2.3039    3.2646 C   0  0  0  0  0  0  0  0  0  0  0  0
    4.1371   -3.8183    3.3498 C   0  0  1  0  0  0  0  0  0  0  0  0
    5.2652   -4.4642    4.2041 C   0  0  0  0  0  0  0  0  0  0  0  0
    2.9124   -4.4194    4.0235 C   0  0  0  0  0  0  0  0  0  0  0  0
    2.2051   -3.8798    4.8657 O   0  0  0  0  0  0  0  0  0  0  0  0
    2.7471   -5.8452    3.4462 C   0  0  0  0  0  0  0  0  0  0  0  0
    3.6498   -5.8409    2.1599 C   0  0  0  0  0  0  0  0  0  0  0  0
    3.8476   -4.3173    1.8595 C   0  0  2  0  0  0  0  0  0  0  0  0
    2.4354   -4.0083    1.2574 C   0  0  0  0  0  0  0  0  0  0  0  0
    9.3692   -3.1304    1.1077 H   0  0  0  0  0  0  0  0  0  0  0  0
    8.6740   -4.3868    0.0661 H   0  0  0  0  0  0  0  0  0  0  0  0
    8.9912   -4.7317    1.7835 H   0  0  0  0  0  0  0  0  0  0  0  0
    3.6854   -1.9843    1.8291 H   0  0  0  0  0  0  0  0  0  0  0  0
    4.2479   -0.0368    1.1100 H   0  0  0  0  0  0  0  0  0  0  0  0
    5.8480   -0.5661    0.6182 H   0  0  0  0  0  0  0  0  0  0  0  0
    3.1941   -1.6707    0.0326 H   0  0  0  0  0  0  0  0  0  0  0  0
    2.7782   -0.5080   -1.9166 H   0  0  0  0  0  0  0  0  0  0  0  0
    2.0228   -2.8696   -1.0767 H   0  0  0  0  0  0  0  0  0  0  0  0
    2.1642   -2.8354   -2.7697 H   0  0  0  0  0  0  0  0  0  0  0  0
    3.9118   -4.6307   -1.5744 H   0  0  0  0  0  0  0  0  0  0  0  0
    5.6676   -3.2800   -3.3223 H   0  0  0  0  0  0  0  0  0  0  0  0
    3.0518   -3.6940   -4.1217 H   0  0  0  0  0  0  0  0  0  0  0  0
    6.4004   -2.0099   -1.9991 H   0  0  0  0  0  0  0  0  0  0  0  0
    6.8643   -3.5362   -1.3638 H   0  0  0  0  0  0  0  0  0  0  0  0
    6.9480   -2.0099   -0.4481 H   0  0  0  0  0  0  0  0  0  0  0  0
    5.4562   -2.0732    3.7808 H   0  0  0  0  0  0  0  0  0  0  0  0
    3.7659   -1.6484    3.7053 H   0  0  0  0  0  0  0  0  0  0  0  0
    6.2258   -4.2801    3.7569 H   0  0  0  0  0  0  0  0  0  0  0  0
    5.1690   -5.5388    4.3697 H   0  0  0  0  0  0  0  0  0  0  0  0
    5.2701   -4.0194    5.2086 H   0  0  0  0  0  0  0  0  0  0  0  0
    3.1197   -6.5805    4.1550 H   0  0  0  0  0  0  0  0  0  0  0  0
    1.6945   -6.0693    3.2515 H   0  0  0  0  0  0  0  0  0  0  0  0
    4.5608   -6.3916    2.4186 H   0  0  0  0  0  0  0  0  0  0  0  0
    3.1721   -6.3677    1.3265 H   0  0  0  0  0  0  0  0  0  0  0  0
    1.6116   -4.4606    1.7961 H   0  0  0  0  0  0  0  0  0  0  0  0
    2.3738   -4.4480    0.2683 H   0  0  0  0  0  0  0  0  0  0  0  0
    2.1008   -2.9785    1.2112 H   0  0  0  0  0  0  0  0  0  0  0  0
  1  2  1  0
  1 27  1  0
  1 28  1  0
  1 29  1  0
  2  3  1  0
  3  4  2  0
  5  3  1  1
  5 16  1  0
  5 25  1  0
  5  6  1  0
  6  7  1  0
  6 18  1  0
  6 30  1  0
  7  8  1  0
  7 31  1  0
  7 32  1  0
  8 16  1  0
  8  9  1  0
  8 33  1  1
  9 14  1  0
  9 10  1  0
  9 34  1  1
 10 11  1  0
 10 35  1  0
 10 36  1  0
 11 12  1  0
 11 16  1  0
 11 37  1  6
 12 13  1  0
 12 14  1  0
 12 38  1  1
 13 39  1  0
 14 15  2  0
 16 17  1  6
 17 40  1  0
 17 41  1  0
 17 42  1  0
 18 19  1  0
 18 43  1  0
 18 44  1  0
 19 25  1  0
 19 20  1  1
 19 21  1  0
 20 45  1  0
 20 46  1  0
 20 47  1  0
 21 22  2  0
 21 23  1  0
 23 24  1  0
 23 48  1  0
 23 49  1  0
 24 25  1  0
 24 50  1  0
 24 51  1  0
 25 26  1  6
 26 52  1  0
 26 53  1  0
 26 54  1  0
M  END
>  <i_m_ct_stereo_status>  (290) 
1

>  <s_m_source_file>  (290) 
/var/tmp/pbs.5076255.sched01/tmp2a9bgmzv/100_xx7n39i.sdf

>  <i_m_source_file_index>  (290) 
38

>  <i_lp_mmshare_version>  (290) 
48012

>  <i_f3d_flags>  (290) 
0

>  <s_epik_input>  (290) 
Tz1DMVtDSDJdW0NIMl1bQ0BAXTIoW0NIM10pW0NAQF0xKFtDSDNdKVtDSDJdW0NASF0oW0NAQF0yM0MoPU8pT1tDSDNdKVtDSDJdW0NASF00W0NAQEhdNVtDSDJdW0NAQEhdKFtDQEBIXShbT0hdKUM1PU8pW0NAXTM0W0NIM10=

>  <s_epik_cmdline>  (290) 
J2VwaWtfcHl0aG9uJywgJy1waHQnLCAnMi4wJywgJy1waCcsICc3LjAnLCAnLXRuJywgJzgnLCAnLW1hJywgJzIwMCcsICctaW1hZScsICc8aW5maWxlLm1hZT4nLCAnLW9tYWUnLCAnPG91dGZpbGUubWFlPic=

>  <r_lp_tautomer_probability>  (290) 
1

>  <r_epik_Ionization_Penalty>  (290) 
7.58817e-08

>  <r_epik_Ionization_Penalty_Charging>  (290) 
0

>  <r_epik_Ionization_Penalty_Neutral>  (290) 
7.58817e-08

>  <r_epik_State_Penalty>  (290) 
-0

>  <r_epik_Charging_Adjusted_Penalty>  (290) 
0

>  <i_epik_Tot_Q>  (290) 
0

>  <i_epik_Tot_abs_Q>  (290) 
0

>  <s_epik_Chemistry_Notes>  (290) 
This compound has an ester and may undergo hydrolysis at high or low pH.

>  <s_lp_Force_Field>  (290) 
OPLS3e

>  <r_lp_Energy>  (290) 
192.521

>  <b_lp_Chiralities_Consistent>  (290) 
1

>  <s_lp_Variant>  (290) 
71:0-1

>  <s_i_glide_gridfile>  (290) 
pfpi4k_grid

>  <i_i_glide_lignum>  (290) 
38

>  <i_i_glide_rotatable_bonds>  (290) 
3

>  <r_i_docking_score>  (290) 
-3.13036

>  <r_i_glide_ligand_efficiency>  (290) 
-0.120398

>  <r_i_glide_ligand_efficiency_sa>  (290) 
-0.35668

>  <r_i_glide_ligand_efficiency_ln>  (290) 
-0.735154

>  <r_i_glide_gscore>  (290) 
-3.13036

>  <r_i_glide_lipo>  (290) 
-0.371215

>  <r_i_glide_hbond>  (290) 
0

>  <r_i_glide_metal>  (290) 
-0

>  <r_i_glide_rewards>  (290) 
-1.16396

>  <r_i_glide_evdw>  (290) 
-21.6913

>  <r_i_glide_ecoul>  (290) 
-4.38826

>  <r_i_glide_erotb>  (290) 
0.147622

>  <r_i_glide_esite>  (290) 
0

>  <r_i_glide_emodel>  (290) 
-24.9243

>  <r_i_glide_energy>  (290) 
-26.0796

>  <r_i_glide_einternal>  (290) 
8.86017

>  <r_i_glide_intrahb_reward>  (290) 
-0

>  <i_i_glide_confnum>  (290) 
4

>  <i_i_glide_posenum>  (290) 
16

>  <r_i_glide_eff_state_penalty>  (290) 
0

>  <ligand_id>  (290) 
71

>  <original_smiles>  (290) 
COC(=O)C12C(CC3C4CC(C(O)C4=O)C31C)CC1(C)C(=O)CCC12C

>  <smiles>  (290) 
[H]OC1([H])C(=O)C2([H])C([H])([H])C1([H])C1(C([H])([H])[H])C2([H])C([H])([H])C2([H])C([H])([H])C3(C([H])([H])[H])C(=O)C([H])([H])C([H])([H])C3(C([H])([H])[H])C21C(=O)OC([H])([H])[H]

$$$$
71:0:2
     RDKit          3D

 54 58  0  0  1  0  0  0  0  0999 V2000
    3.2403    0.0716    3.3184 C   0  0  0  0  0  0  0  0  0  0  0  0
    3.6911   -1.2438    3.0482 O   0  0  0  0  0  0  0  0  0  0  0  0
    2.9992   -2.0131    2.1810 C   0  0  0  0  0  0  0  0  0  0  0  0
    1.8692   -1.7457    1.7717 O   0  0  0  0  0  0  0  0  0  0  0  0
    3.6902   -3.3543    1.7950 C   0  0  1  0  0  0  0  0  0  0  0  0
    5.1611   -3.5690    2.3500 C   0  0  2  0  0  0  0  0  0  0  0  0
    5.2145   -4.5964    3.5427 C   0  0  0  0  0  0  0  0  0  0  0  0
    4.0975   -5.5106    2.9698 C   0  0  1  0  0  0  0  0  0  0  0  0
    3.5397   -6.9705    3.1005 C   0  0  2  0  0  0  0  0  0  0  0  0
    2.8823   -6.9774    1.6935 C   0  0  0  0  0  0  0  0  0  0  0  0
    1.9944   -5.7174    1.9339 C   0  0  1  0  0  0  0  0  0  0  0  0
    1.1177   -6.3787    3.0519 C   0  0  1  0  0  0  0  0  0  0  0  0
    0.1216   -7.2435    2.5228 O   0  0  0  0  0  0  0  0  0  0  0  0
    2.2087   -7.1336    3.8396 C   0  0  0  0  0  0  0  0  0  0  0  0
    2.0441   -7.7664    4.8872 O   0  0  0  0  0  0  0  0  0  0  0  0
    2.9454   -4.5942    2.5604 C   0  0  2  0  0  0  0  0  0  0  0  0
    2.3140   -4.0340    3.9134 C   0  0  0  0  0  0  0  0  0  0  0  0
    6.1890   -2.6370    1.6689 C   0  0  0  0  0  0  0  0  0  0  0  0
    5.4139   -2.2222    0.3806 C   0  0  1  0  0  0  0  0  0  0  0  0
    5.2962   -0.6623    0.4276 C   0  0  0  0  0  0  0  0  0  0  0  0
    5.8686   -2.3577   -1.0604 C   0  0  0  0  0  0  0  0  0  0  0  0
    7.0300   -2.4161   -1.4634 O   0  0  0  0  0  0  0  0  0  0  0  0
    4.6002   -2.2761   -1.9314 C   0  0  0  0  0  0  0  0  0  0  0  0
    3.4350   -2.5268   -0.9083 C   0  0  0  0  0  0  0  0  0  0  0  0
    4.1589   -3.2180    0.2770 C   0  0  2  0  0  0  0  0  0  0  0  0
    4.3692   -4.6653   -0.3270 C   0  0  0  0  0  0  0  0  0  0  0  0
    4.0438    0.6438    3.7831 H   0  0  0  0  0  0  0  0  0  0  0  0
    2.3587    0.1030    3.9659 H   0  0  0  0  0  0  0  0  0  0  0  0
    2.9975    0.5747    2.3820 H   0  0  0  0  0  0  0  0  0  0  0  0
    5.6697   -4.2766    1.7183 H   0  0  0  0  0  0  0  0  0  0  0  0
    6.1741   -5.1096    3.6334 H   0  0  0  0  0  0  0  0  0  0  0  0
    4.9679   -4.1465    4.5046 H   0  0  0  0  0  0  0  0  0  0  0  0
    4.7063   -5.8398    2.1377 H   0  0  0  0  0  0  0  0  0  0  0  0
    4.2707   -7.7619    3.2619 H   0  0  0  0  0  0  0  0  0  0  0  0
    3.5738   -6.9028    0.8575 H   0  0  0  0  0  0  0  0  0  0  0  0
    2.3309   -7.8955    1.4754 H   0  0  0  0  0  0  0  0  0  0  0  0
    1.4237   -5.4063    1.0623 H   0  0  0  0  0  0  0  0  0  0  0  0
    0.5759   -5.6872    3.6937 H   0  0  0  0  0  0  0  0  0  0  0  0
    0.5349   -8.0134    2.1770 H   0  0  0  0  0  0  0  0  0  0  0  0
    2.1935   -4.7517    4.7227 H   0  0  0  0  0  0  0  0  0  0  0  0
    1.3350   -3.5816    3.7389 H   0  0  0  0  0  0  0  0  0  0  0  0
    2.9367   -3.2893    4.4022 H   0  0  0  0  0  0  0  0  0  0  0  0
    6.3892   -1.7781    2.3106 H   0  0  0  0  0  0  0  0  0  0  0  0
    7.1560   -3.0987    1.4432 H   0  0  0  0  0  0  0  0  0  0  0  0
    4.8722   -0.2182    1.3200 H   0  0  0  0  0  0  0  0  0  0  0  0
    4.7624   -0.2181   -0.4114 H   0  0  0  0  0  0  0  0  0  0  0  0
    6.3028   -0.2267    0.3533 H   0  0  0  0  0  0  0  0  0  0  0  0
    4.5236   -1.2894   -2.3851 H   0  0  0  0  0  0  0  0  0  0  0  0
    4.6361   -3.0112   -2.7345 H   0  0  0  0  0  0  0  0  0  0  0  0
    3.0006   -1.5747   -0.6097 H   0  0  0  0  0  0  0  0  0  0  0  0
    2.6367   -3.1337   -1.3436 H   0  0  0  0  0  0  0  0  0  0  0  0
    4.7025   -4.6930   -1.3600 H   0  0  0  0  0  0  0  0  0  0  0  0
    3.4027   -5.1605   -0.3530 H   0  0  0  0  0  0  0  0  0  0  0  0
    5.0837   -5.3268    0.1492 H   0  0  0  0  0  0  0  0  0  0  0  0
  1  2  1  0
  1 27  1  0
  1 28  1  0
  1 29  1  0
  2  3  1  0
  3  4  2  0
  5  3  1  1
  5 16  1  0
  5 25  1  0
  5  6  1  0
  6  7  1  0
  6 18  1  0
  6 30  1  6
  7  8  1  0
  7 31  1  0
  7 32  1  0
  8 16  1  0
  8  9  1  0
  8 33  1  6
  9 14  1  0
  9 10  1  0
  9 34  1  6
 10 11  1  0
 10 35  1  0
 10 36  1  0
 11 12  1  0
 11 16  1  0
 11 37  1  6
 12 13  1  0
 12 14  1  0
 12 38  1  1
 13 39  1  0
 14 15  2  0
 16 17  1  1
 17 40  1  0
 17 41  1  0
 17 42  1  0
 18 19  1  0
 18 43  1  0
 18 44  1  0
 19 25  1  0
 19 20  1  1
 19 21  1  0
 20 45  1  0
 20 46  1  0
 20 47  1  0
 21 22  2  0
 21 23  1  0
 23 24  1  0
 23 48  1  0
 23 49  1  0
 24 25  1  0
 24 50  1  0
 24 51  1  0
 25 26  1  6
 26 52  1  0
 26 53  1  0
 26 54  1  0
M  END
>  <i_m_ct_stereo_status>  (291) 
1

>  <s_m_source_file>  (291) 
/var/tmp/pbs.5076255.sched01/tmp2a9bgmzv/100_xx7n39i.sdf

>  <i_m_source_file_index>  (291) 
38

>  <i_lp_mmshare_version>  (291) 
48012

>  <i_f3d_flags>  (291) 
0

>  <s_epik_input>  (291) 
Tz1DMVtDSDJdW0NIMl1bQ0BAXTIoW0NIM10pW0NAQF0xKFtDSDNdKVtDSDJdW0NASF0oW0NAQF0yM0MoPU8pT1tDSDNdKVtDSDJdW0NASF00W0NAQEhdNVtDSDJdW0NAQEhdKFtDQEBIXShbT0hdKUM1PU8pW0NAXTM0W0NIM10=

>  <s_epik_cmdline>  (291) 
J2VwaWtfcHl0aG9uJywgJy1waHQnLCAnMi4wJywgJy1waCcsICc3LjAnLCAnLXRuJywgJzgnLCAnLW1hJywgJzIwMCcsICctaW1hZScsICc8aW5maWxlLm1hZT4nLCAnLW9tYWUnLCAnPG91dGZpbGUubWFlPic=

>  <r_lp_tautomer_probability>  (291) 
1

>  <r_epik_Ionization_Penalty>  (291) 
7.58817e-08

>  <r_epik_Ionization_Penalty_Charging>  (291) 
0

>  <r_epik_Ionization_Penalty_Neutral>  (291) 
7.58817e-08

>  <r_epik_State_Penalty>  (291) 
-0

>  <r_epik_Charging_Adjusted_Penalty>  (291) 
0

>  <i_epik_Tot_Q>  (291) 
0

>  <i_epik_Tot_abs_Q>  (291) 
0

>  <s_epik_Chemistry_Notes>  (291) 
This compound has an ester and may undergo hydrolysis at high or low pH.

>  <s_lp_Force_Field>  (291) 
OPLS3e

>  <r_lp_Energy>  (291) 
192.521

>  <b_lp_Chiralities_Consistent>  (291) 
1

>  <s_lp_Variant>  (291) 
71:0-1

>  <s_i_glide_gridfile>  (291) 
pfpi4k_grid

>  <i_i_glide_lignum>  (291) 
38

>  <i_i_glide_rotatable_bonds>  (291) 
3

>  <r_i_docking_score>  (291) 
-2.96967

>  <r_i_glide_ligand_efficiency>  (291) 
-0.114218

>  <r_i_glide_ligand_efficiency_sa>  (291) 
-0.338371

>  <r_i_glide_ligand_efficiency_ln>  (291) 
-0.697418

>  <r_i_glide_gscore>  (291) 
-2.96967

>  <r_i_glide_lipo>  (291) 
-0.351764

>  <r_i_glide_hbond>  (291) 
-0.16

>  <r_i_glide_metal>  (291) 
-0

>  <r_i_glide_rewards>  (291) 
-0.951518

>  <r_i_glide_evdw>  (291) 
-26.1111

>  <r_i_glide_ecoul>  (291) 
-2.06664

>  <r_i_glide_erotb>  (291) 
0.147622

>  <r_i_glide_esite>  (291) 
-0.0384614

>  <r_i_glide_emodel>  (291) 
-30.1275

>  <r_i_glide_energy>  (291) 
-28.1777

>  <r_i_glide_einternal>  (291) 
3.92422

>  <r_i_glide_intrahb_reward>  (291) 
-0

>  <i_i_glide_confnum>  (291) 
4

>  <i_i_glide_posenum>  (291) 
21

>  <r_i_glide_eff_state_penalty>  (291) 
0

>  <ligand_id>  (291) 
71

>  <original_smiles>  (291) 
COC(=O)C12C(CC3C4CC(C(O)C4=O)C31C)CC1(C)C(=O)CCC12C

>  <smiles>  (291) 
[H]OC1([H])C(=O)C2([H])C([H])([H])C1([H])C1(C([H])([H])[H])C2([H])C([H])([H])C2([H])C([H])([H])C3(C([H])([H])[H])C(=O)C([H])([H])C([H])([H])C3(C([H])([H])[H])C21C(=O)OC([H])([H])[H]

$$$$
72:0:0
     RDKit          3D

 30 36  0  0  1  0  0  0  0  0999 V2000
    5.0295   -1.3418   -1.9224 C   0  0  0  0  0  0  0  0  0  0  0  0
    4.2008   -1.6450   -0.6692 C   0  0  2  0  0  0  0  0  0  0  0  0
    4.2758   -1.0984    0.4967 C   0  0  1  0  0  0  0  0  0  0  0  0
    3.1860   -2.3842    0.4016 C   0  0  1  0  0  0  0  0  0  0  0  0
    2.8610   -3.3450   -1.3349 C   0  0  0  0  0  0  0  0  0  0  0  0
    4.6078   -3.7755   -1.6768 C   0  0  1  0  0  0  0  0  0  0  0  0
    5.7693   -2.5864   -1.8320 C   0  0  2  0  0  0  0  0  0  0  0  0
    6.6033   -2.2685   -0.4867 C   0  0  1  0  0  0  0  0  0  0  0  0
    5.8317   -1.4117    0.6870 C   0  0  2  0  0  0  0  0  0  0  0  0
    5.7233   -2.6813    1.5022 C   0  0  1  0  0  0  0  0  0  0  0  0
    4.2057   -3.0042    1.5256 C   0  0  1  0  0  0  0  0  0  0  0  0
    4.3852   -3.3743    0.2446 C   0  0  2  0  0  0  0  0  0  0  0  0
    5.3470   -4.2689   -0.3633 C   0  0  2  0  0  0  0  0  0  0  0  0
    6.4244   -3.4879    0.3459 C   0  0  1  0  0  0  0  0  0  0  0  0
    5.6344   -0.4358   -1.8613 H   0  0  0  0  0  0  0  0  0  0  0  0
    4.4413   -1.3193   -2.8431 H   0  0  0  0  0  0  0  0  0  0  0  0
    3.3302   -1.0752   -1.1372 H   0  0  0  0  0  0  0  0  0  0  0  0
    3.9332   -0.0632    0.5240 H   0  0  0  0  0  0  0  0  0  0  0  0
    2.2363   -2.1077    0.8694 H   0  0  0  0  0  0  0  0  0  0  0  0
    2.2476   -4.2387   -1.1994 H   0  0  0  0  0  0  0  0  0  0  0  0
    2.3948   -2.7484   -2.1243 H   0  0  0  0  0  0  0  0  0  0  0  0
    4.6943   -4.5002   -2.4855 H   0  0  0  0  0  0  0  0  0  0  0  0
    6.4221   -2.7589   -2.6890 H   0  0  0  0  0  0  0  0  0  0  0  0
    7.6475   -1.9847   -0.6128 H   0  0  0  0  0  0  0  0  0  0  0  0
    6.4374   -0.6449    1.1666 H   0  0  0  0  0  0  0  0  0  0  0  0
    6.2431   -2.6579    2.4573 H   0  0  0  0  0  0  0  0  0  0  0  0
    3.8676   -3.7911    2.2052 H   0  0  0  0  0  0  0  0  0  0  0  0
    3.7605   -4.3341    0.3858 H   0  0  0  0  0  0  0  0  0  0  0  0
    5.2945   -5.3349   -0.1149 H   0  0  0  0  0  0  0  0  0  0  0  0
    7.3440   -4.0127    0.6074 H   0  0  0  0  0  0  0  0  0  0  0  0
  1  7  1  0
  1  2  1  0
  1 15  1  0
  1 16  1  0
  2 12  1  0
  2  3  1  0
  2 17  1  6
  3  9  1  0
  3  4  1  0
  3 18  1  6
  4 11  1  0
  4  5  1  0
  4 19  1  1
  5  6  1  0
  5 20  1  0
  5 21  1  0
  6 13  1  0
  6  7  1  0
  6 22  1  6
  7  8  1  0
  7 23  1  6
  8 14  1  0
  8  9  1  0
  8 24  1  6
  9 10  1  0
  9 25  1  1
 10 14  1  0
 10 11  1  0
 10 26  1  1
 11 12  1  0
 11 27  1  1
 12 13  1  0
 12 28  1  6
 13 14  1  0
 13 29  1  1
 14 30  1  1
M  END
>  <i_m_ct_stereo_status>  (292) 
1

>  <s_m_source_file>  (292) 
/var/tmp/pbs.5076255.sched01/tmp2a9bgmzv/100_xx7n39i.sdf

>  <i_m_source_file_index>  (292) 
39

>  <i_lp_mmshare_version>  (292) 
48012

>  <i_f3d_flags>  (292) 
0

>  <s_epik_input>  (292) 
W0NAQEhdMTJbQ0BIXShbQ0BASF0zNClbQ0BASF0oW0NIMl01KVtDQEBIXShbQ0gyXTYpW0NASF0zW0NAQEhdN1tDQEhdNFtDQEhdMltDQEhdNVtDQEBIXTdbQ0BIXTE2

>  <s_epik_cmdline>  (292) 
J2VwaWtfcHl0aG9uJywgJy1waHQnLCAnMi4wJywgJy1waCcsICc3LjAnLCAnLXRuJywgJzgnLCAnLW1hJywgJzIwMCcsICctaW1hZScsICc8aW5maWxlLm1hZT4nLCAnLW9tYWUnLCAnPG91dGZpbGUubWFlPic=

>  <r_lp_tautomer_probability>  (292) 
1

>  <r_epik_Ionization_Penalty>  (292) 
0

>  <r_epik_Ionization_Penalty_Charging>  (292) 
0

>  <r_epik_Ionization_Penalty_Neutral>  (292) 
0

>  <r_epik_State_Penalty>  (292) 
-0

>  <r_epik_Charging_Adjusted_Penalty>  (292) 
0

>  <i_epik_Tot_Q>  (292) 
0

>  <i_epik_Tot_abs_Q>  (292) 
0

>  <s_lp_Force_Field>  (292) 
OPLS3e

>  <r_lp_Energy>  (292) 
671.139

>  <b_lp_Chiralities_Consistent>  (292) 
1

>  <s_lp_Variant>  (292) 
72:0-1

>  <s_i_glide_gridfile>  (292) 
pfpi4k_grid

>  <i_i_glide_lignum>  (292) 
39

>  <i_i_glide_rotatable_bonds>  (292) 
0

>  <r_i_docking_score>  (292) 
-3.6872

>  <r_i_glide_ligand_efficiency>  (292) 
-0.263371

>  <r_i_glide_ligand_efficiency_sa>  (292) 
-0.634762

>  <r_i_glide_ligand_efficiency_ln>  (292) 
-1.01323

>  <r_i_glide_gscore>  (292) 
-3.6872

>  <r_i_glide_lipo>  (292) 
-0.483657

>  <r_i_glide_hbond>  (292) 
0

>  <r_i_glide_metal>  (292) 
-0

>  <r_i_glide_rewards>  (292) 
-2.15266

>  <r_i_glide_evdw>  (292) 
-18.6961

>  <r_i_glide_ecoul>  (292) 
-0.773848

>  <r_i_glide_erotb>  (292) 
0

>  <r_i_glide_esite>  (292) 
0

>  <r_i_glide_emodel>  (292) 
-23.9759

>  <r_i_glide_energy>  (292) 
-19.4699

>  <r_i_glide_einternal>  (292) 
0

>  <r_i_glide_intrahb_reward>  (292) 
-0

>  <i_i_glide_confnum>  (292) 
1

>  <i_i_glide_posenum>  (292) 
4

>  <r_i_glide_eff_state_penalty>  (292) 
0

>  <ligand_id>  (292) 
72

>  <original_smiles>  (292) 
C1C2C3C4CC5C1C1C3C3C4C2C5C13

>  <smiles>  (292) 
[H]C1([H])C2([H])C3([H])C4([H])C([H])([H])C5([H])C1([H])C1([H])C3([H])C3([H])C4([H])C2([H])C5([H])C13[H]

$$$$
72:0:1
     RDKit          3D

 30 36  0  0  1  0  0  0  0  0999 V2000
    4.2417   -0.9968    0.5643 C   0  0  0  0  0  0  0  0  0  0  0  0
    3.8687   -2.4463    0.2260 C   0  0  2  0  0  0  0  0  0  0  0  0
    3.8463   -3.4713    1.0093 C   0  0  1  0  0  0  0  0  0  0  0  0
    3.5226   -3.8277   -0.6066 C   0  0  1  0  0  0  0  0  0  0  0  0
    3.4456   -2.3808   -1.9990 C   0  0  0  0  0  0  0  0  0  0  0  0
    5.1005   -1.6743   -1.6722 C   0  0  1  0  0  0  0  0  0  0  0  0
    5.4930   -1.0752   -0.1612 C   0  0  2  0  0  0  0  0  0  0  0  0
    6.2641   -2.1086    0.8063 C   0  0  1  0  0  0  0  0  0  0  0  0
    5.3658   -3.3092    1.4821 C   0  0  2  0  0  0  0  0  0  0  0  0
    6.0231   -4.2896    0.5376 C   0  0  1  0  0  0  0  0  0  0  0  0
    4.8755   -4.7351   -0.4111 C   0  0  1  0  0  0  0  0  0  0  0  0
    5.0129   -3.5146   -0.9626 C   0  0  2  0  0  0  0  0  0  0  0  0
    6.1838   -2.8147   -1.4514 C   0  0  2  0  0  0  0  0  0  0  0  0
    6.8377   -3.1162   -0.1248 C   0  0  1  0  0  0  0  0  0  0  0  0
    4.3384   -0.7774    1.6307 H   0  0  0  0  0  0  0  0  0  0  0  0
    3.5840   -0.2584    0.1002 H   0  0  0  0  0  0  0  0  0  0  0  0
    2.7718   -2.1344    0.2125 H   0  0  0  0  0  0  0  0  0  0  0  0
    3.0509   -3.4422    1.7555 H   0  0  0  0  0  0  0  0  0  0  0  0
    2.6476   -4.4784   -0.6872 H   0  0  0  0  0  0  0  0  0  0  0  0
    3.3760   -2.7902   -3.0095 H   0  0  0  0  0  0  0  0  0  0  0  0
    2.6340   -1.6562   -1.8897 H   0  0  0  0  0  0  0  0  0  0  0  0
    5.3994   -0.9728   -2.4494 H   0  0  0  0  0  0  0  0  0  0  0  0
    6.0078   -0.1175   -0.2118 H   0  0  0  0  0  0  0  0  0  0  0  0
    6.9925   -1.6771    1.4912 H   0  0  0  0  0  0  0  0  0  0  0  0
    5.5803   -3.5056    2.5325 H   0  0  0  0  0  0  0  0  0  0  0  0
    6.6136   -5.0662    1.0233 H   0  0  0  0  0  0  0  0  0  0  0  0
    5.0641   -5.5821   -1.0760 H   0  0  0  0  0  0  0  0  0  0  0  0
    4.9660   -3.9428   -2.0332 H   0  0  0  0  0  0  0  0  0  0  0  0
    6.6976   -3.2165   -2.3320 H   0  0  0  0  0  0  0  0  0  0  0  0
    7.9244   -3.2077   -0.1014 H   0  0  0  0  0  0  0  0  0  0  0  0
  1  7  1  0
  1  2  1  0
  1 15  1  0
  1 16  1  0
  2 12  1  0
  2  3  1  0
  2 17  1  6
  3  9  1  0
  3  4  1  0
  3 18  1  1
  4 11  1  0
  4  5  1  0
  4 19  1  1
  5  6  1  0
  5 20  1  0
  5 21  1  0
  6 13  1  0
  6  7  1  0
  6 22  1  6
  7  8  1  0
  7 23  1  6
  8 14  1  0
  8  9  1  0
  8 24  1  1
  9 10  1  0
  9 25  1  1
 10 14  1  0
 10 11  1  0
 10 26  1  1
 11 12  1  0
 11 27  1  6
 12 13  1  0
 12 28  1  6
 13 14  1  0
 13 29  1  6
 14 30  1  6
M  END
>  <i_m_ct_stereo_status>  (293) 
1

>  <s_m_source_file>  (293) 
/var/tmp/pbs.5076255.sched01/tmp2a9bgmzv/100_xx7n39i.sdf

>  <i_m_source_file_index>  (293) 
39

>  <i_lp_mmshare_version>  (293) 
48012

>  <i_f3d_flags>  (293) 
0

>  <s_epik_input>  (293) 
W0NAQEhdMTJbQ0BIXShbQ0BASF0zNClbQ0BASF0oW0NIMl01KVtDQEBIXShbQ0gyXTYpW0NASF0zW0NAQEhdN1tDQEhdNFtDQEhdMltDQEhdNVtDQEBIXTdbQ0BIXTE2

>  <s_epik_cmdline>  (293) 
J2VwaWtfcHl0aG9uJywgJy1waHQnLCAnMi4wJywgJy1waCcsICc3LjAnLCAnLXRuJywgJzgnLCAnLW1hJywgJzIwMCcsICctaW1hZScsICc8aW5maWxlLm1hZT4nLCAnLW9tYWUnLCAnPG91dGZpbGUubWFlPic=

>  <r_lp_tautomer_probability>  (293) 
1

>  <r_epik_Ionization_Penalty>  (293) 
0

>  <r_epik_Ionization_Penalty_Charging>  (293) 
0

>  <r_epik_Ionization_Penalty_Neutral>  (293) 
0

>  <r_epik_State_Penalty>  (293) 
-0

>  <r_epik_Charging_Adjusted_Penalty>  (293) 
0

>  <i_epik_Tot_Q>  (293) 
0

>  <i_epik_Tot_abs_Q>  (293) 
0

>  <s_lp_Force_Field>  (293) 
OPLS3e

>  <r_lp_Energy>  (293) 
671.139

>  <b_lp_Chiralities_Consistent>  (293) 
1

>  <s_lp_Variant>  (293) 
72:0-1

>  <s_i_glide_gridfile>  (293) 
pfpi4k_grid

>  <i_i_glide_lignum>  (293) 
39

>  <i_i_glide_rotatable_bonds>  (293) 
0

>  <r_i_docking_score>  (293) 
-3.65044

>  <r_i_glide_ligand_efficiency>  (293) 
-0.260746

>  <r_i_glide_ligand_efficiency_sa>  (293) 
-0.628435

>  <r_i_glide_ligand_efficiency_ln>  (293) 
-1.00313

>  <r_i_glide_gscore>  (293) 
-3.65044

>  <r_i_glide_lipo>  (293) 
-0.404267

>  <r_i_glide_hbond>  (293) 
0

>  <r_i_glide_metal>  (293) 
-0

>  <r_i_glide_rewards>  (293) 
-2.15266

>  <r_i_glide_evdw>  (293) 
-18.8871

>  <r_i_glide_ecoul>  (293) 
-0.994411

>  <r_i_glide_erotb>  (293) 
0

>  <r_i_glide_esite>  (293) 
0

>  <r_i_glide_emodel>  (293) 
-24.3464

>  <r_i_glide_energy>  (293) 
-19.8815

>  <r_i_glide_einternal>  (293) 
0

>  <r_i_glide_intrahb_reward>  (293) 
-0

>  <i_i_glide_confnum>  (293) 
2

>  <i_i_glide_posenum>  (293) 
1

>  <r_i_glide_eff_state_penalty>  (293) 
0

>  <ligand_id>  (293) 
72

>  <original_smiles>  (293) 
C1C2C3C4CC5C1C1C3C3C4C2C5C13

>  <smiles>  (293) 
[H]C1([H])C2([H])C3([H])C4([H])C([H])([H])C5([H])C1([H])C1([H])C3([H])C3([H])C4([H])C2([H])C5([H])C13[H]

$$$$
72:0:2
     RDKit          3D

 30 36  0  0  1  0  0  0  0  0999 V2000
    5.8949   -1.0671    0.3716 C   0  0  0  0  0  0  0  0  0  0  0  0
    4.5729   -1.6741   -0.1096 C   0  0  2  0  0  0  0  0  0  0  0  0
    3.4301   -1.6738    0.4861 C   0  0  1  0  0  0  0  0  0  0  0  0
    3.4599   -2.5611   -0.9473 C   0  0  1  0  0  0  0  0  0  0  0  0
    5.1149   -2.6550   -2.0822 C   0  0  0  0  0  0  0  0  0  0  0  0
    6.2429   -3.2521   -0.7734 C   0  0  1  0  0  0  0  0  0  0  0  0
    6.4889   -2.3653    0.6206 C   0  0  2  0  0  0  0  0  0  0  0  0
    5.5662   -2.7907    1.8747 C   0  0  1  0  0  0  0  0  0  0  0  0
    3.9855   -2.3437    1.8288 C   0  0  2  0  0  0  0  0  0  0  0  0
    3.6178   -3.7832    1.5524 C   0  0  1  0  0  0  0  0  0  0  0  0
    3.0803   -3.7737    0.0924 C   0  0  1  0  0  0  0  0  0  0  0  0
    4.3720   -3.6230   -0.2583 C   0  0  2  0  0  0  0  0  0  0  0  0
    5.5532   -4.3724    0.1161 C   0  0  2  0  0  0  0  0  0  0  0  0
    5.1414   -4.1786    1.5561 C   0  0  1  0  0  0  0  0  0  0  0  0
    5.8228   -0.4101    1.2426 H   0  0  0  0  0  0  0  0  0  0  0  0
    6.4455   -0.5543   -0.4109 H   0  0  0  0  0  0  0  0  0  0  0  0
    4.4577   -0.8004   -0.8357 H   0  0  0  0  0  0  0  0  0  0  0  0
    2.9570   -0.6908    0.5374 H   0  0  0  0  0  0  0  0  0  0  0  0
    2.5939   -2.3092   -1.5651 H   0  0  0  0  0  0  0  0  0  0  0  0
    5.0171   -3.3854   -2.8877 H   0  0  0  0  0  0  0  0  0  0  0  0
    5.4265   -1.7086   -2.5328 H   0  0  0  0  0  0  0  0  0  0  0  0
    7.1962   -3.5901   -1.1835 H   0  0  0  0  0  0  0  0  0  0  0  0
    7.5465   -2.3036    0.8824 H   0  0  0  0  0  0  0  0  0  0  0  0
    6.0100   -2.6822    2.8647 H   0  0  0  0  0  0  0  0  0  0  0  0
    3.5895   -1.9632    2.7711 H   0  0  0  0  0  0  0  0  0  0  0  0
    3.0026   -4.2516    2.3210 H   0  0  0  0  0  0  0  0  0  0  0  0
    2.5950   -4.6828   -0.2721 H   0  0  0  0  0  0  0  0  0  0  0  0
    4.2844   -4.4126   -1.0966 H   0  0  0  0  0  0  0  0  0  0  0  0
    5.6313   -5.4155   -0.2131 H   0  0  0  0  0  0  0  0  0  0  0  0
    5.4448   -4.9355    2.2797 H   0  0  0  0  0  0  0  0  0  0  0  0
  1  7  1  0
  1  2  1  0
  1 15  1  0
  1 16  1  0
  2 12  1  0
  2  3  1  0
  2 17  1  6
  3  9  1  0
  3  4  1  0
  3 18  1  1
  4 11  1  0
  4  5  1  0
  4 19  1  6
  5  6  1  0
  5 20  1  0
  5 21  1  0
  6 13  1  0
  6  7  1  0
  6 22  1  6
  7  8  1  0
  7 23  1  1
  8 14  1  0
  8  9  1  0
  8 24  1  1
  9 10  1  0
  9 25  1  1
 10 14  1  0
 10 11  1  0
 10 26  1  1
 11 12  1  0
 11 27  1  6
 12 13  1  0
 12 28  1  6
 13 14  1  0
 13 29  1  6
 14 30  1  1
M  END
>  <i_m_ct_stereo_status>  (294) 
1

>  <s_m_source_file>  (294) 
/var/tmp/pbs.5076255.sched01/tmp2a9bgmzv/100_xx7n39i.sdf

>  <i_m_source_file_index>  (294) 
39

>  <i_lp_mmshare_version>  (294) 
48012

>  <i_f3d_flags>  (294) 
0

>  <s_epik_input>  (294) 
W0NAQEhdMTJbQ0BIXShbQ0BASF0zNClbQ0BASF0oW0NIMl01KVtDQEBIXShbQ0gyXTYpW0NASF0zW0NAQEhdN1tDQEhdNFtDQEhdMltDQEhdNVtDQEBIXTdbQ0BIXTE2

>  <s_epik_cmdline>  (294) 
J2VwaWtfcHl0aG9uJywgJy1waHQnLCAnMi4wJywgJy1waCcsICc3LjAnLCAnLXRuJywgJzgnLCAnLW1hJywgJzIwMCcsICctaW1hZScsICc8aW5maWxlLm1hZT4nLCAnLW9tYWUnLCAnPG91dGZpbGUubWFlPic=

>  <r_lp_tautomer_probability>  (294) 
1

>  <r_epik_Ionization_Penalty>  (294) 
0

>  <r_epik_Ionization_Penalty_Charging>  (294) 
0

>  <r_epik_Ionization_Penalty_Neutral>  (294) 
0

>  <r_epik_State_Penalty>  (294) 
-0

>  <r_epik_Charging_Adjusted_Penalty>  (294) 
0

>  <i_epik_Tot_Q>  (294) 
0

>  <i_epik_Tot_abs_Q>  (294) 
0

>  <s_lp_Force_Field>  (294) 
OPLS3e

>  <r_lp_Energy>  (294) 
671.139

>  <b_lp_Chiralities_Consistent>  (294) 
1

>  <s_lp_Variant>  (294) 
72:0-1

>  <s_i_glide_gridfile>  (294) 
pfpi4k_grid

>  <i_i_glide_lignum>  (294) 
39

>  <i_i_glide_rotatable_bonds>  (294) 
0

>  <r_i_docking_score>  (294) 
-3.55988

>  <r_i_glide_ligand_efficiency>  (294) 
-0.254277

>  <r_i_glide_ligand_efficiency_sa>  (294) 
-0.612845

>  <r_i_glide_ligand_efficiency_ln>  (294) 
-0.978243

>  <r_i_glide_gscore>  (294) 
-3.55988

>  <r_i_glide_lipo>  (294) 
-0.539287

>  <r_i_glide_hbond>  (294) 
0

>  <r_i_glide_metal>  (294) 
-0

>  <r_i_glide_rewards>  (294) 
-2.15266

>  <r_i_glide_evdw>  (294) 
-16.7372

>  <r_i_glide_ecoul>  (294) 
-0.207198

>  <r_i_glide_erotb>  (294) 
0

>  <r_i_glide_esite>  (294) 
0

>  <r_i_glide_emodel>  (294) 
-21.2968

>  <r_i_glide_energy>  (294) 
-16.9444

>  <r_i_glide_einternal>  (294) 
0

>  <r_i_glide_intrahb_reward>  (294) 
-0

>  <i_i_glide_confnum>  (294) 
2

>  <i_i_glide_posenum>  (294) 
26

>  <r_i_glide_eff_state_penalty>  (294) 
0

>  <ligand_id>  (294) 
72

>  <original_smiles>  (294) 
C1C2C3C4CC5C1C1C3C3C4C2C5C13

>  <smiles>  (294) 
[H]C1([H])C2([H])C3([H])C4([H])C([H])([H])C5([H])C1([H])C1([H])C3([H])C3([H])C4([H])C2([H])C5([H])C13[H]

$$$$
74:0:0
     RDKit          3D

 33 35  0  0  1  0  0  0  0  0999 V2000
    6.1809   -6.4497    1.5228 C   0  0  0  0  0  0  0  0  0  0  0  0
    6.9675   -5.2820    0.9888 C   0  0  0  0  0  0  0  0  0  0  0  0
    8.3481   -5.2413    1.2469 N   0  0  0  0  0  0  0  0  0  0  0  0
    8.9611   -4.1976    0.7612 N   0  0  0  0  0  0  0  0  0  0  0  0
    7.9141   -3.1943   -0.0670 S   0  0  0  0  0  0  0  0  0  0  0  0
    6.5440   -4.1951    0.2533 C   0  0  0  0  0  0  0  0  0  0  0  0
    5.2399   -3.7689   -0.2527 C   0  0  0  0  0  0  0  0  0  0  0  0
    5.0926   -2.7780   -0.9688 O   0  0  0  0  0  0  0  0  0  0  0  0
    4.2533   -4.5702    0.1775 O   0  0  0  0  0  0  0  0  0  0  0  0
    2.8878   -4.3271   -0.1213 C   0  0  0  0  0  0  0  0  0  0  0  0
    2.0381   -5.4591    0.4796 C   0  0  0  0  0  0  0  0  0  0  0  0
    1.0433   -5.8537   -0.1302 O   0  0  0  0  0  0  0  0  0  0  0  0
    2.3834   -5.9016    1.7022 N   0  0  0  0  0  0  0  0  0  0  0  0
    1.6643   -6.7796    2.5654 C   0  0  0  0  0  0  0  0  0  0  0  0
    0.7377   -7.7662    2.1054 C   0  0  0  0  0  0  0  0  0  0  0  0
    0.0757   -8.6298    3.0105 C   0  0  0  0  0  0  0  0  0  0  0  0
    0.3547   -8.4941    4.3765 C   0  0  0  0  0  0  0  0  0  0  0  0
   -0.1793   -9.2744    5.4250 N   0  0  0  0  0  0  0  0  0  0  0  0
    0.2344   -8.9166    6.7053 C   0  0  0  0  0  0  0  0  0  0  0  0
   -0.1331   -9.3846    7.7798 O   0  0  0  0  0  0  0  0  0  0  0  0
    1.4086   -7.5491    6.5586 S   0  0  0  0  0  0  0  0  0  0  0  0
    1.2451   -7.5220    4.8276 C   0  0  0  0  0  0  0  0  0  0  0  0
    1.9144   -6.6544    3.9518 C   0  0  0  0  0  0  0  0  0  0  0  0
   -0.8811  -10.0093    5.2879 H   0  0  0  0  0  0  0  0  0  0  0  0
    5.1451   -6.4874    1.1891 H   0  0  0  0  0  0  0  0  0  0  0  0
    6.1629   -6.4295    2.6134 H   0  0  0  0  0  0  0  0  0  0  0  0
    6.6266   -7.3869    1.1918 H   0  0  0  0  0  0  0  0  0  0  0  0
    2.5760   -3.3815    0.3318 H   0  0  0  0  0  0  0  0  0  0  0  0
    2.7323   -4.2515   -1.1997 H   0  0  0  0  0  0  0  0  0  0  0  0
    3.1943   -5.4456    2.1011 H   0  0  0  0  0  0  0  0  0  0  0  0
    0.5437   -7.8972    1.0521 H   0  0  0  0  0  0  0  0  0  0  0  0
   -0.6104   -9.3954    2.6699 H   0  0  0  0  0  0  0  0  0  0  0  0
    2.6096   -5.9153    4.3357 H   0  0  0  0  0  0  0  0  0  0  0  0
  1  2  1  0
  1 25  1  0
  1 26  1  0
  1 27  1  0
  2  6  2  0
  2  3  1  0
  3  4  2  0
  4  5  1  0
  5  6  1  0
  6  7  1  0
  7  8  2  0
  7  9  1  0
  9 10  1  0
 10 11  1  0
 10 28  1  0
 10 29  1  0
 11 12  2  0
 11 13  1  0
 13 14  1  0
 13 30  1  0
 14 23  1  0
 14 15  2  0
 15 16  1  0
 15 31  1  0
 16 17  2  0
 16 32  1  0
 17 22  1  0
 17 18  1  0
 18 24  1  0
 18 19  1  0
 19 20  2  0
 19 21  1  0
 21 22  1  0
 22 23  2  0
 23 33  1  0
M  END
>  <i_m_ct_stereo_status>  (295) 
1

>  <s_m_source_file>  (295) 
/var/tmp/pbs.5076255.sched01/tmp2a9bgmzv/100_xx7n39i.sdf

>  <i_m_source_file_index>  (295) 
41

>  <i_lp_mmshare_version>  (295) 
48012

>  <i_f3d_flags>  (295) 
0

>  <s_epik_input>  (295) 
W0NIM11jMW5uc2MxQyg9TylPW0NIMl1DKD1PKVtOSF1jKFtjSF1bY0hdMilbY0hdYyhjMjMpc2MoPU8pW25IXTM=

>  <s_epik_cmdline>  (295) 
J2VwaWtfcHl0aG9uJywgJy1waHQnLCAnMi4wJywgJy1waCcsICc3LjAnLCAnLXRuJywgJzgnLCAnLW1hJywgJzIwMCcsICctaW1hZScsICc8aW5maWxlLm1hZT4nLCAnLW9tYWUnLCAnPG91dGZpbGUubWFlPic=

>  <r_epik_Ionization_Penalty>  (295) 
0.000521622

>  <r_epik_Ionization_Penalty_Charging>  (295) 
0.000521088

>  <r_epik_Ionization_Penalty_Neutral>  (295) 
5.34154e-07

>  <r_epik_State_Penalty>  (295) 
4.9329e-08

>  <r_epik_Charging_Adjusted_Penalty>  (295) 
0.000521137

>  <i_epik_Tot_Q>  (295) 
0

>  <i_epik_Tot_abs_Q>  (295) 
0

>  <s_epik_Chemistry_Notes>  (295) 
This compound has an ester and may undergo hydrolysis at high or low pH.

>  <s_lp_Force_Field>  (295) 
OPLS3e

>  <r_lp_Energy>  (295) 
16.7619

>  <b_lp_Chiralities_Consistent>  (295) 
1

>  <s_lp_Variant>  (295) 
74:0-1

>  <s_i_glide_gridfile>  (295) 
pfpi4k_grid

>  <i_i_glide_lignum>  (295) 
41

>  <i_i_glide_rotatable_bonds>  (295) 
6

>  <r_i_docking_score>  (295) 
-4.4035

>  <r_i_glide_ligand_efficiency>  (295) 
-0.191457

>  <r_i_glide_ligand_efficiency_sa>  (295) 
-0.544477

>  <r_i_glide_ligand_efficiency_ln>  (295) 
-1.06481

>  <r_i_glide_gscore>  (295) 
-4.4035

>  <r_i_glide_lipo>  (295) 
-0.489439

>  <r_i_glide_hbond>  (295) 
-0.598853

>  <r_i_glide_metal>  (295) 
-0

>  <r_i_glide_rewards>  (295) 
-1.09532

>  <r_i_glide_evdw>  (295) 
-26.7544

>  <r_i_glide_ecoul>  (295) 
-9.63559

>  <r_i_glide_erotb>  (295) 
0.776299

>  <r_i_glide_esite>  (295) 
-0.213131

>  <r_i_glide_emodel>  (295) 
-46.7485

>  <r_i_glide_energy>  (295) 
-36.39

>  <r_i_glide_einternal>  (295) 
0.738833

>  <r_i_glide_intrahb_reward>  (295) 
-0

>  <i_i_glide_confnum>  (295) 
4

>  <i_i_glide_posenum>  (295) 
18

>  <r_i_glide_eff_state_penalty>  (295) 
0

>  <ligand_id>  (295) 
74

>  <original_smiles>  (295) 
Cc1nnsc1C(=O)OCC(=O)Nc1ccc2[nH]c(=O)sc2c1

>  <smiles>  (295) 
[H]c1c(N([H])C(=O)C([H])([H])OC(=O)c2snnc2C([H])([H])[H])c([H])c2sc(=O)n([H])c2c1[H]

$$$$
74:0:1
     RDKit          3D

 33 35  0  0  1  0  0  0  0  0999 V2000
    1.7488   -1.1666    2.0809 C   0  0  0  0  0  0  0  0  0  0  0  0
    3.2281   -1.0114    2.2679 C   0  0  0  0  0  0  0  0  0  0  0  0
    3.6926   -0.0931    3.2264 N   0  0  0  0  0  0  0  0  0  0  0  0
    4.9885   -0.0361    3.3350 N   0  0  0  0  0  0  0  0  0  0  0  0
    5.7469   -1.0534    2.2481 S   0  0  0  0  0  0  0  0  0  0  0  0
    4.2597   -1.6554    1.6229 C   0  0  0  0  0  0  0  0  0  0  0  0
    4.3166   -2.7187    0.6259 C   0  0  0  0  0  0  0  0  0  0  0  0
    5.2960   -2.9062   -0.0935 O   0  0  0  0  0  0  0  0  0  0  0  0
    3.2160   -3.4876    0.6522 O   0  0  0  0  0  0  0  0  0  0  0  0
    3.0490   -4.6057   -0.2066 C   0  0  0  0  0  0  0  0  0  0  0  0
    2.0779   -5.5680    0.4809 C   0  0  0  0  0  0  0  0  0  0  0  0
    1.0125   -5.8537   -0.0795 O   0  0  0  0  0  0  0  0  0  0  0  0
    2.4043   -5.9784    1.7162 N   0  0  0  0  0  0  0  0  0  0  0  0
    1.6724   -6.8385    2.5869 C   0  0  0  0  0  0  0  0  0  0  0  0
    0.7541   -7.8316    2.1308 C   0  0  0  0  0  0  0  0  0  0  0  0
    0.0909   -8.6878    3.0415 C   0  0  0  0  0  0  0  0  0  0  0  0
    0.3619   -8.5370    4.4071 C   0  0  0  0  0  0  0  0  0  0  0  0
   -0.1838   -9.2995    5.4595 N   0  0  0  0  0  0  0  0  0  0  0  0
    0.2267   -8.9345    6.7374 C   0  0  0  0  0  0  0  0  0  0  0  0
   -0.1441   -9.3924    7.8149 O   0  0  0  0  0  0  0  0  0  0  0  0
    1.4069   -7.5729    6.5844 S   0  0  0  0  0  0  0  0  0  0  0  0
    1.2520   -7.5627    4.8531 C   0  0  0  0  0  0  0  0  0  0  0  0
    1.9231   -6.7015    3.9710 C   0  0  0  0  0  0  0  0  0  0  0  0
   -0.8840  -10.0393    5.3226 H   0  0  0  0  0  0  0  0  0  0  0  0
    1.4855   -1.9673    1.3932 H   0  0  0  0  0  0  0  0  0  0  0  0
    1.3298   -0.2510    1.6658 H   0  0  0  0  0  0  0  0  0  0  0  0
    1.2611   -1.3792    3.0336 H   0  0  0  0  0  0  0  0  0  0  0  0
    2.6443   -4.2563   -1.1627 H   0  0  0  0  0  0  0  0  0  0  0  0
    3.9868   -5.1302   -0.3969 H   0  0  0  0  0  0  0  0  0  0  0  0
    3.2393   -5.5601    2.1020 H   0  0  0  0  0  0  0  0  0  0  0  0
    0.5696   -7.9779    1.0782 H   0  0  0  0  0  0  0  0  0  0  0  0
   -0.5941   -9.4560    2.7081 H   0  0  0  0  0  0  0  0  0  0  0  0
    2.6215   -5.9632    4.3453 H   0  0  0  0  0  0  0  0  0  0  0  0
  1  2  1  0
  1 25  1  0
  1 26  1  0
  1 27  1  0
  2  6  2  0
  2  3  1  0
  3  4  2  0
  4  5  1  0
  5  6  1  0
  6  7  1  0
  7  8  2  0
  7  9  1  0
  9 10  1  0
 10 11  1  0
 10 28  1  0
 10 29  1  0
 11 12  2  0
 11 13  1  0
 13 14  1  0
 13 30  1  0
 14 23  1  0
 14 15  2  0
 15 16  1  0
 15 31  1  0
 16 17  2  0
 16 32  1  0
 17 22  1  0
 17 18  1  0
 18 24  1  0
 18 19  1  0
 19 20  2  0
 19 21  1  0
 21 22  1  0
 22 23  2  0
 23 33  1  0
M  END
>  <i_m_ct_stereo_status>  (296) 
1

>  <s_m_source_file>  (296) 
/var/tmp/pbs.5076255.sched01/tmp2a9bgmzv/100_xx7n39i.sdf

>  <i_m_source_file_index>  (296) 
41

>  <i_lp_mmshare_version>  (296) 
48012

>  <i_f3d_flags>  (296) 
0

>  <s_epik_input>  (296) 
W0NIM11jMW5uc2MxQyg9TylPW0NIMl1DKD1PKVtOSF1jKFtjSF1bY0hdMilbY0hdYyhjMjMpc2MoPU8pW25IXTM=

>  <s_epik_cmdline>  (296) 
J2VwaWtfcHl0aG9uJywgJy1waHQnLCAnMi4wJywgJy1waCcsICc3LjAnLCAnLXRuJywgJzgnLCAnLW1hJywgJzIwMCcsICctaW1hZScsICc8aW5maWxlLm1hZT4nLCAnLW9tYWUnLCAnPG91dGZpbGUubWFlPic=

>  <r_epik_Ionization_Penalty>  (296) 
0.000521622

>  <r_epik_Ionization_Penalty_Charging>  (296) 
0.000521088

>  <r_epik_Ionization_Penalty_Neutral>  (296) 
5.34154e-07

>  <r_epik_State_Penalty>  (296) 
4.9329e-08

>  <r_epik_Charging_Adjusted_Penalty>  (296) 
0.000521137

>  <i_epik_Tot_Q>  (296) 
0

>  <i_epik_Tot_abs_Q>  (296) 
0

>  <s_epik_Chemistry_Notes>  (296) 
This compound has an ester and may undergo hydrolysis at high or low pH.

>  <s_lp_Force_Field>  (296) 
OPLS3e

>  <r_lp_Energy>  (296) 
16.7619

>  <b_lp_Chiralities_Consistent>  (296) 
1

>  <s_lp_Variant>  (296) 
74:0-1

>  <s_i_glide_gridfile>  (296) 
pfpi4k_grid

>  <i_i_glide_lignum>  (296) 
41

>  <i_i_glide_rotatable_bonds>  (296) 
6

>  <r_i_docking_score>  (296) 
-3.98153

>  <r_i_glide_ligand_efficiency>  (296) 
-0.17311

>  <r_i_glide_ligand_efficiency_sa>  (296) 
-0.492301

>  <r_i_glide_ligand_efficiency_ln>  (296) 
-0.962769

>  <r_i_glide_gscore>  (296) 
-3.98153

>  <r_i_glide_lipo>  (296) 
-0.107655

>  <r_i_glide_hbond>  (296) 
-0.602716

>  <r_i_glide_metal>  (296) 
-0

>  <r_i_glide_rewards>  (296) 
-1.02017

>  <r_i_glide_evdw>  (296) 
-23.4134

>  <r_i_glide_ecoul>  (296) 
-11.2147

>  <r_i_glide_erotb>  (296) 
0.776299

>  <r_i_glide_esite>  (296) 
-0.174402

>  <r_i_glide_emodel>  (296) 
-43.3397

>  <r_i_glide_energy>  (296) 
-34.6281

>  <r_i_glide_einternal>  (296) 
2.19237

>  <r_i_glide_intrahb_reward>  (296) 
-0

>  <i_i_glide_confnum>  (296) 
4

>  <i_i_glide_posenum>  (296) 
1

>  <r_i_glide_eff_state_penalty>  (296) 
0

>  <ligand_id>  (296) 
74

>  <original_smiles>  (296) 
Cc1nnsc1C(=O)OCC(=O)Nc1ccc2[nH]c(=O)sc2c1

>  <smiles>  (296) 
[H]c1c(N([H])C(=O)C([H])([H])OC(=O)c2snnc2C([H])([H])[H])c([H])c2sc(=O)n([H])c2c1[H]

$$$$
74:0:2
     RDKit          3D

 33 35  0  0  1  0  0  0  0  0999 V2000
    1.4630   -1.6157    2.8028 C   0  0  0  0  0  0  0  0  0  0  0  0
    2.8922   -1.1712    2.8617 C   0  0  0  0  0  0  0  0  0  0  0  0
    3.2693   -0.2231    3.8271 N   0  0  0  0  0  0  0  0  0  0  0  0
    4.5261    0.1113    3.8006 N   0  0  0  0  0  0  0  0  0  0  0  0
    5.3347   -0.6960    2.5917 S   0  0  0  0  0  0  0  0  0  0  0  0
    3.9526   -1.5603    2.0668 C   0  0  0  0  0  0  0  0  0  0  0  0
    4.1161   -2.5064    0.9691 C   0  0  0  0  0  0  0  0  0  0  0  0
    5.1221   -2.5245    0.2456 O   0  0  0  0  0  0  0  0  0  0  0  0
    3.0905   -3.3579    0.8783 O   0  0  0  0  0  0  0  0  0  0  0  0
    2.9442   -4.3178   -0.1561 C   0  0  0  0  0  0  0  0  0  0  0  0
    2.4575   -5.6104    0.4880 C   0  0  0  0  0  0  0  0  0  0  0  0
    1.2539   -5.8570    0.4950 O   0  0  0  0  0  0  0  0  0  0  0  0
    3.4230   -6.4052    1.0000 N   0  0  0  0  0  0  0  0  0  0  0  0
    3.3123   -7.7045    1.5783 C   0  0  0  0  0  0  0  0  0  0  0  0
    2.0678   -8.3439    1.8861 C   0  0  0  0  0  0  0  0  0  0  0  0
    2.0167   -9.6232    2.4842 C   0  0  0  0  0  0  0  0  0  0  0  0
    3.2288  -10.2641    2.7733 C   0  0  0  0  0  0  0  0  0  0  0  0
    3.3841  -11.5328    3.3658 N   0  0  0  0  0  0  0  0  0  0  0  0
    4.6997  -11.9575    3.5212 C   0  0  0  0  0  0  0  0  0  0  0  0
    5.1094  -13.0100    3.9999 O   0  0  0  0  0  0  0  0  0  0  0  0
    5.7992  -10.6653    2.8893 S   0  0  0  0  0  0  0  0  0  0  0  0
    4.4490   -9.6565    2.4567 C   0  0  0  0  0  0  0  0  0  0  0  0
    4.5270   -8.3863    1.8624 C   0  0  0  0  0  0  0  0  0  0  0  0
    2.6143  -12.1355    3.6411 H   0  0  0  0  0  0  0  0  0  0  0  0
    1.2693   -2.4227    2.0937 H   0  0  0  0  0  0  0  0  0  0  0  0
    0.8214   -0.7875    2.5002 H   0  0  0  0  0  0  0  0  0  0  0  0
    1.1390   -1.9793    3.7778 H   0  0  0  0  0  0  0  0  0  0  0  0
    2.1896   -3.9575   -0.8589 H   0  0  0  0  0  0  0  0  0  0  0  0
    3.8495   -4.5090   -0.7351 H   0  0  0  0  0  0  0  0  0  0  0  0
    4.3617   -6.0556    0.8729 H   0  0  0  0  0  0  0  0  0  0  0  0
    1.1115   -7.8845    1.6837 H   0  0  0  0  0  0  0  0  0  0  0  0
    1.0707  -10.1035    2.7196 H   0  0  0  0  0  0  0  0  0  0  0  0
    5.4937   -7.9451    1.6323 H   0  0  0  0  0  0  0  0  0  0  0  0
  1  2  1  0
  1 25  1  0
  1 26  1  0
  1 27  1  0
  2  6  2  0
  2  3  1  0
  3  4  2  0
  4  5  1  0
  5  6  1  0
  6  7  1  0
  7  8  2  0
  7  9  1  0
  9 10  1  0
 10 11  1  0
 10 28  1  0
 10 29  1  0
 11 12  2  0
 11 13  1  0
 13 14  1  0
 13 30  1  0
 14 23  1  0
 14 15  2  0
 15 16  1  0
 15 31  1  0
 16 17  2  0
 16 32  1  0
 17 22  1  0
 17 18  1  0
 18 24  1  0
 18 19  1  0
 19 20  2  0
 19 21  1  0
 21 22  1  0
 22 23  2  0
 23 33  1  0
M  END
>  <i_m_ct_stereo_status>  (297) 
1

>  <s_m_source_file>  (297) 
/var/tmp/pbs.5076255.sched01/tmp2a9bgmzv/100_xx7n39i.sdf

>  <i_m_source_file_index>  (297) 
41

>  <i_lp_mmshare_version>  (297) 
48012

>  <i_f3d_flags>  (297) 
0

>  <s_epik_input>  (297) 
W0NIM11jMW5uc2MxQyg9TylPW0NIMl1DKD1PKVtOSF1jKFtjSF1bY0hdMilbY0hdYyhjMjMpc2MoPU8pW25IXTM=

>  <s_epik_cmdline>  (297) 
J2VwaWtfcHl0aG9uJywgJy1waHQnLCAnMi4wJywgJy1waCcsICc3LjAnLCAnLXRuJywgJzgnLCAnLW1hJywgJzIwMCcsICctaW1hZScsICc8aW5maWxlLm1hZT4nLCAnLW9tYWUnLCAnPG91dGZpbGUubWFlPic=

>  <r_epik_Ionization_Penalty>  (297) 
0.000521622

>  <r_epik_Ionization_Penalty_Charging>  (297) 
0.000521088

>  <r_epik_Ionization_Penalty_Neutral>  (297) 
5.34154e-07

>  <r_epik_State_Penalty>  (297) 
4.9329e-08

>  <r_epik_Charging_Adjusted_Penalty>  (297) 
0.000521137

>  <i_epik_Tot_Q>  (297) 
0

>  <i_epik_Tot_abs_Q>  (297) 
0

>  <s_epik_Chemistry_Notes>  (297) 
This compound has an ester and may undergo hydrolysis at high or low pH.

>  <s_lp_Force_Field>  (297) 
OPLS3e

>  <r_lp_Energy>  (297) 
16.7619

>  <b_lp_Chiralities_Consistent>  (297) 
1

>  <s_lp_Variant>  (297) 
74:0-1

>  <s_i_glide_gridfile>  (297) 
pfpi4k_grid

>  <i_i_glide_lignum>  (297) 
41

>  <i_i_glide_rotatable_bonds>  (297) 
6

>  <r_i_docking_score>  (297) 
-3.11131

>  <r_i_glide_ligand_efficiency>  (297) 
-0.135274

>  <r_i_glide_ligand_efficiency_sa>  (297) 
-0.384702

>  <r_i_glide_ligand_efficiency_ln>  (297) 
-0.752342

>  <r_i_glide_gscore>  (297) 
-3.11131

>  <r_i_glide_lipo>  (297) 
-0.200232

>  <r_i_glide_hbond>  (297) 
-0.16

>  <r_i_glide_metal>  (297) 
-0

>  <r_i_glide_rewards>  (297) 
-1.02017

>  <r_i_glide_evdw>  (297) 
-26.3514

>  <r_i_glide_ecoul>  (297) 
-7.37801

>  <r_i_glide_erotb>  (297) 
0.776299

>  <r_i_glide_esite>  (297) 
-0.0829299

>  <r_i_glide_emodel>  (297) 
-40.6001

>  <r_i_glide_energy>  (297) 
-33.7295

>  <r_i_glide_einternal>  (297) 
1.37429

>  <r_i_glide_intrahb_reward>  (297) 
-0

>  <i_i_glide_confnum>  (297) 
4

>  <i_i_glide_posenum>  (297) 
19

>  <r_i_glide_eff_state_penalty>  (297) 
0

>  <ligand_id>  (297) 
74

>  <original_smiles>  (297) 
Cc1nnsc1C(=O)OCC(=O)Nc1ccc2[nH]c(=O)sc2c1

>  <smiles>  (297) 
[H]c1c(N([H])C(=O)C([H])([H])OC(=O)c2snnc2C([H])([H])[H])c([H])c2sc(=O)n([H])c2c1[H]

$$$$
75:0:0
     RDKit          3D

 56 59  0  0  1  0  0  0  0  0999 V2000
   -0.2776    0.9578    2.0890 C   0  0  0  0  0  0  0  0  0  0  0  0
    0.5338    0.3856    3.2594 C   0  0  0  0  0  0  0  0  0  0  0  0
    1.0982    1.4891    4.1603 C   0  0  0  0  0  0  0  0  0  0  0  0
    1.5621   -0.5670    2.8241 N   0  0  0  0  0  0  0  0  0  0  0  0
    1.5717   -1.8795    3.2794 C   0  0  0  0  0  0  0  0  0  0  0  0
    2.3349   -2.8537    2.7420 C   0  0  0  0  0  0  0  0  0  0  0  0
    2.2712   -4.2170    3.3250 C   0  0  0  0  0  0  0  0  0  0  0  0
    1.6177   -4.4626    4.3439 O   0  0  0  0  0  0  0  0  0  0  0  0
    3.0812   -5.3755    2.6912 C   0  0  1  0  0  0  0  0  0  0  0  0
    4.3520   -5.6468    3.5193 C   0  0  0  0  0  0  0  0  0  0  0  0
    2.3395   -6.6076    2.8115 O   0  0  0  0  0  0  0  0  0  0  0  0
    1.1961   -6.9480    2.1416 C   0  0  0  0  0  0  0  0  0  0  0  0
    0.5762   -6.2546    1.3329 O   0  0  0  0  0  0  0  0  0  0  0  0
    0.7109   -8.3544    2.5046 C   0  0  0  0  0  0  0  0  0  0  0  0
    0.2862   -8.4736    3.9820 C   0  0  0  0  0  0  0  0  0  0  0  0
    0.9174   -9.7697    4.5113 C   0  0  0  0  0  0  0  0  0  0  0  0
    1.4147  -10.5293    3.2854 C   0  0  0  0  0  0  0  0  0  0  0  0
    1.7879   -9.4335    2.2937 C   0  0  0  0  0  0  0  0  0  0  0  0
    3.4819   -5.0637    1.2299 C   0  0  0  0  0  0  0  0  0  0  0  0
    3.4805   -5.9524    0.3790 O   0  0  0  0  0  0  0  0  0  0  0  0
    4.0361   -3.6634    0.9158 C   0  0  1  0  0  0  0  0  0  0  0  0
    4.2041   -3.4464   -0.5673 C   0  0  0  0  0  0  0  0  0  0  0  0
    3.3673   -3.0559   -1.5797 C   0  0  0  0  0  0  0  0  0  0  0  0
    4.1597   -3.0099   -2.7610 C   0  0  0  0  0  0  0  0  0  0  0  0
    5.4184   -3.3767   -2.3844 C   0  0  0  0  0  0  0  0  0  0  0  0
    5.4628   -3.6512   -1.0502 O   0  0  0  0  0  0  0  0  0  0  0  0
    3.2001   -2.5728    1.5923 C   0  0  0  0  0  0  0  0  0  0  0  0
    3.3220   -1.2809    1.2074 C   0  0  0  0  0  0  0  0  0  0  0  0
    2.5517   -0.1332    1.8295 C   0  0  0  0  0  0  0  0  0  0  0  0
   -1.1343    1.5350    2.4399 H   0  0  0  0  0  0  0  0  0  0  0  0
   -0.6524    0.1519    1.4621 H   0  0  0  0  0  0  0  0  0  0  0  0
    0.3101    1.6217    1.4530 H   0  0  0  0  0  0  0  0  0  0  0  0
   -0.1768   -0.1775    3.8634 H   0  0  0  0  0  0  0  0  0  0  0  0
    0.2903    2.1044    4.5567 H   0  0  0  0  0  0  0  0  0  0  0  0
    1.7795    2.1487    3.6227 H   0  0  0  0  0  0  0  0  0  0  0  0
    1.6309    1.0681    5.0128 H   0  0  0  0  0  0  0  0  0  0  0  0
    0.9388   -2.0461    4.1444 H   0  0  0  0  0  0  0  0  0  0  0  0
    5.0156   -4.7867    3.5549 H   0  0  0  0  0  0  0  0  0  0  0  0
    4.9108   -6.4829    3.1019 H   0  0  0  0  0  0  0  0  0  0  0  0
    4.1081   -5.9187    4.5458 H   0  0  0  0  0  0  0  0  0  0  0  0
   -0.1466   -8.6004    1.8735 H   0  0  0  0  0  0  0  0  0  0  0  0
    0.6115   -7.6292    4.5928 H   0  0  0  0  0  0  0  0  0  0  0  0
   -0.8031   -8.5137    4.0552 H   0  0  0  0  0  0  0  0  0  0  0  0
    1.7588   -9.5251    5.1590 H   0  0  0  0  0  0  0  0  0  0  0  0
    0.2161  -10.3613    5.0987 H   0  0  0  0  0  0  0  0  0  0  0  0
    2.2542  -11.1853    3.5119 H   0  0  0  0  0  0  0  0  0  0  0  0
    0.6126  -11.1419    2.8736 H   0  0  0  0  0  0  0  0  0  0  0  0
    1.8112   -9.8066    1.2690 H   0  0  0  0  0  0  0  0  0  0  0  0
    2.7915   -9.0755    2.5279 H   0  0  0  0  0  0  0  0  0  0  0  0
    5.0250   -3.6350    1.3705 H   0  0  0  0  0  0  0  0  0  0  0  0
    2.3184   -2.8239   -1.4692 H   0  0  0  0  0  0  0  0  0  0  0  0
    3.8530   -2.7416   -3.7613 H   0  0  0  0  0  0  0  0  0  0  0  0
    6.3566   -3.4892   -2.9112 H   0  0  0  0  0  0  0  0  0  0  0  0
    3.9765   -1.0063    0.3903 H   0  0  0  0  0  0  0  0  0  0  0  0
    2.0553    0.3600    0.9965 H   0  0  0  0  0  0  0  0  0  0  0  0
    3.2546    0.5683    2.2806 H   0  0  0  0  0  0  0  0  0  0  0  0
  1  2  1  0
  1 30  1  0
  1 31  1  0
  1 32  1  0
  2  3  1  0
  2  4  1  0
  2 33  1  0
  3 34  1  0
  3 35  1  0
  3 36  1  0
  4 29  1  0
  4  5  1  0
  5  6  2  0
  5 37  1  0
  6 27  1  0
  6  7  1  0
  7  8  2  0
  7  9  1  0
  9 10  1  0
  9 11  1  6
  9 19  1  0
 10 38  1  0
 10 39  1  0
 10 40  1  0
 11 12  1  0
 12 13  2  0
 12 14  1  0
 14 18  1  0
 14 15  1  0
 14 41  1  0
 15 16  1  0
 15 42  1  0
 15 43  1  0
 16 17  1  0
 16 44  1  0
 16 45  1  0
 17 18  1  0
 17 46  1  0
 17 47  1  0
 18 48  1  0
 18 49  1  0
 19 20  2  0
 19 21  1  0
 21 22  1  0
 21 27  1  0
 21 50  1  1
 22 26  1  0
 22 23  2  0
 23 24  1  0
 23 51  1  0
 24 25  2  0
 24 52  1  0
 25 26  1  0
 25 53  1  0
 27 28  2  0
 28 29  1  0
 28 54  1  0
 29 55  1  0
 29 56  1  0
M  END
>  <i_m_ct_stereo_status>  (298) 
1

>  <s_m_source_file>  (298) 
/var/tmp/pbs.5076255.sched01/tmp2a9bgmzv/100_xx7n39i.sdf

>  <i_m_source_file_index>  (298) 
42

>  <i_lp_mmshare_version>  (298) 
48012

>  <i_f3d_flags>  (298) 
0

>  <s_epik_input>  (298) 
W0NIM11bQ0hdKFtDSDNdKU4oW0NIXT0xKVtDSDJdW0NIXT1DKEMxMilbQ0BIXShjM1tjSF1bY0hdW2NIXW8zKUMoPU8pW0NAXShDMj1PKShbQ0gzXSlPQyg9TylbQ0hdNFtDSDJdW0NIMl1bQ0gyXVtDSDJdNA==

>  <s_epik_cmdline>  (298) 
J2VwaWtfcHl0aG9uJywgJy1waHQnLCAnMi4wJywgJy1waCcsICc3LjAnLCAnLXRuJywgJzgnLCAnLW1hJywgJzIwMCcsICctaW1hZScsICc8aW5maWxlLm1hZT4nLCAnLW9tYWUnLCAnPG91dGZpbGUubWFlPic=

>  <r_epik_Ionization_Penalty>  (298) 
0.0510266

>  <r_epik_Ionization_Penalty_Charging>  (298) 
0.0510266

>  <r_epik_Ionization_Penalty_Neutral>  (298) 
8.3729e-10

>  <r_epik_State_Penalty>  (298) 
0.0436871

>  <r_epik_Charging_Adjusted_Penalty>  (298) 
0.0947137

>  <i_epik_Tot_Q>  (298) 
0

>  <i_epik_Tot_abs_Q>  (298) 
0

>  <s_epik_Chemistry_Notes>  (298) 
This compound has an ester and may undergo hydrolysis at high or low pH. This compound has an imine and may undergo hydrolysis.

>  <s_lp_Force_Field>  (298) 
OPLS3e

>  <r_lp_Energy>  (298) 
47.219

>  <b_lp_Chiralities_Consistent>  (298) 
1

>  <s_lp_Variant>  (298) 
75:0-1

>  <s_i_glide_gridfile>  (298) 
pfpi4k_grid

>  <i_i_glide_lignum>  (298) 
42

>  <i_i_glide_rotatable_bonds>  (298) 
5

>  <r_i_docking_score>  (298) 
-3.01681

>  <r_i_glide_ligand_efficiency>  (298) 
-0.104028

>  <r_i_glide_ligand_efficiency_sa>  (298) 
-0.319606

>  <r_i_glide_ligand_efficiency_ln>  (298) 
-0.690772

>  <r_i_glide_gscore>  (298) 
-3.01681

>  <r_i_glide_lipo>  (298) 
-0.484269

>  <r_i_glide_hbond>  (298) 
-0.16

>  <r_i_glide_metal>  (298) 
-0

>  <r_i_glide_rewards>  (298) 
-0.703448

>  <r_i_glide_evdw>  (298) 
-35.1017

>  <r_i_glide_ecoul>  (298) 
-2.29775

>  <r_i_glide_erotb>  (298) 
0.49564

>  <r_i_glide_esite>  (298) 
-0.0649805

>  <r_i_glide_emodel>  (298) 
-43.9507

>  <r_i_glide_energy>  (298) 
-37.3995

>  <r_i_glide_einternal>  (298) 
1.22124

>  <r_i_glide_intrahb_reward>  (298) 
-0

>  <i_i_glide_confnum>  (298) 
1

>  <i_i_glide_posenum>  (298) 
34

>  <r_i_glide_eff_state_penalty>  (298) 
0

>  <ligand_id>  (298) 
75

>  <original_smiles>  (298) 
CC(C)N1C=C2C(=O)C(C)(OC(=O)C3CCCC3)C(=O)C(c3ccco3)C2=CC1

>  <smiles>  (298) 
[H]C1=C2C(=O)C(OC(=O)C3([H])C([H])([H])C([H])([H])C([H])([H])C3([H])[H])(C([H])([H])[H])C(=O)C([H])(c3oc([H])c([H])c3[H])C2=C([H])C([H])([H])N1C([H])(C([H])([H])[H])C([H])([H])[H]

$$$$
75:0:1
     RDKit          3D

 56 59  0  0  1  0  0  0  0  0999 V2000
   -0.2479    1.3163    2.0858 C   0  0  0  0  0  0  0  0  0  0  0  0
    0.7658    1.0043    3.1975 C   0  0  0  0  0  0  0  0  0  0  0  0
    1.3706    2.2821    3.7992 C   0  0  0  0  0  0  0  0  0  0  0  0
    1.7864    0.0417    2.7713 N   0  0  0  0  0  0  0  0  0  0  0  0
    1.8328   -1.2465    3.2867 C   0  0  0  0  0  0  0  0  0  0  0  0
    2.5771   -2.2427    2.7575 C   0  0  0  0  0  0  0  0  0  0  0  0
    2.5534   -3.5705    3.4082 C   0  0  0  0  0  0  0  0  0  0  0  0
    1.9536   -3.7692    4.4703 O   0  0  0  0  0  0  0  0  0  0  0  0
    3.3339   -4.7639    2.8032 C   0  0  1  0  0  0  0  0  0  0  0  0
    4.6375   -4.9888    3.5888 C   0  0  0  0  0  0  0  0  0  0  0  0
    2.5826   -5.9739    3.0573 O   0  0  0  0  0  0  0  0  0  0  0  0
    1.4366   -6.3550    2.4316 C   0  0  0  0  0  0  0  0  0  0  0  0
    0.9614   -5.8590    1.4163 O   0  0  0  0  0  0  0  0  0  0  0  0
    0.7320   -7.5089    3.1408 C   0  0  0  0  0  0  0  0  0  0  0  0
    1.5986   -8.7816    3.2361 C   0  0  0  0  0  0  0  0  0  0  0  0
    0.6787   -9.9557    2.8824 C   0  0  0  0  0  0  0  0  0  0  0  0
   -0.7427   -9.4007    2.8793 C   0  0  0  0  0  0  0  0  0  0  0  0
   -0.5784   -7.9471    2.4675 C   0  0  0  0  0  0  0  0  0  0  0  0
    3.6758   -4.5247    1.3067 C   0  0  0  0  0  0  0  0  0  0  0  0
    3.6626   -5.4497    0.4965 O   0  0  0  0  0  0  0  0  0  0  0  0
    4.2082   -3.1361    0.9082 C   0  0  1  0  0  0  0  0  0  0  0  0
    4.3077   -3.0055   -0.5889 C   0  0  0  0  0  0  0  0  0  0  0  0
    5.3464   -3.0952   -1.4762 C   0  0  0  0  0  0  0  0  0  0  0  0
    4.7934   -2.8645   -2.7673 C   0  0  0  0  0  0  0  0  0  0  0  0
    3.4566   -2.6571   -2.5724 C   0  0  0  0  0  0  0  0  0  0  0  0
    3.1437   -2.7551   -1.2551 O   0  0  0  0  0  0  0  0  0  0  0  0
    3.3874   -2.0134    1.5636 C   0  0  0  0  0  0  0  0  0  0  0  0
    3.4697   -0.7478    1.0970 C   0  0  0  0  0  0  0  0  0  0  0  0
    2.7081    0.4257    1.7009 C   0  0  0  0  0  0  0  0  0  0  0  0
   -1.0751    1.9218    2.4626 H   0  0  0  0  0  0  0  0  0  0  0  0
   -0.6712    0.3997    1.6791 H   0  0  0  0  0  0  0  0  0  0  0  0
    0.2007    1.8648    1.2575 H   0  0  0  0  0  0  0  0  0  0  0  0
    0.1974    0.5338    3.9987 H   0  0  0  0  0  0  0  0  0  0  0  0
    0.5868    2.9212    4.2103 H   0  0  0  0  0  0  0  0  0  0  0  0
    1.9087    2.8706    3.0539 H   0  0  0  0  0  0  0  0  0  0  0  0
    2.0585    2.0483    4.6119 H   0  0  0  0  0  0  0  0  0  0  0  0
    1.2281   -1.3766    4.1760 H   0  0  0  0  0  0  0  0  0  0  0  0
    5.2890   -4.1202    3.5518 H   0  0  0  0  0  0  0  0  0  0  0  0
    5.1861   -5.8416    3.1893 H   0  0  0  0  0  0  0  0  0  0  0  0
    4.4342   -5.2070    4.6370 H   0  0  0  0  0  0  0  0  0  0  0  0
    0.5012   -7.1764    4.1573 H   0  0  0  0  0  0  0  0  0  0  0  0
    2.4540   -8.7634    2.5593 H   0  0  0  0  0  0  0  0  0  0  0  0
    1.9903   -8.8889    4.2475 H   0  0  0  0  0  0  0  0  0  0  0  0
    0.9311  -10.3015    1.8810 H   0  0  0  0  0  0  0  0  0  0  0  0
    0.7920  -10.7968    3.5652 H   0  0  0  0  0  0  0  0  0  0  0  0
   -1.4036   -9.9474    2.2121 H   0  0  0  0  0  0  0  0  0  0  0  0
   -1.1584   -9.4530    3.8876 H   0  0  0  0  0  0  0  0  0  0  0  0
   -1.4305   -7.3338    2.7681 H   0  0  0  0  0  0  0  0  0  0  0  0
   -0.5085   -7.9102    1.3772 H   0  0  0  0  0  0  0  0  0  0  0  0
    5.2163   -3.0839    1.3206 H   0  0  0  0  0  0  0  0  0  0  0  0
    6.3759   -3.3010   -1.2215 H   0  0  0  0  0  0  0  0  0  0  0  0
    5.3000   -2.8561   -3.7190 H   0  0  0  0  0  0  0  0  0  0  0  0
    2.6218   -2.4470   -3.2311 H   0  0  0  0  0  0  0  0  0  0  0  0
    4.0870   -0.5092    0.2468 H   0  0  0  0  0  0  0  0  0  0  0  0
    2.1612    0.8952    0.8881 H   0  0  0  0  0  0  0  0  0  0  0  0
    3.4212    1.1548    2.0826 H   0  0  0  0  0  0  0  0  0  0  0  0
  1  2  1  0
  1 30  1  0
  1 31  1  0
  1 32  1  0
  2  3  1  0
  2  4  1  0
  2 33  1  0
  3 34  1  0
  3 35  1  0
  3 36  1  0
  4 29  1  0
  4  5  1  0
  5  6  2  0
  5 37  1  0
  6 27  1  0
  6  7  1  0
  7  8  2  0
  7  9  1  0
  9 10  1  0
  9 11  1  6
  9 19  1  0
 10 38  1  0
 10 39  1  0
 10 40  1  0
 11 12  1  0
 12 13  2  0
 12 14  1  0
 14 18  1  0
 14 15  1  0
 14 41  1  0
 15 16  1  0
 15 42  1  0
 15 43  1  0
 16 17  1  0
 16 44  1  0
 16 45  1  0
 17 18  1  0
 17 46  1  0
 17 47  1  0
 18 48  1  0
 18 49  1  0
 19 20  2  0
 19 21  1  0
 21 22  1  0
 21 27  1  0
 21 50  1  1
 22 26  1  0
 22 23  2  0
 23 24  1  0
 23 51  1  0
 24 25  2  0
 24 52  1  0
 25 26  1  0
 25 53  1  0
 27 28  2  0
 28 29  1  0
 28 54  1  0
 29 55  1  0
 29 56  1  0
M  END
>  <i_m_ct_stereo_status>  (299) 
1

>  <s_m_source_file>  (299) 
/var/tmp/pbs.5076255.sched01/tmp2a9bgmzv/100_xx7n39i.sdf

>  <i_m_source_file_index>  (299) 
42

>  <i_lp_mmshare_version>  (299) 
48012

>  <i_f3d_flags>  (299) 
0

>  <s_epik_input>  (299) 
W0NIM11bQ0hdKFtDSDNdKU4oW0NIXT0xKVtDSDJdW0NIXT1DKEMxMilbQ0BIXShjM1tjSF1bY0hdW2NIXW8zKUMoPU8pW0NAXShDMj1PKShbQ0gzXSlPQyg9TylbQ0hdNFtDSDJdW0NIMl1bQ0gyXVtDSDJdNA==

>  <s_epik_cmdline>  (299) 
J2VwaWtfcHl0aG9uJywgJy1waHQnLCAnMi4wJywgJy1waCcsICc3LjAnLCAnLXRuJywgJzgnLCAnLW1hJywgJzIwMCcsICctaW1hZScsICc8aW5maWxlLm1hZT4nLCAnLW9tYWUnLCAnPG91dGZpbGUubWFlPic=

>  <r_epik_Ionization_Penalty>  (299) 
0.0510266

>  <r_epik_Ionization_Penalty_Charging>  (299) 
0.0510266

>  <r_epik_Ionization_Penalty_Neutral>  (299) 
8.3729e-10

>  <r_epik_State_Penalty>  (299) 
0.0436871

>  <r_epik_Charging_Adjusted_Penalty>  (299) 
0.0947137

>  <i_epik_Tot_Q>  (299) 
0

>  <i_epik_Tot_abs_Q>  (299) 
0

>  <s_epik_Chemistry_Notes>  (299) 
This compound has an ester and may undergo hydrolysis at high or low pH. This compound has an imine and may undergo hydrolysis.

>  <s_lp_Force_Field>  (299) 
OPLS3e

>  <r_lp_Energy>  (299) 
47.219

>  <b_lp_Chiralities_Consistent>  (299) 
1

>  <s_lp_Variant>  (299) 
75:0-1

>  <s_i_glide_gridfile>  (299) 
pfpi4k_grid

>  <i_i_glide_lignum>  (299) 
42

>  <i_i_glide_rotatable_bonds>  (299) 
5

>  <r_i_docking_score>  (299) 
-2.66898

>  <r_i_glide_ligand_efficiency>  (299) 
-0.0920338

>  <r_i_glide_ligand_efficiency_sa>  (299) 
-0.282757

>  <r_i_glide_ligand_efficiency_ln>  (299) 
-0.611129

>  <r_i_glide_gscore>  (299) 
-2.66898

>  <r_i_glide_lipo>  (299) 
-0.27443

>  <r_i_glide_hbond>  (299) 
-0.153177

>  <r_i_glide_metal>  (299) 
-0

>  <r_i_glide_rewards>  (299) 
-0.714673

>  <r_i_glide_evdw>  (299) 
-34.9419

>  <r_i_glide_ecoul>  (299) 
-1.4715

>  <r_i_glide_erotb>  (299) 
0.49564

>  <r_i_glide_esite>  (299) 
-0.0545218

>  <r_i_glide_emodel>  (299) 
-41.9602

>  <r_i_glide_energy>  (299) 
-36.4134

>  <r_i_glide_einternal>  (299) 
1.58591

>  <r_i_glide_intrahb_reward>  (299) 
-0

>  <i_i_glide_confnum>  (299) 
1

>  <i_i_glide_posenum>  (299) 
1

>  <r_i_glide_eff_state_penalty>  (299) 
0

>  <ligand_id>  (299) 
75

>  <original_smiles>  (299) 
CC(C)N1C=C2C(=O)C(C)(OC(=O)C3CCCC3)C(=O)C(c3ccco3)C2=CC1

>  <smiles>  (299) 
[H]C1=C2C(=O)C(OC(=O)C3([H])C([H])([H])C([H])([H])C([H])([H])C3([H])[H])(C([H])([H])[H])C(=O)C([H])(c3oc([H])c([H])c3[H])C2=C([H])C([H])([H])N1C([H])(C([H])([H])[H])C([H])([H])[H]

$$$$
75:0:2
     RDKit          3D

 56 59  0  0  1  0  0  0  0  0999 V2000
   -1.0785   -9.0070    2.4837 C   0  0  0  0  0  0  0  0  0  0  0  0
    0.4232   -9.2813    2.6636 C   0  0  0  0  0  0  0  0  0  0  0  0
    0.6914  -10.4706    3.5973 C   0  0  0  0  0  0  0  0  0  0  0  0
    1.1601   -8.0732    3.0473 N   0  0  0  0  0  0  0  0  0  0  0  0
    2.0749   -7.4820    2.1860 C   0  0  0  0  0  0  0  0  0  0  0  0
    2.6047   -6.2565    2.3791 C   0  0  0  0  0  0  0  0  0  0  0  0
    3.5943   -5.7416    1.3990 C   0  0  0  0  0  0  0  0  0  0  0  0
    4.0338   -6.4427    0.4821 O   0  0  0  0  0  0  0  0  0  0  0  0
    4.1572   -4.3002    1.5358 C   0  0  1  0  0  0  0  0  0  0  0  0
    5.5737   -4.3526    2.1248 C   0  0  0  0  0  0  0  0  0  0  0  0
    4.3629   -3.6958    0.2402 O   0  0  0  0  0  0  0  0  0  0  0  0
    3.3982   -3.5422   -0.7093 C   0  0  0  0  0  0  0  0  0  0  0  0
    2.2164   -3.8663   -0.5892 O   0  0  0  0  0  0  0  0  0  0  0  0
    3.9615   -2.9035   -1.9906 C   0  0  0  0  0  0  0  0  0  0  0  0
    4.3488   -1.4235   -1.7911 C   0  0  0  0  0  0  0  0  0  0  0  0
    3.8144   -0.6593   -3.0108 C   0  0  0  0  0  0  0  0  0  0  0  0
    3.4196   -1.7178   -4.0288 C   0  0  0  0  0  0  0  0  0  0  0  0
    2.9918   -2.9125   -3.1838 C   0  0  0  0  0  0  0  0  0  0  0  0
    3.2514   -3.4187    2.4286 C   0  0  0  0  0  0  0  0  0  0  0  0
    3.0565   -2.2346    2.1477 O   0  0  0  0  0  0  0  0  0  0  0  0
    2.7375   -4.0245    3.7512 C   0  0  1  0  0  0  0  0  0  0  0  0
    1.7416   -3.1306    4.4516 C   0  0  0  0  0  0  0  0  0  0  0  0
    0.6335   -2.4268    4.0584 C   0  0  0  0  0  0  0  0  0  0  0  0
    0.1090   -1.8015    5.2226 C   0  0  0  0  0  0  0  0  0  0  0  0
    0.9332   -2.1707    6.2464 C   0  0  0  0  0  0  0  0  0  0  0  0
    1.9334   -2.9768    5.7936 O   0  0  0  0  0  0  0  0  0  0  0  0
    2.2045   -5.4461    3.5340 C   0  0  0  0  0  0  0  0  0  0  0  0
    1.4203   -6.0389    4.4652 C   0  0  0  0  0  0  0  0  0  0  0  0
    0.8693   -7.4513    4.3418 C   0  0  0  0  0  0  0  0  0  0  0  0
   -1.5807   -9.8767    2.0596 H   0  0  0  0  0  0  0  0  0  0  0  0
   -1.2387   -8.1746    1.7986 H   0  0  0  0  0  0  0  0  0  0  0  0
   -1.5739   -8.7800    3.4280 H   0  0  0  0  0  0  0  0  0  0  0  0
    0.8010   -9.5825    1.6877 H   0  0  0  0  0  0  0  0  0  0  0  0
    0.2201  -11.3743    3.2098 H   0  0  0  0  0  0  0  0  0  0  0  0
    0.2939  -10.3060    4.5991 H   0  0  0  0  0  0  0  0  0  0  0  0
    1.7583  -10.6780    3.6815 H   0  0  0  0  0  0  0  0  0  0  0  0
    2.3516   -8.1115    1.3479 H   0  0  0  0  0  0  0  0  0  0  0  0
    5.5866   -4.8113    3.1106 H   0  0  0  0  0  0  0  0  0  0  0  0
    5.9927   -3.3505    2.2104 H   0  0  0  0  0  0  0  0  0  0  0  0
    6.2422   -4.9249    1.4814 H   0  0  0  0  0  0  0  0  0  0  0  0
    4.8595   -3.4528   -2.2811 H   0  0  0  0  0  0  0  0  0  0  0  0
    3.9240   -1.0013   -0.8788 H   0  0  0  0  0  0  0  0  0  0  0  0
    5.4323   -1.3203   -1.7145 H   0  0  0  0  0  0  0  0  0  0  0  0
    2.9243   -0.1011   -2.7233 H   0  0  0  0  0  0  0  0  0  0  0  0
    4.5381    0.0514   -3.4083 H   0  0  0  0  0  0  0  0  0  0  0  0
    2.6242   -1.3742   -4.6898 H   0  0  0  0  0  0  0  0  0  0  0  0
    4.2793   -1.9830   -4.6407 H   0  0  0  0  0  0  0  0  0  0  0  0
    3.0293   -3.8508   -3.7419 H   0  0  0  0  0  0  0  0  0  0  0  0
    1.9599   -2.7561   -2.8646 H   0  0  0  0  0  0  0  0  0  0  0  0
    3.6139   -4.1083    4.3925 H   0  0  0  0  0  0  0  0  0  0  0  0
    0.2577   -2.3684    3.0489 H   0  0  0  0  0  0  0  0  0  0  0  0
   -0.7532   -1.1555    5.3008 H   0  0  0  0  0  0  0  0  0  0  0  0
    0.9601   -1.9546    7.3045 H   0  0  0  0  0  0  0  0  0  0  0  0
    1.1420   -5.5155    5.3701 H   0  0  0  0  0  0  0  0  0  0  0  0
   -0.2064   -7.3915    4.4926 H   0  0  0  0  0  0  0  0  0  0  0  0
    1.2773   -8.0678    5.1438 H   0  0  0  0  0  0  0  0  0  0  0  0
  1  2  1  0
  1 30  1  0
  1 31  1  0
  1 32  1  0
  2  3  1  0
  2  4  1  0
  2 33  1  0
  3 34  1  0
  3 35  1  0
  3 36  1  0
  4 29  1  0
  4  5  1  0
  5  6  2  0
  5 37  1  0
  6 27  1  0
  6  7  1  0
  7  8  2  0
  7  9  1  0
  9 10  1  0
  9 11  1  6
  9 19  1  0
 10 38  1  0
 10 39  1  0
 10 40  1  0
 11 12  1  0
 12 13  2  0
 12 14  1  0
 14 18  1  0
 14 15  1  0
 14 41  1  0
 15 16  1  0
 15 42  1  0
 15 43  1  0
 16 17  1  0
 16 44  1  0
 16 45  1  0
 17 18  1  0
 17 46  1  0
 17 47  1  0
 18 48  1  0
 18 49  1  0
 19 20  2  0
 19 21  1  0
 21 22  1  0
 21 27  1  0
 21 50  1  1
 22 26  1  0
 22 23  2  0
 23 24  1  0
 23 51  1  0
 24 25  2  0
 24 52  1  0
 25 26  1  0
 25 53  1  0
 27 28  2  0
 28 29  1  0
 28 54  1  0
 29 55  1  0
 29 56  1  0
M  END
>  <i_m_ct_stereo_status>  (300) 
1

>  <s_m_source_file>  (300) 
/var/tmp/pbs.5076255.sched01/tmp2a9bgmzv/100_xx7n39i.sdf

>  <i_m_source_file_index>  (300) 
42

>  <i_lp_mmshare_version>  (300) 
48012

>  <i_f3d_flags>  (300) 
0

>  <s_epik_input>  (300) 
W0NIM11bQ0hdKFtDSDNdKU4oW0NIXT0xKVtDSDJdW0NIXT1DKEMxMilbQ0BIXShjM1tjSF1bY0hdW2NIXW8zKUMoPU8pW0NAXShDMj1PKShbQ0gzXSlPQyg9TylbQ0hdNFtDSDJdW0NIMl1bQ0gyXVtDSDJdNA==

>  <s_epik_cmdline>  (300) 
J2VwaWtfcHl0aG9uJywgJy1waHQnLCAnMi4wJywgJy1waCcsICc3LjAnLCAnLXRuJywgJzgnLCAnLW1hJywgJzIwMCcsICctaW1hZScsICc8aW5maWxlLm1hZT4nLCAnLW9tYWUnLCAnPG91dGZpbGUubWFlPic=

>  <r_epik_Ionization_Penalty>  (300) 
0.0510266

>  <r_epik_Ionization_Penalty_Charging>  (300) 
0.0510266

>  <r_epik_Ionization_Penalty_Neutral>  (300) 
8.3729e-10

>  <r_epik_State_Penalty>  (300) 
0.0436871

>  <r_epik_Charging_Adjusted_Penalty>  (300) 
0.0947137

>  <i_epik_Tot_Q>  (300) 
0

>  <i_epik_Tot_abs_Q>  (300) 
0

>  <s_epik_Chemistry_Notes>  (300) 
This compound has an ester and may undergo hydrolysis at high or low pH. This compound has an imine and may undergo hydrolysis.

>  <s_lp_Force_Field>  (300) 
OPLS3e

>  <r_lp_Energy>  (300) 
47.219

>  <b_lp_Chiralities_Consistent>  (300) 
1

>  <s_lp_Variant>  (300) 
75:0-1

>  <s_i_glide_gridfile>  (300) 
pfpi4k_grid

>  <i_i_glide_lignum>  (300) 
42

>  <i_i_glide_rotatable_bonds>  (300) 
5

>  <r_i_docking_score>  (300) 
-2.58951

>  <r_i_glide_ligand_efficiency>  (300) 
-0.0892934

>  <r_i_glide_ligand_efficiency_sa>  (300) 
-0.274338

>  <r_i_glide_ligand_efficiency_ln>  (300) 
-0.592932

>  <r_i_glide_gscore>  (300) 
-2.58951

>  <r_i_glide_lipo>  (300) 
-0.447518

>  <r_i_glide_hbond>  (300) 
0

>  <r_i_glide_metal>  (300) 
-0

>  <r_i_glide_rewards>  (300) 
-0.785785

>  <r_i_glide_evdw>  (300) 
-36.4464

>  <r_i_glide_ecoul>  (300) 
-0.069347

>  <r_i_glide_erotb>  (300) 
0.49564

>  <r_i_glide_esite>  (300) 
-0.0191254

>  <r_i_glide_emodel>  (300) 
-42.6562

>  <r_i_glide_energy>  (300) 
-36.5157

>  <r_i_glide_einternal>  (300) 
0.469741

>  <r_i_glide_intrahb_reward>  (300) 
-0

>  <i_i_glide_confnum>  (300) 
2

>  <i_i_glide_posenum>  (300) 
2

>  <r_i_glide_eff_state_penalty>  (300) 
0

>  <ligand_id>  (300) 
75

>  <original_smiles>  (300) 
CC(C)N1C=C2C(=O)C(C)(OC(=O)C3CCCC3)C(=O)C(c3ccco3)C2=CC1

>  <smiles>  (300) 
[H]C1=C2C(=O)C(OC(=O)C3([H])C([H])([H])C([H])([H])C([H])([H])C3([H])[H])(C([H])([H])[H])C(=O)C([H])(c3oc([H])c([H])c3[H])C2=C([H])C([H])([H])N1C([H])(C([H])([H])[H])C([H])([H])[H]

$$$$
75:1:0
     RDKit          3D

 57 60  0  0  1  0  0  0  0  0999 V2000
   -0.2103    1.3440    2.2028 C   0  0  0  0  0  0  0  0  0  0  0  0
    0.9795    0.9925    3.1125 C   0  0  0  0  0  0  0  0  0  0  0  0
    1.7978    2.2367    3.5036 C   0  0  0  0  0  0  0  0  0  0  0  0
    1.8235   -0.0948    2.5432 N   0  0  0  0  0  0  0  0  0  0  0  0
    1.8494   -1.2877    3.0537 C   0  0  0  0  0  0  0  0  0  0  0  0
    2.6134   -2.3644    2.5211 C   0  0  0  0  0  0  0  0  0  0  0  0
    2.6316   -3.5648    3.1381 C   0  0  0  0  0  0  0  0  0  0  0  0
    1.9501   -3.8246    4.2675 O   0  0  0  0  0  0  0  0  0  0  0  0
    3.3877   -4.8155    2.6725 C   0  0  1  0  0  0  0  0  0  0  0  0
    4.6407   -5.0306    3.5376 C   0  0  0  0  0  0  0  0  0  0  0  0
    2.5856   -5.9885    2.9155 O   0  0  0  0  0  0  0  0  0  0  0  0
    1.4627   -6.3372    2.2305 C   0  0  0  0  0  0  0  0  0  0  0  0
    1.0583   -5.8549    1.1753 O   0  0  0  0  0  0  0  0  0  0  0  0
    0.6478   -7.3918    2.9775 C   0  0  0  0  0  0  0  0  0  0  0  0
    1.4270   -8.6996    3.2158 C   0  0  0  0  0  0  0  0  0  0  0  0
    0.4597   -9.8402    2.8811 C   0  0  0  0  0  0  0  0  0  0  0  0
   -0.9250   -9.2050    2.7570 C   0  0  0  0  0  0  0  0  0  0  0  0
   -0.6451   -7.7976    2.2586 C   0  0  0  0  0  0  0  0  0  0  0  0
    3.8251   -4.6744    1.1858 C   0  0  0  0  0  0  0  0  0  0  0  0
    3.9493   -5.6661    0.4713 O   0  0  0  0  0  0  0  0  0  0  0  0
    4.2529   -3.2766    0.6921 C   0  0  1  0  0  0  0  0  0  0  0  0
    4.3237   -3.2425   -0.8101 C   0  0  0  0  0  0  0  0  0  0  0  0
    3.4108   -3.0442   -1.8134 C   0  0  0  0  0  0  0  0  0  0  0  0
    4.1225   -3.1682   -3.0389 C   0  0  0  0  0  0  0  0  0  0  0  0
    5.4162   -3.4333   -2.6966 C   0  0  0  0  0  0  0  0  0  0  0  0
    5.5588   -3.4674   -1.3429 O   0  0  0  0  0  0  0  0  0  0  0  0
    3.3854   -2.1651    1.2964 C   0  0  0  0  0  0  0  0  0  0  0  0
    3.4080   -0.9273    0.7687 C   0  0  0  0  0  0  0  0  0  0  0  0
    2.6121    0.2361    1.3291 C   0  0  0  0  0  0  0  0  0  0  0  0
   -0.8956    2.0398    2.6910 H   0  0  0  0  0  0  0  0  0  0  0  0
   -0.7822    0.4548    1.9426 H   0  0  0  0  0  0  0  0  0  0  0  0
    0.1110    1.8074    1.2691 H   0  0  0  0  0  0  0  0  0  0  0  0
    0.5533    0.6072    4.0389 H   0  0  0  0  0  0  0  0  0  0  0  0
    1.1902    2.9412    4.0738 H   0  0  0  0  0  0  0  0  0  0  0  0
    2.1755    2.7716    2.6307 H   0  0  0  0  0  0  0  0  0  0  0  0
    2.6501    1.9637    4.1277 H   0  0  0  0  0  0  0  0  0  0  0  0
    1.2474   -1.4380    3.9385 H   0  0  0  0  0  0  0  0  0  0  0  0
    5.3051   -4.1673    3.5088 H   0  0  0  0  0  0  0  0  0  0  0  0
    5.2104   -5.9029    3.2088 H   0  0  0  0  0  0  0  0  0  0  0  0
    4.3745   -5.2038    4.5818 H   0  0  0  0  0  0  0  0  0  0  0  0
    0.3836   -6.9689    3.9500 H   0  0  0  0  0  0  0  0  0  0  0  0
    2.3208   -8.7744    2.5930 H   0  0  0  0  0  0  0  0  0  0  0  0
    1.7534   -8.7558    4.2540 H   0  0  0  0  0  0  0  0  0  0  0  0
    0.7496  -10.2784    1.9278 H   0  0  0  0  0  0  0  0  0  0  0  0
    0.4797  -10.6340    3.6285 H   0  0  0  0  0  0  0  0  0  0  0  0
   -1.5773   -9.7606    2.0841 H   0  0  0  0  0  0  0  0  0  0  0  0
   -1.4046   -9.1625    3.7350 H   0  0  0  0  0  0  0  0  0  0  0  0
   -1.4704   -7.1141    2.4632 H   0  0  0  0  0  0  0  0  0  0  0  0
   -0.5057   -7.8399    1.1747 H   0  0  0  0  0  0  0  0  0  0  0  0
    5.2556   -3.1142    1.0829 H   0  0  0  0  0  0  0  0  0  0  0  0
    2.3550   -2.8468   -1.6805 H   0  0  0  0  0  0  0  0  0  0  0  0
    3.7341   -3.0993   -4.0456 H   0  0  0  0  0  0  0  0  0  0  0  0
    6.3190   -3.6265   -3.2538 H   0  0  0  0  0  0  0  0  0  0  0  0
    3.9984   -0.7038   -0.1065 H   0  0  0  0  0  0  0  0  0  0  0  0
    1.9051    0.5693    0.5744 H   0  0  0  0  0  0  0  0  0  0  0  0
    3.2839    1.0571    1.5753 H   0  0  0  0  0  0  0  0  0  0  0  0
    2.1862   -4.7058    4.5237 H   0  0  0  0  0  0  0  0  0  0  0  0
  1  2  1  0
  1 30  1  0
  1 31  1  0
  1 32  1  0
  2  3  1  0
  2  4  1  0
  2 33  1  0
  3 34  1  0
  3 35  1  0
  3 36  1  0
  4 29  1  0
  4  5  2  0
  5  6  1  0
  5 37  1  0
  6 27  1  0
  6  7  2  0
  7  8  1  0
  7  9  1  0
  8 57  1  0
  9 10  1  0
  9 11  1  6
  9 19  1  0
 10 38  1  0
 10 39  1  0
 10 40  1  0
 11 12  1  0
 12 13  2  0
 12 14  1  0
 14 18  1  0
 14 15  1  0
 14 41  1  0
 15 16  1  0
 15 42  1  0
 15 43  1  0
 16 17  1  0
 16 44  1  0
 16 45  1  0
 17 18  1  0
 17 46  1  0
 17 47  1  0
 18 48  1  0
 18 49  1  0
 19 20  2  0
 19 21  1  0
 21 22  1  0
 21 27  1  0
 21 50  1  1
 22 26  1  0
 22 23  2  0
 23 24  1  0
 23 51  1  0
 24 25  2  0
 24 52  1  0
 25 26  1  0
 25 53  1  0
 27 28  2  0
 28 29  1  0
 28 54  1  0
 29 55  1  0
 29 56  1  0
M  CHG  1   4   1
M  END
>  <i_m_ct_stereo_status>  (301) 
1

>  <s_m_source_file>  (301) 
/var/tmp/pbs.5076255.sched01/tmp2a9bgmzv/100_xx7n39i.sdf

>  <i_m_source_file_index>  (301) 
43

>  <i_lp_mmshare_version>  (301) 
48012

>  <i_f3d_flags>  (301) 
0

>  <s_epik_input>  (301) 
W0NIM11bQ0hdKFtDSDNdKU4oW0NIXT0xKVtDSDJdW0NIXT1DKEMxMilbQ0BIXShjM1tjSF1bY0hdW2NIXW8zKUMoPU8pW0NAXShDMj1PKShbQ0gzXSlPQyg9TylbQ0hdNFtDSDJdW0NIMl1bQ0gyXVtDSDJdNA==

>  <s_epik_cmdline>  (301) 
J2VwaWtfcHl0aG9uJywgJy1waHQnLCAnMi4wJywgJy1waCcsICc3LjAnLCAnLXRuJywgJzgnLCAnLW1hJywgJzIwMCcsICctaW1hZScsICc8aW5maWxlLm1hZT4nLCAnLW9tYWUnLCAnPG91dGZpbGUubWFlPic=

>  <r_epik_Ionization_Penalty>  (301) 
1.47809

>  <r_epik_Ionization_Penalty_Charging>  (301) 
0

>  <r_epik_Ionization_Penalty_Neutral>  (301) 
1.47809

>  <r_epik_State_Penalty>  (301) 
1.56648

>  <r_epik_Charging_Adjusted_Penalty>  (301) 
1.56648

>  <i_epik_Tot_Q>  (301) 
1

>  <i_epik_Tot_abs_Q>  (301) 
1

>  <s_epik_Chemistry_Notes>  (301) 
This compound has an ester and may undergo hydrolysis at high or low pH. This compound has an imine and may undergo hydrolysis.

>  <s_lp_Force_Field>  (301) 
OPLS3e

>  <r_lp_Energy>  (301) 
43.2683

>  <b_lp_Chiralities_Consistent>  (301) 
1

>  <s_lp_Variant>  (301) 
75:0-2

>  <s_i_glide_gridfile>  (301) 
pfpi4k_grid

>  <i_i_glide_lignum>  (301) 
43

>  <i_i_glide_rotatable_bonds>  (301) 
6

>  <r_i_docking_score>  (301) 
-3.23933

>  <r_i_glide_ligand_efficiency>  (301) 
-0.111701

>  <r_i_glide_ligand_efficiency_sa>  (301) 
-0.34318

>  <r_i_glide_ligand_efficiency_ln>  (301) 
-0.741723

>  <r_i_glide_gscore>  (301) 
-3.23933

>  <r_i_glide_lipo>  (301) 
-0.349949

>  <r_i_glide_hbond>  (301) 
-0.16

>  <r_i_glide_metal>  (301) 
-0

>  <r_i_glide_rewards>  (301) 
-0.709928

>  <r_i_glide_evdw>  (301) 
-34.8688

>  <r_i_glide_ecoul>  (301) 
-4.62629

>  <r_i_glide_erotb>  (301) 
0.493387

>  <r_i_glide_esite>  (301) 
-0.0754517

>  <r_i_glide_emodel>  (301) 
-45.8589

>  <r_i_glide_energy>  (301) 
-39.4951

>  <r_i_glide_einternal>  (301) 
3.82369

>  <r_i_glide_intrahb_reward>  (301) 
-0

>  <i_i_glide_confnum>  (301) 
3

>  <i_i_glide_posenum>  (301) 
32

>  <r_i_glide_eff_state_penalty>  (301) 
0

>  <ligand_id>  (301) 
75

>  <original_smiles>  (301) 
CC(C)N1C=C2C(=O)C(C)(OC(=O)C3CCCC3)C(=O)C(c3ccco3)C2=CC1

>  <smiles>  (301) 
[H]OC1=C2C(=C([H])C([H])([H])[N+](C([H])(C([H])([H])[H])C([H])([H])[H])=C2[H])C([H])(c2oc([H])c([H])c2[H])C(=O)C1(OC(=O)C1([H])C([H])([H])C([H])([H])C([H])([H])C1([H])[H])C([H])([H])[H]

$$$$
75:1:1
     RDKit          3D

 57 60  0  0  1  0  0  0  0  0999 V2000
   -0.1545    1.3548    2.1402 C   0  0  0  0  0  0  0  0  0  0  0  0
    0.9920    0.9684    3.0862 C   0  0  0  0  0  0  0  0  0  0  0  0
    1.8254    2.1808    3.5320 C   0  0  0  0  0  0  0  0  0  0  0  0
    1.8326   -0.1273    2.5289 N   0  0  0  0  0  0  0  0  0  0  0  0
    1.8516   -1.3128    3.0524 C   0  0  0  0  0  0  0  0  0  0  0  0
    2.6113   -2.4067    2.5487 C   0  0  0  0  0  0  0  0  0  0  0  0
    2.6191   -3.6082    3.1750 C   0  0  0  0  0  0  0  0  0  0  0  0
    1.9467   -3.8894    4.3087 O   0  0  0  0  0  0  0  0  0  0  0  0
    3.3759   -4.8579    2.7065 C   0  0  1  0  0  0  0  0  0  0  0  0
    4.6229   -5.0714    3.5877 C   0  0  0  0  0  0  0  0  0  0  0  0
    2.5806   -6.0400    2.9481 O   0  0  0  0  0  0  0  0  0  0  0  0
    1.4381   -6.3680    2.2898 C   0  0  0  0  0  0  0  0  0  0  0  0
    1.0137   -5.8591    1.2552 O   0  0  0  0  0  0  0  0  0  0  0  0
    0.6430   -7.4419    3.0223 C   0  0  0  0  0  0  0  0  0  0  0  0
    1.4315   -8.7511    3.2295 C   0  0  0  0  0  0  0  0  0  0  0  0
    0.4691   -9.8938    2.8843 C   0  0  0  0  0  0  0  0  0  0  0  0
   -0.9201   -9.2667    2.7819 C   0  0  0  0  0  0  0  0  0  0  0  0
   -0.6551   -7.8468    2.3066 C   0  0  0  0  0  0  0  0  0  0  0  0
    3.8184   -4.7281    1.2256 C   0  0  0  0  0  0  0  0  0  0  0  0
    3.9366   -5.7247    0.5129 O   0  0  0  0  0  0  0  0  0  0  0  0
    4.2592   -3.3392    0.7302 C   0  0  1  0  0  0  0  0  0  0  0  0
    4.3435   -3.3050   -0.7777 C   0  0  0  0  0  0  0  0  0  0  0  0
    5.3671   -3.4974   -1.6684 C   0  0  0  0  0  0  0  0  0  0  0  0
    4.8099   -3.3390   -2.9680 C   0  0  0  0  0  0  0  0  0  0  0  0
    3.4863   -3.0533   -2.7758 C   0  0  0  0  0  0  0  0  0  0  0  0
    3.1860   -3.0452   -1.4515 O   0  0  0  0  0  0  0  0  0  0  0  0
    3.3903   -2.2195    1.3238 C   0  0  0  0  0  0  0  0  0  0  0  0
    3.4175   -0.9872    0.7740 C   0  0  0  0  0  0  0  0  0  0  0  0
    2.6253    0.1881    1.3100 C   0  0  0  0  0  0  0  0  0  0  0  0
   -0.8416    2.0592    2.6147 H   0  0  0  0  0  0  0  0  0  0  0  0
   -0.7364    0.4829    1.8414 H   0  0  0  0  0  0  0  0  0  0  0  0
    0.2126    1.8287    1.2292 H   0  0  0  0  0  0  0  0  0  0  0  0
    0.5223    0.5773    3.9890 H   0  0  0  0  0  0  0  0  0  0  0  0
    1.2139    2.8916    4.0924 H   0  0  0  0  0  0  0  0  0  0  0  0
    2.2529    2.7196    2.6839 H   0  0  0  0  0  0  0  0  0  0  0  0
    2.6459    1.8756    4.1842 H   0  0  0  0  0  0  0  0  0  0  0  0
    1.2310   -1.4248    3.9314 H   0  0  0  0  0  0  0  0  0  0  0  0
    5.2905   -4.2122    3.5549 H   0  0  0  0  0  0  0  0  0  0  0  0
    5.1868   -5.9491    3.2713 H   0  0  0  0  0  0  0  0  0  0  0  0
    4.3467   -5.2324    4.6297 H   0  0  0  0  0  0  0  0  0  0  0  0
    0.3827   -7.0406    4.0066 H   0  0  0  0  0  0  0  0  0  0  0  0
    2.3194   -8.8068    2.5987 H   0  0  0  0  0  0  0  0  0  0  0  0
    1.7663   -8.8247    4.2640 H   0  0  0  0  0  0  0  0  0  0  0  0
    0.7526  -10.3139    1.9209 H   0  0  0  0  0  0  0  0  0  0  0  0
    0.5013  -10.7003    3.6162 H   0  0  0  0  0  0  0  0  0  0  0  0
   -1.5751   -9.8152    2.1067 H   0  0  0  0  0  0  0  0  0  0  0  0
   -1.3893   -9.2454    3.7643 H   0  0  0  0  0  0  0  0  0  0  0  0
   -1.4847   -7.1744    2.5307 H   0  0  0  0  0  0  0  0  0  0  0  0
   -0.5215   -7.8648    1.2231 H   0  0  0  0  0  0  0  0  0  0  0  0
    5.2621   -3.1847    1.1268 H   0  0  0  0  0  0  0  0  0  0  0  0
    6.3853   -3.7500   -1.4136 H   0  0  0  0  0  0  0  0  0  0  0  0
    5.3058   -3.4397   -3.9211 H   0  0  0  0  0  0  0  0  0  0  0  0
    2.6538   -2.8547   -3.4393 H   0  0  0  0  0  0  0  0  0  0  0  0
    4.0079   -0.7805   -0.1060 H   0  0  0  0  0  0  0  0  0  0  0  0
    1.9242    0.5216    0.5476 H   0  0  0  0  0  0  0  0  0  0  0  0
    3.3005    1.0054    1.5538 H   0  0  0  0  0  0  0  0  0  0  0  0
    1.5568   -3.1039    4.6426 H   0  0  0  0  0  0  0  0  0  0  0  0
  1  2  1  0
  1 30  1  0
  1 31  1  0
  1 32  1  0
  2  3  1  0
  2  4  1  0
  2 33  1  0
  3 34  1  0
  3 35  1  0
  3 36  1  0
  4 29  1  0
  4  5  2  0
  5  6  1  0
  5 37  1  0
  6 27  1  0
  6  7  2  0
  7  8  1  0
  7  9  1  0
  8 57  1  0
  9 10  1  0
  9 11  1  6
  9 19  1  0
 10 38  1  0
 10 39  1  0
 10 40  1  0
 11 12  1  0
 12 13  2  0
 12 14  1  0
 14 18  1  0
 14 15  1  0
 14 41  1  0
 15 16  1  0
 15 42  1  0
 15 43  1  0
 16 17  1  0
 16 44  1  0
 16 45  1  0
 17 18  1  0
 17 46  1  0
 17 47  1  0
 18 48  1  0
 18 49  1  0
 19 20  2  0
 19 21  1  0
 21 22  1  0
 21 27  1  0
 21 50  1  1
 22 26  1  0
 22 23  2  0
 23 24  1  0
 23 51  1  0
 24 25  2  0
 24 52  1  0
 25 26  1  0
 25 53  1  0
 27 28  2  0
 28 29  1  0
 28 54  1  0
 29 55  1  0
 29 56  1  0
M  CHG  1   4   1
M  END
>  <i_m_ct_stereo_status>  (302) 
1

>  <s_m_source_file>  (302) 
/var/tmp/pbs.5076255.sched01/tmp2a9bgmzv/100_xx7n39i.sdf

>  <i_m_source_file_index>  (302) 
43

>  <i_lp_mmshare_version>  (302) 
48012

>  <i_f3d_flags>  (302) 
0

>  <s_epik_input>  (302) 
W0NIM11bQ0hdKFtDSDNdKU4oW0NIXT0xKVtDSDJdW0NIXT1DKEMxMilbQ0BIXShjM1tjSF1bY0hdW2NIXW8zKUMoPU8pW0NAXShDMj1PKShbQ0gzXSlPQyg9TylbQ0hdNFtDSDJdW0NIMl1bQ0gyXVtDSDJdNA==

>  <s_epik_cmdline>  (302) 
J2VwaWtfcHl0aG9uJywgJy1waHQnLCAnMi4wJywgJy1waCcsICc3LjAnLCAnLXRuJywgJzgnLCAnLW1hJywgJzIwMCcsICctaW1hZScsICc8aW5maWxlLm1hZT4nLCAnLW9tYWUnLCAnPG91dGZpbGUubWFlPic=

>  <r_epik_Ionization_Penalty>  (302) 
1.47809

>  <r_epik_Ionization_Penalty_Charging>  (302) 
0

>  <r_epik_Ionization_Penalty_Neutral>  (302) 
1.47809

>  <r_epik_State_Penalty>  (302) 
1.56648

>  <r_epik_Charging_Adjusted_Penalty>  (302) 
1.56648

>  <i_epik_Tot_Q>  (302) 
1

>  <i_epik_Tot_abs_Q>  (302) 
1

>  <s_epik_Chemistry_Notes>  (302) 
This compound has an ester and may undergo hydrolysis at high or low pH. This compound has an imine and may undergo hydrolysis.

>  <s_lp_Force_Field>  (302) 
OPLS3e

>  <r_lp_Energy>  (302) 
43.2683

>  <b_lp_Chiralities_Consistent>  (302) 
1

>  <s_lp_Variant>  (302) 
75:0-2

>  <s_i_glide_gridfile>  (302) 
pfpi4k_grid

>  <i_i_glide_lignum>  (302) 
43

>  <i_i_glide_rotatable_bonds>  (302) 
6

>  <r_i_docking_score>  (302) 
-3.2073

>  <r_i_glide_ligand_efficiency>  (302) 
-0.110597

>  <r_i_glide_ligand_efficiency_sa>  (302) 
-0.339788

>  <r_i_glide_ligand_efficiency_ln>  (302) 
-0.734391

>  <r_i_glide_gscore>  (302) 
-3.2073

>  <r_i_glide_lipo>  (302) 
-0.365991

>  <r_i_glide_hbond>  (302) 
-0.16

>  <r_i_glide_metal>  (302) 
-0

>  <r_i_glide_rewards>  (302) 
-0.7104

>  <r_i_glide_evdw>  (302) 
-34.8001

>  <r_i_glide_ecoul>  (302) 
-4.33063

>  <r_i_glide_erotb>  (302) 
0.493387

>  <r_i_glide_esite>  (302) 
-0.0746961

>  <r_i_glide_emodel>  (302) 
-46.4684

>  <r_i_glide_energy>  (302) 
-39.1308

>  <r_i_glide_einternal>  (302) 
1.65168

>  <r_i_glide_intrahb_reward>  (302) 
-0

>  <i_i_glide_confnum>  (302) 
3

>  <i_i_glide_posenum>  (302) 
7

>  <r_i_glide_eff_state_penalty>  (302) 
0

>  <ligand_id>  (302) 
75

>  <original_smiles>  (302) 
CC(C)N1C=C2C(=O)C(C)(OC(=O)C3CCCC3)C(=O)C(c3ccco3)C2=CC1

>  <smiles>  (302) 
[H]OC1=C2C(=C([H])C([H])([H])[N+](C([H])(C([H])([H])[H])C([H])([H])[H])=C2[H])C([H])(c2oc([H])c([H])c2[H])C(=O)C1(OC(=O)C1([H])C([H])([H])C([H])([H])C([H])([H])C1([H])[H])C([H])([H])[H]

$$$$
75:1:2
     RDKit          3D

 57 60  0  0  1  0  0  0  0  0999 V2000
   -0.0283    1.2110    2.4047 C   0  0  0  0  0  0  0  0  0  0  0  0
    1.2035    0.7978    3.2270 C   0  0  0  0  0  0  0  0  0  0  0  0
    2.0680    2.0026    3.6347 C   0  0  0  0  0  0  0  0  0  0  0  0
    1.9923   -0.2730    2.5571 N   0  0  0  0  0  0  0  0  0  0  0  0
    2.0330   -1.4813    3.0224 C   0  0  0  0  0  0  0  0  0  0  0  0
    2.7431   -2.5571    2.4151 C   0  0  0  0  0  0  0  0  0  0  0  0
    2.7840   -3.7920    2.9758 C   0  0  0  0  0  0  0  0  0  0  0  0
    2.1881   -4.1297    4.1349 O   0  0  0  0  0  0  0  0  0  0  0  0
    3.5056   -5.0166    2.3953 C   0  0  1  0  0  0  0  0  0  0  0  0
    4.8040   -5.2804    3.1797 C   0  0  0  0  0  0  0  0  0  0  0  0
    2.7396   -6.2207    2.6046 O   0  0  0  0  0  0  0  0  0  0  0  0
    1.5501   -6.5046    2.0078 C   0  0  0  0  0  0  0  0  0  0  0  0
    1.0167   -5.8595    1.1104 O   0  0  0  0  0  0  0  0  0  0  0  0
    0.8854   -7.7571    2.5956 C   0  0  0  0  0  0  0  0  0  0  0  0
   -0.6189   -7.8843    2.2470 C   0  0  0  0  0  0  0  0  0  0  0  0
   -1.3533   -8.2352    3.5447 C   0  0  0  0  0  0  0  0  0  0  0  0
   -0.2667   -8.6034    4.5511 C   0  0  0  0  0  0  0  0  0  0  0  0
    0.9324   -7.7645    4.1309 C   0  0  0  0  0  0  0  0  0  0  0  0
    3.8544   -4.8114    0.8992 C   0  0  0  0  0  0  0  0  0  0  0  0
    3.9190   -5.7735    0.1351 O   0  0  0  0  0  0  0  0  0  0  0  0
    4.2601   -3.3979    0.4417 C   0  0  1  0  0  0  0  0  0  0  0  0
    4.2369   -3.2982   -1.0627 C   0  0  0  0  0  0  0  0  0  0  0  0
    5.2014   -3.4077   -2.0291 C   0  0  0  0  0  0  0  0  0  0  0  0
    4.5472   -3.2139   -3.2771 C   0  0  0  0  0  0  0  0  0  0  0  0
    3.2297   -2.9955   -2.9854 C   0  0  0  0  0  0  0  0  0  0  0  0
    3.0257   -3.0527   -1.6421 O   0  0  0  0  0  0  0  0  0  0  0  0
    3.4386   -2.3089    1.1480 C   0  0  0  0  0  0  0  0  0  0  0  0
    3.4286   -1.0533    0.6531 C   0  0  0  0  0  0  0  0  0  0  0  0
    2.6973    0.1044    1.3068 C   0  0  0  0  0  0  0  0  0  0  0  0
   -0.6745    1.8921    2.9664 H   0  0  0  0  0  0  0  0  0  0  0  0
   -0.6262    0.3395    2.1376 H   0  0  0  0  0  0  0  0  0  0  0  0
    0.2476    1.7165    1.4771 H   0  0  0  0  0  0  0  0  0  0  0  0
    0.8199    0.3756    4.1577 H   0  0  0  0  0  0  0  0  0  0  0  0
    1.5060    2.6907    4.2730 H   0  0  0  0  0  0  0  0  0  0  0  0
    2.4119    2.5713    2.7684 H   0  0  0  0  0  0  0  0  0  0  0  0
    2.9460    1.6819    4.1978 H   0  0  0  0  0  0  0  0  0  0  0  0
    1.4775   -1.6342    3.9347 H   0  0  0  0  0  0  0  0  0  0  0  0
    5.4756   -4.4240    3.1431 H   0  0  0  0  0  0  0  0  0  0  0  0
    5.3349   -6.1446    2.7810 H   0  0  0  0  0  0  0  0  0  0  0  0
    4.5961   -5.4930    4.2279 H   0  0  0  0  0  0  0  0  0  0  0  0
    1.4068   -8.6412    2.2204 H   0  0  0  0  0  0  0  0  0  0  0  0
   -1.0523   -6.9780    1.8302 H   0  0  0  0  0  0  0  0  0  0  0  0
   -0.7649   -8.6627    1.5033 H   0  0  0  0  0  0  0  0  0  0  0  0
   -1.9022   -7.3631    3.9001 H   0  0  0  0  0  0  0  0  0  0  0  0
   -2.0711   -9.0437    3.4067 H   0  0  0  0  0  0  0  0  0  0  0  0
   -0.5701   -8.4200    5.5811 H   0  0  0  0  0  0  0  0  0  0  0  0
   -0.0267   -9.6635    4.4635 H   0  0  0  0  0  0  0  0  0  0  0  0
    1.8688   -8.1696    4.5149 H   0  0  0  0  0  0  0  0  0  0  0  0
    0.8231   -6.7541    4.5299 H   0  0  0  0  0  0  0  0  0  0  0  0
    5.2886   -3.2760    0.7733 H   0  0  0  0  0  0  0  0  0  0  0  0
    6.2479   -3.6217   -1.8559 H   0  0  0  0  0  0  0  0  0  0  0  0
    4.9782   -3.2485   -4.2675 H   0  0  0  0  0  0  0  0  0  0  0  0
    2.3475   -2.8106   -3.5807 H   0  0  0  0  0  0  0  0  0  0  0  0
    3.9683   -0.8100   -0.2485 H   0  0  0  0  0  0  0  0  0  0  0  0
    1.9556    0.4952    0.6160 H   0  0  0  0  0  0  0  0  0  0  0  0
    3.4058    0.8957    1.5444 H   0  0  0  0  0  0  0  0  0  0  0  0
    1.8275   -3.3568    4.5330 H   0  0  0  0  0  0  0  0  0  0  0  0
  1  2  1  0
  1 30  1  0
  1 31  1  0
  1 32  1  0
  2  3  1  0
  2  4  1  0
  2 33  1  0
  3 34  1  0
  3 35  1  0
  3 36  1  0
  4 29  1  0
  4  5  2  0
  5  6  1  0
  5 37  1  0
  6 27  1  0
  6  7  2  0
  7  8  1  0
  7  9  1  0
  8 57  1  0
  9 10  1  0
  9 11  1  6
  9 19  1  0
 10 38  1  0
 10 39  1  0
 10 40  1  0
 11 12  1  0
 12 13  2  0
 12 14  1  0
 14 18  1  0
 14 15  1  0
 14 41  1  0
 15 16  1  0
 15 42  1  0
 15 43  1  0
 16 17  1  0
 16 44  1  0
 16 45  1  0
 17 18  1  0
 17 46  1  0
 17 47  1  0
 18 48  1  0
 18 49  1  0
 19 20  2  0
 19 21  1  0
 21 22  1  0
 21 27  1  0
 21 50  1  1
 22 26  1  0
 22 23  2  0
 23 24  1  0
 23 51  1  0
 24 25  2  0
 24 52  1  0
 25 26  1  0
 25 53  1  0
 27 28  2  0
 28 29  1  0
 28 54  1  0
 29 55  1  0
 29 56  1  0
M  CHG  1   4   1
M  END
>  <i_m_ct_stereo_status>  (303) 
1

>  <s_m_source_file>  (303) 
/var/tmp/pbs.5076255.sched01/tmp2a9bgmzv/100_xx7n39i.sdf

>  <i_m_source_file_index>  (303) 
43

>  <i_lp_mmshare_version>  (303) 
48012

>  <i_f3d_flags>  (303) 
0

>  <s_epik_input>  (303) 
W0NIM11bQ0hdKFtDSDNdKU4oW0NIXT0xKVtDSDJdW0NIXT1DKEMxMilbQ0BIXShjM1tjSF1bY0hdW2NIXW8zKUMoPU8pW0NAXShDMj1PKShbQ0gzXSlPQyg9TylbQ0hdNFtDSDJdW0NIMl1bQ0gyXVtDSDJdNA==

>  <s_epik_cmdline>  (303) 
J2VwaWtfcHl0aG9uJywgJy1waHQnLCAnMi4wJywgJy1waCcsICc3LjAnLCAnLXRuJywgJzgnLCAnLW1hJywgJzIwMCcsICctaW1hZScsICc8aW5maWxlLm1hZT4nLCAnLW9tYWUnLCAnPG91dGZpbGUubWFlPic=

>  <r_epik_Ionization_Penalty>  (303) 
1.47809

>  <r_epik_Ionization_Penalty_Charging>  (303) 
0

>  <r_epik_Ionization_Penalty_Neutral>  (303) 
1.47809

>  <r_epik_State_Penalty>  (303) 
1.56648

>  <r_epik_Charging_Adjusted_Penalty>  (303) 
1.56648

>  <i_epik_Tot_Q>  (303) 
1

>  <i_epik_Tot_abs_Q>  (303) 
1

>  <s_epik_Chemistry_Notes>  (303) 
This compound has an ester and may undergo hydrolysis at high or low pH. This compound has an imine and may undergo hydrolysis.

>  <s_lp_Force_Field>  (303) 
OPLS3e

>  <r_lp_Energy>  (303) 
43.2683

>  <b_lp_Chiralities_Consistent>  (303) 
1

>  <s_lp_Variant>  (303) 
75:0-2

>  <s_i_glide_gridfile>  (303) 
pfpi4k_grid

>  <i_i_glide_lignum>  (303) 
43

>  <i_i_glide_rotatable_bonds>  (303) 
6

>  <r_i_docking_score>  (303) 
-3.10127

>  <r_i_glide_ligand_efficiency>  (303) 
-0.106941

>  <r_i_glide_ligand_efficiency_sa>  (303) 
-0.328555

>  <r_i_glide_ligand_efficiency_ln>  (303) 
-0.710113

>  <r_i_glide_gscore>  (303) 
-3.10127

>  <r_i_glide_lipo>  (303) 
-0.330942

>  <r_i_glide_hbond>  (303) 
-0.16

>  <r_i_glide_metal>  (303) 
-0

>  <r_i_glide_rewards>  (303) 
-0.709994

>  <r_i_glide_evdw>  (303) 
-34.511

>  <r_i_glide_ecoul>  (303) 
-3.98343

>  <r_i_glide_erotb>  (303) 
0.493387

>  <r_i_glide_esite>  (303) 
-0.0706599

>  <r_i_glide_emodel>  (303) 
-45.6948

>  <r_i_glide_energy>  (303) 
-38.4945

>  <r_i_glide_einternal>  (303) 
1.13571

>  <r_i_glide_intrahb_reward>  (303) 
-0

>  <i_i_glide_confnum>  (303) 
2

>  <i_i_glide_posenum>  (303) 
13

>  <r_i_glide_eff_state_penalty>  (303) 
0

>  <ligand_id>  (303) 
75

>  <original_smiles>  (303) 
CC(C)N1C=C2C(=O)C(C)(OC(=O)C3CCCC3)C(=O)C(c3ccco3)C2=CC1

>  <smiles>  (303) 
[H]OC1=C2C(=C([H])C([H])([H])[N+](C([H])(C([H])([H])[H])C([H])([H])[H])=C2[H])C([H])(c2oc([H])c([H])c2[H])C(=O)C1(OC(=O)C1([H])C([H])([H])C([H])([H])C([H])([H])C1([H])[H])C([H])([H])[H]

$$$$
76:0:0
     RDKit          3D

 55 59  0  0  1  0  0  0  0  0999 V2000
    6.7303   -9.7625    3.2663 C   0  0  0  0  0  0  0  0  0  0  0  0
    6.3985   -8.2796    3.0230 C   0  0  2  0  0  0  0  0  0  0  0  0
    4.8693   -8.0724    2.9712 C   0  0  0  0  0  0  0  0  0  0  0  0
    4.5568   -6.6458    2.5754 N   0  0  0  0  0  0  0  0  0  0  0  0
    5.2674   -6.2333    1.3761 C   0  0  2  0  0  0  0  0  0  0  0  0
    6.8044   -6.4804    1.4634 C   0  0  1  0  0  0  0  0  0  0  0  0
    7.6123   -5.5785    2.4461 C   0  0  0  0  0  0  0  0  0  0  0  0
    7.0143   -7.8772    1.7742 O   0  0  0  0  0  0  0  0  0  0  0  0
    4.6747   -4.8405    1.0611 C   0  0  2  0  0  0  0  0  0  0  0  0
    4.6934   -4.5928   -0.4495 C   0  0  0  0  0  0  0  0  0  0  0  0
    5.3728   -3.6410   -1.0712 C   0  0  0  0  0  0  0  0  0  0  0  0
    6.2168   -2.6908   -0.3053 C   0  0  0  0  0  0  0  0  0  0  0  0
    6.9712   -1.9008   -0.8824 O   0  0  0  0  0  0  0  0  0  0  0  0
    6.1728   -2.7943    1.1642 C   0  0  0  0  0  0  0  0  0  0  0  0
    5.4528   -3.7420    1.7760 C   0  0  0  0  0  0  0  0  0  0  0  0
    3.3312   -4.9050    1.5927 O   0  0  0  0  0  0  0  0  0  0  0  0
    3.1552   -6.1042    2.3782 C   0  0  2  0  0  0  0  0  0  0  0  0
    2.5003   -5.8638    3.7309 C   0  0  0  0  0  0  0  0  0  0  0  0
    1.7949   -7.1684    3.9738 C   0  0  0  0  0  0  0  0  0  0  0  0
    1.3961   -7.6184    2.5489 C   0  0  2  0  0  0  0  0  0  0  0  0
   -0.0082   -7.0910    2.1556 C   0  0  0  0  0  0  0  0  0  0  0  0
   -1.1540   -7.8283    2.8982 C   0  0  0  0  0  0  0  0  0  0  0  0
   -1.0418   -9.3475    2.6994 C   0  0  0  0  0  0  0  0  0  0  0  0
    0.3444   -9.8803    3.0985 C   0  0  0  0  0  0  0  0  0  0  0  0
    1.4769   -9.1416    2.3604 C   0  0  0  0  0  0  0  0  0  0  0  0
    2.3845   -7.0484    1.6941 O   0  0  0  0  0  0  0  0  0  0  0  0
    6.2658  -10.0861    4.1797 H   0  0  0  0  0  0  0  0  0  0  0  0
    7.8039   -9.9344    3.3583 H   0  0  0  0  0  0  0  0  0  0  0  0
    6.3624  -10.3970    2.4537 H   0  0  0  0  0  0  0  0  0  0  0  0
    6.8456   -7.6857    3.8419 H   0  0  0  0  0  0  0  0  0  0  0  0
    4.4492   -8.7542    2.2500 H   0  0  0  0  0  0  0  0  0  0  0  0
    4.4773   -8.2206    3.9389 H   0  0  0  0  0  0  0  0  0  0  0  0
    4.9030   -6.9162    0.5713 H   0  0  0  0  0  0  0  0  0  0  0  0
    7.2237   -6.3821    0.4896 H   0  0  0  0  0  0  0  0  0  0  0  0
    7.7060   -4.5978    1.9918 H   0  0  0  0  0  0  0  0  0  0  0  0
    8.5750   -6.0359    2.7069 H   0  0  0  0  0  0  0  0  0  0  0  0
    7.0663   -5.4654    3.3971 H   0  0  0  0  0  0  0  0  0  0  0  0
    4.1384   -5.3131   -1.0588 H   0  0  0  0  0  0  0  0  0  0  0  0
    5.4541   -3.5938   -2.1581 H   0  0  0  0  0  0  0  0  0  0  0  0
    6.7002   -2.0038    1.7055 H   0  0  0  0  0  0  0  0  0  0  0  0
    5.3876   -3.7153    2.8753 H   0  0  0  0  0  0  0  0  0  0  0  0
    3.2017   -5.5860    4.5207 H   0  0  0  0  0  0  0  0  0  0  0  0
    1.7539   -5.0673    3.6355 H   0  0  0  0  0  0  0  0  0  0  0  0
    2.4636   -7.8884    4.4577 H   0  0  0  0  0  0  0  0  0  0  0  0
    0.9358   -7.0173    4.6543 H   0  0  0  0  0  0  0  0  0  0  0  0
   -0.0626   -6.0194    2.3433 H   0  0  0  0  0  0  0  0  0  0  0  0
   -0.1434   -7.2126    1.0786 H   0  0  0  0  0  0  0  0  0  0  0  0
   -1.1307   -7.6007    3.9631 H   0  0  0  0  0  0  0  0  0  0  0  0
   -2.1231   -7.4760    2.5360 H   0  0  0  0  0  0  0  0  0  0  0  0
   -1.8172   -9.8523    3.2712 H   0  0  0  0  0  0  0  0  0  0  0  0
   -1.2314   -9.5863    1.6562 H   0  0  0  0  0  0  0  0  0  0  0  0
    0.4876   -9.7768    4.1739 H   0  0  0  0  0  0  0  0  0  0  0  0
    0.4109  -10.9472    2.8872 H   0  0  0  0  0  0  0  0  0  0  0  0
    1.4576   -9.3576    1.2907 H   0  0  0  0  0  0  0  0  0  0  0  0
    2.4364   -9.5410    2.6934 H   0  0  0  0  0  0  0  0  0  0  0  0
  1  2  1  0
  1 27  1  0
  1 28  1  0
  1 29  1  0
  2  8  1  0
  2  3  1  0
  2 30  1  1
  3  4  1  0
  3 31  1  0
  3 32  1  0
  4 17  1  0
  4  5  1  0
  5  6  1  0
  5  9  1  0
  5 33  1  6
  6  7  1  0
  6  8  1  0
  6 34  1  6
  7 35  1  0
  7 36  1  0
  7 37  1  0
  9 15  1  0
  9 10  1  0
  9 16  1  1
 10 11  2  0
 10 38  1  0
 11 12  1  0
 11 39  1  0
 12 13  2  0
 12 14  1  0
 14 15  2  0
 14 40  1  0
 15 41  1  0
 17 16  1  6
 17 26  1  0
 17 18  1  0
 18 19  1  0
 18 42  1  0
 18 43  1  0
 19 20  1  0
 19 44  1  0
 19 45  1  0
 20 25  1  0
 20 21  1  0
 20 26  1  6
 21 22  1  0
 21 46  1  0
 21 47  1  0
 22 23  1  0
 22 48  1  0
 22 49  1  0
 23 24  1  0
 23 50  1  0
 23 51  1  0
 24 25  1  0
 24 52  1  0
 24 53  1  0
 25 54  1  0
 25 55  1  0
M  END
>  <i_m_ct_stereo_status>  (304) 
1

>  <s_m_source_file>  (304) 
/var/tmp/pbs.5076255.sched01/tmp2a9bgmzv/100_xx7n39i.sdf

>  <i_m_source_file_index>  (304) 
44

>  <i_lp_mmshare_version>  (304) 
48012

>  <i_f3d_flags>  (304) 
0

>  <s_epik_input>  (304) 
W0NIXTE9W0NIXUMoPU8pW0NIXT1bQ0hdQzEyW0NAQEhdM04oW0NIMl1bQ0BASF0oW0NIM10pT1tDQEBIXTNbQ0gzXSlbQ0BdNChPMilbQ0gyXVtDSDJdQzUoTzQpW0NIMl1bQ0gyXVtDSDJdW0NIMl1bQ0gyXTU=

>  <s_epik_cmdline>  (304) 
J2VwaWtfcHl0aG9uJywgJy1waHQnLCAnMi4wJywgJy1waCcsICc3LjAnLCAnLXRuJywgJzgnLCAnLW1hJywgJzIwMCcsICctaW1hZScsICc8aW5maWxlLm1hZT4nLCAnLW9tYWUnLCAnPG91dGZpbGUubWFlPic=

>  <r_lp_tautomer_probability>  (304) 
1

>  <r_epik_Ionization_Penalty>  (304) 
5.23581e-10

>  <r_epik_Ionization_Penalty_Charging>  (304) 
0

>  <r_epik_Ionization_Penalty_Neutral>  (304) 
5.23581e-10

>  <r_epik_State_Penalty>  (304) 
-0

>  <r_epik_Charging_Adjusted_Penalty>  (304) 
0

>  <i_epik_Tot_Q>  (304) 
0

>  <i_epik_Tot_abs_Q>  (304) 
0

>  <s_lp_Force_Field>  (304) 
OPLS3e

>  <r_lp_Energy>  (304) 
30.7174

>  <b_lp_Chiralities_Consistent>  (304) 
1

>  <s_lp_Variant>  (304) 
76:0-1

>  <s_i_glide_gridfile>  (304) 
pfpi4k_grid

>  <i_i_glide_lignum>  (304) 
44

>  <i_i_glide_rotatable_bonds>  (304) 
0

>  <r_i_docking_score>  (304) 
-3.6419

>  <r_i_glide_ligand_efficiency>  (304) 
-0.140073

>  <r_i_glide_ligand_efficiency_sa>  (304) 
-0.414966

>  <r_i_glide_ligand_efficiency_ln>  (304) 
-0.855288

>  <r_i_glide_gscore>  (304) 
-3.6419

>  <r_i_glide_lipo>  (304) 
-0.605092

>  <r_i_glide_hbond>  (304) 
-0.16

>  <r_i_glide_metal>  (304) 
-0

>  <r_i_glide_rewards>  (304) 
-0.963438

>  <r_i_glide_evdw>  (304) 
-26.7862

>  <r_i_glide_ecoul>  (304) 
-3.82704

>  <r_i_glide_erotb>  (304) 
0

>  <r_i_glide_esite>  (304) 
0

>  <r_i_glide_emodel>  (304) 
-37.0241

>  <r_i_glide_energy>  (304) 
-30.6133

>  <r_i_glide_einternal>  (304) 
0

>  <r_i_glide_intrahb_reward>  (304) 
-0

>  <i_i_glide_confnum>  (304) 
5

>  <i_i_glide_posenum>  (304) 
32

>  <r_i_glide_eff_state_penalty>  (304) 
0

>  <ligand_id>  (304) 
76

>  <original_smiles>  (304) 
CC1CN2C(C(C)O1)C1(C=CC(=O)C=C1)OC21CCC2(CCCCC2)O1

>  <smiles>  (304) 
[H]C1=C([H])C2(OC3(OC4(C([H])([H])C3([H])[H])C([H])([H])C([H])([H])C([H])([H])C([H])([H])C4([H])[H])N3C([H])([H])C([H])(C([H])([H])[H])OC([H])(C([H])([H])[H])C32[H])C([H])=C([H])C1=O

$$$$
76:0:1
     RDKit          3D

 55 59  0  0  1  0  0  0  0  0999 V2000
    7.5728   -7.0579    2.2079 C   0  0  0  0  0  0  0  0  0  0  0  0
    6.7333   -5.8068    1.9074 C   0  0  2  0  0  0  0  0  0  0  0  0
    5.2349   -6.1123    2.1138 C   0  0  0  0  0  0  0  0  0  0  0  0
    4.4097   -4.9306    1.6673 N   0  0  0  0  0  0  0  0  0  0  0  0
    4.7436   -4.4885    0.3256 C   0  0  2  0  0  0  0  0  0  0  0  0
    6.2664   -4.1943    0.1617 C   0  0  1  0  0  0  0  0  0  0  0  0
    6.8396   -2.9444    0.9005 C   0  0  0  0  0  0  0  0  0  0  0  0
    6.9907   -5.3928    0.5528 O   0  0  0  0  0  0  0  0  0  0  0  0
    3.6803   -3.4022    0.0032 C   0  0  2  0  0  0  0  0  0  0  0  0
    3.3848   -3.3692   -1.4936 C   0  0  0  0  0  0  0  0  0  0  0  0
    3.6261   -2.3914   -2.3127 C   0  0  0  0  0  0  0  0  0  0  0  0
    4.2155   -1.1320   -1.8110 C   0  0  0  0  0  0  0  0  0  0  0  0
    4.6173   -0.2937   -2.6215 O   0  0  0  0  0  0  0  0  0  0  0  0
    4.4063   -0.9954   -0.3582 C   0  0  0  0  0  0  0  0  0  0  0  0
    4.1593   -2.0308    0.4741 C   0  0  0  0  0  0  0  0  0  0  0  0
    2.5325   -3.8216    0.7938 O   0  0  0  0  0  0  0  0  0  0  0  0
    2.8939   -4.9065    1.6842 C   0  0  2  0  0  0  0  0  0  0  0  0
    2.3811   -4.7008    3.1030 C   0  0  0  0  0  0  0  0  0  0  0  0
    2.1941   -6.1214    3.5743 C   0  0  0  0  0  0  0  0  0  0  0  0
    1.7749   -6.8656    2.2851 C   0  0  2  0  0  0  0  0  0  0  0  0
    0.2368   -6.8846    2.1066 C   0  0  0  0  0  0  0  0  0  0  0  0
   -0.4677   -7.8334    3.1063 C   0  0  0  0  0  0  0  0  0  0  0  0
    0.1242   -9.2488    3.0321 C   0  0  0  0  0  0  0  0  0  0  0  0
    1.6528   -9.2439    3.2061 C   0  0  0  0  0  0  0  0  0  0  0  0
    2.3296   -8.2953    2.2045 C   0  0  0  0  0  0  0  0  0  0  0  0
    2.3890   -6.1368    1.2175 O   0  0  0  0  0  0  0  0  0  0  0  0
    7.3808   -7.3832    3.2140 H   0  0  0  0  0  0  0  0  0  0  0  0
    8.6442   -6.8721    2.1307 H   0  0  0  0  0  0  0  0  0  0  0  0
    7.3357   -7.8875    1.5395 H   0  0  0  0  0  0  0  0  0  0  0  0
    7.0622   -5.0051    2.5796 H   0  0  0  0  0  0  0  0  0  0  0  0
    4.9666   -6.9862    1.5384 H   0  0  0  0  0  0  0  0  0  0  0  0
    5.0588   -6.2459    3.1478 H   0  0  0  0  0  0  0  0  0  0  0  0
    4.5248   -5.3607   -0.3430 H   0  0  0  0  0  0  0  0  0  0  0  0
    6.4713   -4.1057   -0.8781 H   0  0  0  0  0  0  0  0  0  0  0  0
    6.5159   -2.0565    0.3517 H   0  0  0  0  0  0  0  0  0  0  0  0
    7.9367   -3.0235    1.0015 H   0  0  0  0  0  0  0  0  0  0  0  0
    6.4187   -2.9063    1.9170 H   0  0  0  0  0  0  0  0  0  0  0  0
    2.9509   -4.2335   -1.9027 H   0  0  0  0  0  0  0  0  0  0  0  0
    3.5023   -2.4493   -3.3928 H   0  0  0  0  0  0  0  0  0  0  0  0
    4.7194   -0.0344    0.0217 H   0  0  0  0  0  0  0  0  0  0  0  0
    4.2170   -1.8682    1.5587 H   0  0  0  0  0  0  0  0  0  0  0  0
    3.0418   -4.1059    3.7460 H   0  0  0  0  0  0  0  0  0  0  0  0
    1.3982   -4.2078    3.0730 H   0  0  0  0  0  0  0  0  0  0  0  0
    3.1249   -6.5176    3.9931 H   0  0  0  0  0  0  0  0  0  0  0  0
    1.4491   -6.1631    4.3800 H   0  0  0  0  0  0  0  0  0  0  0  0
   -0.1587   -5.8805    2.2239 H   0  0  0  0  0  0  0  0  0  0  0  0
   -0.0019   -7.1889    1.0850 H   0  0  0  0  0  0  0  0  0  0  0  0
   -0.3733   -7.4622    4.1265 H   0  0  0  0  0  0  0  0  0  0  0  0
   -1.5410   -7.8618    2.9037 H   0  0  0  0  0  0  0  0  0  0  0  0
   -0.3346   -9.8838    3.7915 H   0  0  0  0  0  0  0  0  0  0  0  0
   -0.1268   -9.6895    2.0692 H   0  0  0  0  0  0  0  0  0  0  0  0
    1.9085   -8.9408    4.2210 H   0  0  0  0  0  0  0  0  0  0  0  0
    2.0492  -10.2516    3.0730 H   0  0  0  0  0  0  0  0  0  0  0  0
    2.1758   -8.6761    1.1927 H   0  0  0  0  0  0  0  0  0  0  0  0
    3.4073   -8.3124    2.3755 H   0  0  0  0  0  0  0  0  0  0  0  0
  1  2  1  0
  1 27  1  0
  1 28  1  0
  1 29  1  0
  2  8  1  0
  2  3  1  0
  2 30  1  1
  3  4  1  0
  3 31  1  0
  3 32  1  0
  4 17  1  0
  4  5  1  0
  5  6  1  0
  5  9  1  0
  5 33  1  6
  6  7  1  0
  6  8  1  0
  6 34  1  6
  7 35  1  0
  7 36  1  0
  7 37  1  0
  9 15  1  0
  9 10  1  0
  9 16  1  1
 10 11  2  0
 10 38  1  0
 11 12  1  0
 11 39  1  0
 12 13  2  0
 12 14  1  0
 14 15  2  0
 14 40  1  0
 15 41  1  0
 17 16  1  6
 17 26  1  0
 17 18  1  0
 18 19  1  0
 18 42  1  0
 18 43  1  0
 19 20  1  0
 19 44  1  0
 19 45  1  0
 20 25  1  0
 20 21  1  0
 20 26  1  6
 21 22  1  0
 21 46  1  0
 21 47  1  0
 22 23  1  0
 22 48  1  0
 22 49  1  0
 23 24  1  0
 23 50  1  0
 23 51  1  0
 24 25  1  0
 24 52  1  0
 24 53  1  0
 25 54  1  0
 25 55  1  0
M  END
>  <i_m_ct_stereo_status>  (305) 
1

>  <s_m_source_file>  (305) 
/var/tmp/pbs.5076255.sched01/tmp2a9bgmzv/100_xx7n39i.sdf

>  <i_m_source_file_index>  (305) 
44

>  <i_lp_mmshare_version>  (305) 
48012

>  <i_f3d_flags>  (305) 
0

>  <s_epik_input>  (305) 
W0NIXTE9W0NIXUMoPU8pW0NIXT1bQ0hdQzEyW0NAQEhdM04oW0NIMl1bQ0BASF0oW0NIM10pT1tDQEBIXTNbQ0gzXSlbQ0BdNChPMilbQ0gyXVtDSDJdQzUoTzQpW0NIMl1bQ0gyXVtDSDJdW0NIMl1bQ0gyXTU=

>  <s_epik_cmdline>  (305) 
J2VwaWtfcHl0aG9uJywgJy1waHQnLCAnMi4wJywgJy1waCcsICc3LjAnLCAnLXRuJywgJzgnLCAnLW1hJywgJzIwMCcsICctaW1hZScsICc8aW5maWxlLm1hZT4nLCAnLW9tYWUnLCAnPG91dGZpbGUubWFlPic=

>  <r_lp_tautomer_probability>  (305) 
1

>  <r_epik_Ionization_Penalty>  (305) 
5.23581e-10

>  <r_epik_Ionization_Penalty_Charging>  (305) 
0

>  <r_epik_Ionization_Penalty_Neutral>  (305) 
5.23581e-10

>  <r_epik_State_Penalty>  (305) 
-0

>  <r_epik_Charging_Adjusted_Penalty>  (305) 
0

>  <i_epik_Tot_Q>  (305) 
0

>  <i_epik_Tot_abs_Q>  (305) 
0

>  <s_lp_Force_Field>  (305) 
OPLS3e

>  <r_lp_Energy>  (305) 
30.7174

>  <b_lp_Chiralities_Consistent>  (305) 
1

>  <s_lp_Variant>  (305) 
76:0-1

>  <s_i_glide_gridfile>  (305) 
pfpi4k_grid

>  <i_i_glide_lignum>  (305) 
44

>  <i_i_glide_rotatable_bonds>  (305) 
0

>  <r_i_docking_score>  (305) 
-3.1154

>  <r_i_glide_ligand_efficiency>  (305) 
-0.119823

>  <r_i_glide_ligand_efficiency_sa>  (305) 
-0.354975

>  <r_i_glide_ligand_efficiency_ln>  (305) 
-0.731641

>  <r_i_glide_gscore>  (305) 
-3.1154

>  <r_i_glide_lipo>  (305) 
-0.377861

>  <r_i_glide_hbond>  (305) 
0

>  <r_i_glide_metal>  (305) 
-0

>  <r_i_glide_rewards>  (305) 
-0.958232

>  <r_i_glide_evdw>  (305) 
-29.9437

>  <r_i_glide_ecoul>  (305) 
-1.57017

>  <r_i_glide_erotb>  (305) 
0

>  <r_i_glide_esite>  (305) 
-0.0465915

>  <r_i_glide_emodel>  (305) 
-36.5874

>  <r_i_glide_energy>  (305) 
-31.5139

>  <r_i_glide_einternal>  (305) 
0

>  <r_i_glide_intrahb_reward>  (305) 
-0

>  <i_i_glide_confnum>  (305) 
5

>  <i_i_glide_posenum>  (305) 
22

>  <r_i_glide_eff_state_penalty>  (305) 
0

>  <ligand_id>  (305) 
76

>  <original_smiles>  (305) 
CC1CN2C(C(C)O1)C1(C=CC(=O)C=C1)OC21CCC2(CCCCC2)O1

>  <smiles>  (305) 
[H]C1=C([H])C2(OC3(OC4(C([H])([H])C3([H])[H])C([H])([H])C([H])([H])C([H])([H])C([H])([H])C4([H])[H])N3C([H])([H])C([H])(C([H])([H])[H])OC([H])(C([H])([H])[H])C32[H])C([H])=C([H])C1=O

$$$$
76:0:2
     RDKit          3D

 55 59  0  0  1  0  0  0  0  0999 V2000
    7.4141   -7.4778    2.1506 C   0  0  0  0  0  0  0  0  0  0  0  0
    6.6674   -6.1611    1.9201 C   0  0  2  0  0  0  0  0  0  0  0  0
    5.1621   -6.3453    2.2491 C   0  0  0  0  0  0  0  0  0  0  0  0
    4.3814   -5.1092    1.8785 N   0  0  0  0  0  0  0  0  0  0  0  0
    4.6409   -4.6747    0.5203 C   0  0  2  0  0  0  0  0  0  0  0  0
    6.1681   -4.4965    0.2311 C   0  0  1  0  0  0  0  0  0  0  0  0
    6.8780   -3.3099    0.9426 C   0  0  0  0  0  0  0  0  0  0  0  0
    6.8196   -5.7326    0.5506 O   0  0  0  0  0  0  0  0  0  0  0  0
    3.6388   -3.4968    0.3074 C   0  0  2  0  0  0  0  0  0  0  0  0
    3.2153   -3.4349   -1.1771 C   0  0  0  0  0  0  0  0  0  0  0  0
    3.5082   -2.4032   -2.0156 C   0  0  0  0  0  0  0  0  0  0  0  0
    4.2085   -1.2227   -1.5330 C   0  0  0  0  0  0  0  0  0  0  0  0
    4.5965   -0.3770   -2.3271 O   0  0  0  0  0  0  0  0  0  0  0  0
    4.5023   -1.1353   -0.0974 C   0  0  0  0  0  0  0  0  0  0  0  0
    4.2095   -2.1567    0.7481 C   0  0  0  0  0  0  0  0  0  0  0  0
    2.5390   -3.8577    1.1852 O   0  0  0  0  0  0  0  0  0  0  0  0
    2.8919   -4.9688    2.0054 C   0  0  2  0  0  0  0  0  0  0  0  0
    2.4942   -4.8241    3.4902 C   0  0  0  0  0  0  0  0  0  0  0  0
    1.1322   -5.4595    3.4633 C   0  0  0  0  0  0  0  0  0  0  0  0
    1.3290   -6.6302    2.4789 C   0  0  2  0  0  0  0  0  0  0  0  0
    0.0240   -7.0099    1.7512 C   0  0  0  0  0  0  0  0  0  0  0  0
   -0.9774   -7.6884    2.7008 C   0  0  0  0  0  0  0  0  0  0  0  0
   -0.3488   -8.9201    3.3717 C   0  0  0  0  0  0  0  0  0  0  0  0
    0.9584   -8.5753    4.1046 C   0  0  0  0  0  0  0  0  0  0  0  0
    1.9484   -7.8780    3.1579 C   0  0  0  0  0  0  0  0  0  0  0  0
    2.2906   -6.1504    1.5352 O   0  0  0  0  0  0  0  0  0  0  0  0
    7.2712   -7.8102    3.1727 H   0  0  0  0  0  0  0  0  0  0  0  0
    8.4803   -7.3722    1.9938 H   0  0  0  0  0  0  0  0  0  0  0  0
    7.0575   -8.2753    1.4949 H   0  0  0  0  0  0  0  0  0  0  0  0
    7.0935   -5.4026    2.5858 H   0  0  0  0  0  0  0  0  0  0  0  0
    4.7498   -7.2029    1.7019 H   0  0  0  0  0  0  0  0  0  0  0  0
    5.0316   -6.5035    3.3093 H   0  0  0  0  0  0  0  0  0  0  0  0
    4.3097   -5.5028   -0.1363 H   0  0  0  0  0  0  0  0  0  0  0  0
    6.2758   -4.3423   -0.8394 H   0  0  0  0  0  0  0  0  0  0  0  0
    6.6430   -2.3732    0.4327 H   0  0  0  0  0  0  0  0  0  0  0  0
    7.9694   -3.4472    0.9629 H   0  0  0  0  0  0  0  0  0  0  0  0
    6.5288   -3.2440    1.9808 H   0  0  0  0  0  0  0  0  0  0  0  0
    2.6959   -4.2534   -1.5738 H   0  0  0  0  0  0  0  0  0  0  0  0
    3.2806   -2.4673   -3.0614 H   0  0  0  0  0  0  0  0  0  0  0  0
    4.9518   -0.2185    0.2805 H   0  0  0  0  0  0  0  0  0  0  0  0
    4.4200   -2.0475    1.7995 H   0  0  0  0  0  0  0  0  0  0  0  0
    3.1451   -5.4035    4.1444 H   0  0  0  0  0  0  0  0  0  0  0  0
    2.5036   -3.7762    3.8337 H   0  0  0  0  0  0  0  0  0  0  0  0
    0.8077   -5.7706    4.4674 H   0  0  0  0  0  0  0  0  0  0  0  0
    0.4046   -4.7378    3.0954 H   0  0  0  0  0  0  0  0  0  0  0  0
   -0.4259   -6.1305    1.2963 H   0  0  0  0  0  0  0  0  0  0  0  0
    0.2565   -7.6743    0.9179 H   0  0  0  0  0  0  0  0  0  0  0  0
   -1.3075   -6.9816    3.4618 H   0  0  0  0  0  0  0  0  0  0  0  0
   -1.8698   -7.9768    2.1477 H   0  0  0  0  0  0  0  0  0  0  0  0
   -1.0548   -9.3568    4.0770 H   0  0  0  0  0  0  0  0  0  0  0  0
   -0.1492   -9.6776    2.6114 H   0  0  0  0  0  0  0  0  0  0  0  0
    0.7356   -7.9426    4.9662 H   0  0  0  0  0  0  0  0  0  0  0  0
    1.4105   -9.4812    4.5105 H   0  0  0  0  0  0  0  0  0  0  0  0
    2.2578   -8.5817    2.3803 H   0  0  0  0  0  0  0  0  0  0  0  0
    2.8541   -7.6284    3.7105 H   0  0  0  0  0  0  0  0  0  0  0  0
  1  2  1  0
  1 27  1  0
  1 28  1  0
  1 29  1  0
  2  8  1  0
  2  3  1  0
  2 30  1  1
  3  4  1  0
  3 31  1  0
  3 32  1  0
  4 17  1  0
  4  5  1  0
  5  6  1  0
  5  9  1  0
  5 33  1  6
  6  7  1  0
  6  8  1  0
  6 34  1  6
  7 35  1  0
  7 36  1  0
  7 37  1  0
  9 15  1  0
  9 10  1  0
  9 16  1  1
 10 11  2  0
 10 38  1  0
 11 12  1  0
 11 39  1  0
 12 13  2  0
 12 14  1  0
 14 15  2  0
 14 40  1  0
 15 41  1  0
 17 16  1  6
 17 26  1  0
 17 18  1  0
 18 19  1  0
 18 42  1  0
 18 43  1  0
 19 20  1  0
 19 44  1  0
 19 45  1  0
 20 25  1  0
 20 21  1  0
 20 26  1  6
 21 22  1  0
 21 46  1  0
 21 47  1  0
 22 23  1  0
 22 48  1  0
 22 49  1  0
 23 24  1  0
 23 50  1  0
 23 51  1  0
 24 25  1  0
 24 52  1  0
 24 53  1  0
 25 54  1  0
 25 55  1  0
M  END
>  <i_m_ct_stereo_status>  (306) 
1

>  <s_m_source_file>  (306) 
/var/tmp/pbs.5076255.sched01/tmp2a9bgmzv/100_xx7n39i.sdf

>  <i_m_source_file_index>  (306) 
44

>  <i_lp_mmshare_version>  (306) 
48012

>  <i_f3d_flags>  (306) 
0

>  <s_epik_input>  (306) 
W0NIXTE9W0NIXUMoPU8pW0NIXT1bQ0hdQzEyW0NAQEhdM04oW0NIMl1bQ0BASF0oW0NIM10pT1tDQEBIXTNbQ0gzXSlbQ0BdNChPMilbQ0gyXVtDSDJdQzUoTzQpW0NIMl1bQ0gyXVtDSDJdW0NIMl1bQ0gyXTU=

>  <s_epik_cmdline>  (306) 
J2VwaWtfcHl0aG9uJywgJy1waHQnLCAnMi4wJywgJy1waCcsICc3LjAnLCAnLXRuJywgJzgnLCAnLW1hJywgJzIwMCcsICctaW1hZScsICc8aW5maWxlLm1hZT4nLCAnLW9tYWUnLCAnPG91dGZpbGUubWFlPic=

>  <r_lp_tautomer_probability>  (306) 
1

>  <r_epik_Ionization_Penalty>  (306) 
5.23581e-10

>  <r_epik_Ionization_Penalty_Charging>  (306) 
0

>  <r_epik_Ionization_Penalty_Neutral>  (306) 
5.23581e-10

>  <r_epik_State_Penalty>  (306) 
-0

>  <r_epik_Charging_Adjusted_Penalty>  (306) 
0

>  <i_epik_Tot_Q>  (306) 
0

>  <i_epik_Tot_abs_Q>  (306) 
0

>  <s_lp_Force_Field>  (306) 
OPLS3e

>  <r_lp_Energy>  (306) 
30.7174

>  <b_lp_Chiralities_Consistent>  (306) 
1

>  <s_lp_Variant>  (306) 
76:0-1

>  <s_i_glide_gridfile>  (306) 
pfpi4k_grid

>  <i_i_glide_lignum>  (306) 
44

>  <i_i_glide_rotatable_bonds>  (306) 
0

>  <r_i_docking_score>  (306) 
-3.04866

>  <r_i_glide_ligand_efficiency>  (306) 
-0.117256

>  <r_i_glide_ligand_efficiency_sa>  (306) 
-0.347371

>  <r_i_glide_ligand_efficiency_ln>  (306) 
-0.715968

>  <r_i_glide_gscore>  (306) 
-3.04866

>  <r_i_glide_lipo>  (306) 
-0.362453

>  <r_i_glide_hbond>  (306) 
0

>  <r_i_glide_metal>  (306) 
-0

>  <r_i_glide_rewards>  (306) 
-0.958232

>  <r_i_glide_evdw>  (306) 
-29.8131

>  <r_i_glide_ecoul>  (306) 
-1.24223

>  <r_i_glide_erotb>  (306) 
0

>  <r_i_glide_esite>  (306) 
-0.0509874

>  <r_i_glide_emodel>  (306) 
-36.3724

>  <r_i_glide_energy>  (306) 
-31.0553

>  <r_i_glide_einternal>  (306) 
0

>  <r_i_glide_intrahb_reward>  (306) 
-0

>  <i_i_glide_confnum>  (306) 
3

>  <i_i_glide_posenum>  (306) 
20

>  <r_i_glide_eff_state_penalty>  (306) 
0

>  <ligand_id>  (306) 
76

>  <original_smiles>  (306) 
CC1CN2C(C(C)O1)C1(C=CC(=O)C=C1)OC21CCC2(CCCCC2)O1

>  <smiles>  (306) 
[H]C1=C([H])C2(OC3(OC4(C([H])([H])C3([H])[H])C([H])([H])C([H])([H])C([H])([H])C([H])([H])C4([H])[H])N3C([H])([H])C([H])(C([H])([H])[H])OC([H])(C([H])([H])[H])C32[H])C([H])=C([H])C1=O

$$$$
77:0:0
     RDKit          3D

 74 79  0  0  1  0  0  0  0  0999 V2000
    4.8231   -3.6939   -2.0711 C   0  0  0  0  0  0  0  0  0  0  0  0
    5.8201   -3.7180   -0.9559 C   0  0  0  0  0  0  0  0  0  0  0  0
    6.9828   -3.0539   -1.1685 O   0  0  0  0  0  0  0  0  0  0  0  0
    7.7606   -3.2447   -0.0616 C   0  0  0  0  0  0  0  0  0  0  0  0
    7.1245   -4.0370    0.8428 C   0  0  0  0  0  0  0  0  0  0  0  0
    5.8491   -4.3604    0.2884 C   0  0  0  0  0  0  0  0  0  0  0  0
    4.7388   -5.2303    0.7394 C   0  0  0  0  0  0  0  0  0  0  0  0
    4.3171   -6.0953   -0.0391 O   0  0  0  0  0  0  0  0  0  0  0  0
    4.0322   -4.9609    2.1051 C   0  0  1  0  0  0  0  0  0  0  0  0
    3.4985   -3.5288    2.0737 C   0  0  0  0  0  0  0  0  0  0  0  0
    3.5496   -2.6797    1.1956 O   0  0  0  0  0  0  0  0  0  0  0  0
    2.8388   -3.4103    3.4031 C   0  0  1  0  0  0  0  0  0  0  0  0
    2.1267   -2.0619    3.6636 C   0  0  0  0  0  0  0  0  0  0  0  0
    1.8658   -4.5907    3.1790 C   0  0  0  0  0  0  0  0  0  0  0  0
    2.6838   -5.6902    2.4255 C   0  0  2  0  0  0  0  0  0  0  0  0
    2.6714   -7.0180    3.2567 C   0  0  2  0  0  0  0  0  0  0  0  0
    3.8505   -7.9672    3.4647 C   0  0  2  0  0  0  0  0  0  0  0  0
    5.3137   -7.4867    3.5077 C   0  0  1  0  0  0  0  0  0  0  0  0
    5.9729   -7.6179    2.2826 O   0  0  0  0  0  0  0  0  0  0  0  0
    5.5150   -6.0732    4.1022 C   0  0  0  0  0  0  0  0  0  0  0  0
    4.8774   -4.8094    3.4276 C   0  0  2  0  0  0  0  0  0  0  0  0
    4.0517   -3.7900    4.3283 C   0  0  0  0  0  0  0  0  0  0  0  0
    4.9394   -2.5522    4.6409 C   0  0  0  0  0  0  0  0  0  0  0  0
    3.5686   -4.3281    5.6948 C   0  0  0  0  0  0  0  0  0  0  0  0
    3.2160   -9.0410    2.5393 C   0  0  1  0  0  0  0  0  0  0  0  0
    3.6605   -9.0512    1.0720 C   0  0  0  0  0  0  0  0  0  0  0  0
    3.2357  -10.5299    2.9704 C   0  0  1  0  0  0  0  0  0  0  0  0
    4.3454  -10.8138    3.7911 O   0  0  0  0  0  0  0  0  0  0  0  0
    1.9486  -11.1080    3.5822 C   0  0  0  0  0  0  0  0  0  0  0  0
    0.6671  -10.3843    3.1447 C   0  0  0  0  0  0  0  0  0  0  0  0
    0.7037   -8.8919    3.5167 C   0  0  0  0  0  0  0  0  0  0  0  0
   -0.6407   -8.2580    3.1044 C   0  0  0  0  0  0  0  0  0  0  0  0
    0.8123   -8.7586    5.0574 C   0  0  0  0  0  0  0  0  0  0  0  0
    1.8963   -8.2569    2.7425 C   0  0  1  0  0  0  0  0  0  0  0  0
    3.8369   -4.0663   -1.7777 H   0  0  0  0  0  0  0  0  0  0  0  0
    5.1537   -4.2846   -2.9266 H   0  0  0  0  0  0  0  0  0  0  0  0
    4.6925   -2.6732   -2.4142 H   0  0  0  0  0  0  0  0  0  0  0  0
    8.7356   -2.7808   -0.1193 H   0  0  0  0  0  0  0  0  0  0  0  0
    7.5529   -4.4159    1.7718 H   0  0  0  0  0  0  0  0  0  0  0  0
    1.6236   -2.0617    4.6341 H   0  0  0  0  0  0  0  0  0  0  0  0
    1.3682   -1.8574    2.9053 H   0  0  0  0  0  0  0  0  0  0  0  0
    2.8138   -1.2150    3.6458 H   0  0  0  0  0  0  0  0  0  0  0  0
    1.3949   -4.9047    4.1160 H   0  0  0  0  0  0  0  0  0  0  0  0
    1.0368   -4.2640    2.5545 H   0  0  0  0  0  0  0  0  0  0  0  0
    2.1984   -5.8595    1.4585 H   0  0  0  0  0  0  0  0  0  0  0  0
    2.3172   -6.7981    4.2570 H   0  0  0  0  0  0  0  0  0  0  0  0
    3.6525   -8.3314    4.4682 H   0  0  0  0  0  0  0  0  0  0  0  0
    5.8485   -8.1602    4.1821 H   0  0  0  0  0  0  0  0  0  0  0  0
    5.9341   -8.5350    2.0523 H   0  0  0  0  0  0  0  0  0  0  0  0
    5.2202   -6.1413    5.1465 H   0  0  0  0  0  0  0  0  0  0  0  0
    6.5917   -5.8969    4.1534 H   0  0  0  0  0  0  0  0  0  0  0  0
    5.7576   -4.2469    3.1364 H   0  0  0  0  0  0  0  0  0  0  0  0
    5.8431   -2.8507    5.1731 H   0  0  0  0  0  0  0  0  0  0  0  0
    4.4261   -1.8321    5.2831 H   0  0  0  0  0  0  0  0  0  0  0  0
    5.2534   -2.0160    3.7433 H   0  0  0  0  0  0  0  0  0  0  0  0
    4.4069   -4.4414    6.3859 H   0  0  0  0  0  0  0  0  0  0  0  0
    3.0827   -5.2963    5.6155 H   0  0  0  0  0  0  0  0  0  0  0  0
    2.8632   -3.6392    6.1651 H   0  0  0  0  0  0  0  0  0  0  0  0
    2.9796   -9.6798    0.4675 H   0  0  0  0  0  0  0  0  0  0  0  0
    4.6579   -9.5028    0.9819 H   0  0  0  0  0  0  0  0  0  0  0  0
    3.6487   -8.0682    0.7219 H   0  0  0  0  0  0  0  0  0  0  0  0
    3.3923  -11.1525    2.0945 H   0  0  0  0  0  0  0  0  0  0  0  0
    4.3710  -11.7513    3.9148 H   0  0  0  0  0  0  0  0  0  0  0  0
    1.8693  -12.1703    3.2999 H   0  0  0  0  0  0  0  0  0  0  0  0
    2.0135  -11.1017    4.6718 H   0  0  0  0  0  0  0  0  0  0  0  0
    0.5607  -10.4820    2.0680 H   0  0  0  0  0  0  0  0  0  0  0  0
   -0.1920  -10.8804    3.5889 H   0  0  0  0  0  0  0  0  0  0  0  0
   -0.6641   -7.1869    3.3181 H   0  0  0  0  0  0  0  0  0  0  0  0
   -1.4684   -8.7189    3.6431 H   0  0  0  0  0  0  0  0  0  0  0  0
   -0.8437   -8.3922    2.0386 H   0  0  0  0  0  0  0  0  0  0  0  0
    0.6056   -7.7384    5.3903 H   0  0  0  0  0  0  0  0  0  0  0  0
    1.8074   -9.0244    5.4101 H   0  0  0  0  0  0  0  0  0  0  0  0
    0.1056   -9.4265    5.5534 H   0  0  0  0  0  0  0  0  0  0  0  0
    1.5442   -8.0094    1.7513 H   0  0  0  0  0  0  0  0  0  0  0  0
  1  2  1  0
  1 35  1  0
  1 36  1  0
  1 37  1  0
  2  6  2  0
  2  3  1  0
  3  4  1  0
  4  5  2  0
  4 38  1  0
  5  6  1  0
  5 39  1  0
  6  7  1  0
  7  8  2  0
  9  7  1  6
  9 15  1  0
  9 21  1  0
  9 10  1  0
 10 11  2  0
 10 12  1  0
 12 22  1  0
 12 13  1  1
 12 14  1  0
 13 40  1  0
 13 41  1  0
 13 42  1  0
 14 15  1  0
 14 43  1  0
 14 44  1  0
 15 16  1  0
 15 45  1  6
 16 34  1  0
 16 17  1  0
 16 46  1  1
 17 18  1  0
 17 25  1  0
 17 47  1  1
 18 19  1  0
 18 20  1  0
 18 48  1  1
 19 49  1  0
 20 21  1  0
 20 50  1  0
 20 51  1  0
 21 22  1  0
 21 52  1  6
 22 23  1  0
 22 24  1  0
 23 53  1  0
 23 54  1  0
 23 55  1  0
 24 56  1  0
 24 57  1  0
 24 58  1  0
 25 34  1  0
 25 26  1  6
 25 27  1  0
 26 59  1  0
 26 60  1  0
 26 61  1  0
 27 28  1  0
 27 29  1  0
 27 62  1  6
 28 63  1  0
 29 30  1  0
 29 64  1  0
 29 65  1  0
 30 31  1  0
 30 66  1  0
 30 67  1  0
 31 32  1  0
 31 33  1  0
 31 34  1  0
 32 68  1  0
 32 69  1  0
 32 70  1  0
 33 71  1  0
 33 72  1  0
 33 73  1  0
 34 74  1  6
M  END
>  <i_m_ct_stereo_status>  (307) 
1

>  <s_m_source_file>  (307) 
/var/tmp/pbs.5076255.sched01/tmp2a9bgmzv/100_xx7n39i.sdf

>  <i_m_source_file_index>  (307) 
45

>  <i_lp_mmshare_version>  (307) 
48012

>  <i_f3d_flags>  (307) 
0

>  <s_epik_input>  (307) 
W0NIM11jMW9bY0hdW2NIXWMxQyg9TylbQ0BdMjNbQ0BIXTRbQ0BASF01W0NASF0oW0NAQEhdKFtPSF0pW0NIMl1bQ0BASF0zQyhbQ0gzXSkoW0NIM10pW0NAXShDMj1PKShbQ0gzXSlbQ0gyXTQpW0NAXTYoW0NIM10pW0NASF01QyhbQ0gzXSkoW0NIM10pW0NIMl1bQ0gyXVtDQEBIXTZbT0hd

>  <s_epik_cmdline>  (307) 
J2VwaWtfcHl0aG9uJywgJy1waHQnLCAnMi4wJywgJy1waCcsICc3LjAnLCAnLXRuJywgJzgnLCAnLW1hJywgJzIwMCcsICctaW1hZScsICc8aW5maWxlLm1hZT4nLCAnLW9tYWUnLCAnPG91dGZpbGUubWFlPic=

>  <r_lp_tautomer_probability>  (307) 
1

>  <r_epik_Ionization_Penalty>  (307) 
2.22255e-06

>  <r_epik_Ionization_Penalty_Charging>  (307) 
0

>  <r_epik_Ionization_Penalty_Neutral>  (307) 
2.22255e-06

>  <r_epik_State_Penalty>  (307) 
-0

>  <r_epik_Charging_Adjusted_Penalty>  (307) 
0

>  <i_epik_Tot_Q>  (307) 
0

>  <i_epik_Tot_abs_Q>  (307) 
0

>  <s_lp_Force_Field>  (307) 
OPLS3e

>  <r_lp_Energy>  (307) 
91.6228

>  <b_lp_Chiralities_Consistent>  (307) 
1

>  <s_lp_Variant>  (307) 
77:0-1

>  <s_i_glide_gridfile>  (307) 
pfpi4k_grid

>  <i_i_glide_lignum>  (307) 
45

>  <i_i_glide_rotatable_bonds>  (307) 
4

>  <r_i_docking_score>  (307) 
-2.33643

>  <r_i_glide_ligand_efficiency>  (307) 
-0.0687187

>  <r_i_glide_ligand_efficiency_sa>  (307) 
-0.222622

>  <r_i_glide_ligand_efficiency_ln>  (307) 
-0.516184

>  <r_i_glide_gscore>  (307) 
-2.33643

>  <r_i_glide_lipo>  (307) 
-0.659226

>  <r_i_glide_hbond>  (307) 
0

>  <r_i_glide_metal>  (307) 
-0

>  <r_i_glide_rewards>  (307) 
-0.300055

>  <r_i_glide_evdw>  (307) 
-27.8533

>  <r_i_glide_ecoul>  (307) 
-1.12248

>  <r_i_glide_erotb>  (307) 
0.183884

>  <r_i_glide_esite>  (307) 
0

>  <r_i_glide_emodel>  (307) 
-29.1699

>  <r_i_glide_energy>  (307) 
-28.9758

>  <r_i_glide_einternal>  (307) 
6.51694

>  <r_i_glide_intrahb_reward>  (307) 
-0

>  <i_i_glide_confnum>  (307) 
3

>  <i_i_glide_posenum>  (307) 
2

>  <r_i_glide_eff_state_penalty>  (307) 
0

>  <ligand_id>  (307) 
77

>  <original_smiles>  (307) 
Cc1occc1C(=O)C12C(=O)C3(C)CC1C1C(C(O)CC2C3(C)C)C2(C)C(O)CCC(C)(C)C12

>  <smiles>  (307) 
[H]OC1([H])C([H])([H])C2([H])C3(C(=O)c4c(C([H])([H])[H])oc([H])c4[H])C(=O)C(C([H])([H])[H])(C([H])([H])C3([H])C3([H])C1([H])C1(C([H])([H])[H])C([H])(O[H])C([H])([H])C([H])([H])C(C([H])([H])[H])(C([H])([H])[H])C31[H])C2(C([H])([H])[H])C([H])([H])[H]

$$$$
77:0:1
     RDKit          3D

 74 79  0  0  1  0  0  0  0  0999 V2000
    2.8023   -2.4024    1.0065 C   0  0  0  0  0  0  0  0  0  0  0  0
    3.7080   -3.3646    0.3302 C   0  0  0  0  0  0  0  0  0  0  0  0
    4.2415   -2.9619   -0.8486 O   0  0  0  0  0  0  0  0  0  0  0  0
    5.0350   -3.9690   -1.3162 C   0  0  0  0  0  0  0  0  0  0  0  0
    4.9977   -5.0333   -0.4484 C   0  0  0  0  0  0  0  0  0  0  0  0
    4.1563   -4.6787    0.6110 C   0  0  0  0  0  0  0  0  0  0  0  0
    3.6559   -5.3736    1.8345 C   0  0  0  0  0  0  0  0  0  0  0  0
    2.5527   -5.0629    2.2896 O   0  0  0  0  0  0  0  0  0  0  0  0
    4.5900   -6.4254    2.5897 C   0  0  1  0  0  0  0  0  0  0  0  0
    5.9682   -5.8055    2.7589 C   0  0  0  0  0  0  0  0  0  0  0  0
    6.3939   -4.7109    2.4296 O   0  0  0  0  0  0  0  0  0  0  0  0
    6.7184   -6.8727    3.4793 C   0  0  1  0  0  0  0  0  0  0  0  0
    8.1821   -6.5174    3.8530 C   0  0  0  0  0  0  0  0  0  0  0  0
    5.7603   -6.9162    4.6910 C   0  0  0  0  0  0  0  0  0  0  0  0
    4.3123   -6.7358    4.1050 C   0  0  2  0  0  0  0  0  0  0  0  0
    3.4356   -7.9708    4.5049 C   0  0  2  0  0  0  0  0  0  0  0  0
    2.4207   -8.6834    3.6124 C   0  0  2  0  0  0  0  0  0  0  0  0
    2.5753   -8.8173    2.0883 C   0  0  1  0  0  0  0  0  0  0  0  0
    1.8478   -7.8823    1.3383 O   0  0  0  0  0  0  0  0  0  0  0  0
    4.0417   -8.9092    1.6083 C   0  0  0  0  0  0  0  0  0  0  0  0
    5.0460   -7.7413    1.8784 C   0  0  2  0  0  0  0  0  0  0  0  0
    6.4861   -8.0589    2.4771 C   0  0  0  0  0  0  0  0  0  0  0  0
    7.5441   -8.0310    1.3360 C   0  0  0  0  0  0  0  0  0  0  0  0
    6.6256   -9.4282    3.1759 C   0  0  0  0  0  0  0  0  0  0  0  0
    1.2185   -8.1176    4.4294 C   0  0  1  0  0  0  0  0  0  0  0  0
    0.5350   -6.8621    3.9212 C   0  0  0  0  0  0  0  0  0  0  0  0
    0.0318   -9.0192    4.7977 C   0  0  1  0  0  0  0  0  0  0  0  0
   -0.1668  -10.0288    3.8408 O   0  0  0  0  0  0  0  0  0  0  0  0
    0.0161   -9.5839    6.2321 C   0  0  0  0  0  0  0  0  0  0  0  0
    0.7539   -8.7233    7.2680 C   0  0  0  0  0  0  0  0  0  0  0  0
    2.2335   -8.5522    6.8897 C   0  0  0  0  0  0  0  0  0  0  0  0
    2.9200   -7.7240    7.9968 C   0  0  0  0  0  0  0  0  0  0  0  0
    2.9236   -9.9320    6.8681 C   0  0  0  0  0  0  0  0  0  0  0  0
    2.2803   -7.8155    5.5231 C   0  0  1  0  0  0  0  0  0  0  0  0
    2.5792   -2.6337    2.0514 H   0  0  0  0  0  0  0  0  0  0  0  0
    1.8501   -2.3482    0.4812 H   0  0  0  0  0  0  0  0  0  0  0  0
    3.2523   -1.4104    0.9916 H   0  0  0  0  0  0  0  0  0  0  0  0
    5.5090   -3.8153   -2.2581 H   0  0  0  0  0  0  0  0  0  0  0  0
    5.5095   -5.9718   -0.6574 H   0  0  0  0  0  0  0  0  0  0  0  0
    8.6530   -7.3293    4.4133 H   0  0  0  0  0  0  0  0  0  0  0  0
    8.2319   -5.6220    4.4765 H   0  0  0  0  0  0  0  0  0  0  0  0
    8.8056   -6.3151    2.9796 H   0  0  0  0  0  0  0  0  0  0  0  0
    5.9273   -7.8103    5.2957 H   0  0  0  0  0  0  0  0  0  0  0  0
    5.9827   -6.0824    5.3609 H   0  0  0  0  0  0  0  0  0  0  0  0
    3.8953   -5.8263    4.5388 H   0  0  0  0  0  0  0  0  0  0  0  0
    4.0802   -8.7606    4.8718 H   0  0  0  0  0  0  0  0  0  0  0  0
    2.5108   -9.7040    3.9804 H   0  0  0  0  0  0  0  0  0  0  0  0
    2.1354   -9.7719    1.7945 H   0  0  0  0  0  0  0  0  0  0  0  0
    1.1008   -8.3533    0.9821 H   0  0  0  0  0  0  0  0  0  0  0  0
    4.4353   -9.8507    1.9801 H   0  0  0  0  0  0  0  0  0  0  0  0
    4.0148   -9.0627    0.5266 H   0  0  0  0  0  0  0  0  0  0  0  0
    5.2601   -7.4705    0.8559 H   0  0  0  0  0  0  0  0  0  0  0  0
    7.3434   -8.7982    0.5901 H   0  0  0  0  0  0  0  0  0  0  0  0
    8.5443   -8.2517    1.7181 H   0  0  0  0  0  0  0  0  0  0  0  0
    7.5973   -7.0691    0.8183 H   0  0  0  0  0  0  0  0  0  0  0  0
    6.6153  -10.2382    2.4438 H   0  0  0  0  0  0  0  0  0  0  0  0
    5.8148   -9.6156    3.8754 H   0  0  0  0  0  0  0  0  0  0  0  0
    7.5680   -9.5010    3.7249 H   0  0  0  0  0  0  0  0  0  0  0  0
   -0.1214   -6.3882    4.6602 H   0  0  0  0  0  0  0  0  0  0  0  0
   -0.0314   -7.0685    3.0047 H   0  0  0  0  0  0  0  0  0  0  0  0
    1.3191   -6.1418    3.7298 H   0  0  0  0  0  0  0  0  0  0  0  0
   -0.9009   -8.4582    4.7394 H   0  0  0  0  0  0  0  0  0  0  0  0
   -0.8620  -10.5778    4.2045 H   0  0  0  0  0  0  0  0  0  0  0  0
   -1.0235   -9.6900    6.5538 H   0  0  0  0  0  0  0  0  0  0  0  0
    0.4214  -10.5968    6.2363 H   0  0  0  0  0  0  0  0  0  0  0  0
    0.2766   -7.7466    7.2967 H   0  0  0  0  0  0  0  0  0  0  0  0
    0.6444   -9.1559    8.2659 H   0  0  0  0  0  0  0  0  0  0  0  0
    3.9729   -7.5418    7.7729 H   0  0  0  0  0  0  0  0  0  0  0  0
    2.8768   -8.2503    8.9535 H   0  0  0  0  0  0  0  0  0  0  0  0
    2.4364   -6.7575    8.1455 H   0  0  0  0  0  0  0  0  0  0  0  0
    4.0124   -9.8511    6.8428 H   0  0  0  0  0  0  0  0  0  0  0  0
    2.6160  -10.5244    6.0075 H   0  0  0  0  0  0  0  0  0  0  0  0
    2.6563  -10.5077    7.7562 H   0  0  0  0  0  0  0  0  0  0  0  0
    2.2031   -6.7593    5.7161 H   0  0  0  0  0  0  0  0  0  0  0  0
  1  2  1  0
  1 35  1  0
  1 36  1  0
  1 37  1  0
  2  6  2  0
  2  3  1  0
  3  4  1  0
  4  5  2  0
  4 38  1  0
  5  6  1  0
  5 39  1  0
  6  7  1  0
  7  8  2  0
  9  7  1  6
  9 15  1  0
  9 21  1  0
  9 10  1  0
 10 11  2  0
 10 12  1  0
 12 22  1  0
 12 13  1  1
 12 14  1  0
 13 40  1  0
 13 41  1  0
 13 42  1  0
 14 15  1  0
 14 43  1  0
 14 44  1  0
 15 16  1  0
 15 45  1  1
 16 34  1  0
 16 17  1  0
 16 46  1  1
 17 18  1  0
 17 25  1  0
 17 47  1  1
 18 19  1  0
 18 20  1  0
 18 48  1  6
 19 49  1  0
 20 21  1  0
 20 50  1  0
 20 51  1  0
 21 22  1  0
 21 52  1  6
 22 23  1  0
 22 24  1  0
 23 53  1  0
 23 54  1  0
 23 55  1  0
 24 56  1  0
 24 57  1  0
 24 58  1  0
 25 34  1  0
 25 26  1  6
 25 27  1  0
 26 59  1  0
 26 60  1  0
 26 61  1  0
 27 28  1  0
 27 29  1  0
 27 62  1  1
 28 63  1  0
 29 30  1  0
 29 64  1  0
 29 65  1  0
 30 31  1  0
 30 66  1  0
 30 67  1  0
 31 32  1  0
 31 33  1  0
 31 34  1  0
 32 68  1  0
 32 69  1  0
 32 70  1  0
 33 71  1  0
 33 72  1  0
 33 73  1  0
 34 74  1  1
M  END
>  <i_m_ct_stereo_status>  (308) 
1

>  <s_m_source_file>  (308) 
/var/tmp/pbs.5076255.sched01/tmp2a9bgmzv/100_xx7n39i.sdf

>  <i_m_source_file_index>  (308) 
45

>  <i_lp_mmshare_version>  (308) 
48012

>  <i_f3d_flags>  (308) 
0

>  <s_epik_input>  (308) 
W0NIM11jMW9bY0hdW2NIXWMxQyg9TylbQ0BdMjNbQ0BIXTRbQ0BASF01W0NASF0oW0NAQEhdKFtPSF0pW0NIMl1bQ0BASF0zQyhbQ0gzXSkoW0NIM10pW0NAXShDMj1PKShbQ0gzXSlbQ0gyXTQpW0NAXTYoW0NIM10pW0NASF01QyhbQ0gzXSkoW0NIM10pW0NIMl1bQ0gyXVtDQEBIXTZbT0hd

>  <s_epik_cmdline>  (308) 
J2VwaWtfcHl0aG9uJywgJy1waHQnLCAnMi4wJywgJy1waCcsICc3LjAnLCAnLXRuJywgJzgnLCAnLW1hJywgJzIwMCcsICctaW1hZScsICc8aW5maWxlLm1hZT4nLCAnLW9tYWUnLCAnPG91dGZpbGUubWFlPic=

>  <r_lp_tautomer_probability>  (308) 
1

>  <r_epik_Ionization_Penalty>  (308) 
2.22255e-06

>  <r_epik_Ionization_Penalty_Charging>  (308) 
0

>  <r_epik_Ionization_Penalty_Neutral>  (308) 
2.22255e-06

>  <r_epik_State_Penalty>  (308) 
-0

>  <r_epik_Charging_Adjusted_Penalty>  (308) 
0

>  <i_epik_Tot_Q>  (308) 
0

>  <i_epik_Tot_abs_Q>  (308) 
0

>  <s_lp_Force_Field>  (308) 
OPLS3e

>  <r_lp_Energy>  (308) 
91.6228

>  <b_lp_Chiralities_Consistent>  (308) 
1

>  <s_lp_Variant>  (308) 
77:0-1

>  <s_i_glide_gridfile>  (308) 
pfpi4k_grid

>  <i_i_glide_lignum>  (308) 
45

>  <i_i_glide_rotatable_bonds>  (308) 
4

>  <r_i_docking_score>  (308) 
-2.17792

>  <r_i_glide_ligand_efficiency>  (308) 
-0.0640564

>  <r_i_glide_ligand_efficiency_sa>  (308) 
-0.207518

>  <r_i_glide_ligand_efficiency_ln>  (308) 
-0.481163

>  <r_i_glide_gscore>  (308) 
-2.17792

>  <r_i_glide_lipo>  (308) 
-0.155513

>  <r_i_glide_hbond>  (308) 
-0.155889

>  <r_i_glide_metal>  (308) 
-0

>  <r_i_glide_rewards>  (308) 
-0.246263

>  <r_i_glide_evdw>  (308) 
-20.9296

>  <r_i_glide_ecoul>  (308) 
-5.05106

>  <r_i_glide_erotb>  (308) 
0.183884

>  <r_i_glide_esite>  (308) 
0

>  <r_i_glide_emodel>  (308) 
-26.1612

>  <r_i_glide_energy>  (308) 
-25.9806

>  <r_i_glide_einternal>  (308) 
5.497

>  <r_i_glide_intrahb_reward>  (308) 
-0

>  <i_i_glide_confnum>  (308) 
3

>  <i_i_glide_posenum>  (308) 
5

>  <r_i_glide_eff_state_penalty>  (308) 
0

>  <ligand_id>  (308) 
77

>  <original_smiles>  (308) 
Cc1occc1C(=O)C12C(=O)C3(C)CC1C1C(C(O)CC2C3(C)C)C2(C)C(O)CCC(C)(C)C12

>  <smiles>  (308) 
[H]OC1([H])C([H])([H])C2([H])C3(C(=O)c4c(C([H])([H])[H])oc([H])c4[H])C(=O)C(C([H])([H])[H])(C([H])([H])C3([H])C3([H])C1([H])C1(C([H])([H])[H])C([H])(O[H])C([H])([H])C([H])([H])C(C([H])([H])[H])(C([H])([H])[H])C31[H])C2(C([H])([H])[H])C([H])([H])[H]

$$$$
77:0:2
     RDKit          3D

 74 79  0  0  1  0  0  0  0  0999 V2000
   -1.2818   -7.2517    2.9725 C   0  0  0  0  0  0  0  0  0  0  0  0
   -0.1426   -7.7737    3.8183 C   0  0  0  0  0  0  0  0  0  0  0  0
   -0.5213   -8.6877    4.7486 O   0  0  0  0  0  0  0  0  0  0  0  0
    0.6144   -9.0916    5.3811 C   0  0  0  0  0  0  0  0  0  0  0  0
    1.7025   -8.4310    4.9094 C   0  0  0  0  0  0  0  0  0  0  0  0
    1.2162   -7.5232    3.8747 C   0  0  0  0  0  0  0  0  0  0  0  0
    1.9147   -6.5516    2.9613 C   0  0  0  0  0  0  0  0  0  0  0  0
    1.2412   -5.7992    2.2743 O   0  0  0  0  0  0  0  0  0  0  0  0
    3.4584   -6.6295    2.7285 C   0  0  1  0  0  0  0  0  0  0  0  0
    3.8005   -8.0269    2.2106 C   0  0  0  0  0  0  0  0  0  0  0  0
    3.0698   -8.9827    1.9699 O   0  0  0  0  0  0  0  0  0  0  0  0
    5.2735   -7.9330    2.0147 C   0  0  1  0  0  0  0  0  0  0  0  0
    5.9434   -9.2065    1.4349 C   0  0  0  0  0  0  0  0  0  0  0  0
    5.1964   -6.7610    1.0071 C   0  0  0  0  0  0  0  0  0  0  0  0
    4.0742   -5.8067    1.5390 C   0  0  2  0  0  0  0  0  0  0  0  0
    4.6677   -4.3734    1.7884 C   0  0  2  0  0  0  0  0  0  0  0  0
    4.3492   -3.4504    2.9696 C   0  0  2  0  0  0  0  0  0  0  0  0
    3.9895   -3.9848    4.3703 C   0  0  1  0  0  0  0  0  0  0  0  0
    2.6111   -4.0504    4.6095 O   0  0  0  0  0  0  0  0  0  0  0  0
    4.7044   -5.2974    4.7507 C   0  0  0  0  0  0  0  0  0  0  0  0
    4.4524   -6.6240    3.9525 C   0  0  2  0  0  0  0  0  0  0  0  0
    5.7011   -7.4762    3.4590 C   0  0  0  0  0  0  0  0  0  0  0  0
    5.8866   -8.6955    4.4089 C   0  0  0  0  0  0  0  0  0  0  0  0
    7.0650   -6.7384    3.4357 C   0  0  0  0  0  0  0  0  0  0  0  0
    3.5089   -2.4990    2.0649 C   0  0  1  0  0  0  0  0  0  0  0  0
    2.0046   -2.7266    2.0270 C   0  0  0  0  0  0  0  0  0  0  0  0
    3.6777   -0.9658    2.2056 C   0  0  1  0  0  0  0  0  0  0  0  0
    4.0643   -0.6161    3.5198 O   0  0  0  0  0  0  0  0  0  0  0  0
    4.5891   -0.2575    1.1805 C   0  0  0  0  0  0  0  0  0  0  0  0
    4.6936   -0.9860   -0.1683 C   0  0  0  0  0  0  0  0  0  0  0  0
    5.2585   -2.4076    0.0029 C   0  0  0  0  0  0  0  0  0  0  0  0
    5.3957   -3.0373   -1.3982 C   0  0  0  0  0  0  0  0  0  0  0  0
    6.6832   -2.3266    0.6081 C   0  0  0  0  0  0  0  0  0  0  0  0
    4.2362   -3.1965    0.8802 C   0  0  1  0  0  0  0  0  0  0  0  0
   -0.9726   -6.6952    2.0869 H   0  0  0  0  0  0  0  0  0  0  0  0
   -1.9216   -6.6215    3.5815 H   0  0  0  0  0  0  0  0  0  0  0  0
   -1.8909   -8.0745    2.6140 H   0  0  0  0  0  0  0  0  0  0  0  0
    0.4520   -9.8596    6.1436 H   0  0  0  0  0  0  0  0  0  0  0  0
    2.7144   -8.5884    5.2703 H   0  0  0  0  0  0  0  0  0  0  0  0
    7.0117   -9.0529    1.2659 H   0  0  0  0  0  0  0  0  0  0  0  0
    5.5018   -9.4884    0.4749 H   0  0  0  0  0  0  0  0  0  0  0  0
    5.8320  -10.0728    2.0840 H   0  0  0  0  0  0  0  0  0  0  0  0
    6.1814   -6.3006    0.8603 H   0  0  0  0  0  0  0  0  0  0  0  0
    4.9159   -7.1375    0.0214 H   0  0  0  0  0  0  0  0  0  0  0  0
    3.3056   -5.7539    0.7555 H   0  0  0  0  0  0  0  0  0  0  0  0
    5.7476   -4.4481    1.7744 H   0  0  0  0  0  0  0  0  0  0  0  0
    5.2987   -2.9445    3.1161 H   0  0  0  0  0  0  0  0  0  0  0  0
    4.3453   -3.2430    5.0941 H   0  0  0  0  0  0  0  0  0  0  0  0
    2.2680   -3.1730    4.5108 H   0  0  0  0  0  0  0  0  0  0  0  0
    5.7671   -5.0630    4.8256 H   0  0  0  0  0  0  0  0  0  0  0  0
    4.4197   -5.5154    5.7824 H   0  0  0  0  0  0  0  0  0  0  0  0
    3.9885   -7.2341    4.7187 H   0  0  0  0  0  0  0  0  0  0  0  0
    6.0427   -8.3732    5.4367 H   0  0  0  0  0  0  0  0  0  0  0  0
    6.7542   -9.3013    4.1383 H   0  0  0  0  0  0  0  0  0  0  0  0
    5.0259   -9.3612    4.4102 H   0  0  0  0  0  0  0  0  0  0  0  0
    7.4235   -6.5646    4.4559 H   0  0  0  0  0  0  0  0  0  0  0  0
    7.0033   -5.7666    2.9460 H   0  0  0  0  0  0  0  0  0  0  0  0
    7.8367   -7.3267    2.9216 H   0  0  0  0  0  0  0  0  0  0  0  0
    1.5626   -2.1637    1.1909 H   0  0  0  0  0  0  0  0  0  0  0  0
    1.5328   -2.3454    2.9381 H   0  0  0  0  0  0  0  0  0  0  0  0
    1.8340   -3.7350    1.8989 H   0  0  0  0  0  0  0  0  0  0  0  0
    2.7082   -0.4817    2.0670 H   0  0  0  0  0  0  0  0  0  0  0  0
    4.0693    0.3290    3.5865 H   0  0  0  0  0  0  0  0  0  0  0  0
    4.2019    0.7576    1.0083 H   0  0  0  0  0  0  0  0  0  0  0  0
    5.5899   -0.1255    1.6045 H   0  0  0  0  0  0  0  0  0  0  0  0
    3.7002   -1.0411   -0.6050 H   0  0  0  0  0  0  0  0  0  0  0  0
    5.3017   -0.3996   -0.8569 H   0  0  0  0  0  0  0  0  0  0  0  0
    5.7538   -4.0698   -1.3467 H   0  0  0  0  0  0  0  0  0  0  0  0
    6.0979   -2.4794   -2.0156 H   0  0  0  0  0  0  0  0  0  0  0  0
    4.4424   -3.0506   -1.9339 H   0  0  0  0  0  0  0  0  0  0  0  0
    7.2115   -3.2819    0.5258 H   0  0  0  0  0  0  0  0  0  0  0  0
    6.6515   -2.0612    1.6634 H   0  0  0  0  0  0  0  0  0  0  0  0
    7.2815   -1.5699    0.1006 H   0  0  0  0  0  0  0  0  0  0  0  0
    3.4665   -3.5685    0.2251 H   0  0  0  0  0  0  0  0  0  0  0  0
  1  2  1  0
  1 35  1  0
  1 36  1  0
  1 37  1  0
  2  6  2  0
  2  3  1  0
  3  4  1  0
  4  5  2  0
  4 38  1  0
  5  6  1  0
  5 39  1  0
  6  7  1  0
  7  8  2  0
  9  7  1  1
  9 15  1  0
  9 21  1  0
  9 10  1  0
 10 11  2  0
 10 12  1  0
 12 22  1  0
 12 13  1  6
 12 14  1  0
 13 40  1  0
 13 41  1  0
 13 42  1  0
 14 15  1  0
 14 43  1  0
 14 44  1  0
 15 16  1  0
 15 45  1  6
 16 34  1  0
 16 17  1  0
 16 46  1  6
 17 18  1  0
 17 25  1  0
 17 47  1  1
 18 19  1  0
 18 20  1  0
 18 48  1  1
 19 49  1  0
 20 21  1  0
 20 50  1  0
 20 51  1  0
 21 22  1  0
 21 52  1  1
 22 23  1  0
 22 24  1  0
 23 53  1  0
 23 54  1  0
 23 55  1  0
 24 56  1  0
 24 57  1  0
 24 58  1  0
 25 34  1  0
 25 26  1  6
 25 27  1  0
 26 59  1  0
 26 60  1  0
 26 61  1  0
 27 28  1  0
 27 29  1  0
 27 62  1  6
 28 63  1  0
 29 30  1  0
 29 64  1  0
 29 65  1  0
 30 31  1  0
 30 66  1  0
 30 67  1  0
 31 32  1  0
 31 33  1  0
 31 34  1  0
 32 68  1  0
 32 69  1  0
 32 70  1  0
 33 71  1  0
 33 72  1  0
 33 73  1  0
 34 74  1  6
M  END
>  <i_m_ct_stereo_status>  (309) 
1

>  <s_m_source_file>  (309) 
/var/tmp/pbs.5076255.sched01/tmp2a9bgmzv/100_xx7n39i.sdf

>  <i_m_source_file_index>  (309) 
45

>  <i_lp_mmshare_version>  (309) 
48012

>  <i_f3d_flags>  (309) 
0

>  <s_epik_input>  (309) 
W0NIM11jMW9bY0hdW2NIXWMxQyg9TylbQ0BdMjNbQ0BIXTRbQ0BASF01W0NASF0oW0NAQEhdKFtPSF0pW0NIMl1bQ0BASF0zQyhbQ0gzXSkoW0NIM10pW0NAXShDMj1PKShbQ0gzXSlbQ0gyXTQpW0NAXTYoW0NIM10pW0NASF01QyhbQ0gzXSkoW0NIM10pW0NIMl1bQ0gyXVtDQEBIXTZbT0hd

>  <s_epik_cmdline>  (309) 
J2VwaWtfcHl0aG9uJywgJy1waHQnLCAnMi4wJywgJy1waCcsICc3LjAnLCAnLXRuJywgJzgnLCAnLW1hJywgJzIwMCcsICctaW1hZScsICc8aW5maWxlLm1hZT4nLCAnLW9tYWUnLCAnPG91dGZpbGUubWFlPic=

>  <r_lp_tautomer_probability>  (309) 
1

>  <r_epik_Ionization_Penalty>  (309) 
2.22255e-06

>  <r_epik_Ionization_Penalty_Charging>  (309) 
0

>  <r_epik_Ionization_Penalty_Neutral>  (309) 
2.22255e-06

>  <r_epik_State_Penalty>  (309) 
-0

>  <r_epik_Charging_Adjusted_Penalty>  (309) 
0

>  <i_epik_Tot_Q>  (309) 
0

>  <i_epik_Tot_abs_Q>  (309) 
0

>  <s_lp_Force_Field>  (309) 
OPLS3e

>  <r_lp_Energy>  (309) 
91.6228

>  <b_lp_Chiralities_Consistent>  (309) 
1

>  <s_lp_Variant>  (309) 
77:0-1

>  <s_i_glide_gridfile>  (309) 
pfpi4k_grid

>  <i_i_glide_lignum>  (309) 
45

>  <i_i_glide_rotatable_bonds>  (309) 
4

>  <r_i_docking_score>  (309) 
-2.02693

>  <r_i_glide_ligand_efficiency>  (309) 
-0.0596156

>  <r_i_glide_ligand_efficiency_sa>  (309) 
-0.193132

>  <r_i_glide_ligand_efficiency_ln>  (309) 
-0.447806

>  <r_i_glide_gscore>  (309) 
-2.02693

>  <r_i_glide_lipo>  (309) 
-0.539627

>  <r_i_glide_hbond>  (309) 
-0.025863

>  <r_i_glide_metal>  (309) 
-0

>  <r_i_glide_rewards>  (309) 
-0.213921

>  <r_i_glide_evdw>  (309) 
-27.2

>  <r_i_glide_ecoul>  (309) 
-0.376395

>  <r_i_glide_erotb>  (309) 
0.183884

>  <r_i_glide_esite>  (309) 
-0.0149443

>  <r_i_glide_emodel>  (309) 
-29.076

>  <r_i_glide_energy>  (309) 
-27.5764

>  <r_i_glide_einternal>  (309) 
2.74827

>  <r_i_glide_intrahb_reward>  (309) 
-0

>  <i_i_glide_confnum>  (309) 
3

>  <i_i_glide_posenum>  (309) 
16

>  <r_i_glide_eff_state_penalty>  (309) 
0

>  <ligand_id>  (309) 
77

>  <original_smiles>  (309) 
Cc1occc1C(=O)C12C(=O)C3(C)CC1C1C(C(O)CC2C3(C)C)C2(C)C(O)CCC(C)(C)C12

>  <smiles>  (309) 
[H]OC1([H])C([H])([H])C2([H])C3(C(=O)c4c(C([H])([H])[H])oc([H])c4[H])C(=O)C(C([H])([H])[H])(C([H])([H])C3([H])C3([H])C1([H])C1(C([H])([H])[H])C([H])(O[H])C([H])([H])C([H])([H])C(C([H])([H])[H])(C([H])([H])[H])C31[H])C2(C([H])([H])[H])C([H])([H])[H]

$$$$
79:0:0
     RDKit          3D

 22 22  0  0  1  0  0  0  0  0999 V2000
    3.6326   -0.5603   -3.1858 C   0  0  0  0  0  0  0  0  0  0  0  0
    4.0439   -2.0436   -3.1386 C   0  0  2  0  0  0  0  0  0  0  0  0
    2.6134   -3.0431   -3.5863 S   0  0  0  0  0  0  0  0  0  0  0  0
    2.2392   -3.4349   -1.8825 C   0  0  0  0  0  0  0  0  0  0  0  0
    1.2527   -4.0761   -1.5173 O   0  0  0  0  0  0  0  0  0  0  0  0
    3.2947   -2.8757   -0.9247 C   0  0  1  0  0  0  0  0  0  0  0  0
    3.5531   -3.8007    0.1204 O   0  0  0  0  0  0  0  0  0  0  0  0
    4.5633   -2.5384   -1.7528 C   0  0  0  0  0  0  0  0  0  0  0  0
    5.4454   -3.7961   -1.9710 C   0  0  0  0  0  0  0  0  0  0  0  0
    5.4307   -1.4756   -1.0420 C   0  0  0  0  0  0  0  0  0  0  0  0
    4.4719    0.1241   -3.0464 H   0  0  0  0  0  0  0  0  0  0  0  0
    2.8956   -0.3443   -2.4131 H   0  0  0  0  0  0  0  0  0  0  0  0
    3.1695   -0.2938   -4.1331 H   0  0  0  0  0  0  0  0  0  0  0  0
    4.8112   -2.1974   -3.9012 H   0  0  0  0  0  0  0  0  0  0  0  0
    2.8769   -1.9686   -0.4802 H   0  0  0  0  0  0  0  0  0  0  0  0
    3.9039   -4.5848   -0.2777 H   0  0  0  0  0  0  0  0  0  0  0  0
    5.9030   -4.1457   -1.0450 H   0  0  0  0  0  0  0  0  0  0  0  0
    6.2766   -3.6050   -2.6519 H   0  0  0  0  0  0  0  0  0  0  0  0
    4.9007   -4.6402   -2.3878 H   0  0  0  0  0  0  0  0  0  0  0  0
    5.9066   -1.8491   -0.1350 H   0  0  0  0  0  0  0  0  0  0  0  0
    4.8593   -0.5923   -0.7563 H   0  0  0  0  0  0  0  0  0  0  0  0
    6.2166   -1.1459   -1.7103 H   0  0  0  0  0  0  0  0  0  0  0  0
  1  2  1  0
  1 11  1  0
  1 12  1  0
  1 13  1  0
  2  8  1  0
  2  3  1  0
  2 14  1  6
  3  4  1  0
  4  5  2  0
  4  6  1  0
  6  7  1  0
  6  8  1  0
  6 15  1  1
  7 16  1  0
  8  9  1  0
  8 10  1  0
  9 17  1  0
  9 18  1  0
  9 19  1  0
 10 20  1  0
 10 21  1  0
 10 22  1  0
M  END
>  <i_m_ct_stereo_status>  (310) 
1

>  <s_m_source_file>  (310) 
/var/tmp/pbs.5076255.sched01/tmp2a9bgmzv/100_xx7n39i.sdf

>  <i_m_source_file_index>  (310) 
47

>  <i_lp_mmshare_version>  (310) 
48012

>  <i_f3d_flags>  (310) 
0

>  <s_epik_input>  (310) 
W0NIM11DMShbQ0gzXSlbQ0BIXShbQ0gzXSlTQyg9TylbQ0BIXTFbT0hd

>  <s_epik_cmdline>  (310) 
J2VwaWtfcHl0aG9uJywgJy1waHQnLCAnMi4wJywgJy1waCcsICc3LjAnLCAnLXRuJywgJzgnLCAnLW1hJywgJzIwMCcsICctaW1hZScsICc8aW5maWxlLm1hZT4nLCAnLW9tYWUnLCAnPG91dGZpbGUubWFlPic=

>  <r_lp_tautomer_probability>  (310) 
1

>  <r_epik_Ionization_Penalty>  (310) 
1.31766e-05

>  <r_epik_Ionization_Penalty_Charging>  (310) 
0

>  <r_epik_Ionization_Penalty_Neutral>  (310) 
1.31766e-05

>  <r_epik_State_Penalty>  (310) 
-0

>  <r_epik_Charging_Adjusted_Penalty>  (310) 
0

>  <i_epik_Tot_Q>  (310) 
0

>  <i_epik_Tot_abs_Q>  (310) 
0

>  <s_lp_Force_Field>  (310) 
OPLS3e

>  <r_lp_Energy>  (310) 
5.04221

>  <b_lp_Chiralities_Consistent>  (310) 
1

>  <s_lp_Variant>  (310) 
79:0-1

>  <s_i_glide_gridfile>  (310) 
pfpi4k_grid

>  <i_i_glide_lignum>  (310) 
47

>  <i_i_glide_rotatable_bonds>  (310) 
1

>  <r_i_docking_score>  (310) 
-4.05907

>  <r_i_glide_ligand_efficiency>  (310) 
-0.405907

>  <r_i_glide_ligand_efficiency_sa>  (310) 
-0.8745

>  <r_i_glide_ligand_efficiency_ln>  (310) 
-1.22906

>  <r_i_glide_gscore>  (310) 
-4.05907

>  <r_i_glide_lipo>  (310) 
-0.552838

>  <r_i_glide_hbond>  (310) 
-0.00914276

>  <r_i_glide_metal>  (310) 
-0

>  <r_i_glide_rewards>  (310) 
-2.47915

>  <r_i_glide_evdw>  (310) 
-17.8824

>  <r_i_glide_ecoul>  (310) 
-0.825477

>  <r_i_glide_erotb>  (310) 
0

>  <r_i_glide_esite>  (310) 
0

>  <r_i_glide_emodel>  (310) 
-23.5497

>  <r_i_glide_energy>  (310) 
-18.7079

>  <r_i_glide_einternal>  (310) 
1.36709

>  <r_i_glide_intrahb_reward>  (310) 
-0

>  <i_i_glide_confnum>  (310) 
2

>  <i_i_glide_posenum>  (310) 
6

>  <r_i_glide_eff_state_penalty>  (310) 
0

>  <ligand_id>  (310) 
79

>  <original_smiles>  (310) 
CC1SC(=O)C(O)C1(C)C

>  <smiles>  (310) 
[H]OC1([H])C(=O)SC([H])(C([H])([H])[H])C1(C([H])([H])[H])C([H])([H])[H]

$$$$
79:0:1
     RDKit          3D

 22 22  0  0  1  0  0  0  0  0999 V2000
    5.3160   -1.0015    0.1337 C   0  0  0  0  0  0  0  0  0  0  0  0
    5.3843   -2.3872   -0.5427 C   0  0  2  0  0  0  0  0  0  0  0  0
    5.0699   -2.2064   -2.3186 S   0  0  0  0  0  0  0  0  0  0  0  0
    3.3520   -2.6872   -2.1458 C   0  0  0  0  0  0  0  0  0  0  0  0
    2.5488   -2.6733   -3.0775 O   0  0  0  0  0  0  0  0  0  0  0  0
    3.0266   -3.1268   -0.7118 C   0  0  1  0  0  0  0  0  0  0  0  0
    2.1633   -4.2518   -0.7165 O   0  0  0  0  0  0  0  0  0  0  0  0
    4.3646   -3.4222    0.0191 C   0  0  0  0  0  0  0  0  0  0  0  0
    4.8687   -4.8589   -0.2899 C   0  0  0  0  0  0  0  0  0  0  0  0
    4.2035   -3.3057    1.5514 C   0  0  0  0  0  0  0  0  0  0  0  0
    5.6335   -1.0316    1.1750 H   0  0  0  0  0  0  0  0  0  0  0  0
    4.3089   -0.5857    0.1058 H   0  0  0  0  0  0  0  0  0  0  0  0
    5.9661   -0.2752   -0.3562 H   0  0  0  0  0  0  0  0  0  0  0  0
    6.3999   -2.7640   -0.4255 H   0  0  0  0  0  0  0  0  0  0  0  0
    2.5238   -2.2830   -0.2301 H   0  0  0  0  0  0  0  0  0  0  0  0
    2.5401   -4.9017   -1.3017 H   0  0  0  0  0  0  0  0  0  0  0  0
    4.2187   -5.6217    0.1400 H   0  0  0  0  0  0  0  0  0  0  0  0
    5.8614   -5.0445    0.1215 H   0  0  0  0  0  0  0  0  0  0  0  0
    4.9302   -5.0632   -1.3582 H   0  0  0  0  0  0  0  0  0  0  0  0
    3.5765   -4.0958    1.9678 H   0  0  0  0  0  0  0  0  0  0  0  0
    3.7454   -2.3623    1.8479 H   0  0  0  0  0  0  0  0  0  0  0  0
    5.1672   -3.3668    2.0534 H   0  0  0  0  0  0  0  0  0  0  0  0
  1  2  1  0
  1 11  1  0
  1 12  1  0
  1 13  1  0
  2  8  1  0
  2  3  1  0
  2 14  1  6
  3  4  1  0
  4  5  2  0
  4  6  1  0
  6  7  1  0
  6  8  1  0
  6 15  1  1
  7 16  1  0
  8  9  1  0
  8 10  1  0
  9 17  1  0
  9 18  1  0
  9 19  1  0
 10 20  1  0
 10 21  1  0
 10 22  1  0
M  END
>  <i_m_ct_stereo_status>  (311) 
1

>  <s_m_source_file>  (311) 
/var/tmp/pbs.5076255.sched01/tmp2a9bgmzv/100_xx7n39i.sdf

>  <i_m_source_file_index>  (311) 
47

>  <i_lp_mmshare_version>  (311) 
48012

>  <i_f3d_flags>  (311) 
0

>  <s_epik_input>  (311) 
W0NIM11DMShbQ0gzXSlbQ0BIXShbQ0gzXSlTQyg9TylbQ0BIXTFbT0hd

>  <s_epik_cmdline>  (311) 
J2VwaWtfcHl0aG9uJywgJy1waHQnLCAnMi4wJywgJy1waCcsICc3LjAnLCAnLXRuJywgJzgnLCAnLW1hJywgJzIwMCcsICctaW1hZScsICc8aW5maWxlLm1hZT4nLCAnLW9tYWUnLCAnPG91dGZpbGUubWFlPic=

>  <r_lp_tautomer_probability>  (311) 
1

>  <r_epik_Ionization_Penalty>  (311) 
1.31766e-05

>  <r_epik_Ionization_Penalty_Charging>  (311) 
0

>  <r_epik_Ionization_Penalty_Neutral>  (311) 
1.31766e-05

>  <r_epik_State_Penalty>  (311) 
-0

>  <r_epik_Charging_Adjusted_Penalty>  (311) 
0

>  <i_epik_Tot_Q>  (311) 
0

>  <i_epik_Tot_abs_Q>  (311) 
0

>  <s_lp_Force_Field>  (311) 
OPLS3e

>  <r_lp_Energy>  (311) 
5.04221

>  <b_lp_Chiralities_Consistent>  (311) 
1

>  <s_lp_Variant>  (311) 
79:0-1

>  <s_i_glide_gridfile>  (311) 
pfpi4k_grid

>  <i_i_glide_lignum>  (311) 
47

>  <i_i_glide_rotatable_bonds>  (311) 
1

>  <r_i_docking_score>  (311) 
-3.94467

>  <r_i_glide_ligand_efficiency>  (311) 
-0.394467

>  <r_i_glide_ligand_efficiency_sa>  (311) 
-0.849854

>  <r_i_glide_ligand_efficiency_ln>  (311) 
-1.19442

>  <r_i_glide_gscore>  (311) 
-3.94467

>  <r_i_glide_lipo>  (311) 
-0.154108

>  <r_i_glide_hbond>  (311) 
0

>  <r_i_glide_metal>  (311) 
-0

>  <r_i_glide_rewards>  (311) 
-2.25

>  <r_i_glide_evdw>  (311) 
-16.8755

>  <r_i_glide_ecoul>  (311) 
-4.4487

>  <r_i_glide_erotb>  (311) 
0

>  <r_i_glide_esite>  (311) 
-0.0294836

>  <r_i_glide_emodel>  (311) 
-25.7402

>  <r_i_glide_energy>  (311) 
-21.3242

>  <r_i_glide_einternal>  (311) 
1.62712

>  <r_i_glide_intrahb_reward>  (311) 
-0

>  <i_i_glide_confnum>  (311) 
4

>  <i_i_glide_posenum>  (311) 
16

>  <r_i_glide_eff_state_penalty>  (311) 
0

>  <ligand_id>  (311) 
79

>  <original_smiles>  (311) 
CC1SC(=O)C(O)C1(C)C

>  <smiles>  (311) 
[H]OC1([H])C(=O)SC([H])(C([H])([H])[H])C1(C([H])([H])[H])C([H])([H])[H]

$$$$
79:0:2
     RDKit          3D

 22 22  0  0  1  0  0  0  0  0999 V2000
    3.5075   -1.7826   -3.5490 C   0  0  0  0  0  0  0  0  0  0  0  0
    3.6927   -2.9530   -2.5487 C   0  0  2  0  0  0  0  0  0  0  0  0
    2.1096   -3.4514   -1.8378 S   0  0  0  0  0  0  0  0  0  0  0  0
    2.8589   -4.0228   -0.3224 C   0  0  0  0  0  0  0  0  0  0  0  0
    2.2302   -4.5966    0.5877 O   0  0  0  0  0  0  0  0  0  0  0  0
    4.3604   -3.8188   -0.3045 C   0  0  1  0  0  0  0  0  0  0  0  0
    4.9706   -5.0761   -0.5211 O   0  0  0  0  0  0  0  0  0  0  0  0
    4.7170   -2.7379   -1.3857 C   0  0  0  0  0  0  0  0  0  0  0  0
    6.1763   -2.8840   -1.8669 C   0  0  0  0  0  0  0  0  0  0  0  0
    4.5701   -1.3267   -0.7455 C   0  0  0  0  0  0  0  0  0  0  0  0
    4.4470   -1.5043   -4.0202 H   0  0  0  0  0  0  0  0  0  0  0  0
    3.1036   -0.8912   -3.0754 H   0  0  0  0  0  0  0  0  0  0  0  0
    2.8049   -2.0276   -4.3464 H   0  0  0  0  0  0  0  0  0  0  0  0
    4.0074   -3.8325   -3.1117 H   0  0  0  0  0  0  0  0  0  0  0  0
    4.6727   -3.4796    0.6924 H   0  0  0  0  0  0  0  0  0  0  0  0
    4.6686   -5.4317   -1.3562 H   0  0  0  0  0  0  0  0  0  0  0  0
    6.8922   -2.6631   -1.0735 H   0  0  0  0  0  0  0  0  0  0  0  0
    6.3790   -2.2313   -2.7173 H   0  0  0  0  0  0  0  0  0  0  0  0
    6.4051   -3.8674   -2.2608 H   0  0  0  0  0  0  0  0  0  0  0  0
    5.2591   -1.1808    0.0874 H   0  0  0  0  0  0  0  0  0  0  0  0
    3.5686   -1.1620   -0.3581 H   0  0  0  0  0  0  0  0  0  0  0  0
    4.7716   -0.5094   -1.4393 H   0  0  0  0  0  0  0  0  0  0  0  0
  1  2  1  0
  1 11  1  0
  1 12  1  0
  1 13  1  0
  2  8  1  0
  2  3  1  0
  2 14  1  6
  3  4  1  0
  4  5  2  0
  4  6  1  0
  6  7  1  0
  6  8  1  0
  6 15  1  1
  7 16  1  0
  8  9  1  0
  8 10  1  0
  9 17  1  0
  9 18  1  0
  9 19  1  0
 10 20  1  0
 10 21  1  0
 10 22  1  0
M  END
>  <i_m_ct_stereo_status>  (312) 
1

>  <s_m_source_file>  (312) 
/var/tmp/pbs.5076255.sched01/tmp2a9bgmzv/100_xx7n39i.sdf

>  <i_m_source_file_index>  (312) 
47

>  <i_lp_mmshare_version>  (312) 
48012

>  <i_f3d_flags>  (312) 
0

>  <s_epik_input>  (312) 
W0NIM11DMShbQ0gzXSlbQ0BIXShbQ0gzXSlTQyg9TylbQ0BIXTFbT0hd

>  <s_epik_cmdline>  (312) 
J2VwaWtfcHl0aG9uJywgJy1waHQnLCAnMi4wJywgJy1waCcsICc3LjAnLCAnLXRuJywgJzgnLCAnLW1hJywgJzIwMCcsICctaW1hZScsICc8aW5maWxlLm1hZT4nLCAnLW9tYWUnLCAnPG91dGZpbGUubWFlPic=

>  <r_lp_tautomer_probability>  (312) 
1

>  <r_epik_Ionization_Penalty>  (312) 
1.31766e-05

>  <r_epik_Ionization_Penalty_Charging>  (312) 
0

>  <r_epik_Ionization_Penalty_Neutral>  (312) 
1.31766e-05

>  <r_epik_State_Penalty>  (312) 
-0

>  <r_epik_Charging_Adjusted_Penalty>  (312) 
0

>  <i_epik_Tot_Q>  (312) 
0

>  <i_epik_Tot_abs_Q>  (312) 
0

>  <s_lp_Force_Field>  (312) 
OPLS3e

>  <r_lp_Energy>  (312) 
5.04221

>  <b_lp_Chiralities_Consistent>  (312) 
1

>  <s_lp_Variant>  (312) 
79:0-1

>  <s_i_glide_gridfile>  (312) 
pfpi4k_grid

>  <i_i_glide_lignum>  (312) 
47

>  <i_i_glide_rotatable_bonds>  (312) 
1

>  <r_i_docking_score>  (312) 
-3.89332

>  <r_i_glide_ligand_efficiency>  (312) 
-0.389332

>  <r_i_glide_ligand_efficiency_sa>  (312) 
-0.838791

>  <r_i_glide_ligand_efficiency_ln>  (312) 
-1.17887

>  <r_i_glide_gscore>  (312) 
-3.89332

>  <r_i_glide_lipo>  (312) 
-0.433221

>  <r_i_glide_hbond>  (312) 
-0.0116759

>  <r_i_glide_metal>  (312) 
-0

>  <r_i_glide_rewards>  (312) 
-2.25

>  <r_i_glide_evdw>  (312) 
-15.192

>  <r_i_glide_ecoul>  (312) 
-2.703

>  <r_i_glide_erotb>  (312) 
0

>  <r_i_glide_esite>  (312) 
-0.0333781

>  <r_i_glide_emodel>  (312) 
-22.2443

>  <r_i_glide_energy>  (312) 
-17.895

>  <r_i_glide_einternal>  (312) 
1.46599

>  <r_i_glide_intrahb_reward>  (312) 
-0

>  <i_i_glide_confnum>  (312) 
3

>  <i_i_glide_posenum>  (312) 
14

>  <r_i_glide_eff_state_penalty>  (312) 
0

>  <ligand_id>  (312) 
79

>  <original_smiles>  (312) 
CC1SC(=O)C(O)C1(C)C

>  <smiles>  (312) 
[H]OC1([H])C(=O)SC([H])(C([H])([H])[H])C1(C([H])([H])[H])C([H])([H])[H]

$$$$
80:0:0
     RDKit          3D

 62 66  0  0  1  0  0  0  0  0999 V2000
   -1.7771   -8.9132    2.4912 C   0  0  0  0  0  0  0  0  0  0  0  0
   -0.7743   -8.0014    2.0743 O   0  0  0  0  0  0  0  0  0  0  0  0
    0.2167   -7.6833    2.9106 C   0  0  0  0  0  0  0  0  0  0  0  0
    0.2994   -8.0015    4.0962 O   0  0  0  0  0  0  0  0  0  0  0  0
    1.2877   -6.8252    2.2087 C   0  0  0  0  0  0  0  0  0  0  0  0
    0.9501   -5.9260    1.4633 O   0  0  0  0  0  0  0  0  0  0  0  0
    2.7683   -7.1857    2.4377 C   0  0  2  0  0  0  0  0  0  0  0  0
    3.2893   -6.7720    3.8211 C   0  0  0  0  0  0  0  0  0  0  0  0
    3.6345   -5.3969    3.8050 O   0  0  0  0  0  0  0  0  0  0  0  0
    4.8005   -5.1561    3.0285 C   0  0  2  0  0  0  0  0  0  0  0  0
    5.1182   -3.6661    3.0832 C   0  0  0  0  0  0  0  0  0  0  0  0
    4.2898   -2.9682    1.9805 C   0  0  1  0  0  0  0  0  0  0  0  0
    3.0049   -2.4560    2.6952 C   0  0  0  0  0  0  0  0  0  0  0  0
    5.0465   -1.7393    1.3548 C   0  0  1  0  0  0  0  0  0  0  0  0
    6.4646   -1.9439    0.6959 C   0  0  0  0  0  0  0  0  0  0  0  0
    6.5623   -2.5200   -0.7406 C   0  0  0  0  0  0  0  0  0  0  0  0
    5.4670   -1.9320   -1.5704 C   0  0  1  0  0  0  0  0  0  0  0  0
    4.5190   -2.4725   -2.6290 C   0  0  0  0  0  0  0  0  0  0  0  0
    3.7720   -1.5130   -3.5404 C   0  0  0  0  0  0  0  0  0  0  0  0
    4.9289   -3.7034   -3.4013 C   0  0  0  0  0  0  0  0  0  0  0  0
    4.1502   -2.5400   -1.1522 C   0  0  1  0  0  0  0  0  0  0  0  0
    3.8460   -3.9136   -0.5320 C   0  0  0  0  0  0  0  0  0  0  0  0
    3.8982   -4.1299    1.0129 C   0  0  1  0  0  0  0  0  0  0  0  0
    4.5829   -5.4495    1.5335 C   0  0  1  0  0  0  0  0  0  0  0  0
    5.9834   -5.6977    0.9124 C   0  0  0  0  0  0  0  0  0  0  0  0
    3.7746   -6.7698    1.3243 C   0  0  0  0  0  0  0  0  0  0  0  0
    3.4397   -1.4808   -0.5578 O   0  0  0  0  0  0  0  0  0  0  0  0
    4.1134   -0.8168    0.5147 C   0  0  0  0  0  0  0  0  0  0  0  0
   -2.4968   -9.0585    1.6803 H   0  0  0  0  0  0  0  0  0  0  0  0
   -2.3171   -8.5466    3.3690 H   0  0  0  0  0  0  0  0  0  0  0  0
   -1.3384   -9.8851    2.7317 H   0  0  0  0  0  0  0  0  0  0  0  0
    2.7603   -8.2777    2.4342 H   0  0  0  0  0  0  0  0  0  0  0  0
    2.5309   -6.9063    4.5944 H   0  0  0  0  0  0  0  0  0  0  0  0
    4.1402   -7.3865    4.1245 H   0  0  0  0  0  0  0  0  0  0  0  0
    5.6217   -5.7417    3.4498 H   0  0  0  0  0  0  0  0  0  0  0  0
    4.9660   -3.2542    4.0824 H   0  0  0  0  0  0  0  0  0  0  0  0
    6.1728   -3.5644    2.8778 H   0  0  0  0  0  0  0  0  0  0  0  0
    2.2456   -2.1276    1.9878 H   0  0  0  0  0  0  0  0  0  0  0  0
    3.2201   -1.6266    3.3693 H   0  0  0  0  0  0  0  0  0  0  0  0
    2.5382   -3.2328    3.2999 H   0  0  0  0  0  0  0  0  0  0  0  0
    5.2866   -1.1212    2.2254 H   0  0  0  0  0  0  0  0  0  0  0  0
    6.9264   -0.9560    0.6682 H   0  0  0  0  0  0  0  0  0  0  0  0
    7.1229   -2.5223    1.3369 H   0  0  0  0  0  0  0  0  0  0  0  0
    7.5328   -2.2822   -1.1811 H   0  0  0  0  0  0  0  0  0  0  0  0
    6.4918   -3.6051   -0.7463 H   0  0  0  0  0  0  0  0  0  0  0  0
    5.5739   -0.8527   -1.6792 H   0  0  0  0  0  0  0  0  0  0  0  0
    2.8501   -1.9728   -3.8950 H   0  0  0  0  0  0  0  0  0  0  0  0
    4.3858   -1.2421   -4.3999 H   0  0  0  0  0  0  0  0  0  0  0  0
    3.5153   -0.6008   -3.0049 H   0  0  0  0  0  0  0  0  0  0  0  0
    4.0552   -4.2970   -3.6613 H   0  0  0  0  0  0  0  0  0  0  0  0
    5.6343   -4.2941   -2.8164 H   0  0  0  0  0  0  0  0  0  0  0  0
    5.4310   -3.4570   -4.3212 H   0  0  0  0  0  0  0  0  0  0  0  0
    2.8490   -4.1808   -0.8724 H   0  0  0  0  0  0  0  0  0  0  0  0
    4.4762   -4.6519   -1.0126 H   0  0  0  0  0  0  0  0  0  0  0  0
    2.8487   -4.3066    1.2411 H   0  0  0  0  0  0  0  0  0  0  0  0
    5.9265   -5.9344   -0.1490 H   0  0  0  0  0  0  0  0  0  0  0  0
    6.4742   -6.5519    1.3863 H   0  0  0  0  0  0  0  0  0  0  0  0
    6.6580   -4.8529    1.0403 H   0  0  0  0  0  0  0  0  0  0  0  0
    4.4594   -7.6070    1.1945 H   0  0  0  0  0  0  0  0  0  0  0  0
    3.2578   -6.6799    0.3672 H   0  0  0  0  0  0  0  0  0  0  0  0
    3.3497   -0.3546    1.1399 H   0  0  0  0  0  0  0  0  0  0  0  0
    4.6765    0.0336    0.1271 H   0  0  0  0  0  0  0  0  0  0  0  0
  1  2  1  0
  1 29  1  0
  1 30  1  0
  1 31  1  0
  2  3  1  0
  3  4  2  0
  3  5  1  0
  5  6  2  0
  5  7  1  0
  7 26  1  0
  7  8  1  0
  7 32  1  1
  8  9  1  0
  8 33  1  0
  8 34  1  0
  9 10  1  0
 10 24  1  0
 10 11  1  0
 10 35  1  1
 11 12  1  0
 11 36  1  0
 11 37  1  0
 12 23  1  0
 12 13  1  1
 12 14  1  0
 13 38  1  0
 13 39  1  0
 13 40  1  0
 14 28  1  0
 14 15  1  0
 14 41  1  1
 15 16  1  0
 15 42  1  0
 15 43  1  0
 16 17  1  0
 16 44  1  0
 16 45  1  0
 17 21  1  0
 17 18  1  0
 17 46  1  6
 18 19  1  0
 18 20  1  0
 21 18  1  6
 19 47  1  0
 19 48  1  0
 19 49  1  0
 20 50  1  0
 20 51  1  0
 20 52  1  0
 21 22  1  0
 21 27  1  0
 22 23  1  0
 22 53  1  0
 22 54  1  0
 23 24  1  0
 23 55  1  1
 24 25  1  6
 24 26  1  0
 25 56  1  0
 25 57  1  0
 25 58  1  0
 26 59  1  0
 26 60  1  0
 27 28  1  0
 28 61  1  0
 28 62  1  0
M  END
>  <i_m_ct_stereo_status>  (313) 
1

>  <s_m_source_file>  (313) 
/var/tmp/pbs.5076255.sched01/tmp2a9bgmzv/100_xx7n39i.sdf

>  <i_m_source_file_index>  (313) 
48

>  <i_lp_mmshare_version>  (313) 
48012

>  <i_f3d_flags>  (313) 
0

>  <s_epik_input>  (313) 
W0NIM11PQyg9TylDKD1PKVtDQEBIXShbQ0gyXTEpW0NIMl1PW0NASF0oW0NIMl0yKVtDQF0xKFtDSDNdKVtDQEhdKFtDSDJdMylbQ0BdMihbQ0gzXSlbQ0BIXShbQ0gyXU80KVtDSDJdW0NIMl1bQ0BIXShbQ0BAXTM0NSlDNShbQ0gzXSlbQ0gzXQ==

>  <s_epik_cmdline>  (313) 
J2VwaWtfcHl0aG9uJywgJy1waHQnLCAnMi4wJywgJy1waCcsICc3LjAnLCAnLXRuJywgJzgnLCAnLW1hJywgJzIwMCcsICctaW1hZScsICc8aW5maWxlLm1hZT4nLCAnLW9tYWUnLCAnPG91dGZpbGUubWFlPic=

>  <r_lp_tautomer_probability>  (313) 
1

>  <r_epik_Ionization_Penalty>  (313) 
1.29769e-10

>  <r_epik_Ionization_Penalty_Charging>  (313) 
0

>  <r_epik_Ionization_Penalty_Neutral>  (313) 
1.29769e-10

>  <r_epik_State_Penalty>  (313) 
-0

>  <r_epik_Charging_Adjusted_Penalty>  (313) 
0

>  <i_epik_Tot_Q>  (313) 
0

>  <i_epik_Tot_abs_Q>  (313) 
0

>  <s_epik_Chemistry_Notes>  (313) 
This compound has an ester and may undergo hydrolysis at high or low pH.

>  <s_lp_Force_Field>  (313) 
OPLS3e

>  <r_lp_Energy>  (313) 
89.0759

>  <b_lp_Chiralities_Consistent>  (313) 
1

>  <s_lp_Variant>  (313) 
80:0-1

>  <s_i_glide_gridfile>  (313) 
pfpi4k_grid

>  <i_i_glide_lignum>  (313) 
48

>  <i_i_glide_rotatable_bonds>  (313) 
3

>  <r_i_docking_score>  (313) 
-3.8268

>  <r_i_glide_ligand_efficiency>  (313) 
-0.136671

>  <r_i_glide_ligand_efficiency_sa>  (313) 
-0.415015

>  <r_i_glide_ligand_efficiency_ln>  (313) 
-0.883338

>  <r_i_glide_gscore>  (313) 
-3.8268

>  <r_i_glide_lipo>  (313) 
-1.08281

>  <r_i_glide_hbond>  (313) 
-0.15457

>  <r_i_glide_metal>  (313) 
-0

>  <r_i_glide_rewards>  (313) 
-0.746502

>  <r_i_glide_evdw>  (313) 
-35.3702

>  <r_i_glide_ecoul>  (313) 
-1.64976

>  <r_i_glide_erotb>  (313) 
0.255806

>  <r_i_glide_esite>  (313) 
-0.0827553

>  <r_i_glide_emodel>  (313) 
-45.0382

>  <r_i_glide_energy>  (313) 
-37.0199

>  <r_i_glide_einternal>  (313) 
0.785125

>  <r_i_glide_intrahb_reward>  (313) 
-0

>  <i_i_glide_confnum>  (313) 
2

>  <i_i_glide_posenum>  (313) 
23

>  <r_i_glide_eff_state_penalty>  (313) 
0

>  <ligand_id>  (313) 
80

>  <original_smiles>  (313) 
COC(=O)C(=O)C1COC2CC3(C)C4CCC5C(C)(C)C5(CC3C2(C)C1)OC4

>  <smiles>  (313) 
[H]C([H])([H])OC(=O)C(=O)C1([H])C([H])([H])OC2([H])C([H])([H])C3(C([H])([H])[H])C4([H])C([H])([H])OC5(C([H])([H])C3([H])C2(C([H])([H])[H])C1([H])[H])C([H])(C([H])([H])C4([H])[H])C5(C([H])([H])[H])C([H])([H])[H]

$$$$
80:0:1
     RDKit          3D

 62 66  0  0  1  0  0  0  0  0999 V2000
    2.7079    0.4796   -4.9183 C   0  0  0  0  0  0  0  0  0  0  0  0
    2.9110   -0.2201   -3.6918 O   0  0  0  0  0  0  0  0  0  0  0  0
    3.6480   -1.3072   -3.6569 C   0  0  0  0  0  0  0  0  0  0  0  0
    4.2105   -1.8240   -4.6121 O   0  0  0  0  0  0  0  0  0  0  0  0
    3.7870   -1.9004   -2.2518 C   0  0  0  0  0  0  0  0  0  0  0  0
    2.9403   -2.6832   -1.8261 O   0  0  0  0  0  0  0  0  0  0  0  0
    5.0625   -1.5288   -1.4814 C   0  0  2  0  0  0  0  0  0  0  0  0
    6.1390   -2.6183   -1.6014 C   0  0  0  0  0  0  0  0  0  0  0  0
    5.8765   -3.6603   -0.6743 O   0  0  0  0  0  0  0  0  0  0  0  0
    6.0764   -3.2409    0.6703 C   0  0  2  0  0  0  0  0  0  0  0  0
    5.7853   -4.4264    1.5897 C   0  0  0  0  0  0  0  0  0  0  0  0
    4.2554   -4.4387    1.8516 C   0  0  1  0  0  0  0  0  0  0  0  0
    3.6622   -5.4303    0.8063 C   0  0  0  0  0  0  0  0  0  0  0  0
    3.8989   -4.9603    3.2915 C   0  0  1  0  0  0  0  0  0  0  0  0
    4.5087   -4.2314    4.5511 C   0  0  0  0  0  0  0  0  0  0  0  0
    3.8602   -2.9123    5.0529 C   0  0  0  0  0  0  0  0  0  0  0  0
    2.3687   -3.0271    4.9476 C   0  0  1  0  0  0  0  0  0  0  0  0
    1.2615   -2.0914    4.5161 C   0  0  0  0  0  0  0  0  0  0  0  0
   -0.1757   -2.4117    4.8792 C   0  0  0  0  0  0  0  0  0  0  0  0
    1.5013   -0.5915    4.6394 C   0  0  0  0  0  0  0  0  0  0  0  0
    1.9633   -2.9622    3.4806 C   0  0  1  0  0  0  0  0  0  0  0  0
    2.6780   -2.2595    2.3120 C   0  0  0  0  0  0  0  0  0  0  0  0
    3.7938   -2.9862    1.4889 C   0  0  1  0  0  0  0  0  0  0  0  0
    5.0701   -2.1522    1.1049 C   0  0  1  0  0  0  0  0  0  0  0  0
    5.6961   -1.4077    2.3127 C   0  0  0  0  0  0  0  0  0  0  0  0
    4.8563   -1.0800   -0.0133 C   0  0  0  0  0  0  0  0  0  0  0  0
    1.4649   -4.2492    3.1524 O   0  0  0  0  0  0  0  0  0  0  0  0
    2.3824   -5.3128    3.4515 C   0  0  0  0  0  0  0  0  0  0  0  0
    2.0365    1.3265   -4.7369 H   0  0  0  0  0  0  0  0  0  0  0  0
    2.2424   -0.1516   -5.6793 H   0  0  0  0  0  0  0  0  0  0  0  0
    3.6491    0.8746   -5.3107 H   0  0  0  0  0  0  0  0  0  0  0  0
    5.4402   -0.6519   -2.0086 H   0  0  0  0  0  0  0  0  0  0  0  0
    6.1531   -3.0374   -2.6114 H   0  0  0  0  0  0  0  0  0  0  0  0
    7.1347   -2.2045   -1.4306 H   0  0  0  0  0  0  0  0  0  0  0  0
    7.1134   -2.9154    0.7840 H   0  0  0  0  0  0  0  0  0  0  0  0
    6.1600   -5.3639    1.1752 H   0  0  0  0  0  0  0  0  0  0  0  0
    6.3478   -4.2784    2.5038 H   0  0  0  0  0  0  0  0  0  0  0  0
    2.5762   -5.3701    0.7535 H   0  0  0  0  0  0  0  0  0  0  0  0
    3.9312   -6.4646    1.0263 H   0  0  0  0  0  0  0  0  0  0  0  0
    4.0196   -5.2241   -0.2023 H   0  0  0  0  0  0  0  0  0  0  0  0
    4.3862   -5.9377    3.3369 H   0  0  0  0  0  0  0  0  0  0  0  0
    4.4299   -4.9432    5.3747 H   0  0  0  0  0  0  0  0  0  0  0  0
    5.5798   -4.0779    4.4460 H   0  0  0  0  0  0  0  0  0  0  0  0
    4.1371   -2.7354    6.0951 H   0  0  0  0  0  0  0  0  0  0  0  0
    4.2136   -2.0491    4.4955 H   0  0  0  0  0  0  0  0  0  0  0  0
    1.9845   -3.8106    5.5980 H   0  0  0  0  0  0  0  0  0  0  0  0
   -0.8567   -1.9519    4.1609 H   0  0  0  0  0  0  0  0  0  0  0  0
   -0.4148   -2.0441    5.8787 H   0  0  0  0  0  0  0  0  0  0  0  0
   -0.3385   -3.4904    4.8686 H   0  0  0  0  0  0  0  0  0  0  0  0
    0.9678   -0.0644    3.8459 H   0  0  0  0  0  0  0  0  0  0  0  0
    2.5633   -0.3524    4.5679 H   0  0  0  0  0  0  0  0  0  0  0  0
    1.1485   -0.2225    5.6052 H   0  0  0  0  0  0  0  0  0  0  0  0
    1.8934   -1.9647    1.6141 H   0  0  0  0  0  0  0  0  0  0  0  0
    3.0694   -1.3081    2.6610 H   0  0  0  0  0  0  0  0  0  0  0  0
    3.2925   -3.1153    0.5325 H   0  0  0  0  0  0  0  0  0  0  0  0
    5.0723   -0.5923    2.6777 H   0  0  0  0  0  0  0  0  0  0  0  0
    6.6508   -0.9564    2.0342 H   0  0  0  0  0  0  0  0  0  0  0  0
    5.9032   -2.0826    3.1405 H   0  0  0  0  0  0  0  0  0  0  0  0
    5.5605   -0.2551    0.1465 H   0  0  0  0  0  0  0  0  0  0  0  0
    3.8742   -0.6207    0.1098 H   0  0  0  0  0  0  0  0  0  0  0  0
    2.1117   -6.1583    2.8184 H   0  0  0  0  0  0  0  0  0  0  0  0
    2.1984   -5.6858    4.4615 H   0  0  0  0  0  0  0  0  0  0  0  0
  1  2  1  0
  1 29  1  0
  1 30  1  0
  1 31  1  0
  2  3  1  0
  3  4  2  0
  3  5  1  0
  5  6  2  0
  5  7  1  0
  7 26  1  0
  7  8  1  0
  7 32  1  6
  8  9  1  0
  8 33  1  0
  8 34  1  0
  9 10  1  0
 10 24  1  0
 10 11  1  0
 10 35  1  6
 11 12  1  0
 11 36  1  0
 11 37  1  0
 12 23  1  0
 12 13  1  6
 12 14  1  0
 13 38  1  0
 13 39  1  0
 13 40  1  0
 14 28  1  0
 14 15  1  0
 14 41  1  6
 15 16  1  0
 15 42  1  0
 15 43  1  0
 16 17  1  0
 16 44  1  0
 16 45  1  0
 17 21  1  0
 17 18  1  0
 17 46  1  1
 18 19  1  0
 18 20  1  0
 21 18  1  1
 19 47  1  0
 19 48  1  0
 19 49  1  0
 20 50  1  0
 20 51  1  0
 20 52  1  0
 21 22  1  0
 21 27  1  0
 22 23  1  0
 22 53  1  0
 22 54  1  0
 23 24  1  0
 23 55  1  6
 24 25  1  1
 24 26  1  0
 25 56  1  0
 25 57  1  0
 25 58  1  0
 26 59  1  0
 26 60  1  0
 27 28  1  0
 28 61  1  0
 28 62  1  0
M  END
>  <i_m_ct_stereo_status>  (314) 
1

>  <s_m_source_file>  (314) 
/var/tmp/pbs.5076255.sched01/tmp2a9bgmzv/100_xx7n39i.sdf

>  <i_m_source_file_index>  (314) 
48

>  <i_lp_mmshare_version>  (314) 
48012

>  <i_f3d_flags>  (314) 
0

>  <s_epik_input>  (314) 
W0NIM11PQyg9TylDKD1PKVtDQEBIXShbQ0gyXTEpW0NIMl1PW0NASF0oW0NIMl0yKVtDQF0xKFtDSDNdKVtDQEhdKFtDSDJdMylbQ0BdMihbQ0gzXSlbQ0BIXShbQ0gyXU80KVtDSDJdW0NIMl1bQ0BIXShbQ0BAXTM0NSlDNShbQ0gzXSlbQ0gzXQ==

>  <s_epik_cmdline>  (314) 
J2VwaWtfcHl0aG9uJywgJy1waHQnLCAnMi4wJywgJy1waCcsICc3LjAnLCAnLXRuJywgJzgnLCAnLW1hJywgJzIwMCcsICctaW1hZScsICc8aW5maWxlLm1hZT4nLCAnLW9tYWUnLCAnPG91dGZpbGUubWFlPic=

>  <r_lp_tautomer_probability>  (314) 
1

>  <r_epik_Ionization_Penalty>  (314) 
1.29769e-10

>  <r_epik_Ionization_Penalty_Charging>  (314) 
0

>  <r_epik_Ionization_Penalty_Neutral>  (314) 
1.29769e-10

>  <r_epik_State_Penalty>  (314) 
-0

>  <r_epik_Charging_Adjusted_Penalty>  (314) 
0

>  <i_epik_Tot_Q>  (314) 
0

>  <i_epik_Tot_abs_Q>  (314) 
0

>  <s_epik_Chemistry_Notes>  (314) 
This compound has an ester and may undergo hydrolysis at high or low pH.

>  <s_lp_Force_Field>  (314) 
OPLS3e

>  <r_lp_Energy>  (314) 
89.0759

>  <b_lp_Chiralities_Consistent>  (314) 
1

>  <s_lp_Variant>  (314) 
80:0-1

>  <s_i_glide_gridfile>  (314) 
pfpi4k_grid

>  <i_i_glide_lignum>  (314) 
48

>  <i_i_glide_rotatable_bonds>  (314) 
3

>  <r_i_docking_score>  (314) 
-3.13283

>  <r_i_glide_ligand_efficiency>  (314) 
-0.111887

>  <r_i_glide_ligand_efficiency_sa>  (314) 
-0.339754

>  <r_i_glide_ligand_efficiency_ln>  (314) 
-0.723148

>  <r_i_glide_gscore>  (314) 
-3.13283

>  <r_i_glide_lipo>  (314) 
-0.329611

>  <r_i_glide_hbond>  (314) 
-0.32

>  <r_i_glide_metal>  (314) 
-0

>  <r_i_glide_rewards>  (314) 
-1.05057

>  <r_i_glide_evdw>  (314) 
-30.3708

>  <r_i_glide_ecoul>  (314) 
-0.920957

>  <r_i_glide_erotb>  (314) 
0.255806

>  <r_i_glide_esite>  (314) 
-0.031762

>  <r_i_glide_emodel>  (314) 
-37.5736

>  <r_i_glide_energy>  (314) 
-31.2918

>  <r_i_glide_einternal>  (314) 
1.29839

>  <r_i_glide_intrahb_reward>  (314) 
-0

>  <i_i_glide_confnum>  (314) 
2

>  <i_i_glide_posenum>  (314) 
4

>  <r_i_glide_eff_state_penalty>  (314) 
0

>  <ligand_id>  (314) 
80

>  <original_smiles>  (314) 
COC(=O)C(=O)C1COC2CC3(C)C4CCC5C(C)(C)C5(CC3C2(C)C1)OC4

>  <smiles>  (314) 
[H]C([H])([H])OC(=O)C(=O)C1([H])C([H])([H])OC2([H])C([H])([H])C3(C([H])([H])[H])C4([H])C([H])([H])OC5(C([H])([H])C3([H])C2(C([H])([H])[H])C1([H])[H])C([H])(C([H])([H])C4([H])[H])C5(C([H])([H])[H])C([H])([H])[H]

$$$$
80:0:2
     RDKit          3D

 62 66  0  0  1  0  0  0  0  0999 V2000
    2.6171   -2.5269   -2.9470 C   0  0  0  0  0  0  0  0  0  0  0  0
    2.4917   -3.4510   -1.8786 O   0  0  0  0  0  0  0  0  0  0  0  0
    3.3983   -3.4585   -0.8883 C   0  0  0  0  0  0  0  0  0  0  0  0
    4.3618   -2.6970   -0.7738 O   0  0  0  0  0  0  0  0  0  0  0  0
    3.1312   -4.5991    0.1239 C   0  0  0  0  0  0  0  0  0  0  0  0
    1.9980   -5.0636    0.2572 O   0  0  0  0  0  0  0  0  0  0  0  0
    4.3313   -5.1722    0.9065 C   0  0  2  0  0  0  0  0  0  0  0  0
    4.6794   -6.5973    0.4644 C   0  0  0  0  0  0  0  0  0  0  0  0
    3.8183   -7.5304    1.0886 O   0  0  0  0  0  0  0  0  0  0  0  0
    4.0673   -7.6395    2.4832 C   0  0  2  0  0  0  0  0  0  0  0  0
    3.1052   -8.6736    3.0695 C   0  0  0  0  0  0  0  0  0  0  0  0
    1.7790   -7.9331    3.3875 C   0  0  1  0  0  0  0  0  0  0  0  0
    0.8669   -8.1584    2.1474 C   0  0  0  0  0  0  0  0  0  0  0  0
    1.0537   -8.5200    4.6506 C   0  0  1  0  0  0  0  0  0  0  0  0
    1.8194   -8.5649    6.0290 C   0  0  0  0  0  0  0  0  0  0  0  0
    1.9164   -7.2762    6.8867 C   0  0  0  0  0  0  0  0  0  0  0  0
    0.6098   -6.5498    6.8243 C   0  0  1  0  0  0  0  0  0  0  0  0
    0.2006   -5.0954    6.7073 C   0  0  0  0  0  0  0  0  0  0  0  0
   -1.2224   -4.6748    7.0353 C   0  0  0  0  0  0  0  0  0  0  0  0
    1.1738   -4.0397    7.2109 C   0  0  0  0  0  0  0  0  0  0  0  0
    0.4478   -5.9201    5.4485 C   0  0  1  0  0  0  0  0  0  0  0  0
    1.5387   -5.4412    4.4761 C   0  0  0  0  0  0  0  0  0  0  0  0
    2.1850   -6.4210    3.4411 C   0  0  1  0  0  0  0  0  0  0  0  0
    3.7440   -6.3309    3.2353 C   0  0  1  0  0  0  0  0  0  0  0  0
    4.5402   -6.3673    4.5652 C   0  0  0  0  0  0  0  0  0  0  0  0
    4.2379   -5.0672    2.4517 C   0  0  0  0  0  0  0  0  0  0  0  0
   -0.6140   -6.6147    4.8109 O   0  0  0  0  0  0  0  0  0  0  0  0
   -0.4300   -8.0414    4.7769 C   0  0  0  0  0  0  0  0  0  0  0  0
    1.7863   -2.6486   -3.6432 H   0  0  0  0  0  0  0  0  0  0  0  0
    3.5459   -2.6818   -3.5011 H   0  0  0  0  0  0  0  0  0  0  0  0
    2.6024   -1.4989   -2.5803 H   0  0  0  0  0  0  0  0  0  0  0  0
    5.1819   -4.5550    0.6175 H   0  0  0  0  0  0  0  0  0  0  0  0
    4.5833   -6.6932   -0.6182 H   0  0  0  0  0  0  0  0  0  0  0  0
    5.7232   -6.8269    0.6969 H   0  0  0  0  0  0  0  0  0  0  0  0
    5.1033   -7.9576    2.6258 H   0  0  0  0  0  0  0  0  0  0  0  0
    2.9743   -9.5297    2.4047 H   0  0  0  0  0  0  0  0  0  0  0  0
    3.5656   -9.0808    3.9644 H   0  0  0  0  0  0  0  0  0  0  0  0
   -0.0162   -7.5219    2.1602 H   0  0  0  0  0  0  0  0  0  0  0  0
    0.5302   -9.1946    2.0843 H   0  0  0  0  0  0  0  0  0  0  0  0
    1.3810   -7.9403    1.2122 H   0  0  0  0  0  0  0  0  0  0  0  0
    0.9485   -9.5830    4.4156 H   0  0  0  0  0  0  0  0  0  0  0  0
    1.2976   -9.3046    6.6381 H   0  0  0  0  0  0  0  0  0  0  0  0
    2.8163   -8.9871    5.9200 H   0  0  0  0  0  0  0  0  0  0  0  0
    2.1351   -7.5364    7.9250 H   0  0  0  0  0  0  0  0  0  0  0  0
    2.7253   -6.6285    6.5640 H   0  0  0  0  0  0  0  0  0  0  0  0
   -0.1868   -7.1429    7.2717 H   0  0  0  0  0  0  0  0  0  0  0  0
   -1.4817   -3.7582    6.5028 H   0  0  0  0  0  0  0  0  0  0  0  0
   -1.3396   -4.5011    8.1074 H   0  0  0  0  0  0  0  0  0  0  0  0
   -1.9307   -5.4531    6.7442 H   0  0  0  0  0  0  0  0  0  0  0  0
    1.0864   -3.1305    6.6127 H   0  0  0  0  0  0  0  0  0  0  0  0
    2.2049   -4.3924    7.1582 H   0  0  0  0  0  0  0  0  0  0  0  0
    0.9729   -3.7915    8.2558 H   0  0  0  0  0  0  0  0  0  0  0  0
    1.1013   -4.6132    3.9191 H   0  0  0  0  0  0  0  0  0  0  0  0
    2.3305   -4.9681    5.0452 H   0  0  0  0  0  0  0  0  0  0  0  0
    1.8011   -6.0200    2.5076 H   0  0  0  0  0  0  0  0  0  0  0  0
    4.4008   -5.4669    5.1640 H   0  0  0  0  0  0  0  0  0  0  0  0
    5.6129   -6.4337    4.3694 H   0  0  0  0  0  0  0  0  0  0  0  0
    4.2919   -7.2336    5.1771 H   0  0  0  0  0  0  0  0  0  0  0  0
    5.2474   -4.8225    2.7870 H   0  0  0  0  0  0  0  0  0  0  0  0
    3.6396   -4.2040    2.7399 H   0  0  0  0  0  0  0  0  0  0  0  0
   -1.0365   -8.4283    3.9587 H   0  0  0  0  0  0  0  0  0  0  0  0
   -0.8799   -8.4983    5.6588 H   0  0  0  0  0  0  0  0  0  0  0  0
  1  2  1  0
  1 29  1  0
  1 30  1  0
  1 31  1  0
  2  3  1  0
  3  4  2  0
  3  5  1  0
  5  6  2  0
  5  7  1  0
  7 26  1  0
  7  8  1  0
  7 32  1  6
  8  9  1  0
  8 33  1  0
  8 34  1  0
  9 10  1  0
 10 24  1  0
 10 11  1  0
 10 35  1  6
 11 12  1  0
 11 36  1  0
 11 37  1  0
 12 23  1  0
 12 13  1  6
 12 14  1  0
 13 38  1  0
 13 39  1  0
 13 40  1  0
 14 28  1  0
 14 15  1  0
 14 41  1  6
 15 16  1  0
 15 42  1  0
 15 43  1  0
 16 17  1  0
 16 44  1  0
 16 45  1  0
 17 21  1  0
 17 18  1  0
 17 46  1  6
 18 19  1  0
 18 20  1  0
 21 18  1  1
 19 47  1  0
 19 48  1  0
 19 49  1  0
 20 50  1  0
 20 51  1  0
 20 52  1  0
 21 22  1  0
 21 27  1  0
 22 23  1  0
 22 53  1  0
 22 54  1  0
 23 24  1  0
 23 55  1  6
 24 25  1  1
 24 26  1  0
 25 56  1  0
 25 57  1  0
 25 58  1  0
 26 59  1  0
 26 60  1  0
 27 28  1  0
 28 61  1  0
 28 62  1  0
M  END
>  <i_m_ct_stereo_status>  (315) 
1

>  <s_m_source_file>  (315) 
/var/tmp/pbs.5076255.sched01/tmp2a9bgmzv/100_xx7n39i.sdf

>  <i_m_source_file_index>  (315) 
48

>  <i_lp_mmshare_version>  (315) 
48012

>  <i_f3d_flags>  (315) 
0

>  <s_epik_input>  (315) 
W0NIM11PQyg9TylDKD1PKVtDQEBIXShbQ0gyXTEpW0NIMl1PW0NASF0oW0NIMl0yKVtDQF0xKFtDSDNdKVtDQEhdKFtDSDJdMylbQ0BdMihbQ0gzXSlbQ0BIXShbQ0gyXU80KVtDSDJdW0NIMl1bQ0BIXShbQ0BAXTM0NSlDNShbQ0gzXSlbQ0gzXQ==

>  <s_epik_cmdline>  (315) 
J2VwaWtfcHl0aG9uJywgJy1waHQnLCAnMi4wJywgJy1waCcsICc3LjAnLCAnLXRuJywgJzgnLCAnLW1hJywgJzIwMCcsICctaW1hZScsICc8aW5maWxlLm1hZT4nLCAnLW9tYWUnLCAnPG91dGZpbGUubWFlPic=

>  <r_lp_tautomer_probability>  (315) 
1

>  <r_epik_Ionization_Penalty>  (315) 
1.29769e-10

>  <r_epik_Ionization_Penalty_Charging>  (315) 
0

>  <r_epik_Ionization_Penalty_Neutral>  (315) 
1.29769e-10

>  <r_epik_State_Penalty>  (315) 
-0

>  <r_epik_Charging_Adjusted_Penalty>  (315) 
0

>  <i_epik_Tot_Q>  (315) 
0

>  <i_epik_Tot_abs_Q>  (315) 
0

>  <s_epik_Chemistry_Notes>  (315) 
This compound has an ester and may undergo hydrolysis at high or low pH.

>  <s_lp_Force_Field>  (315) 
OPLS3e

>  <r_lp_Energy>  (315) 
89.0759

>  <b_lp_Chiralities_Consistent>  (315) 
1

>  <s_lp_Variant>  (315) 
80:0-1

>  <s_i_glide_gridfile>  (315) 
pfpi4k_grid

>  <i_i_glide_lignum>  (315) 
48

>  <i_i_glide_rotatable_bonds>  (315) 
3

>  <r_i_docking_score>  (315) 
-2.66136

>  <r_i_glide_ligand_efficiency>  (315) 
-0.0950485

>  <r_i_glide_ligand_efficiency_sa>  (315) 
-0.288623

>  <r_i_glide_ligand_efficiency_ln>  (315) 
-0.61432

>  <r_i_glide_gscore>  (315) 
-2.66136

>  <r_i_glide_lipo>  (315) 
-0.199343

>  <r_i_glide_hbond>  (315) 
-0.0500244

>  <r_i_glide_metal>  (315) 
-0

>  <r_i_glide_rewards>  (315) 
-0.816657

>  <r_i_glide_evdw>  (315) 
-27.7418

>  <r_i_glide_ecoul>  (315) 
-2.92052

>  <r_i_glide_erotb>  (315) 
0.255806

>  <r_i_glide_esite>  (315) 
-0.0259703

>  <r_i_glide_emodel>  (315) 
-36.1233

>  <r_i_glide_energy>  (315) 
-30.6624

>  <r_i_glide_einternal>  (315) 
0.82036

>  <r_i_glide_intrahb_reward>  (315) 
-0

>  <i_i_glide_confnum>  (315) 
2

>  <i_i_glide_posenum>  (315) 
6

>  <r_i_glide_eff_state_penalty>  (315) 
0

>  <ligand_id>  (315) 
80

>  <original_smiles>  (315) 
COC(=O)C(=O)C1COC2CC3(C)C4CCC5C(C)(C)C5(CC3C2(C)C1)OC4

>  <smiles>  (315) 
[H]C([H])([H])OC(=O)C(=O)C1([H])C([H])([H])OC2([H])C([H])([H])C3(C([H])([H])[H])C4([H])C([H])([H])OC5(C([H])([H])C3([H])C2(C([H])([H])[H])C1([H])[H])C([H])(C([H])([H])C4([H])[H])C5(C([H])([H])[H])C([H])([H])[H]

$$$$
82:0:0
     RDKit          3D

 29 29  0  0  1  0  0  0  0  0999 V2000
   -3.7479    3.3216    9.8777 C   0  0  0  0  0  0  0  0  0  0  0  0
   -2.8827    2.5290    9.0816 O   0  0  0  0  0  0  0  0  0  0  0  0
   -2.7491    2.9993    7.7552 C   0  0  0  0  0  0  0  0  0  0  0  0
   -1.7262    2.1146    7.0245 C   0  0  0  0  0  0  0  0  0  0  0  0
   -1.3325    2.6814    5.6459 C   0  0  0  0  0  0  0  0  0  0  0  0
   -0.3234    1.8417    4.8293 C   0  0  1  0  0  0  0  0  0  0  0  0
    1.0092    1.6281    5.5733 C   0  0  0  0  0  0  0  0  0  0  0  0
   -0.9054    0.4793    4.3593 C   0  0  0  0  0  0  0  0  0  0  0  0
   -0.4404    0.3254    3.0242 O   0  0  0  0  0  0  0  0  0  0  0  0
   -0.0701    1.5611    2.5908 C   0  0  0  0  0  0  0  0  0  0  0  0
    0.1707    1.7402    1.2886 N   0  0  0  0  0  0  0  0  0  0  0  0
   -0.0365    2.4829    3.5528 N   0  0  0  0  0  0  0  0  0  0  0  0
   -3.7938    2.9168   10.8890 H   0  0  0  0  0  0  0  0  0  0  0  0
   -4.7610    3.3340    9.4731 H   0  0  0  0  0  0  0  0  0  0  0  0
   -3.3839    4.3463    9.9570 H   0  0  0  0  0  0  0  0  0  0  0  0
   -3.7137    2.9606    7.2470 H   0  0  0  0  0  0  0  0  0  0  0  0
   -2.4157    4.0387    7.7707 H   0  0  0  0  0  0  0  0  0  0  0  0
   -0.8404    2.0311    7.6539 H   0  0  0  0  0  0  0  0  0  0  0  0
   -2.1334    1.1099    6.9199 H   0  0  0  0  0  0  0  0  0  0  0  0
   -2.2390    2.8216    5.0554 H   0  0  0  0  0  0  0  0  0  0  0  0
   -0.9181    3.6784    5.7943 H   0  0  0  0  0  0  0  0  0  0  0  0
    0.8945    1.0354    6.4827 H   0  0  0  0  0  0  0  0  0  0  0  0
    1.4730    2.5738    5.8508 H   0  0  0  0  0  0  0  0  0  0  0  0
    1.7260    1.0937    4.9475 H   0  0  0  0  0  0  0  0  0  0  0  0
   -0.6458   -0.3733    4.9941 H   0  0  0  0  0  0  0  0  0  0  0  0
   -1.9932    0.5315    4.2819 H   0  0  0  0  0  0  0  0  0  0  0  0
    0.2221    2.7195    0.9324 H   0  0  0  0  0  0  0  0  0  0  0  0
    0.2084    3.4520    3.4263 H   0  0  0  0  0  0  0  0  0  0  0  0
   -0.0734    1.0047    0.6051 H   0  0  0  0  0  0  0  0  0  0  0  0
  1  2  1  0
  1 13  1  0
  1 14  1  0
  1 15  1  0
  2  3  1  0
  3  4  1  0
  3 16  1  0
  3 17  1  0
  4  5  1  0
  4 18  1  0
  4 19  1  0
  6  5  1  1
  5 20  1  0
  5 21  1  0
  6 12  1  0
  6  7  1  0
  6  8  1  0
  7 22  1  0
  7 23  1  0
  7 24  1  0
  8  9  1  0
  8 25  1  0
  8 26  1  0
  9 10  1  0
 10 11  1  0
 10 12  2  0
 11 27  1  0
 11 29  1  0
 12 28  1  0
M  CHG  1  12   1
M  END
>  <i_m_ct_stereo_status>  (316) 
1

>  <s_m_source_file>  (316) 
/var/tmp/pbs.5076255.sched01/tmp2a9bgmzv/100_xx7n39i.sdf

>  <i_m_source_file_index>  (316) 
50

>  <i_lp_mmshare_version>  (316) 
48012

>  <i_f3d_flags>  (316) 
0

>  <s_epik_input>  (316) 
W0NIM11PW0NIMl1bQ0gyXVtDSDJdW0NAQF0xKFtDSDNdKVtDSDJdTy9DKD1OXFtIXSlbTkhdMQ==

>  <s_epik_cmdline>  (316) 
J2VwaWtfcHl0aG9uJywgJy1waHQnLCAnMi4wJywgJy1waCcsICc3LjAnLCAnLXRuJywgJzgnLCAnLW1hJywgJzIwMCcsICctaW1hZScsICc8aW5maWxlLm1hZT4nLCAnLW9tYWUnLCAnPG91dGZpbGUubWFlPic=

>  <r_epik_Ionization_Penalty>  (316) 
0.00304856

>  <r_epik_Ionization_Penalty_Charging>  (316) 
0.00017387

>  <r_epik_Ionization_Penalty_Neutral>  (316) 
0.00287469

>  <r_epik_State_Penalty>  (316) 
0.00215791

>  <r_epik_Charging_Adjusted_Penalty>  (316) 
0.00233178

>  <i_epik_Tot_Q>  (316) 
1

>  <i_epik_Tot_abs_Q>  (316) 
1

>  <s_epik_Chemistry_Notes>  (316) 
This compound has an imine and may undergo hydrolysis.

>  <s_lp_Force_Field>  (316) 
OPLS3e

>  <r_lp_Energy>  (316) 
0.497714

>  <b_lp_Chiralities_Consistent>  (316) 
1

>  <s_lp_Variant>  (316) 
82:0-1

>  <s_i_glide_gridfile>  (316) 
pfpi4k_grid

>  <i_i_glide_lignum>  (316) 
50

>  <i_i_glide_rotatable_bonds>  (316) 
4

>  <r_i_docking_score>  (316) 
-3.04212

>  <r_i_glide_ligand_efficiency>  (316) 
-0.25351

>  <r_i_glide_ligand_efficiency_sa>  (316) 
-0.580393

>  <r_i_glide_ligand_efficiency_ln>  (316) 
-0.872941

>  <r_i_glide_gscore>  (316) 
-3.04212

>  <r_i_glide_lipo>  (316) 
-0.155608

>  <r_i_glide_hbond>  (316) 
-0.4

>  <r_i_glide_metal>  (316) 
-0

>  <r_i_glide_rewards>  (316) 
-2.22796

>  <r_i_glide_evdw>  (316) 
-9.49734

>  <r_i_glide_ecoul>  (316) 
-7.65503

>  <r_i_glide_erotb>  (316) 
1.55283

>  <r_i_glide_esite>  (316) 
-0.188262

>  <r_i_glide_emodel>  (316) 
-21.1677

>  <r_i_glide_energy>  (316) 
-17.1524

>  <r_i_glide_einternal>  (316) 
0.278589

>  <r_i_glide_intrahb_reward>  (316) 
-0

>  <i_i_glide_confnum>  (316) 
5

>  <i_i_glide_posenum>  (316) 
1

>  <r_i_glide_eff_state_penalty>  (316) 
0

>  <ligand_id>  (316) 
82

>  <original_smiles>  (316) 
COCCCC1(C)COC(=N)N1

>  <smiles>  (316) 
[H]N([H])C1=[N+]([H])C(C([H])([H])[H])(C([H])([H])C([H])([H])C([H])([H])OC([H])([H])[H])C([H])([H])O1

$$$$
82:0:1
     RDKit          3D

 29 29  0  0  1  0  0  0  0  0999 V2000
   -3.4910    3.1901    2.6434 C   0  0  0  0  0  0  0  0  0  0  0  0
   -2.8088    4.3143    3.1903 O   0  0  0  0  0  0  0  0  0  0  0  0
   -1.7982    3.9742    4.1276 C   0  0  0  0  0  0  0  0  0  0  0  0
   -0.5096    3.7583    3.3399 C   0  0  0  0  0  0  0  0  0  0  0  0
    0.6108    3.1059    4.1571 C   0  0  0  0  0  0  0  0  0  0  0  0
    1.8318    2.7322    3.2945 C   0  0  1  0  0  0  0  0  0  0  0  0
    2.5798    3.9658    2.7611 C   0  0  0  0  0  0  0  0  0  0  0  0
    2.8017    1.8087    4.0658 C   0  0  0  0  0  0  0  0  0  0  0  0
    3.1500    0.7817    3.1371 O   0  0  0  0  0  0  0  0  0  0  0  0
    2.2357    0.7880    2.1384 C   0  0  0  0  0  0  0  0  0  0  0  0
    2.2081   -0.2391    1.2826 N   0  0  0  0  0  0  0  0  0  0  0  0
    1.4542    1.8694    2.1720 N   0  0  0  0  0  0  0  0  0  0  0  0
   -4.2880    3.5247    1.9769 H   0  0  0  0  0  0  0  0  0  0  0  0
   -3.9271    2.5810    3.4269 H   0  0  0  0  0  0  0  0  0  0  0  0
   -2.8290    2.5466    2.0720 H   0  0  0  0  0  0  0  0  0  0  0  0
   -1.6494    4.8139    4.8072 H   0  0  0  0  0  0  0  0  0  0  0  0
   -2.0856    3.1248    4.7545 H   0  0  0  0  0  0  0  0  0  0  0  0
   -0.7304    3.1092    2.5003 H   0  0  0  0  0  0  0  0  0  0  0  0
   -0.2069    4.7146    2.9101 H   0  0  0  0  0  0  0  0  0  0  0  0
    0.9293    3.7660    4.9592 H   0  0  0  0  0  0  0  0  0  0  0  0
    0.2039    2.2156    4.6363 H   0  0  0  0  0  0  0  0  0  0  0  0
    2.9724    4.5506    3.5909 H   0  0  0  0  0  0  0  0  0  0  0  0
    1.9367    4.6158    2.1573 H   0  0  0  0  0  0  0  0  0  0  0  0
    3.4053    3.6806    2.1321 H   0  0  0  0  0  0  0  0  0  0  0  0
    3.6595    2.3257    4.4971 H   0  0  0  0  0  0  0  0  0  0  0  0
    2.2997    1.2810    4.8741 H   0  0  0  0  0  0  0  0  0  0  0  0
    1.5217   -0.3189    0.5272 H   0  0  0  0  0  0  0  0  0  0  0  0
    0.7066    2.0929    1.5133 H   0  0  0  0  0  0  0  0  0  0  0  0
    2.9414   -0.9324    1.3415 H   0  0  0  0  0  0  0  0  0  0  0  0
  1  2  1  0
  1 13  1  0
  1 14  1  0
  1 15  1  0
  2  3  1  0
  3  4  1  0
  3 16  1  0
  3 17  1  0
  4  5  1  0
  4 18  1  0
  4 19  1  0
  6  5  1  1
  5 20  1  0
  5 21  1  0
  6 12  1  0
  6  7  1  0
  6  8  1  0
  7 22  1  0
  7 23  1  0
  7 24  1  0
  8  9  1  0
  8 25  1  0
  8 26  1  0
  9 10  1  0
 10 11  1  0
 10 12  2  0
 11 27  1  0
 11 29  1  0
 12 28  1  0
M  CHG  1  12   1
M  END
>  <i_m_ct_stereo_status>  (317) 
1

>  <s_m_source_file>  (317) 
/var/tmp/pbs.5076255.sched01/tmp2a9bgmzv/100_xx7n39i.sdf

>  <i_m_source_file_index>  (317) 
50

>  <i_lp_mmshare_version>  (317) 
48012

>  <i_f3d_flags>  (317) 
0

>  <s_epik_input>  (317) 
W0NIM11PW0NIMl1bQ0gyXVtDSDJdW0NAQF0xKFtDSDNdKVtDSDJdTy9DKD1OXFtIXSlbTkhdMQ==

>  <s_epik_cmdline>  (317) 
J2VwaWtfcHl0aG9uJywgJy1waHQnLCAnMi4wJywgJy1waCcsICc3LjAnLCAnLXRuJywgJzgnLCAnLW1hJywgJzIwMCcsICctaW1hZScsICc8aW5maWxlLm1hZT4nLCAnLW9tYWUnLCAnPG91dGZpbGUubWFlPic=

>  <r_epik_Ionization_Penalty>  (317) 
0.00304856

>  <r_epik_Ionization_Penalty_Charging>  (317) 
0.00017387

>  <r_epik_Ionization_Penalty_Neutral>  (317) 
0.00287469

>  <r_epik_State_Penalty>  (317) 
0.00215791

>  <r_epik_Charging_Adjusted_Penalty>  (317) 
0.00233178

>  <i_epik_Tot_Q>  (317) 
1

>  <i_epik_Tot_abs_Q>  (317) 
1

>  <s_epik_Chemistry_Notes>  (317) 
This compound has an imine and may undergo hydrolysis.

>  <s_lp_Force_Field>  (317) 
OPLS3e

>  <r_lp_Energy>  (317) 
0.497714

>  <b_lp_Chiralities_Consistent>  (317) 
1

>  <s_lp_Variant>  (317) 
82:0-1

>  <s_i_glide_gridfile>  (317) 
pfpi4k_grid

>  <i_i_glide_lignum>  (317) 
50

>  <i_i_glide_rotatable_bonds>  (317) 
4

>  <r_i_docking_score>  (317) 
-2.88487

>  <r_i_glide_ligand_efficiency>  (317) 
-0.240406

>  <r_i_glide_ligand_efficiency_sa>  (317) 
-0.550393

>  <r_i_glide_ligand_efficiency_ln>  (317) 
-0.827819

>  <r_i_glide_gscore>  (317) 
-2.88487

>  <r_i_glide_lipo>  (317) 
0

>  <r_i_glide_hbond>  (317) 
-0.314551

>  <r_i_glide_metal>  (317) 
-0

>  <r_i_glide_rewards>  (317) 
-2.22796

>  <r_i_glide_evdw>  (317) 
-8.76744

>  <r_i_glide_ecoul>  (317) 
-8.7716

>  <r_i_glide_erotb>  (317) 
1.55283

>  <r_i_glide_esite>  (317) 
-0.141084

>  <r_i_glide_emodel>  (317) 
-20.5164

>  <r_i_glide_energy>  (317) 
-17.539

>  <r_i_glide_einternal>  (317) 
3.33848

>  <r_i_glide_intrahb_reward>  (317) 
-0

>  <i_i_glide_confnum>  (317) 
6

>  <i_i_glide_posenum>  (317) 
22

>  <r_i_glide_eff_state_penalty>  (317) 
0

>  <ligand_id>  (317) 
82

>  <original_smiles>  (317) 
COCCCC1(C)COC(=N)N1

>  <smiles>  (317) 
[H]N([H])C1=[N+]([H])C(C([H])([H])[H])(C([H])([H])C([H])([H])C([H])([H])OC([H])([H])[H])C([H])([H])O1

$$$$
82:0:2
     RDKit          3D

 29 29  0  0  1  0  0  0  0  0999 V2000
   -4.6813    5.7949    1.4338 C   0  0  0  0  0  0  0  0  0  0  0  0
   -3.7161    5.1731    2.2630 O   0  0  0  0  0  0  0  0  0  0  0  0
   -3.9611    3.7842    2.4597 C   0  0  0  0  0  0  0  0  0  0  0  0
   -2.9236    3.2192    3.4526 C   0  0  0  0  0  0  0  0  0  0  0  0
   -1.4978    3.3356    2.9265 C   0  0  0  0  0  0  0  0  0  0  0  0
   -0.3594    3.0824    3.9305 C   0  0  1  0  0  0  0  0  0  0  0  0
   -0.3734    4.0934    5.0972 C   0  0  0  0  0  0  0  0  0  0  0  0
   -0.3435    1.6345    4.4640 C   0  0  0  0  0  0  0  0  0  0  0  0
    1.0394    1.2551    4.4503 O   0  0  0  0  0  0  0  0  0  0  0  0
    1.6915    2.1308    3.6063 C   0  0  0  0  0  0  0  0  0  0  0  0
    2.9564    1.8269    3.2498 N   0  0  0  0  0  0  0  0  0  0  0  0
    0.9321    3.1648    3.2691 N   0  0  0  0  0  0  0  0  0  0  0  0
   -4.4141    6.8428    1.2960 H   0  0  0  0  0  0  0  0  0  0  0  0
   -5.6771    5.7557    1.8782 H   0  0  0  0  0  0  0  0  0  0  0  0
   -4.7163    5.3268    0.4514 H   0  0  0  0  0  0  0  0  0  0  0  0
   -4.9657    3.6795    2.8640 H   0  0  0  0  0  0  0  0  0  0  0  0
   -3.9416    3.2458    1.5135 H   0  0  0  0  0  0  0  0  0  0  0  0
   -3.0034    3.7431    4.4002 H   0  0  0  0  0  0  0  0  0  0  0  0
   -3.1497    2.1771    3.6828 H   0  0  0  0  0  0  0  0  0  0  0  0
   -1.3765    2.6569    2.0871 H   0  0  0  0  0  0  0  0  0  0  0  0
   -1.3646    4.3418    2.5420 H   0  0  0  0  0  0  0  0  0  0  0  0
   -1.2572    3.9927    5.7190 H   0  0  0  0  0  0  0  0  0  0  0  0
   -0.3206    5.1214    4.7227 H   0  0  0  0  0  0  0  0  0  0  0  0
    0.4943    3.9371    5.7462 H   0  0  0  0  0  0  0  0  0  0  0  0
   -0.8142    1.5157    5.4382 H   0  0  0  0  0  0  0  0  0  0  0  0
   -0.8556    0.9603    3.7729 H   0  0  0  0  0  0  0  0  0  0  0  0
    3.4674    2.3765    2.5619 H   0  0  0  0  0  0  0  0  0  0  0  0
    1.1415    3.8535    2.5551 H   0  0  0  0  0  0  0  0  0  0  0  0
    3.3603    0.9725    3.5930 H   0  0  0  0  0  0  0  0  0  0  0  0
  1  2  1  0
  1 13  1  0
  1 14  1  0
  1 15  1  0
  2  3  1  0
  3  4  1  0
  3 16  1  0
  3 17  1  0
  4  5  1  0
  4 18  1  0
  4 19  1  0
  6  5  1  6
  5 20  1  0
  5 21  1  0
  6 12  1  0
  6  7  1  0
  6  8  1  0
  7 22  1  0
  7 23  1  0
  7 24  1  0
  8  9  1  0
  8 25  1  0
  8 26  1  0
  9 10  1  0
 10 11  1  0
 10 12  2  0
 11 27  1  0
 11 29  1  0
 12 28  1  0
M  CHG  1  12   1
M  END
>  <i_m_ct_stereo_status>  (318) 
1

>  <s_m_source_file>  (318) 
/var/tmp/pbs.5076255.sched01/tmp2a9bgmzv/100_xx7n39i.sdf

>  <i_m_source_file_index>  (318) 
50

>  <i_lp_mmshare_version>  (318) 
48012

>  <i_f3d_flags>  (318) 
0

>  <s_epik_input>  (318) 
W0NIM11PW0NIMl1bQ0gyXVtDSDJdW0NAQF0xKFtDSDNdKVtDSDJdTy9DKD1OXFtIXSlbTkhdMQ==

>  <s_epik_cmdline>  (318) 
J2VwaWtfcHl0aG9uJywgJy1waHQnLCAnMi4wJywgJy1waCcsICc3LjAnLCAnLXRuJywgJzgnLCAnLW1hJywgJzIwMCcsICctaW1hZScsICc8aW5maWxlLm1hZT4nLCAnLW9tYWUnLCAnPG91dGZpbGUubWFlPic=

>  <r_epik_Ionization_Penalty>  (318) 
0.00304856

>  <r_epik_Ionization_Penalty_Charging>  (318) 
0.00017387

>  <r_epik_Ionization_Penalty_Neutral>  (318) 
0.00287469

>  <r_epik_State_Penalty>  (318) 
0.00215791

>  <r_epik_Charging_Adjusted_Penalty>  (318) 
0.00233178

>  <i_epik_Tot_Q>  (318) 
1

>  <i_epik_Tot_abs_Q>  (318) 
1

>  <s_epik_Chemistry_Notes>  (318) 
This compound has an imine and may undergo hydrolysis.

>  <s_lp_Force_Field>  (318) 
OPLS3e

>  <r_lp_Energy>  (318) 
0.497714

>  <b_lp_Chiralities_Consistent>  (318) 
1

>  <s_lp_Variant>  (318) 
82:0-1

>  <s_i_glide_gridfile>  (318) 
pfpi4k_grid

>  <i_i_glide_lignum>  (318) 
50

>  <i_i_glide_rotatable_bonds>  (318) 
4

>  <r_i_docking_score>  (318) 
-2.81636

>  <r_i_glide_ligand_efficiency>  (318) 
-0.234696

>  <r_i_glide_ligand_efficiency_sa>  (318) 
-0.53732

>  <r_i_glide_ligand_efficiency_ln>  (318) 
-0.808158

>  <r_i_glide_gscore>  (318) 
-2.81636

>  <r_i_glide_lipo>  (318) 
-0.431235

>  <r_i_glide_hbond>  (318) 
-0.117395

>  <r_i_glide_metal>  (318) 
-0

>  <r_i_glide_rewards>  (318) 
-2.22796

>  <r_i_glide_evdw>  (318) 
-10.0257

>  <r_i_glide_ecoul>  (318) 
-6.46818

>  <r_i_glide_erotb>  (318) 
1.55283

>  <r_i_glide_esite>  (318) 
-0.121084

>  <r_i_glide_emodel>  (318) 
-20.5504

>  <r_i_glide_energy>  (318) 
-16.4939

>  <r_i_glide_einternal>  (318) 
0.964015

>  <r_i_glide_intrahb_reward>  (318) 
-0

>  <i_i_glide_confnum>  (318) 
2

>  <i_i_glide_posenum>  (318) 
16

>  <r_i_glide_eff_state_penalty>  (318) 
0

>  <ligand_id>  (318) 
82

>  <original_smiles>  (318) 
COCCCC1(C)COC(=N)N1

>  <smiles>  (318) 
[H]N([H])C1=[N+]([H])C(C([H])([H])[H])(C([H])([H])C([H])([H])C([H])([H])OC([H])([H])[H])C([H])([H])O1

$$$$
83:0:0
     RDKit          3D

 19 21  0  0  1  0  0  0  0  0999 V2000
    3.3679   -2.2953   -2.8190 C   0  0  0  0  0  0  0  0  0  0  0  0
    3.0399   -3.0575   -1.6822 C   0  0  0  0  0  0  0  0  0  0  0  0
    4.0635   -3.8376   -1.0985 C   0  0  0  0  0  0  0  0  0  0  0  0
    3.8379   -4.7065    0.0885 C   0  0  0  0  0  0  0  0  0  0  0  0
    2.6393   -4.8818    0.7073 N   0  0  0  0  0  0  0  0  0  0  0  0
    2.8369   -5.7787    1.8110 O   0  0  0  0  0  0  0  0  0  0  0  0
    4.1590   -6.0444    1.7199 C   0  0  0  0  0  0  0  0  0  0  0  0
    5.0271   -6.8363    2.4783 C   0  0  0  0  0  0  0  0  0  0  0  0
    6.2314   -6.5588    1.7239 C   0  0  0  0  0  0  0  0  0  0  0  0
    6.0823   -5.7069    0.6712 N   0  0  0  0  0  0  0  0  0  0  0  0
    4.7638   -5.4422    0.7375 N   0  0  0  0  0  0  0  0  0  0  0  0
    5.3091   -3.8049   -1.6299 N   0  0  0  0  0  0  0  0  0  0  0  0
    5.5083   -3.0596   -2.7140 C   0  0  0  0  0  0  0  0  0  0  0  0
    4.6139   -2.2998   -3.3437 N   0  0  0  0  0  0  0  0  0  0  0  0
    2.6295   -1.6816   -3.3165 H   0  0  0  0  0  0  0  0  0  0  0  0
    2.0325   -3.0452   -1.2974 H   0  0  0  0  0  0  0  0  0  0  0  0
    4.7727   -7.4325    3.3409 H   0  0  0  0  0  0  0  0  0  0  0  0
    7.2179   -6.9494    1.9088 H   0  0  0  0  0  0  0  0  0  0  0  0
    6.5090   -3.0543   -3.1226 H   0  0  0  0  0  0  0  0  0  0  0  0
  1 14  2  0
  1  2  1  0
  1 15  1  0
  2  3  2  0
  2 16  1  0
  3  4  1  0
  3 12  1  0
  4 11  1  0
  4  5  2  0
  5  6  1  0
  6  7  1  0
  7 11  1  0
  7  8  2  0
  8  9  1  0
  8 17  1  0
  9 10  2  0
  9 18  1  0
 10 11  1  0
 12 13  2  0
 13 14  1  0
 13 19  1  0
M  END
>  <i_m_ct_stereo_status>  (319) 
1

>  <s_m_source_file>  (319) 
/var/tmp/pbs.5076255.sched01/tmp7onimy_i/150cvk1qxg3.sdf

>  <i_m_source_file_index>  (319) 
1

>  <i_lp_mmshare_version>  (319) 
48012

>  <i_f3d_flags>  (319) 
0

>  <s_epik_input>  (319) 
bjFbY0hdbltjSF1bY0hdYzEtYyhubzIpbihjMjMpbltjSF1bY0hdMw==

>  <s_epik_cmdline>  (319) 
J2VwaWtfcHl0aG9uJywgJy1waHQnLCAnMi4wJywgJy1waCcsICc3LjAnLCAnLXRuJywgJzgnLCAnLW1hJywgJzIwMCcsICctaW1hZScsICc8aW5maWxlLm1hZT4nLCAnLW9tYWUnLCAnPG91dGZpbGUubWFlPic=

>  <r_lp_tautomer_probability>  (319) 
1

>  <r_epik_Ionization_Penalty>  (319) 
2.99441e-07

>  <r_epik_Ionization_Penalty_Charging>  (319) 
0

>  <r_epik_Ionization_Penalty_Neutral>  (319) 
2.99441e-07

>  <r_epik_State_Penalty>  (319) 
-0

>  <r_epik_Charging_Adjusted_Penalty>  (319) 
0

>  <i_epik_Tot_Q>  (319) 
0

>  <i_epik_Tot_abs_Q>  (319) 
0

>  <s_lp_Force_Field>  (319) 
OPLS3e

>  <r_lp_Energy>  (319) 
19.2649

>  <b_lp_Chiralities_Consistent>  (319) 
1

>  <s_lp_Variant>  (319) 
83:0-1

>  <s_i_glide_gridfile>  (319) 
pfpi4k_grid

>  <i_i_glide_lignum>  (319) 
1

>  <i_i_glide_rotatable_bonds>  (319) 
1

>  <r_i_docking_score>  (319) 
-3.64543

>  <r_i_glide_ligand_efficiency>  (319) 
-0.260388

>  <r_i_glide_ligand_efficiency_sa>  (319) 
-0.627572

>  <r_i_glide_ligand_efficiency_ln>  (319) 
-1.00175

>  <r_i_glide_gscore>  (319) 
-3.64543

>  <r_i_glide_lipo>  (319) 
-0.124509

>  <r_i_glide_hbond>  (319) 
0

>  <r_i_glide_metal>  (319) 
-0

>  <r_i_glide_rewards>  (319) 
-2.50148

>  <r_i_glide_evdw>  (319) 
-18.5775

>  <r_i_glide_ecoul>  (319) 
-3.31262

>  <r_i_glide_erotb>  (319) 
0.455865

>  <r_i_glide_esite>  (319) 
-0.0495371

>  <r_i_glide_emodel>  (319) 
-27.1387

>  <r_i_glide_energy>  (319) 
-21.8901

>  <r_i_glide_einternal>  (319) 
0.0208649

>  <r_i_glide_intrahb_reward>  (319) 
-0

>  <i_i_glide_confnum>  (319) 
1

>  <i_i_glide_posenum>  (319) 
1

>  <r_i_glide_eff_state_penalty>  (319) 
0

>  <ligand_id>  (319) 
83

>  <original_smiles>  (319) 
c1cc(-c2noc3ccnn23)ncn1

>  <smiles>  (319) 
[H]c1nc([H])c([H])c(-c2noc3c([H])c([H])nn23)n1

$$$$
83:0:1
     RDKit          3D

 19 21  0  0  1  0  0  0  0  0999 V2000
    6.7494   -2.9278   -0.8859 C   0  0  0  0  0  0  0  0  0  0  0  0
    5.9701   -3.9513   -0.3162 C   0  0  0  0  0  0  0  0  0  0  0  0
    4.5630   -3.8459   -0.4217 C   0  0  0  0  0  0  0  0  0  0  0  0
    3.6207   -4.8607    0.1283 C   0  0  0  0  0  0  0  0  0  0  0  0
    2.2633   -4.7746    0.1441 N   0  0  0  0  0  0  0  0  0  0  0  0
    1.7446   -5.9511    0.7952 O   0  0  0  0  0  0  0  0  0  0  0  0
    2.8802   -6.6207    1.0908 C   0  0  0  0  0  0  0  0  0  0  0  0
    3.1170   -7.8491    1.6870 C   0  0  0  0  0  0  0  0  0  0  0  0
    4.5631   -7.8142    1.5896 C   0  0  0  0  0  0  0  0  0  0  0  0
    5.0918   -6.7122    1.0007 N   0  0  0  0  0  0  0  0  0  0  0  0
    3.9696   -6.0245    0.7168 N   0  0  0  0  0  0  0  0  0  0  0  0
    4.0209   -2.7734   -1.0449 N   0  0  0  0  0  0  0  0  0  0  0  0
    4.8586   -1.8525   -1.5378 C   0  0  0  0  0  0  0  0  0  0  0  0
    6.1950   -1.8655   -1.4980 N   0  0  0  0  0  0  0  0  0  0  0  0
    7.8292   -2.9593   -0.8488 H   0  0  0  0  0  0  0  0  0  0  0  0
    6.4545   -4.7806    0.1744 H   0  0  0  0  0  0  0  0  0  0  0  0
    2.3512   -8.5085    2.0459 H   0  0  0  0  0  0  0  0  0  0  0  0
    5.2494   -8.5567    1.9249 H   0  0  0  0  0  0  0  0  0  0  0  0
    4.4168   -1.0018   -2.0378 H   0  0  0  0  0  0  0  0  0  0  0  0
  1 14  2  0
  1  2  1  0
  1 15  1  0
  2  3  2  0
  2 16  1  0
  3  4  1  0
  3 12  1  0
  4 11  1  0
  4  5  2  0
  5  6  1  0
  6  7  1  0
  7 11  1  0
  7  8  2  0
  8  9  1  0
  8 17  1  0
  9 10  2  0
  9 18  1  0
 10 11  1  0
 12 13  2  0
 13 14  1  0
 13 19  1  0
M  END
>  <i_m_ct_stereo_status>  (320) 
1

>  <s_m_source_file>  (320) 
/var/tmp/pbs.5076255.sched01/tmp7onimy_i/150cvk1qxg3.sdf

>  <i_m_source_file_index>  (320) 
1

>  <i_lp_mmshare_version>  (320) 
48012

>  <i_f3d_flags>  (320) 
0

>  <s_epik_input>  (320) 
bjFbY0hdbltjSF1bY0hdYzEtYyhubzIpbihjMjMpbltjSF1bY0hdMw==

>  <s_epik_cmdline>  (320) 
J2VwaWtfcHl0aG9uJywgJy1waHQnLCAnMi4wJywgJy1waCcsICc3LjAnLCAnLXRuJywgJzgnLCAnLW1hJywgJzIwMCcsICctaW1hZScsICc8aW5maWxlLm1hZT4nLCAnLW9tYWUnLCAnPG91dGZpbGUubWFlPic=

>  <r_lp_tautomer_probability>  (320) 
1

>  <r_epik_Ionization_Penalty>  (320) 
2.99441e-07

>  <r_epik_Ionization_Penalty_Charging>  (320) 
0

>  <r_epik_Ionization_Penalty_Neutral>  (320) 
2.99441e-07

>  <r_epik_State_Penalty>  (320) 
-0

>  <r_epik_Charging_Adjusted_Penalty>  (320) 
0

>  <i_epik_Tot_Q>  (320) 
0

>  <i_epik_Tot_abs_Q>  (320) 
0

>  <s_lp_Force_Field>  (320) 
OPLS3e

>  <r_lp_Energy>  (320) 
19.2649

>  <b_lp_Chiralities_Consistent>  (320) 
1

>  <s_lp_Variant>  (320) 
83:0-1

>  <s_i_glide_gridfile>  (320) 
pfpi4k_grid

>  <i_i_glide_lignum>  (320) 
1

>  <i_i_glide_rotatable_bonds>  (320) 
1

>  <r_i_docking_score>  (320) 
-3.64466

>  <r_i_glide_ligand_efficiency>  (320) 
-0.260333

>  <r_i_glide_ligand_efficiency_sa>  (320) 
-0.627439

>  <r_i_glide_ligand_efficiency_ln>  (320) 
-1.00154

>  <r_i_glide_gscore>  (320) 
-3.64466

>  <r_i_glide_lipo>  (320) 
-0.126014

>  <r_i_glide_hbond>  (320) 
-0.143631

>  <r_i_glide_metal>  (320) 
-0

>  <r_i_glide_rewards>  (320) 
-2.23521

>  <r_i_glide_evdw>  (320) 
-16.6107

>  <r_i_glide_ecoul>  (320) 
-3.87311

>  <r_i_glide_erotb>  (320) 
0.455865

>  <r_i_glide_esite>  (320) 
-0.184168

>  <r_i_glide_emodel>  (320) 
-24.437

>  <r_i_glide_energy>  (320) 
-20.4838

>  <r_i_glide_einternal>  (320) 
2.59454

>  <r_i_glide_intrahb_reward>  (320) 
-0

>  <i_i_glide_confnum>  (320) 
2

>  <i_i_glide_posenum>  (320) 
20

>  <r_i_glide_eff_state_penalty>  (320) 
0

>  <ligand_id>  (320) 
83

>  <original_smiles>  (320) 
c1cc(-c2noc3ccnn23)ncn1

>  <smiles>  (320) 
[H]c1nc([H])c([H])c(-c2noc3c([H])c([H])nn23)n1

$$$$
83:0:2
     RDKit          3D

 19 21  0  0  1  0  0  0  0  0999 V2000
    3.0407   -1.6620   -3.7330 C   0  0  0  0  0  0  0  0  0  0  0  0
    2.6218   -2.6878   -2.8656 C   0  0  0  0  0  0  0  0  0  0  0  0
    3.2866   -2.8003   -1.6229 C   0  0  0  0  0  0  0  0  0  0  0  0
    2.9283   -3.8405   -0.6193 C   0  0  0  0  0  0  0  0  0  0  0  0
    1.8235   -4.6336   -0.6612 N   0  0  0  0  0  0  0  0  0  0  0  0
    1.8577   -5.4983    0.4822 O   0  0  0  0  0  0  0  0  0  0  0  0
    3.0071   -5.1128    1.0846 C   0  0  0  0  0  0  0  0  0  0  0  0
    3.6458   -5.5440    2.2535 C   0  0  0  0  0  0  0  0  0  0  0  0
    4.7762   -4.6347    2.1647 C   0  0  0  0  0  0  0  0  0  0  0  0
    4.7845   -3.7951    1.0936 N   0  0  0  0  0  0  0  0  0  0  0  0
    3.6458   -4.1609    0.4815 N   0  0  0  0  0  0  0  0  0  0  0  0
    4.2973   -1.9513   -1.3290 N   0  0  0  0  0  0  0  0  0  0  0  0
    4.5993   -1.0097   -2.2209 C   0  0  0  0  0  0  0  0  0  0  0  0
    4.0442   -0.8281   -3.4152 N   0  0  0  0  0  0  0  0  0  0  0  0
    2.5852   -1.5090   -4.6986 H   0  0  0  0  0  0  0  0  0  0  0  0
    1.8205   -3.3534   -3.1452 H   0  0  0  0  0  0  0  0  0  0  0  0
    3.2995   -6.3145    2.9149 H   0  0  0  0  0  0  0  0  0  0  0  0
    5.5936   -4.5621    2.8552 H   0  0  0  0  0  0  0  0  0  0  0  0
    5.4004   -0.3324   -1.9632 H   0  0  0  0  0  0  0  0  0  0  0  0
  1 14  2  0
  1  2  1  0
  1 15  1  0
  2  3  2  0
  2 16  1  0
  3  4  1  0
  3 12  1  0
  4 11  1  0
  4  5  2  0
  5  6  1  0
  6  7  1  0
  7 11  1  0
  7  8  2  0
  8  9  1  0
  8 17  1  0
  9 10  2  0
  9 18  1  0
 10 11  1  0
 12 13  2  0
 13 14  1  0
 13 19  1  0
M  END
>  <i_m_ct_stereo_status>  (321) 
1

>  <s_m_source_file>  (321) 
/var/tmp/pbs.5076255.sched01/tmp7onimy_i/150cvk1qxg3.sdf

>  <i_m_source_file_index>  (321) 
1

>  <i_lp_mmshare_version>  (321) 
48012

>  <i_f3d_flags>  (321) 
0

>  <s_epik_input>  (321) 
bjFbY0hdbltjSF1bY0hdYzEtYyhubzIpbihjMjMpbltjSF1bY0hdMw==

>  <s_epik_cmdline>  (321) 
J2VwaWtfcHl0aG9uJywgJy1waHQnLCAnMi4wJywgJy1waCcsICc3LjAnLCAnLXRuJywgJzgnLCAnLW1hJywgJzIwMCcsICctaW1hZScsICc8aW5maWxlLm1hZT4nLCAnLW9tYWUnLCAnPG91dGZpbGUubWFlPic=

>  <r_lp_tautomer_probability>  (321) 
1

>  <r_epik_Ionization_Penalty>  (321) 
2.99441e-07

>  <r_epik_Ionization_Penalty_Charging>  (321) 
0

>  <r_epik_Ionization_Penalty_Neutral>  (321) 
2.99441e-07

>  <r_epik_State_Penalty>  (321) 
-0

>  <r_epik_Charging_Adjusted_Penalty>  (321) 
0

>  <i_epik_Tot_Q>  (321) 
0

>  <i_epik_Tot_abs_Q>  (321) 
0

>  <s_lp_Force_Field>  (321) 
OPLS3e

>  <r_lp_Energy>  (321) 
19.2649

>  <b_lp_Chiralities_Consistent>  (321) 
1

>  <s_lp_Variant>  (321) 
83:0-1

>  <s_i_glide_gridfile>  (321) 
pfpi4k_grid

>  <i_i_glide_lignum>  (321) 
1

>  <i_i_glide_rotatable_bonds>  (321) 
1

>  <r_i_docking_score>  (321) 
-3.53139

>  <r_i_glide_ligand_efficiency>  (321) 
-0.252242

>  <r_i_glide_ligand_efficiency_sa>  (321) 
-0.60794

>  <r_i_glide_ligand_efficiency_ln>  (321) 
-0.970414

>  <r_i_glide_gscore>  (321) 
-3.53139

>  <r_i_glide_lipo>  (321) 
-0.206093

>  <r_i_glide_hbond>  (321) 
0

>  <r_i_glide_metal>  (321) 
-0

>  <r_i_glide_rewards>  (321) 
-2.13301

>  <r_i_glide_evdw>  (321) 
-17.1323

>  <r_i_glide_ecoul>  (321) 
-3.76897

>  <r_i_glide_erotb>  (321) 
0.455865

>  <r_i_glide_esite>  (321) 
-0.226191

>  <r_i_glide_emodel>  (321) 
-25.7574

>  <r_i_glide_energy>  (321) 
-20.9013

>  <r_i_glide_einternal>  (321) 
0.398043

>  <r_i_glide_intrahb_reward>  (321) 
-0

>  <i_i_glide_confnum>  (321) 
1

>  <i_i_glide_posenum>  (321) 
26

>  <r_i_glide_eff_state_penalty>  (321) 
0

>  <ligand_id>  (321) 
83

>  <original_smiles>  (321) 
c1cc(-c2noc3ccnn23)ncn1

>  <smiles>  (321) 
[H]c1nc([H])c([H])c(-c2noc3c([H])c([H])nn23)n1

$$$$
84:1:0
     RDKit          3D

 63 70  0  0  1  0  0  0  0  0999 V2000
    1.0569   -4.7094    3.3942 C   0  0  0  0  0  0  0  0  0  0  0  0
    1.6516   -4.4852    2.0839 O   0  0  0  0  0  0  0  0  0  0  0  0
    3.0320   -4.1675    1.8916 C   0  0  2  0  0  0  0  0  0  0  0  0
    3.5063   -5.6804    2.1137 C   0  0  0  0  0  0  0  0  0  0  0  0
    3.9381   -6.4753    0.8509 C   0  0  0  0  0  0  0  0  0  0  0  0
    5.3666   -6.2521    0.3003 C   0  0  0  0  0  0  0  0  0  0  0  0
    5.7603   -4.7780    0.1191 C   0  0  2  0  0  0  0  0  0  0  0  0
    6.8950   -4.2596   -0.5480 O   0  0  0  0  0  0  0  0  0  0  0  0
    7.5506   -3.3945    0.2590 C   0  0  2  0  0  0  0  0  0  0  0  0
    8.7537   -2.9511   -0.2895 O   0  0  0  0  0  0  0  0  0  0  0  0
    7.8685   -4.3536    1.5200 C   0  0  0  0  0  0  0  0  0  0  0  0
    6.4653   -4.6301    2.2976 C   0  0  0  0  0  0  0  0  0  0  0  0
    5.4091   -3.8541    1.3673 C   0  0  1  0  0  0  0  0  0  0  0  0
    5.9681   -2.6237    1.9294 C   0  0  2  0  0  0  0  0  0  0  0  0
    4.9798   -2.4252    3.2380 C   0  0  1  0  0  0  0  0  0  0  0  0
    5.2347   -1.1580    3.7948 O   0  0  0  0  0  0  0  0  0  0  0  0
    3.4238   -3.0631    3.2520 C   0  0  1  0  0  0  0  0  0  0  0  0
    2.5604   -1.8482    2.8455 C   0  0  1  0  0  0  0  0  0  0  0  0
    2.5346   -0.7517    3.7377 O   0  0  0  0  0  0  0  0  0  0  0  0
    3.1652   -1.5522    1.4783 C   0  0  1  0  0  0  0  0  0  0  0  0
    3.7584   -0.0475    1.1731 C   0  0  0  0  0  0  0  0  0  0  0  0
    4.9244    0.1098    0.3186 O   0  0  0  0  0  0  0  0  0  0  0  0
    4.9899   -0.6808   -0.8742 C   0  0  0  0  0  0  0  0  0  0  0  0
    4.3719   -0.3860   -2.0960 C   0  0  0  0  0  0  0  0  0  0  0  0
    3.7577   -1.4114   -2.8647 C   0  0  0  0  0  0  0  0  0  0  0  0
    3.5761   -2.6480   -2.2845 C   0  0  0  0  0  0  0  0  0  0  0  0
    2.7079   -3.5047   -2.9342 O   0  0  0  0  0  0  0  0  0  0  0  0
    4.1758   -2.8645   -1.0338 C   0  0  0  0  0  0  0  0  0  0  0  0
    5.3863   -1.9769   -0.7400 C   0  0  0  0  0  0  0  0  0  0  0  0
    6.4453   -2.2047    0.4821 C   0  0  2  0  0  0  0  0  0  0  0  0
    3.2758   -3.7093    0.1469 C   0  0  1  0  0  0  0  0  0  0  0  0
    1.9620   -3.4855   -0.2734 O   0  0  0  0  0  0  0  0  0  0  0  0
    3.9548   -2.9768    1.0330 C   0  0  0  0  0  0  0  0  0  0  0  0
    0.1074   -5.2105    3.2498 H   0  0  0  0  0  0  0  0  0  0  0  0
    0.8309   -3.7902    3.9301 H   0  0  0  0  0  0  0  0  0  0  0  0
    1.5989   -5.3834    4.0491 H   0  0  0  0  0  0  0  0  0  0  0  0
    4.2479   -5.7520    2.9001 H   0  0  0  0  0  0  0  0  0  0  0  0
    2.7162   -6.3201    2.5044 H   0  0  0  0  0  0  0  0  0  0  0  0
    3.8399   -7.5418    1.0628 H   0  0  0  0  0  0  0  0  0  0  0  0
    3.2150   -6.3037    0.0527 H   0  0  0  0  0  0  0  0  0  0  0  0
    6.1033   -6.8790    0.8069 H   0  0  0  0  0  0  0  0  0  0  0  0
    5.2736   -6.6235   -0.7051 H   0  0  0  0  0  0  0  0  0  0  0  0
    5.2053   -4.7649   -0.7864 H   0  0  0  0  0  0  0  0  0  0  0  0
    8.6436   -2.8472   -1.2294 H   0  0  0  0  0  0  0  0  0  0  0  0
    8.3017   -5.2939    1.1764 H   0  0  0  0  0  0  0  0  0  0  0  0
    8.6930   -3.8731    2.0468 H   0  0  0  0  0  0  0  0  0  0  0  0
    6.3307   -5.6991    2.4141 H   0  0  0  0  0  0  0  0  0  0  0  0
    6.4929   -4.4654    3.3627 H   0  0  0  0  0  0  0  0  0  0  0  0
    6.9019   -2.4660    2.4135 H   0  0  0  0  0  0  0  0  0  0  0  0
    5.4098   -2.9866    4.0607 H   0  0  0  0  0  0  0  0  0  0  0  0
    4.7501   -0.5187    3.2819 H   0  0  0  0  0  0  0  0  0  0  0  0
    3.1635   -3.4485    4.2180 H   0  0  0  0  0  0  0  0  0  0  0  0
    1.5228   -2.1427    2.7083 H   0  0  0  0  0  0  0  0  0  0  0  0
    1.9930   -0.0625    3.3618 H   0  0  0  0  0  0  0  0  0  0  0  0
    2.2647   -1.4695    0.8708 H   0  0  0  0  0  0  0  0  0  0  0  0
    2.9458    0.5899    0.8176 H   0  0  0  0  0  0  0  0  0  0  0  0
    4.0959    0.4217    2.0984 H   0  0  0  0  0  0  0  0  0  0  0  0
    4.1938    0.6068   -2.4436 H   0  0  0  0  0  0  0  0  0  0  0  0
    3.2153   -1.1607   -3.7722 H   0  0  0  0  0  0  0  0  0  0  0  0
    2.8031   -4.3996   -2.6596 H   0  0  0  0  0  0  0  0  0  0  0  0
    7.0232   -1.2786    0.5701 H   0  0  0  0  0  0  0  0  0  0  0  0
    1.8494   -2.5477   -0.4440 H   0  0  0  0  0  0  0  0  0  0  0  0
    4.2148   -1.9979    0.9909 H   0  0  0  0  0  0  0  0  0  0  0  0
  1  2  1  0
  1 34  1  0
  1 35  1  0
  1 36  1  0
  3  2  1  6
  3 17  1  0
  3 31  1  0
  3  4  1  0
  4  5  1  0
  4 37  1  0
  4 38  1  0
  5  6  1  0
  5 39  1  0
  5 40  1  0
  6  7  1  0
  6 41  1  0
  6 42  1  0
  7 13  1  0
  7  8  1  0
  7 43  1  6
  8  9  1  0
  9 30  1  0
  9 10  1  6
  9 11  1  0
 10 44  1  0
 11 12  1  0
 11 45  1  0
 11 46  1  0
 13 12  1  1
 12 47  1  0
 12 48  1  0
 13 33  1  0
 13 14  1  0
 14 30  1  0
 14 15  1  0
 14 49  1  1
 15 16  1  0
 15 17  1  0
 15 50  1  1
 16 51  1  0
 17 18  1  0
 17 52  1  1
 18 19  1  0
 18 20  1  0
 18 53  1  6
 19 54  1  0
 20 33  1  0
 20 21  1  0
 20 55  1  6
 21 22  1  0
 21 56  1  0
 21 57  1  0
 22 23  1  0
 23 29  2  0
 23 24  1  0
 24 25  2  0
 24 58  1  0
 25 26  1  0
 25 59  1  0
 26 27  1  0
 26 28  2  0
 27 60  1  0
 28 29  1  0
 28 31  1  0
 29 30  1  0
 30 61  1  1
 31 32  1  1
 31 33  1  0
 32 62  1  0
 33 63  1  0
M  END
>  <i_m_ct_stereo_status>  (322) 
1

>  <s_m_source_file>  (322) 
/var/tmp/pbs.5076255.sched01/tmp7onimy_i/150cvk1qxg3.sdf

>  <i_m_source_file_index>  (322) 
3

>  <i_lp_mmshare_version>  (322) 
48012

>  <i_f3d_flags>  (322) 
0

>  <s_epik_input>  (322) 
W0NAXTEyM1tDQEhdNFtDSDJdW0NIMl1bQ0gyXVtDQEBdNShPW0NIM10pW0NASF02W0NASF0oW09IXSlbQ0BASF0yW0NAQEhdKFtDQEBdKE80KShbT0hdKVtDSDJdW0NIMl0xKWM3YzhbY0hdW2NIXWMoW09IXSljN0M1KFtPSF0pW0NIXTNbQ0BIXShbQ0gyXU84KVtDQEBIXTZbT0hd

>  <s_epik_cmdline>  (322) 
J2VwaWtfcHl0aG9uJywgJy1waHQnLCAnMi4wJywgJy1waCcsICc3LjAnLCAnLXRuJywgJzgnLCAnLW1hJywgJzIwMCcsICctaW1hZScsICc8aW5maWxlLm1hZT4nLCAnLW9tYWUnLCAnPG91dGZpbGUubWFlPic=

>  <r_lp_tautomer_probability>  (322) 
1

>  <r_epik_Ionization_Penalty>  (322) 
0.000171327

>  <r_epik_Ionization_Penalty_Charging>  (322) 
0

>  <r_epik_Ionization_Penalty_Neutral>  (322) 
0.000171327

>  <r_epik_State_Penalty>  (322) 
-0

>  <r_epik_Charging_Adjusted_Penalty>  (322) 
0

>  <i_epik_Tot_Q>  (322) 
0

>  <i_epik_Tot_abs_Q>  (322) 
0

>  <s_lp_Force_Field>  (322) 
OPLS3e

>  <r_lp_Energy>  (322) 
790.069

>  <b_lp_Chiralities_Consistent>  (322) 
1

>  <s_lp_Variant>  (322) 
84:0-2

>  <s_i_glide_gridfile>  (322) 
pfpi4k_grid

>  <i_i_glide_lignum>  (322) 
3

>  <i_i_glide_rotatable_bonds>  (322) 
6

>  <r_i_docking_score>  (322) 
-2.38477

>  <r_i_glide_ligand_efficiency>  (322) 
-0.0722658

>  <r_i_glide_ligand_efficiency_sa>  (322) 
-0.231795

>  <r_i_glide_ligand_efficiency_ln>  (322) 
-0.530361

>  <r_i_glide_gscore>  (322) 
-2.38477

>  <r_i_glide_lipo>  (322) 
-0.677417

>  <r_i_glide_hbond>  (322) 
-0.00260137

>  <r_i_glide_metal>  (322) 
-0

>  <r_i_glide_rewards>  (322) 
-0.538163

>  <r_i_glide_evdw>  (322) 
4.5153

>  <r_i_glide_ecoul>  (322) 
-9.28236

>  <r_i_glide_erotb>  (322) 
0

>  <r_i_glide_esite>  (322) 
0

>  <r_i_glide_emodel>  (322) 
-4.80579

>  <r_i_glide_energy>  (322) 
-4.76707

>  <r_i_glide_einternal>  (322) 
1.99939

>  <r_i_glide_intrahb_reward>  (322) 
-0

>  <i_i_glide_confnum>  (322) 
1

>  <i_i_glide_posenum>  (322) 
29

>  <r_i_glide_eff_state_penalty>  (322) 
0

>  <ligand_id>  (322) 
84

>  <original_smiles>  (322) 
COC12CCCC3OC4(O)CCC35C3C(O)C1C(O)C1COc6ccc(O)c(c6C34)C2(O)C15

>  <smiles>  (322) 
[H]Oc1c([H])c([H])c2c3c1C1(O[H])C4([H])C([H])(C([H])([H])O2)C([H])(O[H])C2([H])C([H])(O[H])C5([H])C3([H])C3(O[H])OC([H])(C([H])([H])C([H])([H])C([H])([H])C12OC([H])([H])[H])C54C([H])([H])C3([H])[H]

$$$$
84:1:1
     RDKit          3D

 63 70  0  0  1  0  0  0  0  0999 V2000
    4.7193   -5.6785    0.3338 C   0  0  0  0  0  0  0  0  0  0  0  0
    4.8466   -6.0534    1.7256 O   0  0  0  0  0  0  0  0  0  0  0  0
    4.0139   -5.5056    2.7911 C   0  0  2  0  0  0  0  0  0  0  0  0
    4.2732   -3.9439    2.5244 C   0  0  0  0  0  0  0  0  0  0  0  0
    3.1018   -3.1593    1.8233 C   0  0  0  0  0  0  0  0  0  0  0  0
    1.9531   -2.5832    2.7101 C   0  0  0  0  0  0  0  0  0  0  0  0
    1.3731   -3.6412    3.6823 C   0  0  2  0  0  0  0  0  0  0  0  0
    0.2434   -3.3524    4.5004 O   0  0  0  0  0  0  0  0  0  0  0  0
    0.5335   -3.7906    5.7848 C   0  0  2  0  0  0  0  0  0  0  0  0
   -0.5536   -3.6311    6.6596 O   0  0  0  0  0  0  0  0  0  0  0  0
    1.7305   -2.7558    6.1353 C   0  0  0  0  0  0  0  0  0  0  0  0
    3.0288   -3.2142    5.3012 C   0  0  0  0  0  0  0  0  0  0  0  0
    2.4945   -4.5047    4.4993 C   0  0  1  0  0  0  0  0  0  0  0  0
    2.5694   -5.1635    5.8442 C   0  0  2  0  0  0  0  0  0  0  0  0
    4.1418   -5.7326    5.7465 C   0  0  1  0  0  0  0  0  0  0  0  0
    4.3412   -6.5963    6.8542 O   0  0  0  0  0  0  0  0  0  0  0  0
    4.8924   -6.0410    4.2569 C   0  0  1  0  0  0  0  0  0  0  0  0
    4.7193   -7.5670    4.1355 C   0  0  1  0  0  0  0  0  0  0  0  0
    5.3719   -8.3860    5.0903 O   0  0  0  0  0  0  0  0  0  0  0  0
    3.1803   -7.6506    4.1796 C   0  0  1  0  0  0  0  0  0  0  0  0
    2.4062   -8.6326    5.2797 C   0  0  0  0  0  0  0  0  0  0  0  0
    1.0740   -8.2536    5.8040 O   0  0  0  0  0  0  0  0  0  0  0  0
    0.1725   -7.6776    4.9154 C   0  0  0  0  0  0  0  0  0  0  0  0
   -0.6112   -8.4578    4.0344 C   0  0  0  0  0  0  0  0  0  0  0  0
   -0.8902   -7.9780    2.7343 C   0  0  0  0  0  0  0  0  0  0  0  0
   -0.1433   -6.9227    2.1896 C   0  0  0  0  0  0  0  0  0  0  0  0
   -0.1679   -6.6781    0.8462 O   0  0  0  0  0  0  0  0  0  0  0  0
    0.7494   -6.2760    3.0834 C   0  0  0  0  0  0  0  0  0  0  0  0
    0.3377   -6.3382    4.5282 C   0  0  0  0  0  0  0  0  0  0  0  0
    0.9952   -5.3778    5.6990 C   0  0  2  0  0  0  0  0  0  0  0  0
    2.3207   -6.0161    2.4601 C   0  0  1  0  0  0  0  0  0  0  0  0
    2.5425   -7.0655    1.5277 O   0  0  0  0  0  0  0  0  0  0  0  0
    2.6724   -6.0884    3.7794 C   0  0  2  0  0  0  0  0  0  0  0  0
    5.1787   -6.4559   -0.2844 H   0  0  0  0  0  0  0  0  0  0  0  0
    5.2247   -4.7456    0.0718 H   0  0  0  0  0  0  0  0  0  0  0  0
    3.6895   -5.5844   -0.0060 H   0  0  0  0  0  0  0  0  0  0  0  0
    4.6061   -3.4364    3.4276 H   0  0  0  0  0  0  0  0  0  0  0  0
    5.1919   -3.7976    1.9578 H   0  0  0  0  0  0  0  0  0  0  0  0
    3.5273   -2.3161    1.2822 H   0  0  0  0  0  0  0  0  0  0  0  0
    2.6564   -3.7799    1.0452 H   0  0  0  0  0  0  0  0  0  0  0  0
    2.2497   -1.6575    3.1990 H   0  0  0  0  0  0  0  0  0  0  0  0
    1.1460   -2.2495    2.0562 H   0  0  0  0  0  0  0  0  0  0  0  0
    0.8174   -4.0910    2.8844 H   0  0  0  0  0  0  0  0  0  0  0  0
   -0.2955   -3.9852    7.4985 H   0  0  0  0  0  0  0  0  0  0  0  0
    1.4225   -1.7505    5.8476 H   0  0  0  0  0  0  0  0  0  0  0  0
    1.9334   -2.7462    7.2066 H   0  0  0  0  0  0  0  0  0  0  0  0
    3.3683   -2.3920    4.6944 H   0  0  0  0  0  0  0  0  0  0  0  0
    3.8817   -3.2535    5.9760 H   0  0  0  0  0  0  0  0  0  0  0  0
    2.6299   -4.7539    6.8590 H   0  0  0  0  0  0  0  0  0  0  0  0
    4.8062   -4.9687    6.1304 H   0  0  0  0  0  0  0  0  0  0  0  0
    3.9757   -7.4448    6.6392 H   0  0  0  0  0  0  0  0  0  0  0  0
    5.9438   -5.7606    4.2503 H   0  0  0  0  0  0  0  0  0  0  0  0
    5.1113   -7.8951    3.1686 H   0  0  0  0  0  0  0  0  0  0  0  0
    6.3089   -8.3505    4.9571 H   0  0  0  0  0  0  0  0  0  0  0  0
    3.0275   -8.3246    3.3451 H   0  0  0  0  0  0  0  0  0  0  0  0
    2.3265   -9.6330    4.8403 H   0  0  0  0  0  0  0  0  0  0  0  0
    3.0379   -8.7453    6.1608 H   0  0  0  0  0  0  0  0  0  0  0  0
   -0.9411   -9.4486    4.2950 H   0  0  0  0  0  0  0  0  0  0  0  0
   -1.5341   -8.5513    2.0797 H   0  0  0  0  0  0  0  0  0  0  0  0
   -0.5117   -7.4058    0.3440 H   0  0  0  0  0  0  0  0  0  0  0  0
    0.6975   -5.8390    6.6361 H   0  0  0  0  0  0  0  0  0  0  0  0
    2.6990   -7.8641    2.0085 H   0  0  0  0  0  0  0  0  0  0  0  0
    2.3880   -6.7537    4.4978 H   0  0  0  0  0  0  0  0  0  0  0  0
  1  2  1  0
  1 34  1  0
  1 35  1  0
  1 36  1  0
  3  2  1  6
  3 17  1  0
  3 31  1  0
  3  4  1  0
  4  5  1  0
  4 37  1  0
  4 38  1  0
  5  6  1  0
  5 39  1  0
  5 40  1  0
  6  7  1  0
  6 41  1  0
  6 42  1  0
  7 13  1  0
  7  8  1  0
  7 43  1  6
  8  9  1  0
  9 30  1  0
  9 10  1  1
  9 11  1  0
 10 44  1  0
 11 12  1  0
 11 45  1  0
 11 46  1  0
 13 12  1  6
 12 47  1  0
 12 48  1  0
 13 33  1  0
 13 14  1  0
 14 30  1  0
 14 15  1  0
 14 49  1  1
 15 16  1  0
 15 17  1  0
 15 50  1  1
 16 51  1  0
 17 18  1  0
 17 52  1  1
 18 19  1  0
 18 20  1  0
 18 53  1  6
 19 54  1  0
 20 33  1  0
 20 21  1  0
 20 55  1  6
 21 22  1  0
 21 56  1  0
 21 57  1  0
 22 23  1  0
 23 29  2  0
 23 24  1  0
 24 25  2  0
 24 58  1  0
 25 26  1  0
 25 59  1  0
 26 27  1  0
 26 28  2  0
 27 60  1  0
 28 29  1  0
 28 31  1  0
 29 30  1  0
 30 61  1  1
 31 32  1  1
 31 33  1  0
 32 62  1  0
 33 63  1  1
M  END
>  <i_m_ct_stereo_status>  (323) 
1

>  <s_m_source_file>  (323) 
/var/tmp/pbs.5076255.sched01/tmp7onimy_i/150cvk1qxg3.sdf

>  <i_m_source_file_index>  (323) 
3

>  <i_lp_mmshare_version>  (323) 
48012

>  <i_f3d_flags>  (323) 
0

>  <s_epik_input>  (323) 
W0NAXTEyM1tDQEhdNFtDSDJdW0NIMl1bQ0gyXVtDQEBdNShPW0NIM10pW0NASF02W0NASF0oW09IXSlbQ0BASF0yW0NAQEhdKFtDQEBdKE80KShbT0hdKVtDSDJdW0NIMl0xKWM3YzhbY0hdW2NIXWMoW09IXSljN0M1KFtPSF0pW0NIXTNbQ0BIXShbQ0gyXU84KVtDQEBIXTZbT0hd

>  <s_epik_cmdline>  (323) 
J2VwaWtfcHl0aG9uJywgJy1waHQnLCAnMi4wJywgJy1waCcsICc3LjAnLCAnLXRuJywgJzgnLCAnLW1hJywgJzIwMCcsICctaW1hZScsICc8aW5maWxlLm1hZT4nLCAnLW9tYWUnLCAnPG91dGZpbGUubWFlPic=

>  <r_lp_tautomer_probability>  (323) 
1

>  <r_epik_Ionization_Penalty>  (323) 
0.000171327

>  <r_epik_Ionization_Penalty_Charging>  (323) 
0

>  <r_epik_Ionization_Penalty_Neutral>  (323) 
0.000171327

>  <r_epik_State_Penalty>  (323) 
-0

>  <r_epik_Charging_Adjusted_Penalty>  (323) 
0

>  <i_epik_Tot_Q>  (323) 
0

>  <i_epik_Tot_abs_Q>  (323) 
0

>  <s_lp_Force_Field>  (323) 
OPLS3e

>  <r_lp_Energy>  (323) 
790.069

>  <b_lp_Chiralities_Consistent>  (323) 
1

>  <s_lp_Variant>  (323) 
84:0-2

>  <s_i_glide_gridfile>  (323) 
pfpi4k_grid

>  <i_i_glide_lignum>  (323) 
3

>  <i_i_glide_rotatable_bonds>  (323) 
6

>  <r_i_docking_score>  (323) 
-2.08715

>  <r_i_glide_ligand_efficiency>  (323) 
-0.0632471

>  <r_i_glide_ligand_efficiency_sa>  (323) 
-0.202867

>  <r_i_glide_ligand_efficiency_ln>  (323) 
-0.464172

>  <r_i_glide_gscore>  (323) 
-2.08715

>  <r_i_glide_lipo>  (323) 
-0.119006

>  <r_i_glide_hbond>  (323) 
0

>  <r_i_glide_metal>  (323) 
-0

>  <r_i_glide_rewards>  (323) 
-0.282948

>  <r_i_glide_evdw>  (323) 
-20.6119

>  <r_i_glide_ecoul>  (323) 
-4.33461

>  <r_i_glide_erotb>  (323) 
0

>  <r_i_glide_esite>  (323) 
-0.00441479

>  <r_i_glide_emodel>  (323) 
-23.5693

>  <r_i_glide_energy>  (323) 
-24.9465

>  <r_i_glide_einternal>  (323) 
9.1587

>  <r_i_glide_intrahb_reward>  (323) 
-0

>  <i_i_glide_confnum>  (323) 
1

>  <i_i_glide_posenum>  (323) 
5

>  <r_i_glide_eff_state_penalty>  (323) 
0

>  <ligand_id>  (323) 
84

>  <original_smiles>  (323) 
COC12CCCC3OC4(O)CCC35C3C(O)C1C(O)C1COc6ccc(O)c(c6C34)C2(O)C15

>  <smiles>  (323) 
[H]Oc1c([H])c([H])c2c3c1C1(O[H])C4([H])C([H])(C([H])([H])O2)C([H])(O[H])C2([H])C([H])(O[H])C5([H])C3([H])C3(O[H])OC([H])(C([H])([H])C([H])([H])C([H])([H])C12OC([H])([H])[H])C54C([H])([H])C3([H])[H]

$$$$
84:1:2
     RDKit          3D

 63 70  0  0  1  0  0  0  0  0999 V2000
    5.3776   -7.0573    1.8074 C   0  0  0  0  0  0  0  0  0  0  0  0
    4.5909   -5.8488    1.8719 O   0  0  0  0  0  0  0  0  0  0  0  0
    4.5737   -4.9026    0.7598 C   0  0  2  0  0  0  0  0  0  0  0  0
    3.6803   -5.7679   -0.2061 C   0  0  0  0  0  0  0  0  0  0  0  0
    2.1601   -5.3223   -0.3942 C   0  0  0  0  0  0  0  0  0  0  0  0
    1.8215   -4.2226   -1.4840 C   0  0  0  0  0  0  0  0  0  0  0  0
    2.7241   -2.9877   -1.3907 C   0  0  2  0  0  0  0  0  0  0  0  0
    2.5220   -1.8803   -2.2630 O   0  0  0  0  0  0  0  0  0  0  0  0
    3.7290   -1.3397   -2.5761 C   0  0  2  0  0  0  0  0  0  0  0  0
    3.5863   -0.1399   -3.2779 O   0  0  0  0  0  0  0  0  0  0  0  0
    4.1750   -2.4809   -3.5843 C   0  0  0  0  0  0  0  0  0  0  0  0
    4.5591   -3.7404   -2.6916 C   0  0  0  0  0  0  0  0  0  0  0  0
    4.3041   -3.2706   -1.1571 C   0  0  1  0  0  0  0  0  0  0  0  0
    5.5347   -2.4421   -1.3932 C   0  0  2  0  0  0  0  0  0  0  0  0
    6.6642   -3.5042   -0.8498 C   0  0  1  0  0  0  0  0  0  0  0  0
    7.9458   -2.8873   -0.8598 O   0  0  0  0  0  0  0  0  0  0  0  0
    6.2787   -4.7609    0.2495 C   0  0  1  0  0  0  0  0  0  0  0  0
    6.8623   -4.1762    1.5184 C   0  0  1  0  0  0  0  0  0  0  0  0
    8.2728   -4.2078    1.4010 O   0  0  0  0  0  0  0  0  0  0  0  0
    6.0178   -2.8669    1.5736 C   0  0  1  0  0  0  0  0  0  0  0  0
    6.7381   -1.3672    1.6412 C   0  0  0  0  0  0  0  0  0  0  0  0
    6.0958   -0.2518    0.9346 O   0  0  0  0  0  0  0  0  0  0  0  0
    4.7220   -0.1144    1.1037 C   0  0  0  0  0  0  0  0  0  0  0  0
    4.0916    0.3495    2.2924 C   0  0  0  0  0  0  0  0  0  0  0  0
    2.8029   -0.0919    2.6467 C   0  0  0  0  0  0  0  0  0  0  0  0
    2.3798   -1.3279    2.1537 C   0  0  0  0  0  0  0  0  0  0  0  0
    1.3784   -2.0032    2.7742 O   0  0  0  0  0  0  0  0  0  0  0  0
    3.1882   -1.8745    1.1204 C   0  0  0  0  0  0  0  0  0  0  0  0
    3.8904   -0.8500    0.2581 C   0  0  0  0  0  0  0  0  0  0  0  0
    4.6309   -1.1665   -1.1931 C   0  0  2  0  0  0  0  0  0  0  0  0
    3.5747   -3.5236    1.2821 C   0  0  1  0  0  0  0  0  0  0  0  0
    3.5297   -3.8120    2.6681 O   0  0  0  0  0  0  0  0  0  0  0  0
    4.6881   -3.1736    0.5627 C   0  0  2  0  0  0  0  0  0  0  0  0
    4.9784   -7.7447    2.5510 H   0  0  0  0  0  0  0  0  0  0  0  0
    6.4194   -6.8787    2.0670 H   0  0  0  0  0  0  0  0  0  0  0  0
    5.3725   -7.5917    0.8513 H   0  0  0  0  0  0  0  0  0  0  0  0
    4.2748   -5.8773   -1.1020 H   0  0  0  0  0  0  0  0  0  0  0  0
    3.5816   -6.7876    0.1498 H   0  0  0  0  0  0  0  0  0  0  0  0
    1.5964   -6.2147   -0.6916 H   0  0  0  0  0  0  0  0  0  0  0  0
    1.6956   -5.0885    0.5720 H   0  0  0  0  0  0  0  0  0  0  0  0
    1.7617   -4.5093   -2.5274 H   0  0  0  0  0  0  0  0  0  0  0  0
    0.7796   -3.9255   -1.3693 H   0  0  0  0  0  0  0  0  0  0  0  0
    2.1181   -2.6479   -0.5877 H   0  0  0  0  0  0  0  0  0  0  0  0
    3.0057    0.4076   -2.7620 H   0  0  0  0  0  0  0  0  0  0  0  0
    3.2978   -2.7269   -4.1856 H   0  0  0  0  0  0  0  0  0  0  0  0
    4.9565   -2.1477   -4.2629 H   0  0  0  0  0  0  0  0  0  0  0  0
    3.8824   -4.4724   -3.0672 H   0  0  0  0  0  0  0  0  0  0  0  0
    5.4834   -4.1778   -3.0609 H   0  0  0  0  0  0  0  0  0  0  0  0
    6.0741   -2.1839   -2.3207 H   0  0  0  0  0  0  0  0  0  0  0  0
    6.8381   -4.0690   -1.7218 H   0  0  0  0  0  0  0  0  0  0  0  0
    8.5255   -3.4124   -1.4050 H   0  0  0  0  0  0  0  0  0  0  0  0
    6.7516   -5.7116    0.0271 H   0  0  0  0  0  0  0  0  0  0  0  0
    6.6098   -4.7645    2.3984 H   0  0  0  0  0  0  0  0  0  0  0  0
    8.5029   -3.4300    0.9065 H   0  0  0  0  0  0  0  0  0  0  0  0
    5.6737   -2.8713    2.6088 H   0  0  0  0  0  0  0  0  0  0  0  0
    6.8334   -1.0249    2.6810 H   0  0  0  0  0  0  0  0  0  0  0  0
    7.7411   -1.4480    1.2252 H   0  0  0  0  0  0  0  0  0  0  0  0
    4.5446    0.9851    3.0154 H   0  0  0  0  0  0  0  0  0  0  0  0
    2.3071    0.3760    3.4824 H   0  0  0  0  0  0  0  0  0  0  0  0
    1.1741   -2.7978    2.3100 H   0  0  0  0  0  0  0  0  0  0  0  0
    5.3067   -0.3316   -1.3843 H   0  0  0  0  0  0  0  0  0  0  0  0
    4.2943   -3.4271    3.0626 H   0  0  0  0  0  0  0  0  0  0  0  0
    5.2683   -2.3710    0.6835 H   0  0  0  0  0  0  0  0  0  0  0  0
  1  2  1  0
  1 34  1  0
  1 35  1  0
  1 36  1  0
  3  2  1  1
  3 17  1  0
  3 31  1  0
  3  4  1  0
  4  5  1  0
  4 37  1  0
  4 38  1  0
  5  6  1  0
  5 39  1  0
  5 40  1  0
  6  7  1  0
  6 41  1  0
  6 42  1  0
  7 13  1  0
  7  8  1  0
  7 43  1  1
  8  9  1  0
  9 30  1  0
  9 10  1  6
  9 11  1  0
 10 44  1  0
 11 12  1  0
 11 45  1  0
 11 46  1  0
 13 12  1  6
 12 47  1  0
 12 48  1  0
 13 33  1  0
 13 14  1  0
 14 30  1  0
 14 15  1  0
 14 49  1  6
 15 16  1  0
 15 17  1  0
 15 50  1  6
 16 51  1  0
 17 18  1  0
 17 52  1  6
 18 19  1  0
 18 20  1  0
 18 53  1  1
 19 54  1  0
 20 33  1  0
 20 21  1  0
 20 55  1  1
 21 22  1  0
 21 56  1  0
 21 57  1  0
 22 23  1  0
 23 29  2  0
 23 24  1  0
 24 25  2  0
 24 58  1  0
 25 26  1  0
 25 59  1  0
 26 27  1  0
 26 28  2  0
 27 60  1  0
 28 29  1  0
 28 31  1  0
 29 30  1  0
 30 61  1  6
 31 32  1  6
 31 33  1  0
 32 62  1  0
 33 63  1  1
M  END
>  <i_m_ct_stereo_status>  (324) 
1

>  <s_m_source_file>  (324) 
/var/tmp/pbs.5076255.sched01/tmp7onimy_i/150cvk1qxg3.sdf

>  <i_m_source_file_index>  (324) 
3

>  <i_lp_mmshare_version>  (324) 
48012

>  <i_f3d_flags>  (324) 
0

>  <s_epik_input>  (324) 
W0NAXTEyM1tDQEhdNFtDSDJdW0NIMl1bQ0gyXVtDQEBdNShPW0NIM10pW0NASF02W0NASF0oW09IXSlbQ0BASF0yW0NAQEhdKFtDQEBdKE80KShbT0hdKVtDSDJdW0NIMl0xKWM3YzhbY0hdW2NIXWMoW09IXSljN0M1KFtPSF0pW0NIXTNbQ0BIXShbQ0gyXU84KVtDQEBIXTZbT0hd

>  <s_epik_cmdline>  (324) 
J2VwaWtfcHl0aG9uJywgJy1waHQnLCAnMi4wJywgJy1waCcsICc3LjAnLCAnLXRuJywgJzgnLCAnLW1hJywgJzIwMCcsICctaW1hZScsICc8aW5maWxlLm1hZT4nLCAnLW9tYWUnLCAnPG91dGZpbGUubWFlPic=

>  <r_lp_tautomer_probability>  (324) 
1

>  <r_epik_Ionization_Penalty>  (324) 
0.000171327

>  <r_epik_Ionization_Penalty_Charging>  (324) 
0

>  <r_epik_Ionization_Penalty_Neutral>  (324) 
0.000171327

>  <r_epik_State_Penalty>  (324) 
-0

>  <r_epik_Charging_Adjusted_Penalty>  (324) 
0

>  <i_epik_Tot_Q>  (324) 
0

>  <i_epik_Tot_abs_Q>  (324) 
0

>  <s_lp_Force_Field>  (324) 
OPLS3e

>  <r_lp_Energy>  (324) 
790.069

>  <b_lp_Chiralities_Consistent>  (324) 
1

>  <s_lp_Variant>  (324) 
84:0-2

>  <s_i_glide_gridfile>  (324) 
pfpi4k_grid

>  <i_i_glide_lignum>  (324) 
3

>  <i_i_glide_rotatable_bonds>  (324) 
6

>  <r_i_docking_score>  (324) 
-1.65112

>  <r_i_glide_ligand_efficiency>  (324) 
-0.0500339

>  <r_i_glide_ligand_efficiency_sa>  (324) 
-0.160485

>  <r_i_glide_ligand_efficiency_ln>  (324) 
-0.3672

>  <r_i_glide_gscore>  (324) 
-1.65112

>  <r_i_glide_lipo>  (324) 
-0.885428

>  <r_i_glide_hbond>  (324) 
-0.153119

>  <r_i_glide_metal>  (324) 
-0

>  <r_i_glide_rewards>  (324) 
-0.782948

>  <r_i_glide_evdw>  (324) 
-0.919455

>  <r_i_glide_ecoul>  (324) 
-2.22906

>  <r_i_glide_erotb>  (324) 
0

>  <r_i_glide_esite>  (324) 
-0.0537662

>  <r_i_glide_emodel>  (324) 
-5.02961

>  <r_i_glide_energy>  (324) 
-3.14852

>  <r_i_glide_einternal>  (324) 
1.9844

>  <r_i_glide_intrahb_reward>  (324) 
-0.5

>  <i_i_glide_confnum>  (324) 
2

>  <i_i_glide_posenum>  (324) 
14

>  <r_i_glide_eff_state_penalty>  (324) 
0

>  <ligand_id>  (324) 
84

>  <original_smiles>  (324) 
COC12CCCC3OC4(O)CCC35C3C(O)C1C(O)C1COc6ccc(O)c(c6C34)C2(O)C15

>  <smiles>  (324) 
[H]Oc1c([H])c([H])c2c3c1C1(O[H])C4([H])C([H])(C([H])([H])O2)C([H])(O[H])C2([H])C([H])(O[H])C5([H])C3([H])C3(O[H])OC([H])(C([H])([H])C([H])([H])C([H])([H])C12OC([H])([H])[H])C54C([H])([H])C3([H])[H]

$$$$
85:0:0
     RDKit          3D

 26 28  0  0  1  0  0  0  0  0999 V2000
    5.4647   -6.7236    3.4121 Cl  0  0  0  0  0  0  0  0  0  0  0  0
    5.8309   -5.7480    2.0322 C   0  0  0  0  0  0  0  0  0  0  0  0
    4.8273   -5.4348    1.0825 C   0  0  0  0  0  0  0  0  0  0  0  0
    5.0305   -4.6885    0.0084 N   0  0  0  0  0  0  0  0  0  0  0  0
    6.2620   -4.1761   -0.1667 C   0  0  0  0  0  0  0  0  0  0  0  0
    6.8403   -3.3702   -1.1211 C   0  0  0  0  0  0  0  0  0  0  0  0
    6.2329   -2.8311   -2.2772 N   0  0  0  0  0  0  0  0  0  0  0  0
    4.8117   -2.9971   -2.5672 C   0  0  0  0  0  0  0  0  0  0  0  0
    4.2559   -2.0113   -3.6020 C   0  0  0  0  0  0  0  0  0  0  0  0
    3.0129   -1.8730   -2.7242 C   0  0  0  0  0  0  0  0  0  0  0  0
    3.8611   -2.3450   -1.5491 C   0  0  0  0  0  0  0  0  0  0  0  0
    8.2049   -3.2484   -0.7533 C   0  0  0  0  0  0  0  0  0  0  0  0
    8.5032   -3.9018    0.3521 N   0  0  0  0  0  0  0  0  0  0  0  0
    7.3108   -4.4750    0.7338 N   0  0  0  0  0  0  0  0  0  0  0  0
    7.1026   -5.2585    1.8293 C   0  0  0  0  0  0  0  0  0  0  0  0
    3.8148   -5.7992    1.2241 H   0  0  0  0  0  0  0  0  0  0  0  0
    6.8509   -2.6584   -3.0625 H   0  0  0  0  0  0  0  0  0  0  0  0
    4.5339   -4.0296   -2.7960 H   0  0  0  0  0  0  0  0  0  0  0  0
    4.8083   -1.0735   -3.6556 H   0  0  0  0  0  0  0  0  0  0  0  0
    4.0577   -2.4403   -4.5832 H   0  0  0  0  0  0  0  0  0  0  0  0
    2.6253   -0.8612   -2.6028 H   0  0  0  0  0  0  0  0  0  0  0  0
    2.2225   -2.5824   -2.9727 H   0  0  0  0  0  0  0  0  0  0  0  0
    3.3054   -3.0253   -0.9069 H   0  0  0  0  0  0  0  0  0  0  0  0
    4.3151   -1.5320   -0.9826 H   0  0  0  0  0  0  0  0  0  0  0  0
    8.9848   -2.7183   -1.2854 H   0  0  0  0  0  0  0  0  0  0  0  0
    7.9443   -5.4522    2.4867 H   0  0  0  0  0  0  0  0  0  0  0  0
  1  2  1  0
  2 15  2  0
  2  3  1  0
  3  4  2  0
  3 16  1  0
  4  5  1  0
  5 14  1  0
  5  6  2  0
  6  7  1  0
  6 12  1  0
  7  8  1  0
  7 17  1  0
  8 11  1  0
  8  9  1  0
  8 18  1  0
  9 10  1  0
  9 19  1  0
  9 20  1  0
 10 11  1  0
 10 21  1  0
 10 22  1  0
 11 23  1  0
 11 24  1  0
 12 13  2  0
 12 25  1  0
 13 14  1  0
 14 15  1  0
 15 26  1  0
M  END
>  <i_m_ct_stereo_status>  (325) 
1

>  <s_m_source_file>  (325) 
/var/tmp/pbs.5076255.sched01/tmp7onimy_i/150cvk1qxg3.sdf

>  <i_m_source_file_index>  (325) 
4

>  <i_lp_mmshare_version>  (325) 
48012

>  <i_f3d_flags>  (325) 
0

>  <s_epik_input>  (325) 
bjFbY0hdYyhDbClbY0hdbihjMTIpbltjSF1jMltOSF1bQ0hdM1tDSDJdW0NIMl1bQ0gyXTM=

>  <s_epik_cmdline>  (325) 
J2VwaWtfcHl0aG9uJywgJy1waHQnLCAnMi4wJywgJy1waCcsICc3LjAnLCAnLXRuJywgJzgnLCAnLW1hJywgJzIwMCcsICctaW1hZScsICc8aW5maWxlLm1hZT4nLCAnLW9tYWUnLCAnPG91dGZpbGUubWFlPic=

>  <r_lp_tautomer_probability>  (325) 
1

>  <r_epik_Ionization_Penalty>  (325) 
8.95724e-05

>  <r_epik_Ionization_Penalty_Charging>  (325) 
0

>  <r_epik_Ionization_Penalty_Neutral>  (325) 
8.95724e-05

>  <r_epik_State_Penalty>  (325) 
-0

>  <r_epik_Charging_Adjusted_Penalty>  (325) 
0

>  <i_epik_Tot_Q>  (325) 
0

>  <i_epik_Tot_abs_Q>  (325) 
0

>  <s_lp_Force_Field>  (325) 
OPLS3e

>  <r_lp_Energy>  (325) 
32.433

>  <b_lp_Chiralities_Consistent>  (325) 
1

>  <s_lp_Variant>  (325) 
85:0-1

>  <s_i_glide_gridfile>  (325) 
pfpi4k_grid

>  <i_i_glide_lignum>  (325) 
4

>  <i_i_glide_rotatable_bonds>  (325) 
2

>  <r_i_docking_score>  (325) 
-3.70423

>  <r_i_glide_ligand_efficiency>  (325) 
-0.246949

>  <r_i_glide_ligand_efficiency_sa>  (325) 
-0.609028

>  <r_i_glide_ligand_efficiency_ln>  (325) 
-0.99897

>  <r_i_glide_gscore>  (325) 
-3.70423

>  <r_i_glide_lipo>  (325) 
-0.698729

>  <r_i_glide_hbond>  (325) 
-0.168307

>  <r_i_glide_metal>  (325) 
-0

>  <r_i_glide_rewards>  (325) 
-2.15529

>  <r_i_glide_evdw>  (325) 
-21.7524

>  <r_i_glide_ecoul>  (325) 
-1.84172

>  <r_i_glide_erotb>  (325) 
0.681967

>  <r_i_glide_esite>  (325) 
0

>  <r_i_glide_emodel>  (325) 
-28.3811

>  <r_i_glide_energy>  (325) 
-23.5941

>  <r_i_glide_einternal>  (325) 
1.77736

>  <r_i_glide_intrahb_reward>  (325) 
-0

>  <i_i_glide_confnum>  (325) 
6

>  <i_i_glide_posenum>  (325) 
1

>  <r_i_glide_eff_state_penalty>  (325) 
0

>  <ligand_id>  (325) 
85

>  <original_smiles>  (325) 
Clc1cnc2c(NC3CCC3)cnn2c1

>  <smiles>  (325) 
[H]c1nc2c(N([H])C3([H])C([H])([H])C([H])([H])C3([H])[H])c([H])nn2c([H])c1Cl

$$$$
85:0:1
     RDKit          3D

 26 28  0  0  1  0  0  0  0  0999 V2000
    6.4498   -7.4613    3.1145 Cl  0  0  0  0  0  0  0  0  0  0  0  0
    6.6275   -6.1954    1.9552 C   0  0  0  0  0  0  0  0  0  0  0  0
    5.5263   -5.7644    1.1733 C   0  0  0  0  0  0  0  0  0  0  0  0
    5.5816   -4.7958    0.2709 N   0  0  0  0  0  0  0  0  0  0  0  0
    6.7676   -4.1814    0.0975 C   0  0  0  0  0  0  0  0  0  0  0  0
    7.2217   -3.1700   -0.7174 C   0  0  0  0  0  0  0  0  0  0  0  0
    6.4910   -2.4369   -1.6759 N   0  0  0  0  0  0  0  0  0  0  0  0
    5.0333   -2.4395   -1.7150 C   0  0  0  0  0  0  0  0  0  0  0  0
    4.4294   -2.8506   -3.0600 C   0  0  0  0  0  0  0  0  0  0  0  0
    3.4107   -1.7232   -2.8579 C   0  0  0  0  0  0  0  0  0  0  0  0
    4.4058   -1.0596   -1.8984 C   0  0  0  0  0  0  0  0  0  0  0  0
    8.5968   -3.0281   -0.4212 C   0  0  0  0  0  0  0  0  0  0  0  0
    9.0157   -3.8600    0.5058 N   0  0  0  0  0  0  0  0  0  0  0  0
    7.9039   -4.5817    0.8405 N   0  0  0  0  0  0  0  0  0  0  0  0
    7.8449   -5.5774    1.7673 C   0  0  0  0  0  0  0  0  0  0  0  0
    4.5574   -6.2368    1.3066 H   0  0  0  0  0  0  0  0  0  0  0  0
    6.9556   -2.2856   -2.5611 H   0  0  0  0  0  0  0  0  0  0  0  0
    4.5353   -2.9412   -0.8879 H   0  0  0  0  0  0  0  0  0  0  0  0
    5.0863   -2.6782   -3.9112 H   0  0  0  0  0  0  0  0  0  0  0  0
    4.0029   -3.8544   -3.0725 H   0  0  0  0  0  0  0  0  0  0  0  0
    3.1928   -1.1393   -3.7511 H   0  0  0  0  0  0  0  0  0  0  0  0
    2.4992   -2.0588   -2.3571 H   0  0  0  0  0  0  0  0  0  0  0  0
    3.9582   -0.6574   -0.9882 H   0  0  0  0  0  0  0  0  0  0  0  0
    5.0601   -0.3371   -2.3851 H   0  0  0  0  0  0  0  0  0  0  0  0
    9.2962   -2.3254   -0.8496 H   0  0  0  0  0  0  0  0  0  0  0  0
    8.7519   -5.8317    2.3072 H   0  0  0  0  0  0  0  0  0  0  0  0
  1  2  1  0
  2 15  2  0
  2  3  1  0
  3  4  2  0
  3 16  1  0
  4  5  1  0
  5 14  1  0
  5  6  2  0
  6  7  1  0
  6 12  1  0
  7  8  1  0
  7 17  1  0
  8 11  1  0
  8  9  1  0
  8 18  1  0
  9 10  1  0
  9 19  1  0
  9 20  1  0
 10 11  1  0
 10 21  1  0
 10 22  1  0
 11 23  1  0
 11 24  1  0
 12 13  2  0
 12 25  1  0
 13 14  1  0
 14 15  1  0
 15 26  1  0
M  END
>  <i_m_ct_stereo_status>  (326) 
1

>  <s_m_source_file>  (326) 
/var/tmp/pbs.5076255.sched01/tmp7onimy_i/150cvk1qxg3.sdf

>  <i_m_source_file_index>  (326) 
4

>  <i_lp_mmshare_version>  (326) 
48012

>  <i_f3d_flags>  (326) 
0

>  <s_epik_input>  (326) 
bjFbY0hdYyhDbClbY0hdbihjMTIpbltjSF1jMltOSF1bQ0hdM1tDSDJdW0NIMl1bQ0gyXTM=

>  <s_epik_cmdline>  (326) 
J2VwaWtfcHl0aG9uJywgJy1waHQnLCAnMi4wJywgJy1waCcsICc3LjAnLCAnLXRuJywgJzgnLCAnLW1hJywgJzIwMCcsICctaW1hZScsICc8aW5maWxlLm1hZT4nLCAnLW9tYWUnLCAnPG91dGZpbGUubWFlPic=

>  <r_lp_tautomer_probability>  (326) 
1

>  <r_epik_Ionization_Penalty>  (326) 
8.95724e-05

>  <r_epik_Ionization_Penalty_Charging>  (326) 
0

>  <r_epik_Ionization_Penalty_Neutral>  (326) 
8.95724e-05

>  <r_epik_State_Penalty>  (326) 
-0

>  <r_epik_Charging_Adjusted_Penalty>  (326) 
0

>  <i_epik_Tot_Q>  (326) 
0

>  <i_epik_Tot_abs_Q>  (326) 
0

>  <s_lp_Force_Field>  (326) 
OPLS3e

>  <r_lp_Energy>  (326) 
32.433

>  <b_lp_Chiralities_Consistent>  (326) 
1

>  <s_lp_Variant>  (326) 
85:0-1

>  <s_i_glide_gridfile>  (326) 
pfpi4k_grid

>  <i_i_glide_lignum>  (326) 
4

>  <i_i_glide_rotatable_bonds>  (326) 
2

>  <r_i_docking_score>  (326) 
-3.67175

>  <r_i_glide_ligand_efficiency>  (326) 
-0.244783

>  <r_i_glide_ligand_efficiency_sa>  (326) 
-0.603688

>  <r_i_glide_ligand_efficiency_ln>  (326) 
-0.990211

>  <r_i_glide_gscore>  (326) 
-3.67175

>  <r_i_glide_lipo>  (326) 
-0.405176

>  <r_i_glide_hbond>  (326) 
-0.0479536

>  <r_i_glide_metal>  (326) 
-0

>  <r_i_glide_rewards>  (326) 
-2.227

>  <r_i_glide_evdw>  (326) 
-22.8555

>  <r_i_glide_ecoul>  (326) 
-3.17838

>  <r_i_glide_erotb>  (326) 
0.681967

>  <r_i_glide_esite>  (326) 
-0.0540589

>  <r_i_glide_emodel>  (326) 
-29.8623

>  <r_i_glide_energy>  (326) 
-26.0339

>  <r_i_glide_einternal>  (326) 
3.14926

>  <r_i_glide_intrahb_reward>  (326) 
-0

>  <i_i_glide_confnum>  (326) 
6

>  <i_i_glide_posenum>  (326) 
37

>  <r_i_glide_eff_state_penalty>  (326) 
0

>  <ligand_id>  (326) 
85

>  <original_smiles>  (326) 
Clc1cnc2c(NC3CCC3)cnn2c1

>  <smiles>  (326) 
[H]c1nc2c(N([H])C3([H])C([H])([H])C([H])([H])C3([H])[H])c([H])nn2c([H])c1Cl

$$$$
85:0:2
     RDKit          3D

 26 28  0  0  1  0  0  0  0  0999 V2000
    5.0114   -0.6656    4.1729 Cl  0  0  0  0  0  0  0  0  0  0  0  0
    4.9915   -1.4345    2.6269 C   0  0  0  0  0  0  0  0  0  0  0  0
    4.7327   -0.6884    1.4496 C   0  0  0  0  0  0  0  0  0  0  0  0
    4.7349   -1.1974    0.2266 N   0  0  0  0  0  0  0  0  0  0  0  0
    4.9591   -2.5208    0.1163 C   0  0  0  0  0  0  0  0  0  0  0  0
    5.0055   -3.4006   -0.9363 C   0  0  0  0  0  0  0  0  0  0  0  0
    4.8092   -3.1261   -2.3044 N   0  0  0  0  0  0  0  0  0  0  0  0
    4.4696   -1.7902   -2.7676 C   0  0  0  0  0  0  0  0  0  0  0  0
    3.0142   -1.3851   -2.5473 C   0  0  0  0  0  0  0  0  0  0  0  0
    3.0372   -0.7565   -3.9393 C   0  0  0  0  0  0  0  0  0  0  0  0
    4.1975   -1.6865   -4.2605 C   0  0  0  0  0  0  0  0  0  0  0  0
    5.2757   -4.6679   -0.3689 C   0  0  0  0  0  0  0  0  0  0  0  0
    5.4272   -4.6340    0.9370 N   0  0  0  0  0  0  0  0  0  0  0  0
    5.2168   -3.3171    1.2576 N   0  0  0  0  0  0  0  0  0  0  0  0
    5.2383   -2.7844    2.5078 C   0  0  0  0  0  0  0  0  0  0  0  0
    4.5203    0.3729    1.5202 H   0  0  0  0  0  0  0  0  0  0  0  0
    4.5322   -3.9080   -2.8844 H   0  0  0  0  0  0  0  0  0  0  0  0
    5.1726   -1.0210   -2.4446 H   0  0  0  0  0  0  0  0  0  0  0  0
    2.3287   -2.2297   -2.4645 H   0  0  0  0  0  0  0  0  0  0  0  0
    2.8765   -0.6653   -1.7463 H   0  0  0  0  0  0  0  0  0  0  0  0
    2.1648   -0.9468   -4.5582 H   0  0  0  0  0  0  0  0  0  0  0  0
    3.3168    0.2989   -3.9356 H   0  0  0  0  0  0  0  0  0  0  0  0
    4.9848   -1.1844   -4.8145 H   0  0  0  0  0  0  0  0  0  0  0  0
    3.8641   -2.6259   -4.7081 H   0  0  0  0  0  0  0  0  0  0  0  0
    5.3802   -5.6070   -0.8936 H   0  0  0  0  0  0  0  0  0  0  0  0
    5.4496   -3.4470    3.3400 H   0  0  0  0  0  0  0  0  0  0  0  0
  1  2  1  0
  2 15  2  0
  2  3  1  0
  3  4  2  0
  3 16  1  0
  4  5  1  0
  5 14  1  0
  5  6  2  0
  6  7  1  0
  6 12  1  0
  7  8  1  0
  7 17  1  0
  8 11  1  0
  8  9  1  0
  8 18  1  0
  9 10  1  0
  9 19  1  0
  9 20  1  0
 10 11  1  0
 10 21  1  0
 10 22  1  0
 11 23  1  0
 11 24  1  0
 12 13  2  0
 12 25  1  0
 13 14  1  0
 14 15  1  0
 15 26  1  0
M  END
>  <i_m_ct_stereo_status>  (327) 
1

>  <s_m_source_file>  (327) 
/var/tmp/pbs.5076255.sched01/tmp7onimy_i/150cvk1qxg3.sdf

>  <i_m_source_file_index>  (327) 
4

>  <i_lp_mmshare_version>  (327) 
48012

>  <i_f3d_flags>  (327) 
0

>  <s_epik_input>  (327) 
bjFbY0hdYyhDbClbY0hdbihjMTIpbltjSF1jMltOSF1bQ0hdM1tDSDJdW0NIMl1bQ0gyXTM=

>  <s_epik_cmdline>  (327) 
J2VwaWtfcHl0aG9uJywgJy1waHQnLCAnMi4wJywgJy1waCcsICc3LjAnLCAnLXRuJywgJzgnLCAnLW1hJywgJzIwMCcsICctaW1hZScsICc8aW5maWxlLm1hZT4nLCAnLW9tYWUnLCAnPG91dGZpbGUubWFlPic=

>  <r_lp_tautomer_probability>  (327) 
1

>  <r_epik_Ionization_Penalty>  (327) 
8.95724e-05

>  <r_epik_Ionization_Penalty_Charging>  (327) 
0

>  <r_epik_Ionization_Penalty_Neutral>  (327) 
8.95724e-05

>  <r_epik_State_Penalty>  (327) 
-0

>  <r_epik_Charging_Adjusted_Penalty>  (327) 
0

>  <i_epik_Tot_Q>  (327) 
0

>  <i_epik_Tot_abs_Q>  (327) 
0

>  <s_lp_Force_Field>  (327) 
OPLS3e

>  <r_lp_Energy>  (327) 
32.433

>  <b_lp_Chiralities_Consistent>  (327) 
1

>  <s_lp_Variant>  (327) 
85:0-1

>  <s_i_glide_gridfile>  (327) 
pfpi4k_grid

>  <i_i_glide_lignum>  (327) 
4

>  <i_i_glide_rotatable_bonds>  (327) 
2

>  <r_i_docking_score>  (327) 
-2.96793

>  <r_i_glide_ligand_efficiency>  (327) 
-0.197862

>  <r_i_glide_ligand_efficiency_sa>  (327) 
-0.487969

>  <r_i_glide_ligand_efficiency_ln>  (327) 
-0.800401

>  <r_i_glide_gscore>  (327) 
-2.96793

>  <r_i_glide_lipo>  (327) 
-0.626679

>  <r_i_glide_hbond>  (327) 
0

>  <r_i_glide_metal>  (327) 
-0

>  <r_i_glide_rewards>  (327) 
-1.95516

>  <r_i_glide_evdw>  (327) 
-19.6483

>  <r_i_glide_ecoul>  (327) 
-0.570947

>  <r_i_glide_erotb>  (327) 
0.681967

>  <r_i_glide_esite>  (327) 
0

>  <r_i_glide_emodel>  (327) 
-24.3367

>  <r_i_glide_energy>  (327) 
-20.2193

>  <r_i_glide_einternal>  (327) 
1.64037

>  <r_i_glide_intrahb_reward>  (327) 
-0

>  <i_i_glide_confnum>  (327) 
2

>  <i_i_glide_posenum>  (327) 
6

>  <r_i_glide_eff_state_penalty>  (327) 
0

>  <ligand_id>  (327) 
85

>  <original_smiles>  (327) 
Clc1cnc2c(NC3CCC3)cnn2c1

>  <smiles>  (327) 
[H]c1nc2c(N([H])C3([H])C([H])([H])C([H])([H])C3([H])[H])c([H])nn2c([H])c1Cl

$$$$
86:0:0
     RDKit          3D

 54 58  0  0  1  0  0  0  0  0999 V2000
    2.7374   -3.0529   -2.5355 C   0  0  0  0  0  0  0  0  0  0  0  0
    3.7093   -2.5797   -1.4219 C   0  0  2  0  0  0  0  0  0  0  0  0
    4.9436   -1.9212   -2.0799 C   0  0  0  0  0  0  0  0  0  0  0  0
    6.2486   -2.6583   -1.7661 C   0  0  0  0  0  0  0  0  0  0  0  0
    6.4122   -2.8889   -0.2539 C   0  0  1  0  0  0  0  0  0  0  0  0
    6.2620   -1.5629    0.5623 C   0  0  0  0  0  0  0  0  0  0  0  0
    4.8580   -1.1775    1.1502 C   0  0  0  0  0  0  0  0  0  0  0  0
    4.0322   -2.2264    1.9981 C   0  0  2  0  0  0  0  0  0  0  0  0
    3.4064   -1.4694    3.1782 C   0  0  0  0  0  0  0  0  0  0  0  0
    4.8620   -3.1385    2.6505 O   0  0  0  0  0  0  0  0  0  0  0  0
    5.8494   -3.7830    1.6962 O   0  0  0  0  0  0  0  0  0  0  0  0
    5.4507   -3.9464    0.3113 C   0  0  2  0  0  0  0  0  0  0  0  0
    5.6760   -5.3444    0.0660 O   0  0  0  0  0  0  0  0  0  0  0  0
    4.5415   -6.1506    0.4971 C   0  0  1  0  0  0  0  0  0  0  0  0
    4.7367   -7.4663    1.2558 C   0  0  1  0  0  0  0  0  0  0  0  0
    5.6941   -7.3398    2.4614 C   0  0  0  0  0  0  0  0  0  0  0  0
    3.2634   -7.8197    1.6263 C   0  0  1  0  0  0  0  0  0  0  0  0
    3.1468   -8.4233    2.8991 O   0  0  0  0  0  0  0  0  0  0  0  0
    2.4101   -6.5193    1.4806 C   0  0  1  0  0  0  0  0  0  0  0  0
    1.3623   -6.2607    2.5777 C   0  0  0  0  0  0  0  0  0  0  0  0
    3.4473   -5.3971    1.3097 C   0  0  2  0  0  0  0  0  0  0  0  0
    3.0026   -4.0565    0.6242 C   0  0  1  0  0  0  0  0  0  0  0  0
    2.8714   -2.8830    1.4431 O   0  0  0  0  0  0  0  0  0  0  0  0
    4.0468   -3.7182   -0.3911 C   0  0  1  0  0  0  0  0  0  0  0  0
    3.1941   -3.7982   -3.1841 H   0  0  0  0  0  0  0  0  0  0  0  0
    2.4290   -2.2176   -3.1648 H   0  0  0  0  0  0  0  0  0  0  0  0
    1.8345   -3.4881   -2.1215 H   0  0  0  0  0  0  0  0  0  0  0  0
    3.1367   -1.8089   -0.9114 H   0  0  0  0  0  0  0  0  0  0  0  0
    4.8320   -1.8788   -3.1635 H   0  0  0  0  0  0  0  0  0  0  0  0
    4.9996   -0.8834   -1.7612 H   0  0  0  0  0  0  0  0  0  0  0  0
    6.2688   -3.6150   -2.2960 H   0  0  0  0  0  0  0  0  0  0  0  0
    7.1027   -2.0996   -2.1512 H   0  0  0  0  0  0  0  0  0  0  0  0
    7.4307   -3.2585   -0.1015 H   0  0  0  0  0  0  0  0  0  0  0  0
    6.9531   -1.6132    1.4041 H   0  0  0  0  0  0  0  0  0  0  0  0
    6.6225   -0.7183   -0.0292 H   0  0  0  0  0  0  0  0  0  0  0  0
    5.0976   -0.3403    1.8121 H   0  0  0  0  0  0  0  0  0  0  0  0
    4.2229   -0.6850    0.4193 H   0  0  0  0  0  0  0  0  0  0  0  0
    2.8917   -2.1700    3.8440 H   0  0  0  0  0  0  0  0  0  0  0  0
    2.6831   -0.7251    2.8397 H   0  0  0  0  0  0  0  0  0  0  0  0
    4.1660   -0.9596    3.7799 H   0  0  0  0  0  0  0  0  0  0  0  0
    4.0862   -6.4961   -0.4328 H   0  0  0  0  0  0  0  0  0  0  0  0
    5.1473   -8.2309    0.5939 H   0  0  0  0  0  0  0  0  0  0  0  0
    5.3364   -6.6301    3.2084 H   0  0  0  0  0  0  0  0  0  0  0  0
    6.6857   -7.0175    2.1371 H   0  0  0  0  0  0  0  0  0  0  0  0
    5.8177   -8.3029    2.9601 H   0  0  0  0  0  0  0  0  0  0  0  0
    2.8907   -8.5521    0.9085 H   0  0  0  0  0  0  0  0  0  0  0  0
    3.4955   -9.3008    2.8394 H   0  0  0  0  0  0  0  0  0  0  0  0
    1.8687   -6.6130    0.5364 H   0  0  0  0  0  0  0  0  0  0  0  0
    1.8328   -6.1411    3.5528 H   0  0  0  0  0  0  0  0  0  0  0  0
    0.6474   -7.0830    2.6453 H   0  0  0  0  0  0  0  0  0  0  0  0
    0.8005   -5.3513    2.3717 H   0  0  0  0  0  0  0  0  0  0  0  0
    3.8349   -5.1765    2.3007 H   0  0  0  0  0  0  0  0  0  0  0  0
    2.0524   -4.2205    0.1178 H   0  0  0  0  0  0  0  0  0  0  0  0
    4.0093   -4.5011   -1.1428 H   0  0  0  0  0  0  0  0  0  0  0  0
  1  2  1  0
  1 25  1  0
  1 26  1  0
  1 27  1  0
  2 24  1  0
  2  3  1  0
  2 28  1  1
  3  4  1  0
  3 29  1  0
  3 30  1  0
  4  5  1  0
  4 31  1  0
  4 32  1  0
  5 12  1  0
  5  6  1  0
  5 33  1  6
  6  7  1  0
  6 34  1  0
  6 35  1  0
  7  8  1  0
  7 36  1  0
  7 37  1  0
  8 23  1  0
  8  9  1  1
  8 10  1  0
  9 38  1  0
  9 39  1  0
  9 40  1  0
 10 11  1  0
 11 12  1  0
 12 24  1  0
 12 13  1  6
 13 14  1  0
 14 21  1  0
 14 15  1  0
 14 41  1  6
 15 16  1  0
 15 17  1  0
 15 42  1  6
 16 43  1  0
 16 44  1  0
 16 45  1  0
 17 18  1  0
 17 19  1  0
 17 46  1  6
 18 47  1  0
 19 20  1  0
 19 21  1  0
 19 48  1  6
 20 49  1  0
 20 50  1  0
 20 51  1  0
 21 22  1  0
 21 52  1  1
 22 23  1  0
 22 24  1  0
 22 53  1  6
 24 54  1  6
M  END
>  <i_m_ct_stereo_status>  (328) 
1

>  <s_m_source_file>  (328) 
/var/tmp/pbs.5076255.sched01/tmp7onimy_i/150cvk1qxg3.sdf

>  <i_m_source_file_index>  (328) 
5

>  <i_lp_mmshare_version>  (328) 
48012

>  <i_f3d_flags>  (328) 
0

>  <s_epik_input>  (328) 
W0NAQF0xMjNbQ0BIXTRbQ0gyXVtDSDJdW0NAQEhdKFtDSDNdKVtDQEBIXTNbQ0BIXShPW0NAQF0oW0NIM10pKE9PMSlbQ0gyXVtDSDJdNClbQ0BASF01W0NAQEhdKE8yKVtDQEBIXShbQ0gzXSlbQ0BASF0oW09IXSlbQ0BIXTVbQ0gzXQ==

>  <s_epik_cmdline>  (328) 
J2VwaWtfcHl0aG9uJywgJy1waHQnLCAnMi4wJywgJy1waCcsICc3LjAnLCAnLXRuJywgJzgnLCAnLW1hJywgJzIwMCcsICctaW1hZScsICc8aW5maWxlLm1hZT4nLCAnLW9tYWUnLCAnPG91dGZpbGUubWFlPic=

>  <r_lp_tautomer_probability>  (328) 
1

>  <r_epik_Ionization_Penalty>  (328) 
2.21857e-07

>  <r_epik_Ionization_Penalty_Charging>  (328) 
0

>  <r_epik_Ionization_Penalty_Neutral>  (328) 
2.21857e-07

>  <r_epik_State_Penalty>  (328) 
-0

>  <r_epik_Charging_Adjusted_Penalty>  (328) 
0

>  <i_epik_Tot_Q>  (328) 
0

>  <i_epik_Tot_abs_Q>  (328) 
0

>  <s_lp_Force_Field>  (328) 
OPLS3e

>  <r_lp_Energy>  (328) 
97.5431

>  <b_lp_Chiralities_Consistent>  (328) 
1

>  <s_lp_Variant>  (328) 
86:0-1

>  <s_i_glide_gridfile>  (328) 
pfpi4k_grid

>  <i_i_glide_lignum>  (328) 
5

>  <i_i_glide_rotatable_bonds>  (328) 
1

>  <r_i_docking_score>  (328) 
-3.07208

>  <r_i_glide_ligand_efficiency>  (328) 
-0.128003

>  <r_i_glide_ligand_efficiency_sa>  (328) 
-0.369225

>  <r_i_glide_ligand_efficiency_ln>  (328) 
-0.735289

>  <r_i_glide_gscore>  (328) 
-3.07208

>  <r_i_glide_lipo>  (328) 
-0.43485

>  <r_i_glide_hbond>  (328) 
0

>  <r_i_glide_metal>  (328) 
-0

>  <r_i_glide_rewards>  (328) 
-1.18201

>  <r_i_glide_evdw>  (328) 
-29.26

>  <r_i_glide_ecoul>  (328) 
0.0574425

>  <r_i_glide_erotb>  (328) 
0

>  <r_i_glide_esite>  (328) 
-0.000827235

>  <r_i_glide_emodel>  (328) 
-34.2412

>  <r_i_glide_energy>  (328) 
-29.2026

>  <r_i_glide_einternal>  (328) 
0.391673

>  <r_i_glide_intrahb_reward>  (328) 
-0

>  <i_i_glide_confnum>  (328) 
2

>  <i_i_glide_posenum>  (328) 
28

>  <r_i_glide_eff_state_penalty>  (328) 
0

>  <ligand_id>  (328) 
86

>  <original_smiles>  (328) 
CC1CCC2CCC3(C)OOC24OC2C(C)C(O)C(C)C2C(O3)C14

>  <smiles>  (328) 
[H]OC1([H])C([H])(C([H])([H])[H])C2([H])OC34OOC5(C([H])([H])[H])OC([H])(C2([H])C1([H])C([H])([H])[H])C3([H])C([H])(C([H])([H])[H])C([H])([H])C([H])([H])C4([H])C([H])([H])C5([H])[H]

$$$$
86:0:1
     RDKit          3D

 54 58  0  0  1  0  0  0  0  0999 V2000
    3.0516   -5.6326    1.0611 C   0  0  0  0  0  0  0  0  0  0  0  0
    4.2259   -4.7819    0.5396 C   0  0  2  0  0  0  0  0  0  0  0  0
    5.4777   -5.6766    0.4665 C   0  0  0  0  0  0  0  0  0  0  0  0
    6.6306   -5.2021    1.3505 C   0  0  0  0  0  0  0  0  0  0  0  0
    6.9093   -3.7058    1.1552 C   0  0  1  0  0  0  0  0  0  0  0  0
    7.1993   -3.3465   -0.3314 C   0  0  0  0  0  0  0  0  0  0  0  0
    6.0113   -2.8678   -1.2337 C   0  0  0  0  0  0  0  0  0  0  0  0
    5.0641   -1.7083   -0.7281 C   0  0  2  0  0  0  0  0  0  0  0  0
    4.7706   -0.8231   -1.9274 C   0  0  0  0  0  0  0  0  0  0  0  0
    5.7318   -0.8218    0.1216 O   0  0  0  0  0  0  0  0  0  0  0  0
    6.4092   -1.5422    1.2464 O   0  0  0  0  0  0  0  0  0  0  0  0
    5.8145   -2.7914    1.7030 C   0  0  2  0  0  0  0  0  0  0  0  0
    5.6535   -2.6216    3.1179 O   0  0  0  0  0  0  0  0  0  0  0  0
    4.4553   -1.8673    3.4444 C   0  0  1  0  0  0  0  0  0  0  0  0
    4.4596   -0.7393    4.4808 C   0  0  1  0  0  0  0  0  0  0  0  0
    5.5617    0.3071    4.2572 C   0  0  0  0  0  0  0  0  0  0  0  0
    3.0086   -0.1950    4.3194 C   0  0  1  0  0  0  0  0  0  0  0  0
    2.9136    1.2165    4.4836 O   0  0  0  0  0  0  0  0  0  0  0  0
    2.4666   -0.6983    2.9511 C   0  0  1  0  0  0  0  0  0  0  0  0
    1.6533    0.3136    2.1421 C   0  0  0  0  0  0  0  0  0  0  0  0
    3.6865   -1.2758    2.2263 C   0  0  2  0  0  0  0  0  0  0  0  0
    3.4592   -2.3357    1.0924 C   0  0  1  0  0  0  0  0  0  0  0  0
    3.7179   -1.9672   -0.2712 O   0  0  0  0  0  0  0  0  0  0  0  0
    4.4114   -3.4575    1.3506 C   0  0  1  0  0  0  0  0  0  0  0  0
    3.2479   -6.0300    2.0575 H   0  0  0  0  0  0  0  0  0  0  0  0
    2.8808   -6.4870    0.4092 H   0  0  0  0  0  0  0  0  0  0  0  0
    2.1332   -5.0565    1.1010 H   0  0  0  0  0  0  0  0  0  0  0  0
    3.9352   -4.5290   -0.4714 H   0  0  0  0  0  0  0  0  0  0  0  0
    5.2549   -6.7095    0.7339 H   0  0  0  0  0  0  0  0  0  0  0  0
    5.7890   -5.7063   -0.5794 H   0  0  0  0  0  0  0  0  0  0  0  0
    6.3967   -5.3927    2.3979 H   0  0  0  0  0  0  0  0  0  0  0  0
    7.5324   -5.7868    1.1394 H   0  0  0  0  0  0  0  0  0  0  0  0
    7.8358   -3.4979    1.6770 H   0  0  0  0  0  0  0  0  0  0  0  0
    7.9542   -2.5569   -0.3477 H   0  0  0  0  0  0  0  0  0  0  0  0
    7.7018   -4.1961   -0.7814 H   0  0  0  0  0  0  0  0  0  0  0  0
    6.5109   -2.5216   -2.1384 H   0  0  0  0  0  0  0  0  0  0  0  0
    5.4238   -3.6903   -1.6240 H   0  0  0  0  0  0  0  0  0  0  0  0
    4.2274    0.0558   -1.6303 H   0  0  0  0  0  0  0  0  0  0  0  0
    4.2168   -1.3339   -2.7167 H   0  0  0  0  0  0  0  0  0  0  0  0
    5.7013   -0.4323   -2.3190 H   0  0  0  0  0  0  0  0  0  0  0  0
    3.7997   -2.6047    3.9169 H   0  0  0  0  0  0  0  0  0  0  0  0
    4.5994   -1.1404    5.4860 H   0  0  0  0  0  0  0  0  0  0  0  0
    5.4731    0.7893    3.2867 H   0  0  0  0  0  0  0  0  0  0  0  0
    6.5557   -0.1296    4.3129 H   0  0  0  0  0  0  0  0  0  0  0  0
    5.5127    1.0882    5.0193 H   0  0  0  0  0  0  0  0  0  0  0  0
    2.3914   -0.6261    5.1065 H   0  0  0  0  0  0  0  0  0  0  0  0
    3.3263    1.6308    3.7571 H   0  0  0  0  0  0  0  0  0  0  0  0
    1.8003   -1.5323    3.1763 H   0  0  0  0  0  0  0  0  0  0  0  0
    2.2520    1.1639    1.8154 H   0  0  0  0  0  0  0  0  0  0  0  0
    0.7835    0.6845    2.6887 H   0  0  0  0  0  0  0  0  0  0  0  0
    1.2700   -0.1875    1.2648 H   0  0  0  0  0  0  0  0  0  0  0  0
    4.2467   -0.4357    1.8258 H   0  0  0  0  0  0  0  0  0  0  0  0
    2.4412   -2.7054    1.1495 H   0  0  0  0  0  0  0  0  0  0  0  0
    4.1116   -3.9241    2.2821 H   0  0  0  0  0  0  0  0  0  0  0  0
  1  2  1  0
  1 25  1  0
  1 26  1  0
  1 27  1  0
  2 24  1  0
  2  3  1  0
  2 28  1  6
  3  4  1  0
  3 29  1  0
  3 30  1  0
  4  5  1  0
  4 31  1  0
  4 32  1  0
  5 12  1  0
  5  6  1  0
  5 33  1  1
  6  7  1  0
  6 34  1  0
  6 35  1  0
  7  8  1  0
  7 36  1  0
  7 37  1  0
  8 23  1  0
  8  9  1  6
  8 10  1  0
  9 38  1  0
  9 39  1  0
  9 40  1  0
 10 11  1  0
 11 12  1  0
 12 24  1  0
 12 13  1  1
 13 14  1  0
 14 21  1  0
 14 15  1  0
 14 41  1  1
 15 16  1  0
 15 17  1  0
 15 42  1  1
 16 43  1  0
 16 44  1  0
 16 45  1  0
 17 18  1  0
 17 19  1  0
 17 46  1  1
 18 47  1  0
 19 20  1  0
 19 21  1  0
 19 48  1  1
 20 49  1  0
 20 50  1  0
 20 51  1  0
 21 22  1  0
 21 52  1  6
 22 23  1  0
 22 24  1  0
 22 53  1  6
 24 54  1  1
M  END
>  <i_m_ct_stereo_status>  (329) 
1

>  <s_m_source_file>  (329) 
/var/tmp/pbs.5076255.sched01/tmp7onimy_i/150cvk1qxg3.sdf

>  <i_m_source_file_index>  (329) 
5

>  <i_lp_mmshare_version>  (329) 
48012

>  <i_f3d_flags>  (329) 
0

>  <s_epik_input>  (329) 
W0NAQF0xMjNbQ0BIXTRbQ0gyXVtDSDJdW0NAQEhdKFtDSDNdKVtDQEBIXTNbQ0BIXShPW0NAQF0oW0NIM10pKE9PMSlbQ0gyXVtDSDJdNClbQ0BASF01W0NAQEhdKE8yKVtDQEBIXShbQ0gzXSlbQ0BASF0oW09IXSlbQ0BIXTVbQ0gzXQ==

>  <s_epik_cmdline>  (329) 
J2VwaWtfcHl0aG9uJywgJy1waHQnLCAnMi4wJywgJy1waCcsICc3LjAnLCAnLXRuJywgJzgnLCAnLW1hJywgJzIwMCcsICctaW1hZScsICc8aW5maWxlLm1hZT4nLCAnLW9tYWUnLCAnPG91dGZpbGUubWFlPic=

>  <r_lp_tautomer_probability>  (329) 
1

>  <r_epik_Ionization_Penalty>  (329) 
2.21857e-07

>  <r_epik_Ionization_Penalty_Charging>  (329) 
0

>  <r_epik_Ionization_Penalty_Neutral>  (329) 
2.21857e-07

>  <r_epik_State_Penalty>  (329) 
-0

>  <r_epik_Charging_Adjusted_Penalty>  (329) 
0

>  <i_epik_Tot_Q>  (329) 
0

>  <i_epik_Tot_abs_Q>  (329) 
0

>  <s_lp_Force_Field>  (329) 
OPLS3e

>  <r_lp_Energy>  (329) 
97.5431

>  <b_lp_Chiralities_Consistent>  (329) 
1

>  <s_lp_Variant>  (329) 
86:0-1

>  <s_i_glide_gridfile>  (329) 
pfpi4k_grid

>  <i_i_glide_lignum>  (329) 
5

>  <i_i_glide_rotatable_bonds>  (329) 
1

>  <r_i_docking_score>  (329) 
-2.9966

>  <r_i_glide_ligand_efficiency>  (329) 
-0.124858

>  <r_i_glide_ligand_efficiency_sa>  (329) 
-0.360154

>  <r_i_glide_ligand_efficiency_ln>  (329) 
-0.717224

>  <r_i_glide_gscore>  (329) 
-2.9966

>  <r_i_glide_lipo>  (329) 
-0.672318

>  <r_i_glide_hbond>  (329) 
0

>  <r_i_glide_metal>  (329) 
-0

>  <r_i_glide_rewards>  (329) 
-1.19164

>  <r_i_glide_evdw>  (329) 
-22.1601

>  <r_i_glide_ecoul>  (329) 
0.0149005

>  <r_i_glide_erotb>  (329) 
0

>  <r_i_glide_esite>  (329) 
-0.0268716

>  <r_i_glide_emodel>  (329) 
-27.1817

>  <r_i_glide_energy>  (329) 
-22.1452

>  <r_i_glide_einternal>  (329) 
0.0209566

>  <r_i_glide_intrahb_reward>  (329) 
-0

>  <i_i_glide_confnum>  (329) 
1

>  <i_i_glide_posenum>  (329) 
8

>  <r_i_glide_eff_state_penalty>  (329) 
0

>  <ligand_id>  (329) 
86

>  <original_smiles>  (329) 
CC1CCC2CCC3(C)OOC24OC2C(C)C(O)C(C)C2C(O3)C14

>  <smiles>  (329) 
[H]OC1([H])C([H])(C([H])([H])[H])C2([H])OC34OOC5(C([H])([H])[H])OC([H])(C2([H])C1([H])C([H])([H])[H])C3([H])C([H])(C([H])([H])[H])C([H])([H])C([H])([H])C4([H])C([H])([H])C5([H])[H]

$$$$
86:0:2
     RDKit          3D

 54 58  0  0  1  0  0  0  0  0999 V2000
    2.6391   -5.4126    0.5136 C   0  0  0  0  0  0  0  0  0  0  0  0
    3.8188   -4.6065   -0.0417 C   0  0  2  0  0  0  0  0  0  0  0  0
    5.0028   -5.5441   -0.2554 C   0  0  0  0  0  0  0  0  0  0  0  0
    6.2415   -5.1898    0.5774 C   0  0  0  0  0  0  0  0  0  0  0  0
    6.6243   -3.7020    0.4479 C   0  0  1  0  0  0  0  0  0  0  0  0
    6.7949   -3.2124   -1.0244 C   0  0  0  0  0  0  0  0  0  0  0  0
    5.5620   -2.7524   -1.8472 C   0  0  0  0  0  0  0  0  0  0  0  0
    4.7202   -1.5596   -1.2873 C   0  0  2  0  0  0  0  0  0  0  0  0
    4.4530   -0.6886   -2.5408 C   0  0  0  0  0  0  0  0  0  0  0  0
    5.5191   -0.7466   -0.4877 O   0  0  0  0  0  0  0  0  0  0  0  0
    6.1653   -1.5045    0.6905 O   0  0  0  0  0  0  0  0  0  0  0  0
    5.5775   -2.7508    1.0945 C   0  0  2  0  0  0  0  0  0  0  0  0
    5.5696   -2.6227    2.5416 O   0  0  0  0  0  0  0  0  0  0  0  0
    4.4098   -1.8471    2.9350 C   0  0  1  0  0  0  0  0  0  0  0  0
    4.5376   -0.7872    4.0378 C   0  0  1  0  0  0  0  0  0  0  0  0
    5.7069    0.1538    3.7768 C   0  0  0  0  0  0  0  0  0  0  0  0
    3.1294   -0.1186    3.9353 C   0  0  1  0  0  0  0  0  0  0  0  0
    3.1722    1.2855    4.0939 O   0  0  0  0  0  0  0  0  0  0  0  0
    2.4676   -0.5300    2.5790 C   0  0  1  0  0  0  0  0  0  0  0  0
    1.6802    0.5738    1.8513 C   0  0  0  0  0  0  0  0  0  0  0  0
    3.6115   -1.1524    1.7799 C   0  0  2  0  0  0  0  0  0  0  0  0
    3.2413   -2.1557    0.6364 C   0  0  1  0  0  0  0  0  0  0  0  0
    3.4064   -1.7425   -0.7367 O   0  0  0  0  0  0  0  0  0  0  0  0
    4.1492   -3.3384    0.8025 C   0  0  1  0  0  0  0  0  0  0  0  0
    2.8647   -5.8725    1.4828 H   0  0  0  0  0  0  0  0  0  0  0  0
    2.3555   -6.2138   -0.1597 H   0  0  0  0  0  0  0  0  0  0  0  0
    1.7830   -4.7705    0.6410 H   0  0  0  0  0  0  0  0  0  0  0  0
    3.4656   -4.2884   -1.0266 H   0  0  0  0  0  0  0  0  0  0  0  0
    4.7364   -6.5884   -0.0230 H   0  0  0  0  0  0  0  0  0  0  0  0
    5.2383   -5.5386   -1.3163 H   0  0  0  0  0  0  0  0  0  0  0  0
    6.0456   -5.4256    1.6253 H   0  0  0  0  0  0  0  0  0  0  0  0
    7.0814   -5.8160    0.2691 H   0  0  0  0  0  0  0  0  0  0  0  0
    7.5781   -3.5626    0.9549 H   0  0  0  0  0  0  0  0  0  0  0  0
    7.5799   -2.4470   -1.0685 H   0  0  0  0  0  0  0  0  0  0  0  0
    7.2237   -4.0416   -1.5973 H   0  0  0  0  0  0  0  0  0  0  0  0
    6.0456   -2.4569   -2.7679 H   0  0  0  0  0  0  0  0  0  0  0  0
    4.9367   -3.5549   -2.2213 H   0  0  0  0  0  0  0  0  0  0  0  0
    4.0994    0.2772   -2.2973 H   0  0  0  0  0  0  0  0  0  0  0  0
    3.7810   -1.2075   -3.2274 H   0  0  0  0  0  0  0  0  0  0  0  0
    5.3792   -0.5507   -2.9785 H   0  0  0  0  0  0  0  0  0  0  0  0
    3.7371   -2.5700    3.3985 H   0  0  0  0  0  0  0  0  0  0  0  0
    4.6924   -1.2562    5.0067 H   0  0  0  0  0  0  0  0  0  0  0  0
    5.5627    0.6023    2.8152 H   0  0  0  0  0  0  0  0  0  0  0  0
    6.6820   -0.3114    3.7259 H   0  0  0  0  0  0  0  0  0  0  0  0
    5.7579    0.9204    4.5564 H   0  0  0  0  0  0  0  0  0  0  0  0
    2.5126   -0.5172    4.7444 H   0  0  0  0  0  0  0  0  0  0  0  0
    2.2790    1.5938    4.0404 H   0  0  0  0  0  0  0  0  0  0  0  0
    1.7664   -1.3332    2.8097 H   0  0  0  0  0  0  0  0  0  0  0  0
    2.3220    1.4108    1.5659 H   0  0  0  0  0  0  0  0  0  0  0  0
    0.8656    0.9677    2.4636 H   0  0  0  0  0  0  0  0  0  0  0  0
    1.2320    0.1824    0.9364 H   0  0  0  0  0  0  0  0  0  0  0  0
    4.1914   -0.3348    1.3612 H   0  0  0  0  0  0  0  0  0  0  0  0
    2.2079   -2.4672    0.7498 H   0  0  0  0  0  0  0  0  0  0  0  0
    3.8664   -3.8225    1.7314 H   0  0  0  0  0  0  0  0  0  0  0  0
  1  2  1  0
  1 25  1  0
  1 26  1  0
  1 27  1  0
  2 24  1  0
  2  3  1  0
  2 28  1  6
  3  4  1  0
  3 29  1  0
  3 30  1  0
  4  5  1  0
  4 31  1  0
  4 32  1  0
  5 12  1  0
  5  6  1  0
  5 33  1  1
  6  7  1  0
  6 34  1  0
  6 35  1  0
  7  8  1  0
  7 36  1  0
  7 37  1  0
  8 23  1  0
  8  9  1  6
  8 10  1  0
  9 38  1  0
  9 39  1  0
  9 40  1  0
 10 11  1  0
 11 12  1  0
 12 24  1  0
 12 13  1  1
 13 14  1  0
 14 21  1  0
 14 15  1  0
 14 41  1  1
 15 16  1  0
 15 17  1  0
 15 42  1  1
 16 43  1  0
 16 44  1  0
 16 45  1  0
 17 18  1  0
 17 19  1  0
 17 46  1  1
 18 47  1  0
 19 20  1  0
 19 21  1  0
 19 48  1  1
 20 49  1  0
 20 50  1  0
 20 51  1  0
 21 22  1  0
 21 52  1  6
 22 23  1  0
 22 24  1  0
 22 53  1  6
 24 54  1  1
M  END
>  <i_m_ct_stereo_status>  (330) 
1

>  <s_m_source_file>  (330) 
/var/tmp/pbs.5076255.sched01/tmp7onimy_i/150cvk1qxg3.sdf

>  <i_m_source_file_index>  (330) 
5

>  <i_lp_mmshare_version>  (330) 
48012

>  <i_f3d_flags>  (330) 
0

>  <s_epik_input>  (330) 
W0NAQF0xMjNbQ0BIXTRbQ0gyXVtDSDJdW0NAQEhdKFtDSDNdKVtDQEBIXTNbQ0BIXShPW0NAQF0oW0NIM10pKE9PMSlbQ0gyXVtDSDJdNClbQ0BASF01W0NAQEhdKE8yKVtDQEBIXShbQ0gzXSlbQ0BASF0oW09IXSlbQ0BIXTVbQ0gzXQ==

>  <s_epik_cmdline>  (330) 
J2VwaWtfcHl0aG9uJywgJy1waHQnLCAnMi4wJywgJy1waCcsICc3LjAnLCAnLXRuJywgJzgnLCAnLW1hJywgJzIwMCcsICctaW1hZScsICc8aW5maWxlLm1hZT4nLCAnLW9tYWUnLCAnPG91dGZpbGUubWFlPic=

>  <r_lp_tautomer_probability>  (330) 
1

>  <r_epik_Ionization_Penalty>  (330) 
2.21857e-07

>  <r_epik_Ionization_Penalty_Charging>  (330) 
0

>  <r_epik_Ionization_Penalty_Neutral>  (330) 
2.21857e-07

>  <r_epik_State_Penalty>  (330) 
-0

>  <r_epik_Charging_Adjusted_Penalty>  (330) 
0

>  <i_epik_Tot_Q>  (330) 
0

>  <i_epik_Tot_abs_Q>  (330) 
0

>  <s_lp_Force_Field>  (330) 
OPLS3e

>  <r_lp_Energy>  (330) 
97.5431

>  <b_lp_Chiralities_Consistent>  (330) 
1

>  <s_lp_Variant>  (330) 
86:0-1

>  <s_i_glide_gridfile>  (330) 
pfpi4k_grid

>  <i_i_glide_lignum>  (330) 
5

>  <i_i_glide_rotatable_bonds>  (330) 
1

>  <r_i_docking_score>  (330) 
-2.47332

>  <r_i_glide_ligand_efficiency>  (330) 
-0.103055

>  <r_i_glide_ligand_efficiency_sa>  (330) 
-0.297262

>  <r_i_glide_ligand_efficiency_ln>  (330) 
-0.591978

>  <r_i_glide_gscore>  (330) 
-2.47332

>  <r_i_glide_lipo>  (330) 
-0.529172

>  <r_i_glide_hbond>  (330) 
0

>  <r_i_glide_metal>  (330) 
-0

>  <r_i_glide_rewards>  (330) 
-1.18982

>  <r_i_glide_evdw>  (330) 
-17.5528

>  <r_i_glide_ecoul>  (330) 
1.08676

>  <r_i_glide_erotb>  (330) 
0

>  <r_i_glide_esite>  (330) 
-0.0397003

>  <r_i_glide_emodel>  (330) 
-19.2673

>  <r_i_glide_energy>  (330) 
-16.4661

>  <r_i_glide_einternal>  (330) 
0.438456

>  <r_i_glide_intrahb_reward>  (330) 
-0

>  <i_i_glide_confnum>  (330) 
1

>  <i_i_glide_posenum>  (330) 
4

>  <r_i_glide_eff_state_penalty>  (330) 
0

>  <ligand_id>  (330) 
86

>  <original_smiles>  (330) 
CC1CCC2CCC3(C)OOC24OC2C(C)C(O)C(C)C2C(O3)C14

>  <smiles>  (330) 
[H]OC1([H])C([H])(C([H])([H])[H])C2([H])OC34OOC5(C([H])([H])[H])OC([H])(C2([H])C1([H])C([H])([H])[H])C3([H])C([H])(C([H])([H])[H])C([H])([H])C([H])([H])C4([H])C([H])([H])C5([H])[H]

$$$$
87:0:0
     RDKit          3D

 72 79  0  0  1  0  0  0  0  0999 V2000
    2.4455   -2.6791   -3.0381 C   0  0  0  0  0  0  0  0  0  0  0  0
    3.6882   -2.3530   -2.1955 C   0  0  2  0  0  0  0  0  0  0  0  0
    4.9777   -2.4300   -3.0155 C   0  0  0  0  0  0  0  0  0  0  0  0
    5.9986   -3.2183   -2.1890 C   0  0  0  0  0  0  0  0  0  0  0  0
    5.4594   -3.1706   -0.7573 C   0  0  2  0  0  0  0  0  0  0  0  0
    6.0046   -4.2130    0.2056 C   0  0  0  0  0  0  0  0  0  0  0  0
    5.5195   -3.9201    1.6430 C   0  0  0  0  0  0  0  0  0  0  0  0
    4.8112   -2.5413    1.8805 C   0  0  2  0  0  0  0  0  0  0  0  0
    5.5119   -1.4513    1.0011 C   0  0  2  0  0  0  0  0  0  0  0  0
    4.5804   -0.4511    0.7763 O   0  0  0  0  0  0  0  0  0  0  0  0
    3.2724   -0.9226    1.0458 C   0  0  2  0  0  0  0  0  0  0  0  0
    2.7306   -0.0183    2.1546 C   0  0  1  0  0  0  0  0  0  0  0  0
    1.2437   -0.2943    2.4745 C   0  0  0  0  0  0  0  0  0  0  0  0
    3.6981    0.1424    3.3629 C   0  0  1  0  0  0  0  0  0  0  0  0
    3.3008    1.4087    4.1408 C   0  0  0  0  0  0  0  0  0  0  0  0
    4.1809    1.6582    5.3545 C   0  0  0  0  0  0  0  0  0  0  0  0
    4.0633    0.4853    6.3145 C   0  0  1  0  0  0  0  0  0  0  0  0
    2.6449    0.3912    6.9150 C   0  0  0  0  0  0  0  0  0  0  0  0
    4.5886   -0.7974    5.6200 C   0  0  1  0  0  0  0  0  0  0  0  0
    4.6200   -1.9821    6.6182 C   0  0  0  0  0  0  0  0  0  0  0  0
    3.3444   -2.8366    6.5468 C   0  0  0  0  0  0  0  0  0  0  0  0
    2.8405   -3.0330    5.0985 C   0  0  2  0  0  0  0  0  0  0  0  0
    1.4280   -3.6299    5.1057 C   0  0  0  0  0  0  0  0  0  0  0  0
    3.6399   -3.9042    4.3191 O   0  0  0  0  0  0  0  0  0  0  0  0
    5.0065   -3.3226    4.2133 O   0  0  0  0  0  0  0  0  0  0  0  0
    4.9444   -2.1426    3.4171 C   0  0  2  0  0  0  0  0  0  0  0  0
    3.9737   -1.1569    4.2002 C   0  0  2  0  0  0  0  0  0  0  0  0
    2.7149   -1.7741    4.4708 O   0  0  0  0  0  0  0  0  0  0  0  0
    3.3748   -2.4183    1.3703 C   0  0  1  0  0  0  0  0  0  0  0  0
    3.0139   -3.3225    0.1764 C   0  0  0  0  0  0  0  0  0  0  0  0
    3.9559   -3.3097   -1.0343 C   0  0  1  0  0  0  0  0  0  0  0  0
    5.9325   -1.9290   -0.2539 O   0  0  0  0  0  0  0  0  0  0  0  0
    2.4877   -3.6795   -3.4684 H   0  0  0  0  0  0  0  0  0  0  0  0
    2.3350   -1.9705   -3.8606 H   0  0  0  0  0  0  0  0  0  0  0  0
    1.5443   -2.6256   -2.4335 H   0  0  0  0  0  0  0  0  0  0  0  0
    3.6030   -1.3402   -1.8065 H   0  0  0  0  0  0  0  0  0  0  0  0
    4.8319   -2.9064   -3.9859 H   0  0  0  0  0  0  0  0  0  0  0  0
    5.3220   -1.4138   -3.1648 H   0  0  0  0  0  0  0  0  0  0  0  0
    6.0006   -4.2437   -2.5534 H   0  0  0  0  0  0  0  0  0  0  0  0
    7.0097   -2.8194   -2.2929 H   0  0  0  0  0  0  0  0  0  0  0  0
    5.7357   -5.2139   -0.1149 H   0  0  0  0  0  0  0  0  0  0  0  0
    7.0934   -4.1585    0.1732 H   0  0  0  0  0  0  0  0  0  0  0  0
    4.8625   -4.7314    1.9670 H   0  0  0  0  0  0  0  0  0  0  0  0
    6.4015   -3.9981    2.2844 H   0  0  0  0  0  0  0  0  0  0  0  0
    6.3921   -1.0109    1.4706 H   0  0  0  0  0  0  0  0  0  0  0  0
    2.6541   -0.7713    0.1681 H   0  0  0  0  0  0  0  0  0  0  0  0
    2.7166    0.9693    1.6867 H   0  0  0  0  0  0  0  0  0  0  0  0
    1.0481   -1.3006    2.8473 H   0  0  0  0  0  0  0  0  0  0  0  0
    0.6426   -0.1851    1.5716 H   0  0  0  0  0  0  0  0  0  0  0  0
    0.8282    0.4061    3.1989 H   0  0  0  0  0  0  0  0  0  0  0  0
    4.6776    0.4196    2.9704 H   0  0  0  0  0  0  0  0  0  0  0  0
    3.3950    2.2708    3.4787 H   0  0  0  0  0  0  0  0  0  0  0  0
    2.2595    1.3792    4.4501 H   0  0  0  0  0  0  0  0  0  0  0  0
    5.2191    1.7570    5.0503 H   0  0  0  0  0  0  0  0  0  0  0  0
    3.9019    2.5928    5.8419 H   0  0  0  0  0  0  0  0  0  0  0  0
    4.7304    0.7088    7.1515 H   0  0  0  0  0  0  0  0  0  0  0  0
    1.9374   -0.0384    6.2100 H   0  0  0  0  0  0  0  0  0  0  0  0
    2.2735    1.3772    7.1925 H   0  0  0  0  0  0  0  0  0  0  0  0
    2.6356   -0.2156    7.8183 H   0  0  0  0  0  0  0  0  0  0  0  0
    5.6354   -0.5674    5.4431 H   0  0  0  0  0  0  0  0  0  0  0  0
    5.4888   -2.6163    6.4407 H   0  0  0  0  0  0  0  0  0  0  0  0
    4.7364   -1.6236    7.6359 H   0  0  0  0  0  0  0  0  0  0  0  0
    3.4971   -3.7971    7.0468 H   0  0  0  0  0  0  0  0  0  0  0  0
    2.5638   -2.3366    7.1165 H   0  0  0  0  0  0  0  0  0  0  0  0
    1.0751   -3.7793    4.0861 H   0  0  0  0  0  0  0  0  0  0  0  0
    0.7257   -2.9675    5.6127 H   0  0  0  0  0  0  0  0  0  0  0  0
    1.4163   -4.5922    5.6176 H   0  0  0  0  0  0  0  0  0  0  0  0
    5.9257   -1.6928    3.4959 H   0  0  0  0  0  0  0  0  0  0  0  0
    2.6789   -2.6974    2.1604 H   0  0  0  0  0  0  0  0  0  0  0  0
    2.9577   -4.3478    0.5446 H   0  0  0  0  0  0  0  0  0  0  0  0
    2.0060   -3.0922   -0.1530 H   0  0  0  0  0  0  0  0  0  0  0  0
    3.8289   -4.2969   -1.4733 H   0  0  0  0  0  0  0  0  0  0  0  0
  1  2  1  0
  1 33  1  0
  1 34  1  0
  1 35  1  0
  2 31  1  0
  2  3  1  0
  2 36  1  1
  3  4  1  0
  3 37  1  0
  3 38  1  0
  5  4  1  6
  4 39  1  0
  4 40  1  0
  5 31  1  0
  5 32  1  0
  5  6  1  0
  6  7  1  0
  6 41  1  0
  6 42  1  0
  8  7  1  1
  7 43  1  0
  7 44  1  0
  8 26  1  0
  8 29  1  0
  8  9  1  0
  9 10  1  0
  9 32  1  0
  9 45  1  1
 10 11  1  0
 11 12  1  0
 11 29  1  0
 11 46  1  6
 12 13  1  0
 12 14  1  0
 12 47  1  6
 13 48  1  0
 13 49  1  0
 13 50  1  0
 14 27  1  0
 14 15  1  0
 14 51  1  6
 15 16  1  0
 15 52  1  0
 15 53  1  0
 16 17  1  0
 16 54  1  0
 16 55  1  0
 17 18  1  0
 17 19  1  0
 17 56  1  1
 18 57  1  0
 18 58  1  0
 18 59  1  0
 19 27  1  0
 19 20  1  0
 19 60  1  6
 20 21  1  0
 20 61  1  0
 20 62  1  0
 21 22  1  0
 21 63  1  0
 21 64  1  0
 22 28  1  0
 22 23  1  1
 22 24  1  0
 23 65  1  0
 23 66  1  0
 23 67  1  0
 24 25  1  0
 25 26  1  0
 26 27  1  0
 26 68  1  6
 27 28  1  1
 29 30  1  0
 29 69  1  1
 30 31  1  0
 30 70  1  0
 30 71  1  0
 31 72  1  6
M  END
>  <i_m_ct_stereo_status>  (331) 
1

>  <s_m_source_file>  (331) 
/var/tmp/pbs.5076255.sched01/tmp7onimy_i/150cvk1qxg3.sdf

>  <i_m_source_file_index>  (331) 
6

>  <i_lp_mmshare_version>  (331) 
48012

>  <i_f3d_flags>  (331) 
0

>  <s_epik_input>  (331) 
W0NIMl0xW0NIMl1bQ0BASF0oW0NIM10pW0NAQEhdKFtDQF0xMjMpW0NIMl1bQ0BIXTRbQ0BAXTUoW0NIMl1bQ0gyXTIpW0NAQEhdKE8zKU9bQ0BASF00W0NAQEhdKFtDSDNdKVtDQEBIXTZbQ0BdNzhbQ0BASF0oW0NASF0oW0NIM10pW0NIMl1bQ0gyXTYpW0NIMl1bQ0gyXVtDQF0oTzgpKFtDSDNdKU9PW0NAQEhdNTc=

>  <s_epik_cmdline>  (331) 
J2VwaWtfcHl0aG9uJywgJy1waHQnLCAnMi4wJywgJy1waCcsICc3LjAnLCAnLXRuJywgJzgnLCAnLW1hJywgJzIwMCcsICctaW1hZScsICc8aW5maWxlLm1hZT4nLCAnLW9tYWUnLCAnPG91dGZpbGUubWFlPic=

>  <r_lp_tautomer_probability>  (331) 
1

>  <r_epik_Ionization_Penalty>  (331) 
9.40115e-13

>  <r_epik_Ionization_Penalty_Charging>  (331) 
0

>  <r_epik_Ionization_Penalty_Neutral>  (331) 
9.40115e-13

>  <r_epik_State_Penalty>  (331) 
-0

>  <r_epik_Charging_Adjusted_Penalty>  (331) 
0

>  <i_epik_Tot_Q>  (331) 
0

>  <i_epik_Tot_abs_Q>  (331) 
0

>  <s_epik_Chemistry_Notes>  (331) 
This compound contains an acetal/aminal-like group ( X-CH(R)-Y where X, Y are N, S, or O) that may be acid/base labile, releasing an aldehyde.

>  <s_lp_Force_Field>  (331) 
OPLS3e

>  <r_lp_Energy>  (331) 
63.4789

>  <b_lp_Chiralities_Consistent>  (331) 
1

>  <s_lp_Variant>  (331) 
87:0-1

>  <s_i_glide_gridfile>  (331) 
pfpi4k_grid

>  <i_i_glide_lignum>  (331) 
6

>  <i_i_glide_rotatable_bonds>  (331) 
0

>  <r_i_docking_score>  (331) 
-2.81384

>  <r_i_glide_ligand_efficiency>  (331) 
-0.0879324

>  <r_i_glide_ligand_efficiency_sa>  (331) 
-0.279168

>  <r_i_glide_ligand_efficiency_ln>  (331) 
-0.630095

>  <r_i_glide_gscore>  (331) 
-2.81384

>  <r_i_glide_lipo>  (331) 
-0.665768

>  <r_i_glide_hbond>  (331) 
0

>  <r_i_glide_metal>  (331) 
-0

>  <r_i_glide_rewards>  (331) 
-0.531746

>  <r_i_glide_evdw>  (331) 
-29.7674

>  <r_i_glide_ecoul>  (331) 
-0.853047

>  <r_i_glide_erotb>  (331) 
0

>  <r_i_glide_esite>  (331) 
0

>  <r_i_glide_emodel>  (331) 
-35.3615

>  <r_i_glide_energy>  (331) 
-30.6204

>  <r_i_glide_einternal>  (331) 
0

>  <r_i_glide_intrahb_reward>  (331) 
-0

>  <i_i_glide_confnum>  (331) 
1

>  <i_i_glide_posenum>  (331) 
1

>  <r_i_glide_eff_state_penalty>  (331) 
0

>  <ligand_id>  (331) 
87

>  <original_smiles>  (331) 
CC1CCC23CCC45C(OC(C(C)C6CCC(C)C7CCC8(C)OOC4C76O8)C5CC12)O3

>  <smiles>  (331) 
[H]C([H])([H])C12OOC3([H])C4(O1)C([H])(C([H])([H])C2([H])[H])C([H])(C([H])([H])[H])C([H])([H])C([H])([H])C4([H])C([H])(C([H])([H])[H])C1([H])OC2([H])OC45C([H])([H])C([H])([H])C([H])(C([H])([H])[H])C4([H])C([H])([H])C1([H])C23C([H])([H])C5([H])[H]

$$$$
87:0:1
     RDKit          3D

 72 79  0  0  1  0  0  0  0  0999 V2000
    1.8581   -7.6016    5.4516 C   0  0  0  0  0  0  0  0  0  0  0  0
    2.6182   -7.9422    4.1624 C   0  0  2  0  0  0  0  0  0  0  0  0
    2.8704   -9.4547    3.9885 C   0  0  0  0  0  0  0  0  0  0  0  0
    4.3375   -9.6103    3.5528 C   0  0  0  0  0  0  0  0  0  0  0  0
    4.7436   -8.2149    3.0469 C   0  0  2  0  0  0  0  0  0  0  0  0
    6.2340   -7.9428    2.9339 C   0  0  0  0  0  0  0  0  0  0  0  0
    6.4966   -6.6045    2.2123 C   0  0  0  0  0  0  0  0  0  0  0  0
    5.2571   -5.9206    1.5317 C   0  0  2  0  0  0  0  0  0  0  0  0
    4.3326   -7.0309    0.9308 C   0  0  2  0  0  0  0  0  0  0  0  0
    3.0529   -6.5142    0.8863 O   0  0  0  0  0  0  0  0  0  0  0  0
    2.9629   -5.3689    1.7135 C   0  0  2  0  0  0  0  0  0  0  0  0
    2.6157   -4.2141    0.7818 C   0  0  1  0  0  0  0  0  0  0  0  0
    2.2725   -2.9162    1.5671 C   0  0  0  0  0  0  0  0  0  0  0  0
    3.5079   -4.0651   -0.4715 C   0  0  1  0  0  0  0  0  0  0  0  0
    2.7433   -3.2679   -1.5590 C   0  0  0  0  0  0  0  0  0  0  0  0
    3.5234   -3.0520   -2.8419 C   0  0  0  0  0  0  0  0  0  0  0  0
    4.8154   -2.3222   -2.5076 C   0  0  1  0  0  0  0  0  0  0  0  0
    4.5247   -0.8875   -2.0348 C   0  0  0  0  0  0  0  0  0  0  0  0
    5.6728   -3.1830   -1.5443 C   0  0  1  0  0  0  0  0  0  0  0  0
    7.0478   -2.5287   -1.2886 C   0  0  0  0  0  0  0  0  0  0  0  0
    7.0425   -1.6616   -0.0286 C   0  0  0  0  0  0  0  0  0  0  0  0
    6.2333   -2.2782    1.1094 C   0  0  2  0  0  0  0  0  0  0  0  0
    6.0213   -1.2395    2.2218 C   0  0  0  0  0  0  0  0  0  0  0  0
    6.8834   -3.4198    1.6608 O   0  0  0  0  0  0  0  0  0  0  0  0
    7.0382   -4.4796    0.6236 O   0  0  0  0  0  0  0  0  0  0  0  0
    5.7592   -4.9789    0.3507 C   0  0  2  0  0  0  0  0  0  0  0  0
    4.9789   -3.7112   -0.2256 C   0  0  2  0  0  0  0  0  0  0  0  0
    4.9564   -2.6197    0.6753 O   0  0  0  0  0  0  0  0  0  0  0  0
    4.2718   -5.2327    2.4772 C   0  0  1  0  0  0  0  0  0  0  0  0
    4.1852   -5.7982    3.9008 C   0  0  0  0  0  0  0  0  0  0  0  0
    4.0177   -7.3222    4.0585 C   0  0  1  0  0  0  0  0  0  0  0  0
    4.2909   -8.2012    1.6963 O   0  0  0  0  0  0  0  0  0  0  0  0
    2.4173   -7.9152    6.3425 H   0  0  0  0  0  0  0  0  0  0  0  0
    0.8897   -8.1010    5.4873 H   0  0  0  0  0  0  0  0  0  0  0  0
    1.6796   -6.5306    5.5353 H   0  0  0  0  0  0  0  0  0  0  0  0
    2.0244   -7.6125    3.3051 H   0  0  0  0  0  0  0  0  0  0  0  0
    2.6852  -10.0183    4.9101 H   0  0  0  0  0  0  0  0  0  0  0  0
    2.1996   -9.8615    3.2322 H   0  0  0  0  0  0  0  0  0  0  0  0
    4.9353   -9.8843    4.4239 H   0  0  0  0  0  0  0  0  0  0  0  0
    4.4477  -10.3941    2.8012 H   0  0  0  0  0  0  0  0  0  0  0  0
    6.7091   -7.9738    3.9159 H   0  0  0  0  0  0  0  0  0  0  0  0
    6.6772   -8.7571    2.3573 H   0  0  0  0  0  0  0  0  0  0  0  0
    6.9500   -5.9052    2.9228 H   0  0  0  0  0  0  0  0  0  0  0  0
    7.2728   -6.7948    1.4625 H   0  0  0  0  0  0  0  0  0  0  0  0
    4.6131   -7.3464   -0.0784 H   0  0  0  0  0  0  0  0  0  0  0  0
    2.1295   -5.5067    2.3966 H   0  0  0  0  0  0  0  0  0  0  0  0
    1.6995   -4.5666    0.3378 H   0  0  0  0  0  0  0  0  0  0  0  0
    3.1106   -2.5053    2.1388 H   0  0  0  0  0  0  0  0  0  0  0  0
    1.4834   -3.1075    2.2860 H   0  0  0  0  0  0  0  0  0  0  0  0
    1.9174   -2.1307    0.9073 H   0  0  0  0  0  0  0  0  0  0  0  0
    3.5859   -5.0549   -0.9007 H   0  0  0  0  0  0  0  0  0  0  0  0
    1.8235   -3.7887   -1.8256 H   0  0  0  0  0  0  0  0  0  0  0  0
    2.4527   -2.2935   -1.1793 H   0  0  0  0  0  0  0  0  0  0  0  0
    3.7675   -4.0068   -3.3089 H   0  0  0  0  0  0  0  0  0  0  0  0
    2.9350   -2.5001   -3.5733 H   0  0  0  0  0  0  0  0  0  0  0  0
    5.3623   -2.2395   -3.4484 H   0  0  0  0  0  0  0  0  0  0  0  0
    4.1711   -0.8595   -1.0041 H   0  0  0  0  0  0  0  0  0  0  0  0
    3.7569   -0.4167   -2.6507 H   0  0  0  0  0  0  0  0  0  0  0  0
    5.4151   -0.2625   -2.0988 H   0  0  0  0  0  0  0  0  0  0  0  0
    5.8821   -4.0547   -2.1493 H   0  0  0  0  0  0  0  0  0  0  0  0
    7.8401   -3.2746   -1.2185 H   0  0  0  0  0  0  0  0  0  0  0  0
    7.3209   -1.9288   -2.1451 H   0  0  0  0  0  0  0  0  0  0  0  0
    8.0557   -1.4273    0.3005 H   0  0  0  0  0  0  0  0  0  0  0  0
    6.5766   -0.7014   -0.2435 H   0  0  0  0  0  0  0  0  0  0  0  0
    5.5054   -1.6878    3.0753 H   0  0  0  0  0  0  0  0  0  0  0  0
    5.4356   -0.3858    1.8748 H   0  0  0  0  0  0  0  0  0  0  0  0
    6.9722   -0.8395    2.5633 H   0  0  0  0  0  0  0  0  0  0  0  0
    5.9111   -5.6456   -0.4809 H   0  0  0  0  0  0  0  0  0  0  0  0
    4.5459   -4.1845    2.5918 H   0  0  0  0  0  0  0  0  0  0  0  0
    5.0944   -5.5086    4.4175 H   0  0  0  0  0  0  0  0  0  0  0  0
    3.3873   -5.2897    4.4395 H   0  0  0  0  0  0  0  0  0  0  0  0
    4.4817   -7.5414    5.0228 H   0  0  0  0  0  0  0  0  0  0  0  0
  1  2  1  0
  1 33  1  0
  1 34  1  0
  1 35  1  0
  2 31  1  0
  2  3  1  0
  2 36  1  6
  3  4  1  0
  3 37  1  0
  3 38  1  0
  5  4  1  1
  4 39  1  0
  4 40  1  0
  5 31  1  0
  5 32  1  0
  5  6  1  0
  6  7  1  0
  6 41  1  0
  6 42  1  0
  8  7  1  1
  7 43  1  0
  7 44  1  0
  8 26  1  0
  8 29  1  0
  8  9  1  0
  9 10  1  0
  9 32  1  0
  9 45  1  6
 10 11  1  0
 11 12  1  0
 11 29  1  0
 11 46  1  1
 12 13  1  0
 12 14  1  0
 12 47  1  6
 13 48  1  0
 13 49  1  0
 13 50  1  0
 14 27  1  0
 14 15  1  0
 14 51  1  6
 15 16  1  0
 15 52  1  0
 15 53  1  0
 16 17  1  0
 16 54  1  0
 16 55  1  0
 17 18  1  0
 17 19  1  0
 17 56  1  6
 18 57  1  0
 18 58  1  0
 18 59  1  0
 19 27  1  0
 19 20  1  0
 19 60  1  6
 20 21  1  0
 20 61  1  0
 20 62  1  0
 21 22  1  0
 21 63  1  0
 21 64  1  0
 22 28  1  0
 22 23  1  1
 22 24  1  0
 23 65  1  0
 23 66  1  0
 23 67  1  0
 24 25  1  0
 25 26  1  0
 26 27  1  0
 26 68  1  6
 27 28  1  1
 29 30  1  0
 29 69  1  1
 30 31  1  0
 30 70  1  0
 30 71  1  0
 31 72  1  1
M  END
>  <i_m_ct_stereo_status>  (332) 
1

>  <s_m_source_file>  (332) 
/var/tmp/pbs.5076255.sched01/tmp7onimy_i/150cvk1qxg3.sdf

>  <i_m_source_file_index>  (332) 
6

>  <i_lp_mmshare_version>  (332) 
48012

>  <i_f3d_flags>  (332) 
0

>  <s_epik_input>  (332) 
W0NIMl0xW0NIMl1bQ0BASF0oW0NIM10pW0NAQEhdKFtDQF0xMjMpW0NIMl1bQ0BIXTRbQ0BAXTUoW0NIMl1bQ0gyXTIpW0NAQEhdKE8zKU9bQ0BASF00W0NAQEhdKFtDSDNdKVtDQEBIXTZbQ0BdNzhbQ0BASF0oW0NASF0oW0NIM10pW0NIMl1bQ0gyXTYpW0NIMl1bQ0gyXVtDQF0oTzgpKFtDSDNdKU9PW0NAQEhdNTc=

>  <s_epik_cmdline>  (332) 
J2VwaWtfcHl0aG9uJywgJy1waHQnLCAnMi4wJywgJy1waCcsICc3LjAnLCAnLXRuJywgJzgnLCAnLW1hJywgJzIwMCcsICctaW1hZScsICc8aW5maWxlLm1hZT4nLCAnLW9tYWUnLCAnPG91dGZpbGUubWFlPic=

>  <r_lp_tautomer_probability>  (332) 
1

>  <r_epik_Ionization_Penalty>  (332) 
9.40115e-13

>  <r_epik_Ionization_Penalty_Charging>  (332) 
0

>  <r_epik_Ionization_Penalty_Neutral>  (332) 
9.40115e-13

>  <r_epik_State_Penalty>  (332) 
-0

>  <r_epik_Charging_Adjusted_Penalty>  (332) 
0

>  <i_epik_Tot_Q>  (332) 
0

>  <i_epik_Tot_abs_Q>  (332) 
0

>  <s_epik_Chemistry_Notes>  (332) 
This compound contains an acetal/aminal-like group ( X-CH(R)-Y where X, Y are N, S, or O) that may be acid/base labile, releasing an aldehyde.

>  <s_lp_Force_Field>  (332) 
OPLS3e

>  <r_lp_Energy>  (332) 
63.4789

>  <b_lp_Chiralities_Consistent>  (332) 
1

>  <s_lp_Variant>  (332) 
87:0-1

>  <s_i_glide_gridfile>  (332) 
pfpi4k_grid

>  <i_i_glide_lignum>  (332) 
6

>  <i_i_glide_rotatable_bonds>  (332) 
0

>  <r_i_docking_score>  (332) 
-2.76897

>  <r_i_glide_ligand_efficiency>  (332) 
-0.0865302

>  <r_i_glide_ligand_efficiency_sa>  (332) 
-0.274716

>  <r_i_glide_ligand_efficiency_ln>  (332) 
-0.620047

>  <r_i_glide_gscore>  (332) 
-2.76897

>  <r_i_glide_lipo>  (332) 
-0.716472

>  <r_i_glide_hbond>  (332) 
0

>  <r_i_glide_metal>  (332) 
-0

>  <r_i_glide_rewards>  (332) 
-0.675536

>  <r_i_glide_evdw>  (332) 
-25.3582

>  <r_i_glide_ecoul>  (332) 
-0.726982

>  <r_i_glide_erotb>  (332) 
0

>  <r_i_glide_esite>  (332) 
0

>  <r_i_glide_emodel>  (332) 
-30.4848

>  <r_i_glide_energy>  (332) 
-26.0852

>  <r_i_glide_einternal>  (332) 
0

>  <r_i_glide_intrahb_reward>  (332) 
-0

>  <i_i_glide_confnum>  (332) 
2

>  <i_i_glide_posenum>  (332) 
18

>  <r_i_glide_eff_state_penalty>  (332) 
0

>  <ligand_id>  (332) 
87

>  <original_smiles>  (332) 
CC1CCC23CCC45C(OC(C(C)C6CCC(C)C7CCC8(C)OOC4C76O8)C5CC12)O3

>  <smiles>  (332) 
[H]C([H])([H])C12OOC3([H])C4(O1)C([H])(C([H])([H])C2([H])[H])C([H])(C([H])([H])[H])C([H])([H])C([H])([H])C4([H])C([H])(C([H])([H])[H])C1([H])OC2([H])OC45C([H])([H])C([H])([H])C([H])(C([H])([H])[H])C4([H])C([H])([H])C1([H])C23C([H])([H])C5([H])[H]

$$$$
87:0:2
     RDKit          3D

 72 79  0  0  1  0  0  0  0  0999 V2000
    2.9350   -8.2902    5.7974 C   0  0  0  0  0  0  0  0  0  0  0  0
    3.5009   -8.5049    4.3831 C   0  0  2  0  0  0  0  0  0  0  0  0
    3.8627   -9.9784    4.1025 C   0  0  0  0  0  0  0  0  0  0  0  0
    5.2463   -9.9647    3.4304 C   0  0  0  0  0  0  0  0  0  0  0  0
    5.4362   -8.5277    2.9319 C   0  0  2  0  0  0  0  0  0  0  0  0
    6.8623   -8.0999    2.6080 C   0  0  0  0  0  0  0  0  0  0  0  0
    6.8775   -6.7144    1.9256 C   0  0  0  0  0  0  0  0  0  0  0  0
    5.4818   -6.1399    1.4773 C   0  0  2  0  0  0  0  0  0  0  0  0
    4.5894   -7.3181    0.9724 C   0  0  2  0  0  0  0  0  0  0  0  0
    3.2775   -6.9200    1.1505 O   0  0  0  0  0  0  0  0  0  0  0  0
    3.1890   -5.8301    2.0467 C   0  0  2  0  0  0  0  0  0  0  0  0
    2.5713   -4.6905    1.2415 C   0  0  1  0  0  0  0  0  0  0  0  0
    2.2563   -3.4617    2.1417 C   0  0  0  0  0  0  0  0  0  0  0  0
    3.2407   -4.4172   -0.1426 C   0  0  1  0  0  0  0  0  0  0  0  0
    2.2689   -3.6374   -1.0428 C   0  0  0  0  0  0  0  0  0  0  0  0
    2.8285   -3.2523   -2.4167 C   0  0  0  0  0  0  0  0  0  0  0  0
    4.0900   -2.4299   -2.2460 C   0  0  1  0  0  0  0  0  0  0  0  0
    3.7557   -1.0561   -1.6650 C   0  0  0  0  0  0  0  0  0  0  0  0
    5.1451   -3.2655   -1.4748 C   0  0  1  0  0  0  0  0  0  0  0  0
    6.4782   -2.4888   -1.3972 C   0  0  0  0  0  0  0  0  0  0  0  0
    6.5999   -1.6654   -0.1055 C   0  0  0  0  0  0  0  0  0  0  0  0
    6.0405   -2.4011    1.1225 C   0  0  2  0  0  0  0  0  0  0  0  0
    5.9044   -1.4209    2.2857 C   0  0  0  0  0  0  0  0  0  0  0  0
    6.8823   -3.4607    1.5443 O   0  0  0  0  0  0  0  0  0  0  0  0
    6.9626   -4.4889    0.4472 O   0  0  0  0  0  0  0  0  0  0  0  0
    5.6864   -5.0947    0.2869 C   0  0  2  0  0  0  0  0  0  0  0  0
    4.7062   -3.9089   -0.0964 C   0  0  2  0  0  0  0  0  0  0  0  0
    4.7384   -2.8579    0.8583 O   0  0  0  0  0  0  0  0  0  0  0  0
    4.5975   -5.5888    2.5932 C   0  0  1  0  0  0  0  0  0  0  0  0
    4.7952   -6.2078    3.9911 C   0  0  0  0  0  0  0  0  0  0  0  0
    4.8078   -7.7477    4.0954 C   0  0  1  0  0  0  0  0  0  0  0  0
    4.7601   -8.5073    1.6817 O   0  0  0  0  0  0  0  0  0  0  0  0
    3.6526   -8.5769    6.5680 H   0  0  0  0  0  0  0  0  0  0  0  0
    2.0347   -8.8873    5.9523 H   0  0  0  0  0  0  0  0  0  0  0  0
    2.6686   -7.2471    5.9614 H   0  0  0  0  0  0  0  0  0  0  0  0
    2.7525   -8.2096    3.6490 H   0  0  0  0  0  0  0  0  0  0  0  0
    3.8827  -10.5896    5.0079 H   0  0  0  0  0  0  0  0  0  0  0  0
    3.1228  -10.4225    3.4339 H   0  0  0  0  0  0  0  0  0  0  0  0
    6.0009  -10.2116    4.1782 H   0  0  0  0  0  0  0  0  0  0  0  0
    5.3166  -10.7076    2.6362 H   0  0  0  0  0  0  0  0  0  0  0  0
    7.4888   -8.1158    3.5034 H   0  0  0  0  0  0  0  0  0  0  0  0
    7.2782   -8.8429    1.9227 H   0  0  0  0  0  0  0  0  0  0  0  0
    7.3709   -5.9976    2.5862 H   0  0  0  0  0  0  0  0  0  0  0  0
    7.5299   -6.8016    1.0551 H   0  0  0  0  0  0  0  0  0  0  0  0
    4.7349   -7.5544   -0.0824 H   0  0  0  0  0  0  0  0  0  0  0  0
    2.5026   -6.0966    2.8419 H   0  0  0  0  0  0  0  0  0  0  0  0
    1.5978   -5.0954    0.9755 H   0  0  0  0  0  0  0  0  0  0  0  0
    3.1328   -3.0120    2.6039 H   0  0  0  0  0  0  0  0  0  0  0  0
    1.5923   -3.7578    2.9517 H   0  0  0  0  0  0  0  0  0  0  0  0
    1.7507   -2.6683    1.5962 H   0  0  0  0  0  0  0  0  0  0  0  0
    3.3252   -5.3780   -0.6514 H   0  0  0  0  0  0  0  0  0  0  0  0
    1.3800   -4.2475   -1.2037 H   0  0  0  0  0  0  0  0  0  0  0  0
    1.9573   -2.7431   -0.5303 H   0  0  0  0  0  0  0  0  0  0  0  0
    3.0814   -4.1135   -3.0273 H   0  0  0  0  0  0  0  0  0  0  0  0
    2.0676   -2.7244   -2.9870 H   0  0  0  0  0  0  0  0  0  0  0  0
    4.4666   -2.2637   -3.2521 H   0  0  0  0  0  0  0  0  0  0  0  0
    3.5582   -1.1129   -0.5925 H   0  0  0  0  0  0  0  0  0  0  0  0
    2.8506   -0.6604   -2.1382 H   0  0  0  0  0  0  0  0  0  0  0  0
    4.5521   -0.3328   -1.8407 H   0  0  0  0  0  0  0  0  0  0  0  0
    5.3449   -4.1091   -2.1436 H   0  0  0  0  0  0  0  0  0  0  0  0
    7.3281   -3.1531   -1.4922 H   0  0  0  0  0  0  0  0  0  0  0  0
    6.5490   -1.8405   -2.2633 H   0  0  0  0  0  0  0  0  0  0  0  0
    7.6260   -1.3486    0.0737 H   0  0  0  0  0  0  0  0  0  0  0  0
    6.0280   -0.7491   -0.2299 H   0  0  0  0  0  0  0  0  0  0  0  0
    5.5738   -1.9560    3.1809 H   0  0  0  0  0  0  0  0  0  0  0  0
    5.1890   -0.6288    2.0613 H   0  0  0  0  0  0  0  0  0  0  0  0
    6.8715   -0.9528    2.4806 H   0  0  0  0  0  0  0  0  0  0  0  0
    5.7587   -5.7117   -0.6123 H   0  0  0  0  0  0  0  0  0  0  0  0
    4.7783   -4.5271    2.7267 H   0  0  0  0  0  0  0  0  0  0  0  0
    5.7508   -5.8434    4.3724 H   0  0  0  0  0  0  0  0  0  0  0  0
    4.0561   -5.7993    4.6795 H   0  0  0  0  0  0  0  0  0  0  0  0
    5.4362   -7.9460    4.9665 H   0  0  0  0  0  0  0  0  0  0  0  0
  1  2  1  0
  1 33  1  0
  1 34  1  0
  1 35  1  0
  2 31  1  0
  2  3  1  0
  2 36  1  6
  3  4  1  0
  3 37  1  0
  3 38  1  0
  5  4  1  1
  4 39  1  0
  4 40  1  0
  5 31  1  0
  5 32  1  0
  5  6  1  0
  6  7  1  0
  6 41  1  0
  6 42  1  0
  8  7  1  1
  7 43  1  0
  7 44  1  0
  8 26  1  0
  8 29  1  0
  8  9  1  0
  9 10  1  0
  9 32  1  0
  9 45  1  6
 10 11  1  0
 11 12  1  0
 11 29  1  0
 11 46  1  1
 12 13  1  0
 12 14  1  0
 12 47  1  6
 13 48  1  0
 13 49  1  0
 13 50  1  0
 14 27  1  0
 14 15  1  0
 14 51  1  6
 15 16  1  0
 15 52  1  0
 15 53  1  0
 16 17  1  0
 16 54  1  0
 16 55  1  0
 17 18  1  0
 17 19  1  0
 17 56  1  6
 18 57  1  0
 18 58  1  0
 18 59  1  0
 19 27  1  0
 19 20  1  0
 19 60  1  6
 20 21  1  0
 20 61  1  0
 20 62  1  0
 21 22  1  0
 21 63  1  0
 21 64  1  0
 22 28  1  0
 22 23  1  1
 22 24  1  0
 23 65  1  0
 23 66  1  0
 23 67  1  0
 24 25  1  0
 25 26  1  0
 26 27  1  0
 26 68  1  6
 27 28  1  1
 29 30  1  0
 29 69  1  1
 30 31  1  0
 30 70  1  0
 30 71  1  0
 31 72  1  1
M  END
>  <i_m_ct_stereo_status>  (333) 
1

>  <s_m_source_file>  (333) 
/var/tmp/pbs.5076255.sched01/tmp7onimy_i/150cvk1qxg3.sdf

>  <i_m_source_file_index>  (333) 
6

>  <i_lp_mmshare_version>  (333) 
48012

>  <i_f3d_flags>  (333) 
0

>  <s_epik_input>  (333) 
W0NIMl0xW0NIMl1bQ0BASF0oW0NIM10pW0NAQEhdKFtDQF0xMjMpW0NIMl1bQ0BIXTRbQ0BAXTUoW0NIMl1bQ0gyXTIpW0NAQEhdKE8zKU9bQ0BASF00W0NAQEhdKFtDSDNdKVtDQEBIXTZbQ0BdNzhbQ0BASF0oW0NASF0oW0NIM10pW0NIMl1bQ0gyXTYpW0NIMl1bQ0gyXVtDQF0oTzgpKFtDSDNdKU9PW0NAQEhdNTc=

>  <s_epik_cmdline>  (333) 
J2VwaWtfcHl0aG9uJywgJy1waHQnLCAnMi4wJywgJy1waCcsICc3LjAnLCAnLXRuJywgJzgnLCAnLW1hJywgJzIwMCcsICctaW1hZScsICc8aW5maWxlLm1hZT4nLCAnLW9tYWUnLCAnPG91dGZpbGUubWFlPic=

>  <r_lp_tautomer_probability>  (333) 
1

>  <r_epik_Ionization_Penalty>  (333) 
9.40115e-13

>  <r_epik_Ionization_Penalty_Charging>  (333) 
0

>  <r_epik_Ionization_Penalty_Neutral>  (333) 
9.40115e-13

>  <r_epik_State_Penalty>  (333) 
-0

>  <r_epik_Charging_Adjusted_Penalty>  (333) 
0

>  <i_epik_Tot_Q>  (333) 
0

>  <i_epik_Tot_abs_Q>  (333) 
0

>  <s_epik_Chemistry_Notes>  (333) 
This compound contains an acetal/aminal-like group ( X-CH(R)-Y where X, Y are N, S, or O) that may be acid/base labile, releasing an aldehyde.

>  <s_lp_Force_Field>  (333) 
OPLS3e

>  <r_lp_Energy>  (333) 
63.4789

>  <b_lp_Chiralities_Consistent>  (333) 
1

>  <s_lp_Variant>  (333) 
87:0-1

>  <s_i_glide_gridfile>  (333) 
pfpi4k_grid

>  <i_i_glide_lignum>  (333) 
6

>  <i_i_glide_rotatable_bonds>  (333) 
0

>  <r_i_docking_score>  (333) 
-2.51829

>  <r_i_glide_ligand_efficiency>  (333) 
-0.0786966

>  <r_i_glide_ligand_efficiency_sa>  (333) 
-0.249846

>  <r_i_glide_ligand_efficiency_ln>  (333) 
-0.563914

>  <r_i_glide_gscore>  (333) 
-2.51829

>  <r_i_glide_lipo>  (333) 
-0.560724

>  <r_i_glide_hbond>  (333) 
0

>  <r_i_glide_metal>  (333) 
-0

>  <r_i_glide_rewards>  (333) 
-0.648824

>  <r_i_glide_evdw>  (333) 
-24.4314

>  <r_i_glide_ecoul>  (333) 
-0.581151

>  <r_i_glide_erotb>  (333) 
0

>  <r_i_glide_esite>  (333) 
0

>  <r_i_glide_emodel>  (333) 
-29.1813

>  <r_i_glide_energy>  (333) 
-25.0126

>  <r_i_glide_einternal>  (333) 
0

>  <r_i_glide_intrahb_reward>  (333) 
-0

>  <i_i_glide_confnum>  (333) 
1

>  <i_i_glide_posenum>  (333) 
32

>  <r_i_glide_eff_state_penalty>  (333) 
0

>  <ligand_id>  (333) 
87

>  <original_smiles>  (333) 
CC1CCC23CCC45C(OC(C(C)C6CCC(C)C7CCC8(C)OOC4C76O8)C5CC12)O3

>  <smiles>  (333) 
[H]C([H])([H])C12OOC3([H])C4(O1)C([H])(C([H])([H])C2([H])[H])C([H])(C([H])([H])[H])C([H])([H])C([H])([H])C4([H])C([H])(C([H])([H])[H])C1([H])OC2([H])OC45C([H])([H])C([H])([H])C([H])(C([H])([H])[H])C4([H])C([H])([H])C1([H])C23C([H])([H])C5([H])[H]

$$$$
88:0:0
     RDKit          3D

 32 35  0  0  1  0  0  0  0  0999 V2000
    8.0972   -5.7714    1.4067 C   0  0  0  0  0  0  0  0  0  0  0  0
    9.0128   -5.0951    0.6488 N   0  0  0  0  0  0  0  0  0  0  0  0
    8.3801   -3.9549    0.4772 C   0  0  0  0  0  0  0  0  0  0  0  0
    7.1411   -3.9673    0.9174 N   0  0  0  0  0  0  0  0  0  0  0  0
    6.0700   -2.9794    0.7699 C   0  0  2  0  0  0  0  0  0  0  0  0
    4.6822   -3.6703    0.6150 C   0  0  2  0  0  0  0  0  0  0  0  0
    4.6688   -4.5723   -0.6480 C   0  0  0  0  0  0  0  0  0  0  0  0
    4.9373   -3.7119   -1.8993 C   0  0  1  0  0  0  0  0  0  0  0  0
    3.8263   -2.6606   -2.0263 C   0  0  0  0  0  0  0  0  0  0  0  0
    3.8155   -1.7649   -0.7626 C   0  0  1  0  0  0  0  0  0  0  0  0
    3.5639   -2.6140    0.4954 C   0  0  0  0  0  0  0  0  0  0  0  0
    5.1646   -1.0456   -0.6247 C   0  0  0  0  0  0  0  0  0  0  0  0
    6.2812   -2.0982   -0.4974 C   0  0  2  0  0  0  0  0  0  0  0  0
    6.2890   -2.9798   -1.7811 C   0  0  0  0  0  0  0  0  0  0  0  0
    6.9816   -5.1028    1.6564 N   0  0  0  0  0  0  0  0  0  0  0  0
    8.2740   -6.7769    1.7813 H   0  0  0  0  0  0  0  0  0  0  0  0
    8.8179   -3.1542   -0.1005 H   0  0  0  0  0  0  0  0  0  0  0  0
    6.0715   -2.3506    1.6631 H   0  0  0  0  0  0  0  0  0  0  0  0
    4.4548   -4.2730    1.4990 H   0  0  0  0  0  0  0  0  0  0  0  0
    5.4105   -5.3661   -0.5896 H   0  0  0  0  0  0  0  0  0  0  0  0
    3.7139   -5.0900   -0.7189 H   0  0  0  0  0  0  0  0  0  0  0  0
    4.9506   -4.3590   -2.7751 H   0  0  0  0  0  0  0  0  0  0  0  0
    4.0007   -2.0483   -2.9132 H   0  0  0  0  0  0  0  0  0  0  0  0
    2.8617   -3.1543   -2.1593 H   0  0  0  0  0  0  0  0  0  0  0  0
    3.0136   -1.0327   -0.8569 H   0  0  0  0  0  0  0  0  0  0  0  0
    2.5870   -3.0981    0.4471 H   0  0  0  0  0  0  0  0  0  0  0  0
    3.5589   -1.9823    1.3831 H   0  0  0  0  0  0  0  0  0  0  0  0
    5.3348   -0.4170   -1.4970 H   0  0  0  0  0  0  0  0  0  0  0  0
    5.1571   -0.3867    0.2384 H   0  0  0  0  0  0  0  0  0  0  0  0
    7.2128   -1.5554   -0.3983 H   0  0  0  0  0  0  0  0  0  0  0  0
    7.0824   -3.7253   -1.7868 H   0  0  0  0  0  0  0  0  0  0  0  0
    6.4878   -2.3816   -2.6715 H   0  0  0  0  0  0  0  0  0  0  0  0
  1 15  2  0
  1  2  1  0
  1 16  1  0
  2  3  2  0
  3  4  1  0
  3 17  1  0
  4  5  1  0
  4 15  1  0
  5 13  1  0
  5  6  1  0
  5 18  1  1
  6 11  1  0
  6  7  1  0
  6 19  1  1
  7  8  1  0
  7 20  1  0
  7 21  1  0
  8 14  1  0
  8  9  1  0
  8 22  1  6
  9 10  1  0
  9 23  1  0
  9 24  1  0
 10 11  1  0
 10 12  1  0
 10 25  1  6
 11 26  1  0
 11 27  1  0
 12 13  1  0
 12 28  1  0
 12 29  1  0
 13 14  1  0
 13 30  1  1
 14 31  1  0
 14 32  1  0
M  END
>  <i_m_ct_stereo_status>  (334) 
1

>  <s_m_source_file>  (334) 
/var/tmp/pbs.5076255.sched01/tmp7onimy_i/150cvk1qxg3.sdf

>  <i_m_source_file_index>  (334) 
7

>  <i_lp_mmshare_version>  (334) 
48012

>  <i_f3d_flags>  (334) 
0

>  <s_epik_input>  (334) 
bjFbY0hdbltjSF1uMVtDQEhdKFtDQEBIXTIzKVtDQEhdNFtDSDJdW0NAQEhdKFtDSDJdMylbQ0gyXVtDQEBIXShbQ0gyXTIpW0NIMl00

>  <s_epik_cmdline>  (334) 
J2VwaWtfcHl0aG9uJywgJy1waHQnLCAnMi4wJywgJy1waCcsICc3LjAnLCAnLXRuJywgJzgnLCAnLW1hJywgJzIwMCcsICctaW1hZScsICc8aW5maWxlLm1hZT4nLCAnLW9tYWUnLCAnPG91dGZpbGUubWFlPic=

>  <r_lp_tautomer_probability>  (334) 
1

>  <r_epik_Ionization_Penalty>  (334) 
0.000187985

>  <r_epik_Ionization_Penalty_Charging>  (334) 
0

>  <r_epik_Ionization_Penalty_Neutral>  (334) 
0.000187985

>  <r_epik_State_Penalty>  (334) 
-0

>  <r_epik_Charging_Adjusted_Penalty>  (334) 
0

>  <i_epik_Tot_Q>  (334) 
0

>  <i_epik_Tot_abs_Q>  (334) 
0

>  <s_lp_Force_Field>  (334) 
OPLS3e

>  <r_lp_Energy>  (334) 
5.71646

>  <b_lp_Chiralities_Consistent>  (334) 
1

>  <s_lp_Variant>  (334) 
88:0-1

>  <s_i_glide_gridfile>  (334) 
pfpi4k_grid

>  <i_i_glide_lignum>  (334) 
7

>  <i_i_glide_rotatable_bonds>  (334) 
1

>  <r_i_docking_score>  (334) 
-3.41128

>  <r_i_glide_ligand_efficiency>  (334) 
-0.227418

>  <r_i_glide_ligand_efficiency_sa>  (334) 
-0.560862

>  <r_i_glide_ligand_efficiency_ln>  (334) 
-0.919965

>  <r_i_glide_gscore>  (334) 
-3.41128

>  <r_i_glide_lipo>  (334) 
-0.163524

>  <r_i_glide_hbond>  (334) 
-0.00425881

>  <r_i_glide_metal>  (334) 
-0

>  <r_i_glide_rewards>  (334) 
-2.37814

>  <r_i_glide_evdw>  (334) 
-20.5675

>  <r_i_glide_ecoul>  (334) 
-1.56246

>  <r_i_glide_erotb>  (334) 
0.397388

>  <r_i_glide_esite>  (334) 
0

>  <r_i_glide_emodel>  (334) 
-25.092

>  <r_i_glide_energy>  (334) 
-22.1299

>  <r_i_glide_einternal>  (334) 
2.61344

>  <r_i_glide_intrahb_reward>  (334) 
-0

>  <i_i_glide_confnum>  (334) 
6

>  <i_i_glide_posenum>  (334) 
1

>  <r_i_glide_eff_state_penalty>  (334) 
0

>  <ligand_id>  (334) 
88

>  <original_smiles>  (334) 
c1ncn(C2C3CC4CC(C3)CC2C4)n1

>  <smiles>  (334) 
[H]c1nc([H])n(C2([H])C3([H])C([H])([H])C4([H])C([H])([H])C([H])(C3([H])[H])C([H])([H])C2([H])C4([H])[H])n1

$$$$
88:0:1
     RDKit          3D

 32 35  0  0  1  0  0  0  0  0999 V2000
    3.4065   -7.1702    1.3376 C   0  0  0  0  0  0  0  0  0  0  0  0
    4.6664   -7.5101    0.9184 N   0  0  0  0  0  0  0  0  0  0  0  0
    5.2238   -6.3047    0.9333 C   0  0  0  0  0  0  0  0  0  0  0  0
    4.3919   -5.3102    1.2145 N   0  0  0  0  0  0  0  0  0  0  0  0
    4.5938   -3.8531    1.2325 C   0  0  2  0  0  0  0  0  0  0  0  0
    3.3190   -3.0841    0.7670 C   0  0  2  0  0  0  0  0  0  0  0  0
    2.9650   -3.4798   -0.6928 C   0  0  0  0  0  0  0  0  0  0  0  0
    4.1383   -3.1017   -1.6250 C   0  0  1  0  0  0  0  0  0  0  0  0
    4.3621   -1.5794   -1.5615 C   0  0  0  0  0  0  0  0  0  0  0  0
    4.6989   -1.1645   -0.1095 C   0  0  1  0  0  0  0  0  0  0  0  0
    3.5453   -1.5570    0.8331 C   0  0  0  0  0  0  0  0  0  0  0  0
    5.9761   -1.8906    0.3537 C   0  0  0  0  0  0  0  0  0  0  0  0
    5.7545   -3.4171    0.2859 C   0  0  2  0  0  0  0  0  0  0  0  0
    5.4291   -3.8152   -1.1791 C   0  0  0  0  0  0  0  0  0  0  0  0
    3.2055   -5.8749    1.5960 N   0  0  0  0  0  0  0  0  0  0  0  0
    2.6049   -7.8974    1.4279 H   0  0  0  0  0  0  0  0  0  0  0  0
    6.2477   -6.1554    0.6295 H   0  0  0  0  0  0  0  0  0  0  0  0
    4.8281   -3.5602    2.2588 H   0  0  0  0  0  0  0  0  0  0  0  0
    2.4703   -3.3060    1.4209 H   0  0  0  0  0  0  0  0  0  0  0  0
    2.7619   -4.5491   -0.7637 H   0  0  0  0  0  0  0  0  0  0  0  0
    2.0398   -2.9926   -1.0190 H   0  0  0  0  0  0  0  0  0  0  0  0
    3.8879   -3.4075   -2.6422 H   0  0  0  0  0  0  0  0  0  0  0  0
    5.1798   -1.3087   -2.2305 H   0  0  0  0  0  0  0  0  0  0  0  0
    3.4693   -1.0632   -1.9159 H   0  0  0  0  0  0  0  0  0  0  0  0
    4.8439   -0.0843   -0.0666 H   0  0  0  0  0  0  0  0  0  0  0  0
    2.6312   -1.0232    0.5543 H   0  0  0  0  0  0  0  0  0  0  0  0
    3.7733   -1.2571    1.8570 H   0  0  0  0  0  0  0  0  0  0  0  0
    6.8156   -1.6061   -0.2783 H   0  0  0  0  0  0  0  0  0  0  0  0
    6.2430   -1.5785    1.3650 H   0  0  0  0  0  0  0  0  0  0  0  0
    6.6851   -3.8826    0.6073 H   0  0  0  0  0  0  0  0  0  0  0  0
    5.2887   -4.8865   -1.3070 H   0  0  0  0  0  0  0  0  0  0  0  0
    6.2601   -3.5570   -1.8361 H   0  0  0  0  0  0  0  0  0  0  0  0
  1 15  2  0
  1  2  1  0
  1 16  1  0
  2  3  2  0
  3  4  1  0
  3 17  1  0
  4  5  1  0
  4 15  1  0
  5 13  1  0
  5  6  1  0
  5 18  1  1
  6 11  1  0
  6  7  1  0
  6 19  1  1
  7  8  1  0
  7 20  1  0
  7 21  1  0
  8 14  1  0
  8  9  1  0
  8 22  1  6
  9 10  1  0
  9 23  1  0
  9 24  1  0
 10 11  1  0
 10 12  1  0
 10 25  1  6
 11 26  1  0
 11 27  1  0
 12 13  1  0
 12 28  1  0
 12 29  1  0
 13 14  1  0
 13 30  1  1
 14 31  1  0
 14 32  1  0
M  END
>  <i_m_ct_stereo_status>  (335) 
1

>  <s_m_source_file>  (335) 
/var/tmp/pbs.5076255.sched01/tmp7onimy_i/150cvk1qxg3.sdf

>  <i_m_source_file_index>  (335) 
7

>  <i_lp_mmshare_version>  (335) 
48012

>  <i_f3d_flags>  (335) 
0

>  <s_epik_input>  (335) 
bjFbY0hdbltjSF1uMVtDQEhdKFtDQEBIXTIzKVtDQEhdNFtDSDJdW0NAQEhdKFtDSDJdMylbQ0gyXVtDQEBIXShbQ0gyXTIpW0NIMl00

>  <s_epik_cmdline>  (335) 
J2VwaWtfcHl0aG9uJywgJy1waHQnLCAnMi4wJywgJy1waCcsICc3LjAnLCAnLXRuJywgJzgnLCAnLW1hJywgJzIwMCcsICctaW1hZScsICc8aW5maWxlLm1hZT4nLCAnLW9tYWUnLCAnPG91dGZpbGUubWFlPic=

>  <r_lp_tautomer_probability>  (335) 
1

>  <r_epik_Ionization_Penalty>  (335) 
0.000187985

>  <r_epik_Ionization_Penalty_Charging>  (335) 
0

>  <r_epik_Ionization_Penalty_Neutral>  (335) 
0.000187985

>  <r_epik_State_Penalty>  (335) 
-0

>  <r_epik_Charging_Adjusted_Penalty>  (335) 
0

>  <i_epik_Tot_Q>  (335) 
0

>  <i_epik_Tot_abs_Q>  (335) 
0

>  <s_lp_Force_Field>  (335) 
OPLS3e

>  <r_lp_Energy>  (335) 
5.71646

>  <b_lp_Chiralities_Consistent>  (335) 
1

>  <s_lp_Variant>  (335) 
88:0-1

>  <s_i_glide_gridfile>  (335) 
pfpi4k_grid

>  <i_i_glide_lignum>  (335) 
7

>  <i_i_glide_rotatable_bonds>  (335) 
1

>  <r_i_docking_score>  (335) 
-3.19108

>  <r_i_glide_ligand_efficiency>  (335) 
-0.212739

>  <r_i_glide_ligand_efficiency_sa>  (335) 
-0.524659

>  <r_i_glide_ligand_efficiency_ln>  (335) 
-0.860583

>  <r_i_glide_gscore>  (335) 
-3.19108

>  <r_i_glide_lipo>  (335) 
-0.209539

>  <r_i_glide_hbond>  (335) 
0

>  <r_i_glide_metal>  (335) 
-0

>  <r_i_glide_rewards>  (335) 
-2.3215

>  <r_i_glide_evdw>  (335) 
-19.6418

>  <r_i_glide_ecoul>  (335) 
-0.502288

>  <r_i_glide_erotb>  (335) 
0.397388

>  <r_i_glide_esite>  (335) 
0

>  <r_i_glide_emodel>  (335) 
-23.1565

>  <r_i_glide_energy>  (335) 
-20.1441

>  <r_i_glide_einternal>  (335) 
2.27186

>  <r_i_glide_intrahb_reward>  (335) 
-0

>  <i_i_glide_confnum>  (335) 
3

>  <i_i_glide_posenum>  (335) 
21

>  <r_i_glide_eff_state_penalty>  (335) 
0

>  <ligand_id>  (335) 
88

>  <original_smiles>  (335) 
c1ncn(C2C3CC4CC(C3)CC2C4)n1

>  <smiles>  (335) 
[H]c1nc([H])n(C2([H])C3([H])C([H])([H])C4([H])C([H])([H])C([H])(C3([H])[H])C([H])([H])C2([H])C4([H])[H])n1

$$$$
88:0:2
     RDKit          3D

 32 35  0  0  1  0  0  0  0  0999 V2000
    4.0293   -4.7028    3.1699 C   0  0  0  0  0  0  0  0  0  0  0  0
    5.3902   -4.8326    3.1380 N   0  0  0  0  0  0  0  0  0  0  0  0
    5.5985   -4.6523    1.8417 C   0  0  0  0  0  0  0  0  0  0  0  0
    4.4912   -4.3777    1.1421 N   0  0  0  0  0  0  0  0  0  0  0  0
    4.2891   -4.1122   -0.2839 C   0  0  2  0  0  0  0  0  0  0  0  0
    5.5695   -3.5395   -0.9586 C   0  0  2  0  0  0  0  0  0  0  0  0
    5.9443   -2.1691   -0.3366 C   0  0  0  0  0  0  0  0  0  0  0  0
    4.7789   -1.1811   -0.5551 C   0  0  1  0  0  0  0  0  0  0  0  0
    4.5380   -1.0054   -2.0716 C   0  0  0  0  0  0  0  0  0  0  0  0
    4.1962   -2.3638   -2.7160 C   0  0  1  0  0  0  0  0  0  0  0  0
    5.3402   -3.3701   -2.4771 C   0  0  0  0  0  0  0  0  0  0  0  0
    2.9174   -2.9115   -2.0678 C   0  0  0  0  0  0  0  0  0  0  0  0
    3.1381   -3.0942   -0.5467 C   0  0  2  0  0  0  0  0  0  0  0  0
    3.4944   -1.7293    0.0998 C   0  0  0  0  0  0  0  0  0  0  0  0
    3.4381   -4.4735    1.9992 N   0  0  0  0  0  0  0  0  0  0  0  0
    3.4663   -4.7882    4.0875 H   0  0  0  0  0  0  0  0  0  0  0  0
    6.5811   -4.6810    1.3967 H   0  0  0  0  0  0  0  0  0  0  0  0
    4.0331   -5.0648   -0.7464 H   0  0  0  0  0  0  0  0  0  0  0  0
    6.3979   -4.2359   -0.8308 H   0  0  0  0  0  0  0  0  0  0  0  0
    6.1471   -2.2498    0.7298 H   0  0  0  0  0  0  0  0  0  0  0  0
    6.8641   -1.7920   -0.7842 H   0  0  0  0  0  0  0  0  0  0  0  0
    5.0297   -0.2215   -0.1025 H   0  0  0  0  0  0  0  0  0  0  0  0
    3.7273   -0.2962   -2.2451 H   0  0  0  0  0  0  0  0  0  0  0  0
    5.4158   -0.5695   -2.5354 H   0  0  0  0  0  0  0  0  0  0  0  0
    4.0387   -2.2286   -3.7867 H   0  0  0  0  0  0  0  0  0  0  0  0
    6.2539   -3.0361   -2.9719 H   0  0  0  0  0  0  0  0  0  0  0  0
    5.0832   -4.3309   -2.9248 H   0  0  0  0  0  0  0  0  0  0  0  0
    2.0843   -2.2388   -2.2654 H   0  0  0  0  0  0  0  0  0  0  0  0
    2.6304   -3.8510   -2.5346 H   0  0  0  0  0  0  0  0  0  0  0  0
    2.2034   -3.4639   -0.1236 H   0  0  0  0  0  0  0  0  0  0  0  0
    3.6291   -1.8235    1.1770 H   0  0  0  0  0  0  0  0  0  0  0  0
    2.6766   -1.0129   -0.0148 H   0  0  0  0  0  0  0  0  0  0  0  0
  1 15  2  0
  1  2  1  0
  1 16  1  0
  2  3  2  0
  3  4  1  0
  3 17  1  0
  4  5  1  0
  4 15  1  0
  5 13  1  0
  5  6  1  0
  5 18  1  6
  6 11  1  0
  6  7  1  0
  6 19  1  6
  7  8  1  0
  7 20  1  0
  7 21  1  0
  8 14  1  0
  8  9  1  0
  8 22  1  1
  9 10  1  0
  9 23  1  0
  9 24  1  0
 10 11  1  0
 10 12  1  0
 10 25  1  6
 11 26  1  0
 11 27  1  0
 12 13  1  0
 12 28  1  0
 12 29  1  0
 13 14  1  0
 13 30  1  1
 14 31  1  0
 14 32  1  0
M  END
>  <i_m_ct_stereo_status>  (336) 
1

>  <s_m_source_file>  (336) 
/var/tmp/pbs.5076255.sched01/tmp7onimy_i/150cvk1qxg3.sdf

>  <i_m_source_file_index>  (336) 
7

>  <i_lp_mmshare_version>  (336) 
48012

>  <i_f3d_flags>  (336) 
0

>  <s_epik_input>  (336) 
bjFbY0hdbltjSF1uMVtDQEhdKFtDQEBIXTIzKVtDQEhdNFtDSDJdW0NAQEhdKFtDSDJdMylbQ0gyXVtDQEBIXShbQ0gyXTIpW0NIMl00

>  <s_epik_cmdline>  (336) 
J2VwaWtfcHl0aG9uJywgJy1waHQnLCAnMi4wJywgJy1waCcsICc3LjAnLCAnLXRuJywgJzgnLCAnLW1hJywgJzIwMCcsICctaW1hZScsICc8aW5maWxlLm1hZT4nLCAnLW9tYWUnLCAnPG91dGZpbGUubWFlPic=

>  <r_lp_tautomer_probability>  (336) 
1

>  <r_epik_Ionization_Penalty>  (336) 
0.000187985

>  <r_epik_Ionization_Penalty_Charging>  (336) 
0

>  <r_epik_Ionization_Penalty_Neutral>  (336) 
0.000187985

>  <r_epik_State_Penalty>  (336) 
-0

>  <r_epik_Charging_Adjusted_Penalty>  (336) 
0

>  <i_epik_Tot_Q>  (336) 
0

>  <i_epik_Tot_abs_Q>  (336) 
0

>  <s_lp_Force_Field>  (336) 
OPLS3e

>  <r_lp_Energy>  (336) 
5.71646

>  <b_lp_Chiralities_Consistent>  (336) 
1

>  <s_lp_Variant>  (336) 
88:0-1

>  <s_i_glide_gridfile>  (336) 
pfpi4k_grid

>  <i_i_glide_lignum>  (336) 
7

>  <i_i_glide_rotatable_bonds>  (336) 
1

>  <r_i_docking_score>  (336) 
-3.15866

>  <r_i_glide_ligand_efficiency>  (336) 
-0.210577

>  <r_i_glide_ligand_efficiency_sa>  (336) 
-0.519328

>  <r_i_glide_ligand_efficiency_ln>  (336) 
-0.851837

>  <r_i_glide_gscore>  (336) 
-3.15866

>  <r_i_glide_lipo>  (336) 
-0.419418

>  <r_i_glide_hbond>  (336) 
0

>  <r_i_glide_metal>  (336) 
-0

>  <r_i_glide_rewards>  (336) 
-2.11617

>  <r_i_glide_evdw>  (336) 
-19.1798

>  <r_i_glide_ecoul>  (336) 
-0.409745

>  <r_i_glide_erotb>  (336) 
0.397388

>  <r_i_glide_esite>  (336) 
0

>  <r_i_glide_emodel>  (336) 
-23.9832

>  <r_i_glide_energy>  (336) 
-19.5895

>  <r_i_glide_einternal>  (336) 
0.00030721

>  <r_i_glide_intrahb_reward>  (336) 
-0

>  <i_i_glide_confnum>  (336) 
1

>  <i_i_glide_posenum>  (336) 
23

>  <r_i_glide_eff_state_penalty>  (336) 
0

>  <ligand_id>  (336) 
88

>  <original_smiles>  (336) 
c1ncn(C2C3CC4CC(C3)CC2C4)n1

>  <smiles>  (336) 
[H]c1nc([H])n(C2([H])C3([H])C([H])([H])C4([H])C([H])([H])C([H])(C3([H])[H])C([H])([H])C2([H])C4([H])[H])n1

$$$$
89:0:0
     RDKit          3D

 36 39  0  0  1  0  0  0  0  0999 V2000
    4.0566   -0.3797   -3.3969 C   0  0  0  0  0  0  0  0  0  0  0  0
    3.4562   -1.7549   -3.6778 C   0  0  2  0  0  0  0  0  0  0  0  0
    2.4740   -2.1599   -2.6069 C   0  0  0  0  0  0  0  0  0  0  0  0
    2.9075   -3.5099   -2.0511 C   0  0  2  0  0  0  0  0  0  0  0  0
    2.5012   -3.7812   -0.5881 C   0  0  0  0  0  0  0  0  0  0  0  0
    3.3658   -3.1203    0.4469 C   0  0  0  0  0  0  0  0  0  0  0  0
    3.2355   -2.7286    1.7494 C   0  0  0  0  0  0  0  0  0  0  0  0
    4.4746   -2.2147    2.1155 N   0  0  0  0  0  0  0  0  0  0  0  0
    4.8035   -1.6773    3.4267 C   0  0  0  0  0  0  0  0  0  0  0  0
    5.3369   -2.2992    1.0378 C   0  0  0  0  0  0  0  0  0  0  0  0
    6.6697   -1.9287    0.8831 C   0  0  0  0  0  0  0  0  0  0  0  0
    7.3663   -2.1686   -0.3170 C   0  0  0  0  0  0  0  0  0  0  0  0
    6.6836   -2.7102   -1.4261 C   0  0  0  0  0  0  0  0  0  0  0  0
    5.3217   -3.0390   -1.2882 C   0  0  0  0  0  0  0  0  0  0  0  0
    4.6675   -2.8621   -0.0427 C   0  0  0  0  0  0  0  0  0  0  0  0
    4.4073   -3.6138   -2.3584 C   0  0  2  0  0  0  0  0  0  0  0  0
    4.5174   -2.8670   -3.6922 C   0  0  0  0  0  0  0  0  0  0  0  0
    4.6391   -0.3390   -2.4720 H   0  0  0  0  0  0  0  0  0  0  0  0
    3.3090    0.4103   -3.3611 H   0  0  0  0  0  0  0  0  0  0  0  0
    4.6716   -0.1732   -4.2543 H   0  0  0  0  0  0  0  0  0  0  0  0
    2.9693   -1.7046   -4.6508 H   0  0  0  0  0  0  0  0  0  0  0  0
    2.5622   -1.4138   -1.8286 H   0  0  0  0  0  0  0  0  0  0  0  0
    1.4538   -2.2444   -2.9837 H   0  0  0  0  0  0  0  0  0  0  0  0
    2.3497   -4.2136   -2.6639 H   0  0  0  0  0  0  0  0  0  0  0  0
    1.4644   -3.4714   -0.4634 H   0  0  0  0  0  0  0  0  0  0  0  0
    2.5407   -4.8622   -0.4182 H   0  0  0  0  0  0  0  0  0  0  0  0
    2.3940   -2.7690    2.4328 H   0  0  0  0  0  0  0  0  0  0  0  0
    5.1016   -0.6297    3.3479 H   0  0  0  0  0  0  0  0  0  0  0  0
    5.6053   -2.2565    3.8884 H   0  0  0  0  0  0  0  0  0  0  0  0
    3.9283   -1.7338    4.0783 H   0  0  0  0  0  0  0  0  0  0  0  0
    7.1834   -1.4527    1.6927 H   0  0  0  0  0  0  0  0  0  0  0  0
    8.4142   -1.9058   -0.3880 H   0  0  0  0  0  0  0  0  0  0  0  0
    7.2104   -2.8606   -2.3606 H   0  0  0  0  0  0  0  0  0  0  0  0
    4.6982   -4.6550   -2.4790 H   0  0  0  0  0  0  0  0  0  0  0  0
    4.2543   -3.5679   -4.4907 H   0  0  0  0  0  0  0  0  0  0  0  0
    5.5189   -2.4968   -3.8885 H   0  0  0  0  0  0  0  0  0  0  0  0
  1  2  1  0
  1 18  1  0
  1 19  1  0
  1 20  1  0
  2 17  1  0
  2  3  1  0
  2 21  1  6
  3  4  1  0
  3 22  1  0
  3 23  1  0
  4 16  1  0
  4  5  1  0
  4 24  1  6
  5  6  1  0
  5 25  1  0
  5 26  1  0
  6 15  1  0
  6  7  2  0
  7  8  1  0
  7 27  1  0
  8  9  1  0
  8 10  1  0
  9 28  1  0
  9 29  1  0
  9 30  1  0
 10 15  2  0
 10 11  1  0
 11 12  2  0
 11 31  1  0
 12 13  1  0
 12 32  1  0
 13 14  2  0
 13 33  1  0
 14 15  1  0
 14 16  1  0
 16 17  1  0
 16 34  1  6
 17 35  1  0
 17 36  1  0
M  END
>  <i_m_ct_stereo_status>  (337) 
1

>  <s_m_source_file>  (337) 
/var/tmp/pbs.5076255.sched01/tmp7onimy_i/150cvk1qxg3.sdf

>  <i_m_source_file_index>  (337) 
8

>  <i_lp_mmshare_version>  (337) 
48012

>  <i_f3d_flags>  (337) 
0

>  <s_epik_input>  (337) 
W0NIM11bQ0BIXShbQ0gyXTEpW0NIMl1bQ0BIXShbQ0BIXTEyKWMzYzRjKFtDSDJdMilbY0hdbihbQ0gzXSljNFtjSF1bY0hdW2NIXTM=

>  <s_epik_cmdline>  (337) 
J2VwaWtfcHl0aG9uJywgJy1waHQnLCAnMi4wJywgJy1waCcsICc3LjAnLCAnLXRuJywgJzgnLCAnLW1hJywgJzIwMCcsICctaW1hZScsICc8aW5maWxlLm1hZT4nLCAnLW9tYWUnLCAnPG91dGZpbGUubWFlPic=

>  <r_lp_tautomer_probability>  (337) 
1

>  <r_epik_Ionization_Penalty>  (337) 
9.63662e-10

>  <r_epik_Ionization_Penalty_Charging>  (337) 
0

>  <r_epik_Ionization_Penalty_Neutral>  (337) 
9.63662e-10

>  <r_epik_State_Penalty>  (337) 
-0

>  <r_epik_Charging_Adjusted_Penalty>  (337) 
0

>  <i_epik_Tot_Q>  (337) 
0

>  <i_epik_Tot_abs_Q>  (337) 
0

>  <s_lp_Force_Field>  (337) 
OPLS3e

>  <r_lp_Energy>  (337) 
20.3565

>  <b_lp_Chiralities_Consistent>  (337) 
1

>  <s_lp_Variant>  (337) 
89:0-1

>  <s_i_glide_gridfile>  (337) 
pfpi4k_grid

>  <i_i_glide_lignum>  (337) 
8

>  <i_i_glide_rotatable_bonds>  (337) 
0

>  <r_i_docking_score>  (337) 
-3.75149

>  <r_i_glide_ligand_efficiency>  (337) 
-0.220676

>  <r_i_glide_ligand_efficiency_sa>  (337) 
-0.56742

>  <r_i_glide_ligand_efficiency_ln>  (337) 
-0.97868

>  <r_i_glide_gscore>  (337) 
-3.75149

>  <r_i_glide_lipo>  (337) 
-0.855155

>  <r_i_glide_hbond>  (337) 
0

>  <r_i_glide_metal>  (337) 
-0

>  <r_i_glide_rewards>  (337) 
-1.90381

>  <r_i_glide_evdw>  (337) 
-14.9754

>  <r_i_glide_ecoul>  (337) 
-1.625

>  <r_i_glide_erotb>  (337) 
0

>  <r_i_glide_esite>  (337) 
0

>  <r_i_glide_emodel>  (337) 
-20.0659

>  <r_i_glide_energy>  (337) 
-16.6004

>  <r_i_glide_einternal>  (337) 
0

>  <r_i_glide_intrahb_reward>  (337) 
-0

>  <i_i_glide_confnum>  (337) 
1

>  <i_i_glide_posenum>  (337) 
29

>  <r_i_glide_eff_state_penalty>  (337) 
0

>  <ligand_id>  (337) 
89

>  <original_smiles>  (337) 
CC1CC2Cc3cn(C)c4cccc(c34)C2C1

>  <smiles>  (337) 
[H]c1c([H])c([H])c2c3c(c([H])n2C([H])([H])[H])C([H])([H])C2([H])C([H])([H])C([H])(C([H])([H])[H])C([H])([H])C2([H])c13

$$$$
89:0:1
     RDKit          3D

 36 39  0  0  1  0  0  0  0  0999 V2000
    1.6765   -0.9753    2.7958 C   0  0  0  0  0  0  0  0  0  0  0  0
    3.1472   -1.0811    3.2270 C   0  0  2  0  0  0  0  0  0  0  0  0
    4.0919   -0.2300    2.3642 C   0  0  0  0  0  0  0  0  0  0  0  0
    5.1850   -1.1703    1.8289 C   0  0  2  0  0  0  0  0  0  0  0  0
    5.7725   -0.7493    0.4633 C   0  0  0  0  0  0  0  0  0  0  0  0
    4.9316   -1.1019   -0.7358 C   0  0  0  0  0  0  0  0  0  0  0  0
    4.7907   -0.6589   -2.0199 C   0  0  0  0  0  0  0  0  0  0  0  0
    3.8311   -1.4497   -2.6187 N   0  0  0  0  0  0  0  0  0  0  0  0
    3.3564   -1.3008   -3.9868 C   0  0  0  0  0  0  0  0  0  0  0  0
    3.4010   -2.3836   -1.7030 C   0  0  0  0  0  0  0  0  0  0  0  0
    2.4764   -3.4074   -1.7928 C   0  0  0  0  0  0  0  0  0  0  0  0
    2.2131   -4.2520   -0.7037 C   0  0  0  0  0  0  0  0  0  0  0  0
    2.8666   -4.0478    0.5222 C   0  0  0  0  0  0  0  0  0  0  0  0
    3.7780   -2.9852    0.6362 C   0  0  0  0  0  0  0  0  0  0  0  0
    4.0629   -2.1847   -0.4892 C   0  0  0  0  0  0  0  0  0  0  0  0
    4.5609   -2.5789    1.8777 C   0  0  2  0  0  0  0  0  0  0  0  0
    3.6840   -2.5172    3.1321 C   0  0  0  0  0  0  0  0  0  0  0  0
    1.5355   -1.3045    1.7659 H   0  0  0  0  0  0  0  0  0  0  0  0
    1.3201    0.0527    2.8668 H   0  0  0  0  0  0  0  0  0  0  0  0
    1.0401   -1.5882    3.4298 H   0  0  0  0  0  0  0  0  0  0  0  0
    3.2165   -0.7514    4.2637 H   0  0  0  0  0  0  0  0  0  0  0  0
    3.5531    0.2313    1.5402 H   0  0  0  0  0  0  0  0  0  0  0  0
    4.5327    0.5772    2.9484 H   0  0  0  0  0  0  0  0  0  0  0  0
    5.9941   -1.1376    2.5614 H   0  0  0  0  0  0  0  0  0  0  0  0
    5.9866    0.3172    0.4789 H   0  0  0  0  0  0  0  0  0  0  0  0
    6.7386   -1.2395    0.3493 H   0  0  0  0  0  0  0  0  0  0  0  0
    5.2491    0.1621   -2.5408 H   0  0  0  0  0  0  0  0  0  0  0  0
    2.2862   -1.0914   -4.0122 H   0  0  0  0  0  0  0  0  0  0  0  0
    3.5644   -2.2037   -4.5592 H   0  0  0  0  0  0  0  0  0  0  0  0
    3.8711   -0.4635   -4.4580 H   0  0  0  0  0  0  0  0  0  0  0  0
    1.9568   -3.5747   -2.7240 H   0  0  0  0  0  0  0  0  0  0  0  0
    1.5109   -5.0615   -0.8175 H   0  0  0  0  0  0  0  0  0  0  0  0
    2.6624   -4.6989    1.3661 H   0  0  0  0  0  0  0  0  0  0  0  0
    5.3472   -3.3222    1.9971 H   0  0  0  0  0  0  0  0  0  0  0  0
    4.3258   -2.6905    3.9969 H   0  0  0  0  0  0  0  0  0  0  0  0
    2.9029   -3.2791    3.1673 H   0  0  0  0  0  0  0  0  0  0  0  0
  1  2  1  0
  1 18  1  0
  1 19  1  0
  1 20  1  0
  2 17  1  0
  2  3  1  0
  2 21  1  1
  3  4  1  0
  3 22  1  0
  3 23  1  0
  4 16  1  0
  4  5  1  0
  4 24  1  1
  5  6  1  0
  5 25  1  0
  5 26  1  0
  6 15  1  0
  6  7  2  0
  7  8  1  0
  7 27  1  0
  8  9  1  0
  8 10  1  0
  9 28  1  0
  9 29  1  0
  9 30  1  0
 10 15  2  0
 10 11  1  0
 11 12  2  0
 11 31  1  0
 12 13  1  0
 12 32  1  0
 13 14  2  0
 13 33  1  0
 14 15  1  0
 14 16  1  0
 16 17  1  0
 16 34  1  1
 17 35  1  0
 17 36  1  0
M  END
>  <i_m_ct_stereo_status>  (338) 
1

>  <s_m_source_file>  (338) 
/var/tmp/pbs.5076255.sched01/tmp7onimy_i/150cvk1qxg3.sdf

>  <i_m_source_file_index>  (338) 
8

>  <i_lp_mmshare_version>  (338) 
48012

>  <i_f3d_flags>  (338) 
0

>  <s_epik_input>  (338) 
W0NIM11bQ0BIXShbQ0gyXTEpW0NIMl1bQ0BIXShbQ0BIXTEyKWMzYzRjKFtDSDJdMilbY0hdbihbQ0gzXSljNFtjSF1bY0hdW2NIXTM=

>  <s_epik_cmdline>  (338) 
J2VwaWtfcHl0aG9uJywgJy1waHQnLCAnMi4wJywgJy1waCcsICc3LjAnLCAnLXRuJywgJzgnLCAnLW1hJywgJzIwMCcsICctaW1hZScsICc8aW5maWxlLm1hZT4nLCAnLW9tYWUnLCAnPG91dGZpbGUubWFlPic=

>  <r_lp_tautomer_probability>  (338) 
1

>  <r_epik_Ionization_Penalty>  (338) 
9.63662e-10

>  <r_epik_Ionization_Penalty_Charging>  (338) 
0

>  <r_epik_Ionization_Penalty_Neutral>  (338) 
9.63662e-10

>  <r_epik_State_Penalty>  (338) 
-0

>  <r_epik_Charging_Adjusted_Penalty>  (338) 
0

>  <i_epik_Tot_Q>  (338) 
0

>  <i_epik_Tot_abs_Q>  (338) 
0

>  <s_lp_Force_Field>  (338) 
OPLS3e

>  <r_lp_Energy>  (338) 
20.3565

>  <b_lp_Chiralities_Consistent>  (338) 
1

>  <s_lp_Variant>  (338) 
89:0-1

>  <s_i_glide_gridfile>  (338) 
pfpi4k_grid

>  <i_i_glide_lignum>  (338) 
8

>  <i_i_glide_rotatable_bonds>  (338) 
0

>  <r_i_docking_score>  (338) 
-3.12524

>  <r_i_glide_ligand_efficiency>  (338) 
-0.183838

>  <r_i_glide_ligand_efficiency_sa>  (338) 
-0.472699

>  <r_i_glide_ligand_efficiency_ln>  (338) 
-0.815307

>  <r_i_glide_gscore>  (338) 
-3.12524

>  <r_i_glide_lipo>  (338) 
-0.537782

>  <r_i_glide_hbond>  (338) 
0

>  <r_i_glide_metal>  (338) 
-0

>  <r_i_glide_rewards>  (338) 
-1.87276

>  <r_i_glide_evdw>  (338) 
-17.1522

>  <r_i_glide_ecoul>  (338) 
1.25058

>  <r_i_glide_erotb>  (338) 
0

>  <r_i_glide_esite>  (338) 
-0.0446784

>  <r_i_glide_emodel>  (338) 
-19.1533

>  <r_i_glide_energy>  (338) 
-15.9017

>  <r_i_glide_einternal>  (338) 
0

>  <r_i_glide_intrahb_reward>  (338) 
-0

>  <i_i_glide_confnum>  (338) 
2

>  <i_i_glide_posenum>  (338) 
16

>  <r_i_glide_eff_state_penalty>  (338) 
0

>  <ligand_id>  (338) 
89

>  <original_smiles>  (338) 
CC1CC2Cc3cn(C)c4cccc(c34)C2C1

>  <smiles>  (338) 
[H]c1c([H])c([H])c2c3c(c([H])n2C([H])([H])[H])C([H])([H])C2([H])C([H])([H])C([H])(C([H])([H])[H])C([H])([H])C2([H])c13

$$$$
89:0:2
     RDKit          3D

 36 39  0  0  1  0  0  0  0  0999 V2000
    1.9071   -1.0107    3.8735 C   0  0  0  0  0  0  0  0  0  0  0  0
    3.4078   -0.8191    4.1441 C   0  0  2  0  0  0  0  0  0  0  0  0
    4.1211   -0.0204    3.0397 C   0  0  0  0  0  0  0  0  0  0  0  0
    5.3032   -0.8833    2.5536 C   0  0  2  0  0  0  0  0  0  0  0  0
    5.6969   -0.6518    1.0750 C   0  0  0  0  0  0  0  0  0  0  0  0
    4.8149   -1.3297    0.0619 C   0  0  0  0  0  0  0  0  0  0  0  0
    4.4883   -1.1464   -1.2526 C   0  0  0  0  0  0  0  0  0  0  0  0
    3.6317   -2.1894   -1.5865 N   0  0  0  0  0  0  0  0  0  0  0  0
    3.0257   -2.3934   -2.8900 C   0  0  0  0  0  0  0  0  0  0  0  0
    3.4374   -2.9875   -0.4769 C   0  0  0  0  0  0  0  0  0  0  0  0
    2.6875   -4.1451   -0.2830 C   0  0  0  0  0  0  0  0  0  0  0  0
    2.6556   -4.8016    0.9652 C   0  0  0  0  0  0  0  0  0  0  0  0
    3.3702   -4.2596    2.0495 C   0  0  0  0  0  0  0  0  0  0  0  0
    4.1083   -3.0768    1.8668 C   0  0  0  0  0  0  0  0  0  0  0  0
    4.1575   -2.4646    0.5927 C   0  0  0  0  0  0  0  0  0  0  0  0
    4.9169   -2.3311    2.9211 C   0  0  2  0  0  0  0  0  0  0  0  0
    4.1599   -2.1560    4.2439 C   0  0  0  0  0  0  0  0  0  0  0  0
    1.7349   -1.5523    2.9429 H   0  0  0  0  0  0  0  0  0  0  0  0
    1.3958   -0.0509    3.8019 H   0  0  0  0  0  0  0  0  0  0  0  0
    1.4372   -1.5749    4.6773 H   0  0  0  0  0  0  0  0  0  0  0  0
    3.5111   -0.2872    5.0907 H   0  0  0  0  0  0  0  0  0  0  0  0
    3.4459    0.1863    2.2131 H   0  0  0  0  0  0  0  0  0  0  0  0
    4.4718    0.9418    3.4122 H   0  0  0  0  0  0  0  0  0  0  0  0
    6.1554   -0.5961    3.1735 H   0  0  0  0  0  0  0  0  0  0  0  0
    5.7352    0.4183    0.8733 H   0  0  0  0  0  0  0  0  0  0  0  0
    6.7168   -1.0139    0.9406 H   0  0  0  0  0  0  0  0  0  0  0  0
    4.7763   -0.3800   -1.9630 H   0  0  0  0  0  0  0  0  0  0  0  0
    1.9369   -2.3509   -2.8161 H   0  0  0  0  0  0  0  0  0  0  0  0
    3.3282   -3.3553   -3.3089 H   0  0  0  0  0  0  0  0  0  0  0  0
    3.3494   -1.6028   -3.5698 H   0  0  0  0  0  0  0  0  0  0  0  0
    2.1394   -4.5618   -1.1159 H   0  0  0  0  0  0  0  0  0  0  0  0
    2.0898   -5.7158    1.0936 H   0  0  0  0  0  0  0  0  0  0  0  0
    3.3499   -4.7571    3.0096 H   0  0  0  0  0  0  0  0  0  0  0  0
    5.8142   -2.9245    3.0854 H   0  0  0  0  0  0  0  0  0  0  0  0
    4.8943   -2.0644    5.0466 H   0  0  0  0  0  0  0  0  0  0  0  0
    3.5211   -2.9992    4.5065 H   0  0  0  0  0  0  0  0  0  0  0  0
  1  2  1  0
  1 18  1  0
  1 19  1  0
  1 20  1  0
  2 17  1  0
  2  3  1  0
  2 21  1  1
  3  4  1  0
  3 22  1  0
  3 23  1  0
  4 16  1  0
  4  5  1  0
  4 24  1  1
  5  6  1  0
  5 25  1  0
  5 26  1  0
  6 15  1  0
  6  7  2  0
  7  8  1  0
  7 27  1  0
  8  9  1  0
  8 10  1  0
  9 28  1  0
  9 29  1  0
  9 30  1  0
 10 15  2  0
 10 11  1  0
 11 12  2  0
 11 31  1  0
 12 13  1  0
 12 32  1  0
 13 14  2  0
 13 33  1  0
 14 15  1  0
 14 16  1  0
 16 17  1  0
 16 34  1  1
 17 35  1  0
 17 36  1  0
M  END
>  <i_m_ct_stereo_status>  (339) 
1

>  <s_m_source_file>  (339) 
/var/tmp/pbs.5076255.sched01/tmp7onimy_i/150cvk1qxg3.sdf

>  <i_m_source_file_index>  (339) 
8

>  <i_lp_mmshare_version>  (339) 
48012

>  <i_f3d_flags>  (339) 
0

>  <s_epik_input>  (339) 
W0NIM11bQ0BIXShbQ0gyXTEpW0NIMl1bQ0BIXShbQ0BIXTEyKWMzYzRjKFtDSDJdMilbY0hdbihbQ0gzXSljNFtjSF1bY0hdW2NIXTM=

>  <s_epik_cmdline>  (339) 
J2VwaWtfcHl0aG9uJywgJy1waHQnLCAnMi4wJywgJy1waCcsICc3LjAnLCAnLXRuJywgJzgnLCAnLW1hJywgJzIwMCcsICctaW1hZScsICc8aW5maWxlLm1hZT4nLCAnLW9tYWUnLCAnPG91dGZpbGUubWFlPic=

>  <r_lp_tautomer_probability>  (339) 
1

>  <r_epik_Ionization_Penalty>  (339) 
9.63662e-10

>  <r_epik_Ionization_Penalty_Charging>  (339) 
0

>  <r_epik_Ionization_Penalty_Neutral>  (339) 
9.63662e-10

>  <r_epik_State_Penalty>  (339) 
-0

>  <r_epik_Charging_Adjusted_Penalty>  (339) 
0

>  <i_epik_Tot_Q>  (339) 
0

>  <i_epik_Tot_abs_Q>  (339) 
0

>  <s_lp_Force_Field>  (339) 
OPLS3e

>  <r_lp_Energy>  (339) 
20.3565

>  <b_lp_Chiralities_Consistent>  (339) 
1

>  <s_lp_Variant>  (339) 
89:0-1

>  <s_i_glide_gridfile>  (339) 
pfpi4k_grid

>  <i_i_glide_lignum>  (339) 
8

>  <i_i_glide_rotatable_bonds>  (339) 
0

>  <r_i_docking_score>  (339) 
-3.0767

>  <r_i_glide_ligand_efficiency>  (339) 
-0.180982

>  <r_i_glide_ligand_efficiency_sa>  (339) 
-0.465356

>  <r_i_glide_ligand_efficiency_ln>  (339) 
-0.802642

>  <r_i_glide_gscore>  (339) 
-3.0767

>  <r_i_glide_lipo>  (339) 
-0.29003

>  <r_i_glide_hbond>  (339) 
0

>  <r_i_glide_metal>  (339) 
-0

>  <r_i_glide_rewards>  (339) 
-1.87276

>  <r_i_glide_evdw>  (339) 
-17.5592

>  <r_i_glide_ecoul>  (339) 
0.11097

>  <r_i_glide_erotb>  (339) 
0

>  <r_i_glide_esite>  (339) 
-0.0525933

>  <r_i_glide_emodel>  (339) 
-20.6877

>  <r_i_glide_energy>  (339) 
-17.4483

>  <r_i_glide_einternal>  (339) 
0

>  <r_i_glide_intrahb_reward>  (339) 
-0

>  <i_i_glide_confnum>  (339) 
2

>  <i_i_glide_posenum>  (339) 
3

>  <r_i_glide_eff_state_penalty>  (339) 
0

>  <ligand_id>  (339) 
89

>  <original_smiles>  (339) 
CC1CC2Cc3cn(C)c4cccc(c34)C2C1

>  <smiles>  (339) 
[H]c1c([H])c([H])c2c3c(c([H])n2C([H])([H])[H])C([H])([H])C2([H])C([H])([H])C([H])(C([H])([H])[H])C([H])([H])C2([H])c13

$$$$
90:0:0
     RDKit          3D

 78 85  0  0  1  0  0  0  0  0999 V2000
    5.2790   -1.4844    5.1044 C   0  0  0  0  0  0  0  0  0  0  0  0
    4.5626   -2.5831    5.4000 C   0  0  0  0  0  0  0  0  0  0  0  0
    3.8785   -2.8528    6.7955 C   0  0  1  0  0  0  0  0  0  0  0  0
    3.9140   -1.5992    7.7061 C   0  0  0  0  0  0  0  0  0  0  0  0
    2.4085   -3.4835    6.8593 C   0  0  0  0  0  0  0  0  0  0  0  0
    2.0036   -4.8304    6.1394 C   0  0  2  0  0  0  0  0  0  0  0  0
    0.7239   -5.4092    6.7042 C   0  0  1  0  0  0  0  0  0  0  0  0
   -0.2459   -5.7729    5.7477 O   0  0  0  0  0  0  0  0  0  0  0  0
    2.0132   -6.2010    6.8442 C   0  0  1  0  0  0  0  0  0  0  0  0
    2.5486   -7.3924    6.0127 C   0  0  0  0  0  0  0  0  0  0  0  0
    3.3776   -8.3119    6.9647 C   0  0  0  0  0  0  0  0  0  0  0  0
    1.4529   -8.3899    5.5317 C   0  0  0  0  0  0  0  0  0  0  0  0
    3.5026   -6.8369    4.8768 C   0  0  2  0  0  0  0  0  0  0  0  0
    4.7134   -6.1527    5.5979 C   0  0  0  0  0  0  0  0  0  0  0  0
    5.3239   -4.8657    5.0392 C   0  0  0  0  0  0  0  0  0  0  0  0
    4.3973   -3.7606    4.4501 C   0  0  1  0  0  0  0  0  0  0  0  0
    2.9916   -3.7127    4.5006 O   0  0  0  0  0  0  0  0  0  0  0  0
    2.1652   -4.7803    4.5971 C   0  0  1  0  0  0  0  0  0  0  0  0
    2.8316   -5.9166    3.7646 C   0  0  2  0  0  0  0  0  0  0  0  0
    1.7542   -6.7033    2.9963 C   0  0  0  0  0  0  0  0  0  0  0  0
    1.1924   -6.0118    1.9024 O   0  0  0  0  0  0  0  0  0  0  0  0
    1.9095   -5.7807    0.8169 C   0  0  0  0  0  0  0  0  0  0  0  0
    1.4099   -5.8365   -0.3034 O   0  0  0  0  0  0  0  0  0  0  0  0
    3.3895   -5.4381    1.0660 C   0  0  1  0  0  0  0  0  0  0  0  0
    4.1667   -4.4199    0.1074 C   0  0  2  0  0  0  0  0  0  0  0  0
    5.5246   -4.0476    0.7286 C   0  0  0  0  0  0  0  0  0  0  0  0
    5.6190   -3.7496    2.0414 C   0  0  0  0  0  0  0  0  0  0  0  0
    4.3421   -3.8204    2.8628 C   0  0  2  0  0  0  0  0  0  0  0  0
    3.4767   -2.5480    2.3127 C   0  0  1  0  0  0  0  0  0  0  0  0
    4.2630   -1.3719    2.2529 O   0  0  0  0  0  0  0  0  0  0  0  0
    2.7063   -2.5906    0.9773 C   0  0  0  0  0  0  0  0  0  0  0  0
    3.4338   -3.0956   -0.2821 C   0  0  0  0  0  0  0  0  0  0  0  0
    4.3975   -2.0011   -0.8386 C   0  0  0  0  0  0  0  0  0  0  0  0
    2.4159   -3.2864   -1.4341 C   0  0  0  0  0  0  0  0  0  0  0  0
    3.8403   -5.3644    2.5880 C   0  0  1  0  0  0  0  0  0  0  0  0
    4.9724   -6.4907    2.4680 C   0  0  0  0  0  0  0  0  0  0  0  0
    5.7815   -1.4004    4.1548 H   0  0  0  0  0  0  0  0  0  0  0  0
    5.4203   -0.6725    5.7987 H   0  0  0  0  0  0  0  0  0  0  0  0
    4.5165   -3.5742    7.3044 H   0  0  0  0  0  0  0  0  0  0  0  0
    4.9368   -1.2796    7.9192 H   0  0  0  0  0  0  0  0  0  0  0  0
    3.4453   -1.7931    8.6727 H   0  0  0  0  0  0  0  0  0  0  0  0
    3.3849   -0.7557    7.2552 H   0  0  0  0  0  0  0  0  0  0  0  0
    2.2175   -3.6546    7.9188 H   0  0  0  0  0  0  0  0  0  0  0  0
    1.6813   -2.7255    6.5606 H   0  0  0  0  0  0  0  0  0  0  0  0
    0.2893   -4.9782    7.6049 H   0  0  0  0  0  0  0  0  0  0  0  0
    0.1204   -6.4694    5.2250 H   0  0  0  0  0  0  0  0  0  0  0  0
    2.4303   -6.1904    7.8477 H   0  0  0  0  0  0  0  0  0  0  0  0
    3.8578   -9.1186    6.4066 H   0  0  0  0  0  0  0  0  0  0  0  0
    2.7475   -8.7798    7.7227 H   0  0  0  0  0  0  0  0  0  0  0  0
    4.1559   -7.7991    7.5247 H   0  0  0  0  0  0  0  0  0  0  0  0
    1.8443   -9.0435    4.7461 H   0  0  0  0  0  0  0  0  0  0  0  0
    0.5347   -7.9589    5.1613 H   0  0  0  0  0  0  0  0  0  0  0  0
    1.1046   -9.0402    6.3363 H   0  0  0  0  0  0  0  0  0  0  0  0
    3.8858   -7.7304    4.3851 H   0  0  0  0  0  0  0  0  0  0  0  0
    4.4646   -5.8745    6.6190 H   0  0  0  0  0  0  0  0  0  0  0  0
    5.5149   -6.8834    5.7216 H   0  0  0  0  0  0  0  0  0  0  0  0
    5.9163   -4.4549    5.8571 H   0  0  0  0  0  0  0  0  0  0  0  0
    6.1370   -5.0554    4.3450 H   0  0  0  0  0  0  0  0  0  0  0  0
    1.2253   -4.4507    4.1521 H   0  0  0  0  0  0  0  0  0  0  0  0
    2.1389   -7.6683    2.6508 H   0  0  0  0  0  0  0  0  0  0  0  0
    0.8866   -6.8910    3.6129 H   0  0  0  0  0  0  0  0  0  0  0  0
    3.7665   -6.3731    0.6569 H   0  0  0  0  0  0  0  0  0  0  0  0
    4.4187   -4.9484   -0.8131 H   0  0  0  0  0  0  0  0  0  0  0  0
    6.3818   -4.0039    0.0715 H   0  0  0  0  0  0  0  0  0  0  0  0
    6.5477   -3.4584    2.4778 H   0  0  0  0  0  0  0  0  0  0  0  0
    2.6807   -2.2272    2.9815 H   0  0  0  0  0  0  0  0  0  0  0  0
    3.6967   -0.6556    2.0038 H   0  0  0  0  0  0  0  0  0  0  0  0
    1.8165   -3.1911    1.1588 H   0  0  0  0  0  0  0  0  0  0  0  0
    2.2982   -1.6003    0.7784 H   0  0  0  0  0  0  0  0  0  0  0  0
    3.8465   -1.1041   -1.1224 H   0  0  0  0  0  0  0  0  0  0  0  0
    4.9181   -2.3506   -1.7298 H   0  0  0  0  0  0  0  0  0  0  0  0
    5.1498   -1.6662   -0.1293 H   0  0  0  0  0  0  0  0  0  0  0  0
    2.2379   -2.3620   -1.9839 H   0  0  0  0  0  0  0  0  0  0  0  0
    1.4257   -3.5798   -1.0927 H   0  0  0  0  0  0  0  0  0  0  0  0
    2.7616   -3.9998   -2.1725 H   0  0  0  0  0  0  0  0  0  0  0  0
    5.6858   -6.3480    1.6556 H   0  0  0  0  0  0  0  0  0  0  0  0
    4.5150   -7.4566    2.2488 H   0  0  0  0  0  0  0  0  0  0  0  0
    5.6025   -6.7007    3.3203 H   0  0  0  0  0  0  0  0  0  0  0  0
  1  2  2  0
  1 37  1  0
  1 38  1  0
 16  2  1  6
  2  3  1  0
  3  4  1  0
  3  5  1  0
  3 39  1  1
  4 40  1  0
  4 41  1  0
  4 42  1  0
  6  5  1  1
  5 43  1  0
  5 44  1  0
  6  9  1  0
  6 18  1  0
  6  7  1  0
  7  8  1  0
  7  9  1  0
  7 45  1  1
  8 46  1  0
  9 10  1  0
  9 47  1  1
 10 11  1  0
 10 12  1  0
 10 13  1  0
 11 48  1  0
 11 49  1  0
 11 50  1  0
 12 51  1  0
 12 52  1  0
 12 53  1  0
 13 19  1  0
 13 14  1  0
 13 54  1  6
 14 15  1  0
 14 55  1  0
 14 56  1  0
 15 16  1  0
 15 57  1  0
 15 58  1  0
 16 28  1  0
 16 17  1  0
 17 18  1  0
 18 19  1  0
 18 59  1  6
 19 35  1  0
 19 20  1  6
 20 21  1  0
 20 60  1  0
 20 61  1  0
 21 22  1  0
 22 23  2  0
 22 24  1  0
 24 35  1  0
 24 25  1  0
 24 62  1  6
 25 32  1  0
 25 26  1  0
 25 63  1  6
 26 27  2  0
 26 64  1  0
 28 27  1  6
 27 65  1  0
 28 29  1  0
 28 35  1  0
 29 30  1  0
 29 31  1  0
 29 66  1  1
 30 67  1  0
 31 32  1  0
 31 68  1  0
 31 69  1  0
 32 33  1  0
 32 34  1  0
 33 70  1  0
 33 71  1  0
 33 72  1  0
 34 73  1  0
 34 74  1  0
 34 75  1  0
 35 36  1  6
 36 76  1  0
 36 77  1  0
 36 78  1  0
M  END
>  <i_m_ct_stereo_status>  (340) 
1

>  <s_m_source_file>  (340) 
/var/tmp/pbs.5076255.sched01/tmp7onimy_i/150cvk1qxg3.sdf

>  <i_m_source_file_index>  (340) 
9

>  <i_lp_mmshare_version>  (340) 
48012

>  <i_f3d_flags>  (340) 
0

>  <s_epik_input>  (340) 
W09IXVtDQEhdMVtDSDJdQyhbQ0gzXSkoW0NIM10pW0NAQEhdKFtDSF09W0NIXTIpW0NASF0oQyg9TylPW0NIMl0zKVtDQEBdNChbQ0gzXSlbQ0BdMTJbQ0BAXShbQ0gyXVtDSDJdNSkoQyg9W0NIMl0pW0NAQEhdKFtDSDNdKVtDSDJdNilPW0NASF03W0NAQF0zNFtDQEBIXTVDKFtDSDNdKShbQ0gzXSlbQ0BASF0oW0NAQF02NzgpW0NAQEhdOFtPSF0=

>  <s_epik_cmdline>  (340) 
J2VwaWtfcHl0aG9uJywgJy1waHQnLCAnMi4wJywgJy1waCcsICc3LjAnLCAnLXRuJywgJzgnLCAnLW1hJywgJzIwMCcsICctaW1hZScsICc8aW5maWxlLm1hZT4nLCAnLW9tYWUnLCAnPG91dGZpbGUubWFlPic=

>  <r_lp_tautomer_probability>  (340) 
1

>  <r_epik_Ionization_Penalty>  (340) 
4.03985e-07

>  <r_epik_Ionization_Penalty_Charging>  (340) 
0

>  <r_epik_Ionization_Penalty_Neutral>  (340) 
4.03985e-07

>  <r_epik_State_Penalty>  (340) 
-0

>  <r_epik_Charging_Adjusted_Penalty>  (340) 
0

>  <i_epik_Tot_Q>  (340) 
0

>  <i_epik_Tot_abs_Q>  (340) 
0

>  <s_epik_Chemistry_Notes>  (340) 
This compound has an ester and may undergo hydrolysis at high or low pH.

>  <s_lp_Force_Field>  (340) 
OPLS3e

>  <r_lp_Energy>  (340) 
218.833

>  <b_lp_Chiralities_Consistent>  (340) 
1

>  <s_lp_Variant>  (340) 
90:0-1

>  <s_i_glide_gridfile>  (340) 
pfpi4k_grid

>  <i_i_glide_lignum>  (340) 
9

>  <i_i_glide_rotatable_bonds>  (340) 
2

>  <r_i_docking_score>  (340) 
-2.32801

>  <r_i_glide_ligand_efficiency>  (340) 
-0.0646668

>  <r_i_glide_ligand_efficiency_sa>  (340) 
-0.213525

>  <r_i_glide_ligand_efficiency_ln>  (340) 
-0.507908

>  <r_i_glide_gscore>  (340) 
-2.32801

>  <r_i_glide_lipo>  (340) 
-0.234415

>  <r_i_glide_hbond>  (340) 
-0.488225

>  <r_i_glide_metal>  (340) 
-0

>  <r_i_glide_rewards>  (340) 
-0.0363942

>  <r_i_glide_evdw>  (340) 
-21.0509

>  <r_i_glide_ecoul>  (340) 
-3.02153

>  <r_i_glide_erotb>  (340) 
0

>  <r_i_glide_esite>  (340) 
-0.0631969

>  <r_i_glide_emodel>  (340) 
-28.1309

>  <r_i_glide_energy>  (340) 
-24.0724

>  <r_i_glide_einternal>  (340) 
0.522175

>  <r_i_glide_intrahb_reward>  (340) 
-0

>  <i_i_glide_confnum>  (340) 
1

>  <i_i_glide_posenum>  (340) 
4

>  <r_i_glide_eff_state_penalty>  (340) 
0

>  <ligand_id>  (340) 
90

>  <original_smiles>  (340) 
C=C1C(C)CC23C(O)C2C(C)(C)C2CCC14OC3C21COC(=O)C2C3C=CC4(C(O)CC3(C)C)C21C

>  <smiles>  (340) 
[H]OC1([H])C([H])([H])C(C([H])([H])[H])(C([H])([H])[H])C2([H])C([H])=C([H])C13C14OC5([H])C6(C([H])([H])C([H])(C([H])([H])[H])C1=C([H])[H])C([H])(O[H])C6([H])C(C([H])([H])[H])(C([H])([H])[H])C([H])(C([H])([H])C4([H])[H])C51C([H])([H])OC(=O)C2([H])C31C([H])([H])[H]

$$$$
90:0:1
     RDKit          3D

 78 85  0  0  1  0  0  0  0  0999 V2000
    5.1532    2.0388    6.0935 C   0  0  0  0  0  0  0  0  0  0  0  0
    4.8273    0.7871    5.7263 C   0  0  0  0  0  0  0  0  0  0  0  0
    5.7595   -0.4697    5.9265 C   0  0  1  0  0  0  0  0  0  0  0  0
    6.9843   -0.1572    6.8209 C   0  0  0  0  0  0  0  0  0  0  0  0
    5.1343   -1.8680    6.3912 C   0  0  0  0  0  0  0  0  0  0  0  0
    3.9327   -2.5793    5.6500 C   0  0  2  0  0  0  0  0  0  0  0  0
    3.8286   -4.0401    6.0165 C   0  0  1  0  0  0  0  0  0  0  0  0
    2.5460   -4.5104    6.3660 O   0  0  0  0  0  0  0  0  0  0  0  0
    4.1256   -3.6698    4.5777 C   0  0  1  0  0  0  0  0  0  0  0  0
    3.1759   -3.5976    3.3535 C   0  0  0  0  0  0  0  0  0  0  0  0
    3.9981   -3.9828    2.0851 C   0  0  0  0  0  0  0  0  0  0  0  0
    2.0684   -4.6916    3.3226 C   0  0  0  0  0  0  0  0  0  0  0  0
    2.6516   -2.1097    3.2006 C   0  0  2  0  0  0  0  0  0  0  0  0
    3.9118   -1.2231    2.9090 C   0  0  0  0  0  0  0  0  0  0  0  0
    4.0285    0.1746    3.5115 C   0  0  0  0  0  0  0  0  0  0  0  0
    3.5543    0.4341    4.9725 C   0  0  1  0  0  0  0  0  0  0  0  0
    3.1533   -0.5242    5.9201 O   0  0  0  0  0  0  0  0  0  0  0  0
    2.6254   -1.7391    5.6413 C   0  0  1  0  0  0  0  0  0  0  0  0
    1.7372   -1.5403    4.3760 C   0  0  2  0  0  0  0  0  0  0  0  0
    0.4471   -2.3701    4.5142 C   0  0  0  0  0  0  0  0  0  0  0  0
   -0.4995   -1.8630    5.4308 O   0  0  0  0  0  0  0  0  0  0  0  0
   -1.1251   -0.7245    5.1883 C   0  0  0  0  0  0  0  0  0  0  0  0
   -2.3028   -0.5661    5.4854 O   0  0  0  0  0  0  0  0  0  0  0  0
   -0.3094    0.3561    4.4692 C   0  0  1  0  0  0  0  0  0  0  0  0
   -0.5799    1.9005    4.7732 C   0  0  2  0  0  0  0  0  0  0  0  0
    0.5432    2.7575    4.1519 C   0  0  0  0  0  0  0  0  0  0  0  0
    1.8361    2.3825    4.2703 C   0  0  0  0  0  0  0  0  0  0  0  0
    2.1097    1.0912    5.0198 C   0  0  2  0  0  0  0  0  0  0  0  0
    1.7407    1.4685    6.5681 C   0  0  1  0  0  0  0  0  0  0  0  0
    2.3342    2.6940    6.9604 O   0  0  0  0  0  0  0  0  0  0  0  0
    0.2828    1.5215    7.0915 C   0  0  0  0  0  0  0  0  0  0  0  0
   -0.7549    2.3174    6.2732 C   0  0  0  0  0  0  0  0  0  0  0  0
   -0.5860    3.8507    6.4957 C   0  0  0  0  0  0  0  0  0  0  0  0
   -2.1756    2.0293    6.8349 C   0  0  0  0  0  0  0  0  0  0  0  0
    1.2073    0.0034    4.1784 C   0  0  1  0  0  0  0  0  0  0  0  0
    1.1083    0.1990    2.5919 C   0  0  0  0  0  0  0  0  0  0  0  0
    4.5065    2.8688    5.8570 H   0  0  0  0  0  0  0  0  0  0  0  0
    6.0740    2.2743    6.6011 H   0  0  0  0  0  0  0  0  0  0  0  0
    6.1852   -0.6583    4.9438 H   0  0  0  0  0  0  0  0  0  0  0  0
    7.6118    0.6254    6.3909 H   0  0  0  0  0  0  0  0  0  0  0  0
    7.6247   -1.0326    6.9414 H   0  0  0  0  0  0  0  0  0  0  0  0
    6.6819    0.1604    7.8207 H   0  0  0  0  0  0  0  0  0  0  0  0
    5.9603   -2.5828    6.3479 H   0  0  0  0  0  0  0  0  0  0  0  0
    4.8730   -1.8084    7.4494 H   0  0  0  0  0  0  0  0  0  0  0  0
    4.6192   -4.5170    6.5969 H   0  0  0  0  0  0  0  0  0  0  0  0
    2.5335   -5.4437    6.2211 H   0  0  0  0  0  0  0  0  0  0  0  0
    5.1614   -3.8366    4.2837 H   0  0  0  0  0  0  0  0  0  0  0  0
    3.4016   -3.8514    1.1797 H   0  0  0  0  0  0  0  0  0  0  0  0
    4.3167   -5.0255    2.1133 H   0  0  0  0  0  0  0  0  0  0  0  0
    4.9149   -3.4143    1.9521 H   0  0  0  0  0  0  0  0  0  0  0  0
    1.2886   -4.4294    2.6047 H   0  0  0  0  0  0  0  0  0  0  0  0
    1.5734   -4.8988    4.2579 H   0  0  0  0  0  0  0  0  0  0  0  0
    2.4585   -5.6674    3.0344 H   0  0  0  0  0  0  0  0  0  0  0  0
    2.0565   -2.1262    2.2883 H   0  0  0  0  0  0  0  0  0  0  0  0
    4.8275   -1.7039    3.2452 H   0  0  0  0  0  0  0  0  0  0  0  0
    4.0495   -1.1404    1.8296 H   0  0  0  0  0  0  0  0  0  0  0  0
    5.0801    0.4402    3.4107 H   0  0  0  0  0  0  0  0  0  0  0  0
    3.6190    0.9421    2.8635 H   0  0  0  0  0  0  0  0  0  0  0  0
    2.0286   -1.9996    6.5158 H   0  0  0  0  0  0  0  0  0  0  0  0
   -0.0352   -2.4978    3.5445 H   0  0  0  0  0  0  0  0  0  0  0  0
    0.6541   -3.3509    4.9134 H   0  0  0  0  0  0  0  0  0  0  0  0
   -0.8585    0.2626    3.5350 H   0  0  0  0  0  0  0  0  0  0  0  0
   -1.4866    2.1917    4.2386 H   0  0  0  0  0  0  0  0  0  0  0  0
    0.2526    3.6607    3.6297 H   0  0  0  0  0  0  0  0  0  0  0  0
    2.6564    2.9520    3.8544 H   0  0  0  0  0  0  0  0  0  0  0  0
    2.1771    0.7953    7.3022 H   0  0  0  0  0  0  0  0  0  0  0  0
    1.9786    3.3770    6.4147 H   0  0  0  0  0  0  0  0  0  0  0  0
   -0.0441    0.4909    7.2205 H   0  0  0  0  0  0  0  0  0  0  0  0
    0.2899    1.9066    8.1120 H   0  0  0  0  0  0  0  0  0  0  0  0
   -0.7298    4.1130    7.5443 H   0  0  0  0  0  0  0  0  0  0  0  0
   -1.3193    4.4143    5.9195 H   0  0  0  0  0  0  0  0  0  0  0  0
    0.3955    4.2342    6.2326 H   0  0  0  0  0  0  0  0  0  0  0  0
   -2.4345    2.6837    7.6676 H   0  0  0  0  0  0  0  0  0  0  0  0
   -2.2756    1.0289    7.2462 H   0  0  0  0  0  0  0  0  0  0  0  0
   -2.9479    2.1718    6.0795 H   0  0  0  0  0  0  0  0  0  0  0  0
    0.6644    1.1407    2.2626 H   0  0  0  0  0  0  0  0  0  0  0  0
    0.4561   -0.5613    2.1575 H   0  0  0  0  0  0  0  0  0  0  0  0
    2.0035    0.1236    1.9916 H   0  0  0  0  0  0  0  0  0  0  0  0
  1  2  2  0
  1 37  1  0
  1 38  1  0
 16  2  1  1
  2  3  1  0
  3  4  1  0
  3  5  1  0
  3 39  1  6
  4 40  1  0
  4 41  1  0
  4 42  1  0
  6  5  1  1
  5 43  1  0
  5 44  1  0
  6  9  1  0
  6 18  1  0
  6  7  1  0
  7  8  1  0
  7  9  1  0
  7 45  1  1
  8 46  1  0
  9 10  1  0
  9 47  1  6
 10 11  1  0
 10 12  1  0
 10 13  1  0
 11 48  1  0
 11 49  1  0
 11 50  1  0
 12 51  1  0
 12 52  1  0
 12 53  1  0
 13 19  1  0
 13 14  1  0
 13 54  1  6
 14 15  1  0
 14 55  1  0
 14 56  1  0
 15 16  1  0
 15 57  1  0
 15 58  1  0
 16 28  1  0
 16 17  1  0
 17 18  1  0
 18 19  1  0
 18 59  1  1
 19 35  1  0
 19 20  1  1
 20 21  1  0
 20 60  1  0
 20 61  1  0
 21 22  1  0
 22 23  2  0
 22 24  1  0
 24 35  1  0
 24 25  1  0
 24 62  1  6
 25 32  1  0
 25 26  1  0
 25 63  1  6
 26 27  2  0
 26 64  1  0
 28 27  1  6
 27 65  1  0
 28 29  1  0
 28 35  1  0
 29 30  1  0
 29 31  1  0
 29 66  1  1
 30 67  1  0
 31 32  1  0
 31 68  1  0
 31 69  1  0
 32 33  1  0
 32 34  1  0
 33 70  1  0
 33 71  1  0
 33 72  1  0
 34 73  1  0
 34 74  1  0
 34 75  1  0
 35 36  1  6
 36 76  1  0
 36 77  1  0
 36 78  1  0
M  END
>  <i_m_ct_stereo_status>  (341) 
1

>  <s_m_source_file>  (341) 
/var/tmp/pbs.5076255.sched01/tmp7onimy_i/150cvk1qxg3.sdf

>  <i_m_source_file_index>  (341) 
9

>  <i_lp_mmshare_version>  (341) 
48012

>  <i_f3d_flags>  (341) 
0

>  <s_epik_input>  (341) 
W09IXVtDQEhdMVtDSDJdQyhbQ0gzXSkoW0NIM10pW0NAQEhdKFtDSF09W0NIXTIpW0NASF0oQyg9TylPW0NIMl0zKVtDQEBdNChbQ0gzXSlbQ0BdMTJbQ0BAXShbQ0gyXVtDSDJdNSkoQyg9W0NIMl0pW0NAQEhdKFtDSDNdKVtDSDJdNilPW0NASF03W0NAQF0zNFtDQEBIXTVDKFtDSDNdKShbQ0gzXSlbQ0BASF0oW0NAQF02NzgpW0NAQEhdOFtPSF0=

>  <s_epik_cmdline>  (341) 
J2VwaWtfcHl0aG9uJywgJy1waHQnLCAnMi4wJywgJy1waCcsICc3LjAnLCAnLXRuJywgJzgnLCAnLW1hJywgJzIwMCcsICctaW1hZScsICc8aW5maWxlLm1hZT4nLCAnLW9tYWUnLCAnPG91dGZpbGUubWFlPic=

>  <r_lp_tautomer_probability>  (341) 
1

>  <r_epik_Ionization_Penalty>  (341) 
4.03985e-07

>  <r_epik_Ionization_Penalty_Charging>  (341) 
0

>  <r_epik_Ionization_Penalty_Neutral>  (341) 
4.03985e-07

>  <r_epik_State_Penalty>  (341) 
-0

>  <r_epik_Charging_Adjusted_Penalty>  (341) 
0

>  <i_epik_Tot_Q>  (341) 
0

>  <i_epik_Tot_abs_Q>  (341) 
0

>  <s_epik_Chemistry_Notes>  (341) 
This compound has an ester and may undergo hydrolysis at high or low pH.

>  <s_lp_Force_Field>  (341) 
OPLS3e

>  <r_lp_Energy>  (341) 
218.833

>  <b_lp_Chiralities_Consistent>  (341) 
1

>  <s_lp_Variant>  (341) 
90:0-1

>  <s_i_glide_gridfile>  (341) 
pfpi4k_grid

>  <i_i_glide_lignum>  (341) 
9

>  <i_i_glide_rotatable_bonds>  (341) 
2

>  <r_i_docking_score>  (341) 
-2.22689

>  <r_i_glide_ligand_efficiency>  (341) 
-0.061858

>  <r_i_glide_ligand_efficiency_sa>  (341) 
-0.204251

>  <r_i_glide_ligand_efficiency_ln>  (341) 
-0.485847

>  <r_i_glide_gscore>  (341) 
-2.22689

>  <r_i_glide_lipo>  (341) 
-0.214683

>  <r_i_glide_hbond>  (341) 
-0.0279689

>  <r_i_glide_metal>  (341) 
-0

>  <r_i_glide_rewards>  (341) 
-0.0363942

>  <r_i_glide_evdw>  (341) 
-26.7569

>  <r_i_glide_ecoul>  (341) 
-3.80946

>  <r_i_glide_erotb>  (341) 
0

>  <r_i_glide_esite>  (341) 
-0.0385769

>  <r_i_glide_emodel>  (341) 
-34.6477

>  <r_i_glide_energy>  (341) 
-30.5664

>  <r_i_glide_einternal>  (341) 
0.211939

>  <r_i_glide_intrahb_reward>  (341) 
-0

>  <i_i_glide_confnum>  (341) 
1

>  <i_i_glide_posenum>  (341) 
28

>  <r_i_glide_eff_state_penalty>  (341) 
0

>  <ligand_id>  (341) 
90

>  <original_smiles>  (341) 
C=C1C(C)CC23C(O)C2C(C)(C)C2CCC14OC3C21COC(=O)C2C3C=CC4(C(O)CC3(C)C)C21C

>  <smiles>  (341) 
[H]OC1([H])C([H])([H])C(C([H])([H])[H])(C([H])([H])[H])C2([H])C([H])=C([H])C13C14OC5([H])C6(C([H])([H])C([H])(C([H])([H])[H])C1=C([H])[H])C([H])(O[H])C6([H])C(C([H])([H])[H])(C([H])([H])[H])C([H])(C([H])([H])C4([H])[H])C51C([H])([H])OC(=O)C2([H])C31C([H])([H])[H]

$$$$
90:0:2
     RDKit          3D

 78 85  0  0  1  0  0  0  0  0999 V2000
    5.0261    3.2428    6.0870 C   0  0  0  0  0  0  0  0  0  0  0  0
    4.8429    1.9329    6.3328 C   0  0  0  0  0  0  0  0  0  0  0  0
    5.6764    1.0944    7.3800 C   0  0  1  0  0  0  0  0  0  0  0  0
    6.5605    1.9952    8.2772 C   0  0  0  0  0  0  0  0  0  0  0  0
    4.9419    0.0202    8.3105 C   0  0  0  0  0  0  0  0  0  0  0  0
    4.0294   -1.1413    7.7477 C   0  0  2  0  0  0  0  0  0  0  0  0
    3.8195   -2.2423    8.7605 C   0  0  1  0  0  0  0  0  0  0  0  0
    2.4801   -2.6406    8.9454 O   0  0  0  0  0  0  0  0  0  0  0  0
    4.5470   -2.5659    7.4740 C   0  0  1  0  0  0  0  0  0  0  0  0
    4.0243   -3.2483    6.1850 C   0  0  0  0  0  0  0  0  0  0  0  0
    5.2011   -4.0603    5.5605 C   0  0  0  0  0  0  0  0  0  0  0  0
    2.9862   -4.3825    6.4273 C   0  0  0  0  0  0  0  0  0  0  0  0
    3.5651   -2.1259    5.1649 C   0  0  2  0  0  0  0  0  0  0  0  0
    4.8507   -1.3005    4.8052 C   0  0  0  0  0  0  0  0  0  0  0  0
    4.7720    0.2133    4.6145 C   0  0  0  0  0  0  0  0  0  0  0  0
    3.8670    1.0628    5.5564 C   0  0  1  0  0  0  0  0  0  0  0  0
    3.1987    0.6319    6.7152 O   0  0  0  0  0  0  0  0  0  0  0  0
    2.7858   -0.6317    6.9657 C   0  0  1  0  0  0  0  0  0  0  0  0
    2.3266   -1.2170    5.5965 C   0  0  2  0  0  0  0  0  0  0  0  0
    1.0576   -2.0714    5.7922 C   0  0  0  0  0  0  0  0  0  0  0  0
   -0.1329   -1.3457    6.0357 O   0  0  0  0  0  0  0  0  0  0  0  0
   -0.6634   -0.5909    5.0831 C   0  0  0  0  0  0  0  0  0  0  0  0
   -1.8788   -0.5231    4.9126 O   0  0  0  0  0  0  0  0  0  0  0  0
    0.3390    0.1299    4.1696 C   0  0  1  0  0  0  0  0  0  0  0  0
   -0.0134    1.5622    3.5596 C   0  0  2  0  0  0  0  0  0  0  0  0
    1.2445    2.1775    2.9142 C   0  0  0  0  0  0  0  0  0  0  0  0
    2.4387    2.1219    3.5422 C   0  0  0  0  0  0  0  0  0  0  0  0
    2.4730    1.4169    4.8839 C   0  0  2  0  0  0  0  0  0  0  0  0
    1.6427    2.4314    5.8618 C   0  0  1  0  0  0  0  0  0  0  0  0
    2.0758    3.7728    5.7143 O   0  0  0  0  0  0  0  0  0  0  0  0
    0.0947    2.4937    5.8795 C   0  0  0  0  0  0  0  0  0  0  0  0
   -0.6406    2.6195    4.5296 C   0  0  0  0  0  0  0  0  0  0  0  0
   -0.5560    4.0738    3.9785 C   0  0  0  0  0  0  0  0  0  0  0  0
   -2.1614    2.4142    4.7573 C   0  0  0  0  0  0  0  0  0  0  0  0
    1.8753   -0.0702    4.5108 C   0  0  1  0  0  0  0  0  0  0  0  0
    2.2717   -0.6849    3.0861 C   0  0  0  0  0  0  0  0  0  0  0  0
    4.4792    3.7385    5.3004 H   0  0  0  0  0  0  0  0  0  0  0  0
    5.7445    3.8396    6.6238 H   0  0  0  0  0  0  0  0  0  0  0  0
    6.3877    0.5147    6.7936 H   0  0  0  0  0  0  0  0  0  0  0  0
    7.2851    2.5645    7.6925 H   0  0  0  0  0  0  0  0  0  0  0  0
    7.1361    1.4043    8.9914 H   0  0  0  0  0  0  0  0  0  0  0  0
    5.9596    2.7018    8.8539 H   0  0  0  0  0  0  0  0  0  0  0  0
    5.7427   -0.4834    8.8580 H   0  0  0  0  0  0  0  0  0  0  0  0
    4.3667    0.5436    9.0762 H   0  0  0  0  0  0  0  0  0  0  0  0
    4.3925   -2.2508    9.6887 H   0  0  0  0  0  0  0  0  0  0  0  0
    2.1378   -2.1822    9.6960 H   0  0  0  0  0  0  0  0  0  0  0  0
    5.6217   -2.6882    7.5966 H   0  0  0  0  0  0  0  0  0  0  0  0
    4.9131   -4.4821    4.5953 H   0  0  0  0  0  0  0  0  0  0  0  0
    5.4994   -4.8934    6.1981 H   0  0  0  0  0  0  0  0  0  0  0  0
    6.1122   -3.4888    5.4036 H   0  0  0  0  0  0  0  0  0  0  0  0
    2.4606   -4.6330    5.5023 H   0  0  0  0  0  0  0  0  0  0  0  0
    2.2361   -4.1868    7.1776 H   0  0  0  0  0  0  0  0  0  0  0  0
    3.4509   -5.2993    6.7888 H   0  0  0  0  0  0  0  0  0  0  0  0
    3.2830   -2.6785    4.2699 H   0  0  0  0  0  0  0  0  0  0  0  0
    5.6186   -1.4042    5.5684 H   0  0  0  0  0  0  0  0  0  0  0  0
    5.3178   -1.7307    3.9176 H   0  0  0  0  0  0  0  0  0  0  0  0
    5.8028    0.5620    4.6746 H   0  0  0  0  0  0  0  0  0  0  0  0
    4.5779    0.4959    3.5855 H   0  0  0  0  0  0  0  0  0  0  0  0
    1.9483   -0.5256    7.6552 H   0  0  0  0  0  0  0  0  0  0  0  0
    0.9017   -2.7273    4.9343 H   0  0  0  0  0  0  0  0  0  0  0  0
    1.1413   -2.6935    6.6696 H   0  0  0  0  0  0  0  0  0  0  0  0
    0.1099   -0.4889    3.3055 H   0  0  0  0  0  0  0  0  0  0  0  0
   -0.7089    1.4137    2.7308 H   0  0  0  0  0  0  0  0  0  0  0  0
    1.1205    2.6649    1.9574 H   0  0  0  0  0  0  0  0  0  0  0  0
    3.3420    2.5513    3.1309 H   0  0  0  0  0  0  0  0  0  0  0  0
    1.8346    2.2765    6.9206 H   0  0  0  0  0  0  0  0  0  0  0  0
    1.9044    4.0383    4.8240 H   0  0  0  0  0  0  0  0  0  0  0  0
   -0.2525    1.6150    6.4214 H   0  0  0  0  0  0  0  0  0  0  0  0
   -0.2158    3.3189    6.5216 H   0  0  0  0  0  0  0  0  0  0  0  0
   -1.0153    4.7818    4.6674 H   0  0  0  0  0  0  0  0  0  0  0  0
   -1.0751    4.1606    3.0229 H   0  0  0  0  0  0  0  0  0  0  0  0
    0.4569    4.4330    3.8194 H   0  0  0  0  0  0  0  0  0  0  0  0
   -2.6740    3.3359    5.0346 H   0  0  0  0  0  0  0  0  0  0  0  0
   -2.3723    1.7349    5.5801 H   0  0  0  0  0  0  0  0  0  0  0  0
   -2.6581    2.0376    3.8619 H   0  0  0  0  0  0  0  0  0  0  0  0
    1.9487   -0.1039    2.2201 H   0  0  0  0  0  0  0  0  0  0  0  0
    1.7867   -1.6531    2.9445 H   0  0  0  0  0  0  0  0  0  0  0  0
    3.3098   -0.8927    2.8710 H   0  0  0  0  0  0  0  0  0  0  0  0
  1  2  2  0
  1 37  1  0
  1 38  1  0
 16  2  1  1
  2  3  1  0
  3  4  1  0
  3  5  1  0
  3 39  1  6
  4 40  1  0
  4 41  1  0
  4 42  1  0
  6  5  1  1
  5 43  1  0
  5 44  1  0
  6  9  1  0
  6 18  1  0
  6  7  1  0
  7  8  1  0
  7  9  1  0
  7 45  1  1
  8 46  1  0
  9 10  1  0
  9 47  1  1
 10 11  1  0
 10 12  1  0
 10 13  1  0
 11 48  1  0
 11 49  1  0
 11 50  1  0
 12 51  1  0
 12 52  1  0
 12 53  1  0
 13 19  1  0
 13 14  1  0
 13 54  1  6
 14 15  1  0
 14 55  1  0
 14 56  1  0
 15 16  1  0
 15 57  1  0
 15 58  1  0
 16 28  1  0
 16 17  1  0
 17 18  1  0
 18 19  1  0
 18 59  1  1
 19 35  1  0
 19 20  1  1
 20 21  1  0
 20 60  1  0
 20 61  1  0
 21 22  1  0
 22 23  2  0
 22 24  1  0
 24 35  1  0
 24 25  1  0
 24 62  1  6
 25 32  1  0
 25 26  1  0
 25 63  1  6
 26 27  2  0
 26 64  1  0
 28 27  1  6
 27 65  1  0
 28 29  1  0
 28 35  1  0
 29 30  1  0
 29 31  1  0
 29 66  1  1
 30 67  1  0
 31 32  1  0
 31 68  1  0
 31 69  1  0
 32 33  1  0
 32 34  1  0
 33 70  1  0
 33 71  1  0
 33 72  1  0
 34 73  1  0
 34 74  1  0
 34 75  1  0
 35 36  1  6
 36 76  1  0
 36 77  1  0
 36 78  1  0
M  END
>  <i_m_ct_stereo_status>  (342) 
1

>  <s_m_source_file>  (342) 
/var/tmp/pbs.5076255.sched01/tmp7onimy_i/150cvk1qxg3.sdf

>  <i_m_source_file_index>  (342) 
9

>  <i_lp_mmshare_version>  (342) 
48012

>  <i_f3d_flags>  (342) 
0

>  <s_epik_input>  (342) 
W09IXVtDQEhdMVtDSDJdQyhbQ0gzXSkoW0NIM10pW0NAQEhdKFtDSF09W0NIXTIpW0NASF0oQyg9TylPW0NIMl0zKVtDQEBdNChbQ0gzXSlbQ0BdMTJbQ0BAXShbQ0gyXVtDSDJdNSkoQyg9W0NIMl0pW0NAQEhdKFtDSDNdKVtDSDJdNilPW0NASF03W0NAQF0zNFtDQEBIXTVDKFtDSDNdKShbQ0gzXSlbQ0BASF0oW0NAQF02NzgpW0NAQEhdOFtPSF0=

>  <s_epik_cmdline>  (342) 
J2VwaWtfcHl0aG9uJywgJy1waHQnLCAnMi4wJywgJy1waCcsICc3LjAnLCAnLXRuJywgJzgnLCAnLW1hJywgJzIwMCcsICctaW1hZScsICc8aW5maWxlLm1hZT4nLCAnLW9tYWUnLCAnPG91dGZpbGUubWFlPic=

>  <r_lp_tautomer_probability>  (342) 
1

>  <r_epik_Ionization_Penalty>  (342) 
4.03985e-07

>  <r_epik_Ionization_Penalty_Charging>  (342) 
0

>  <r_epik_Ionization_Penalty_Neutral>  (342) 
4.03985e-07

>  <r_epik_State_Penalty>  (342) 
-0

>  <r_epik_Charging_Adjusted_Penalty>  (342) 
0

>  <i_epik_Tot_Q>  (342) 
0

>  <i_epik_Tot_abs_Q>  (342) 
0

>  <s_epik_Chemistry_Notes>  (342) 
This compound has an ester and may undergo hydrolysis at high or low pH.

>  <s_lp_Force_Field>  (342) 
OPLS3e

>  <r_lp_Energy>  (342) 
218.833

>  <b_lp_Chiralities_Consistent>  (342) 
1

>  <s_lp_Variant>  (342) 
90:0-1

>  <s_i_glide_gridfile>  (342) 
pfpi4k_grid

>  <i_i_glide_lignum>  (342) 
9

>  <i_i_glide_rotatable_bonds>  (342) 
2

>  <r_i_docking_score>  (342) 
-1.78221

>  <r_i_glide_ligand_efficiency>  (342) 
-0.0495057

>  <r_i_glide_ligand_efficiency_sa>  (342) 
-0.163464

>  <r_i_glide_ligand_efficiency_ln>  (342) 
-0.388829

>  <r_i_glide_gscore>  (342) 
-1.78221

>  <r_i_glide_lipo>  (342) 
-0.106564

>  <r_i_glide_hbond>  (342) 
0

>  <r_i_glide_metal>  (342) 
-0

>  <r_i_glide_rewards>  (342) 
-0.0363942

>  <r_i_glide_evdw>  (342) 
-24.0635

>  <r_i_glide_ecoul>  (342) 
-2.72708

>  <r_i_glide_erotb>  (342) 
0

>  <r_i_glide_esite>  (342) 
-0.0270143

>  <r_i_glide_emodel>  (342) 
-29.9754

>  <r_i_glide_energy>  (342) 
-26.7905

>  <r_i_glide_einternal>  (342) 
0.238468

>  <r_i_glide_intrahb_reward>  (342) 
-0

>  <i_i_glide_confnum>  (342) 
1

>  <i_i_glide_posenum>  (342) 
1

>  <r_i_glide_eff_state_penalty>  (342) 
0

>  <ligand_id>  (342) 
90

>  <original_smiles>  (342) 
C=C1C(C)CC23C(O)C2C(C)(C)C2CCC14OC3C21COC(=O)C2C3C=CC4(C(O)CC3(C)C)C21C

>  <smiles>  (342) 
[H]OC1([H])C([H])([H])C(C([H])([H])[H])(C([H])([H])[H])C2([H])C([H])=C([H])C13C14OC5([H])C6(C([H])([H])C([H])(C([H])([H])[H])C1=C([H])[H])C([H])(O[H])C6([H])C(C([H])([H])[H])(C([H])([H])[H])C([H])(C([H])([H])C4([H])[H])C51C([H])([H])OC(=O)C2([H])C31C([H])([H])[H]

$$$$
91:0:0
     RDKit          3D

 79 84  0  0  1  0  0  0  0  0999 V2000
   -1.6061   -9.2604    2.7722 C   0  0  0  0  0  0  0  0  0  0  0  0
   -0.2114   -9.1083    3.3908 C   0  0  0  0  0  0  0  0  0  0  0  0
   -0.3273   -8.7204    4.9053 C   0  0  0  0  0  0  0  0  0  0  0  0
    0.5877  -10.4189    3.1799 C   0  0  0  0  0  0  0  0  0  0  0  0
    2.0640  -10.2780    3.5742 C   0  0  0  0  0  0  0  0  0  0  0  0
    2.7675   -9.0742    2.8977 C   0  0  2  0  0  0  0  0  0  0  0  0
    3.0051   -9.3945    1.4122 C   0  0  0  0  0  0  0  0  0  0  0  0
    4.1136   -8.8595    3.5995 C   0  0  0  0  0  0  0  0  0  0  0  0
    4.8877   -7.6640    3.0313 C   0  0  0  0  0  0  0  0  0  0  0  0
    4.1040   -6.3100    2.9573 C   0  0  2  0  0  0  0  0  0  0  0  0
    4.0675   -5.7605    4.4050 C   0  0  0  0  0  0  0  0  0  0  0  0
    2.6459   -6.5223    2.5585 C   0  0  0  0  0  0  0  0  0  0  0  0
    1.9803   -5.5524    1.9066 C   0  0  0  0  0  0  0  0  0  0  0  0
    2.5137   -4.1752    1.6198 C   0  0  0  0  0  0  0  0  0  0  0  0
    4.0299   -3.9677    1.6456 C   0  0  1  0  0  0  0  0  0  0  0  0
    4.4239   -2.5662    2.2605 C   0  0  2  0  0  0  0  0  0  0  0  0
    4.4418   -2.5798    3.8029 C   0  0  0  0  0  0  0  0  0  0  0  0
    3.3847   -1.4586    1.8643 C   0  0  0  0  0  0  0  0  0  0  0  0
    4.1045   -0.1766    1.9297 C   0  0  2  0  0  0  0  0  0  0  0  0
    4.9182    0.1566    0.8298 O   0  0  0  0  0  0  0  0  0  0  0  0
    5.5642   -0.4708    1.9409 C   0  0  2  0  0  0  0  0  0  0  0  0
    5.8048   -1.9362    1.8289 C   0  0  2  0  0  0  0  0  0  0  0  0
    6.5654   -2.2641    0.4937 C   0  0  0  0  0  0  0  0  0  0  0  0
    5.7841   -1.9468   -0.8057 C   0  0  0  0  0  0  0  0  0  0  0  0
    7.8767   -1.4378    0.4211 C   0  0  0  0  0  0  0  0  0  0  0  0
    7.1304   -3.6794    0.4195 C   0  0  0  0  0  0  0  0  0  0  0  0
    7.8265   -3.9323   -0.5547 O   0  0  0  0  0  0  0  0  0  0  0  0
    7.2416   -4.4874    1.6370 C   0  0  0  0  0  0  0  0  0  0  0  0
    6.2544   -5.0710    2.3467 C   0  0  0  0  0  0  0  0  0  0  0  0
    4.8123   -5.3150    1.9212 C   0  0  1  0  0  0  0  0  0  0  0  0
    4.8910   -6.0211    0.5240 C   0  0  0  0  0  0  0  0  0  0  0  0
    1.9499   -7.7772    3.0825 C   0  0  1  0  0  0  0  0  0  0  0  0
    0.4800   -7.9656    2.6353 C   0  0  0  0  0  0  0  0  0  0  0  0
   -2.0971  -10.0837    3.2504 H   0  0  0  0  0  0  0  0  0  0  0  0
   -1.5878   -9.5310    1.7169 H   0  0  0  0  0  0  0  0  0  0  0  0
   -2.2393   -8.3916    2.9284 H   0  0  0  0  0  0  0  0  0  0  0  0
    0.6545   -8.6683    5.3920 H   0  0  0  0  0  0  0  0  0  0  0  0
   -0.8735   -9.4347    5.5204 H   0  0  0  0  0  0  0  0  0  0  0  0
   -0.8804   -7.7813    5.0198 H   0  0  0  0  0  0  0  0  0  0  0  0
    0.1571  -11.2431    3.7468 H   0  0  0  0  0  0  0  0  0  0  0  0
    0.5232  -10.7282    2.1334 H   0  0  0  0  0  0  0  0  0  0  0  0
    2.1286  -10.1974    4.6620 H   0  0  0  0  0  0  0  0  0  0  0  0
    2.5801  -11.2052    3.3174 H   0  0  0  0  0  0  0  0  0  0  0  0
    3.4109   -8.5428    0.8704 H   0  0  0  0  0  0  0  0  0  0  0  0
    2.0867   -9.6970    0.9072 H   0  0  0  0  0  0  0  0  0  0  0  0
    3.7259  -10.2074    1.3401 H   0  0  0  0  0  0  0  0  0  0  0  0
    3.9375   -8.6987    4.6627 H   0  0  0  0  0  0  0  0  0  0  0  0
    4.7224   -9.7644    3.5280 H   0  0  0  0  0  0  0  0  0  0  0  0
    5.7924   -7.5337    3.6263 H   0  0  0  0  0  0  0  0  0  0  0  0
    5.2329   -7.9889    2.0576 H   0  0  0  0  0  0  0  0  0  0  0  0
    3.7033   -6.5167    5.0996 H   0  0  0  0  0  0  0  0  0  0  0  0
    3.3715   -4.9292    4.4970 H   0  0  0  0  0  0  0  0  0  0  0  0
    5.0421   -5.4485    4.7834 H   0  0  0  0  0  0  0  0  0  0  0  0
    0.9439   -5.6603    1.6720 H   0  0  0  0  0  0  0  0  0  0  0  0
    2.1600   -3.8714    0.6361 H   0  0  0  0  0  0  0  0  0  0  0  0
    2.0268   -3.5370    2.3568 H   0  0  0  0  0  0  0  0  0  0  0  0
    4.2198   -3.7483    0.5991 H   0  0  0  0  0  0  0  0  0  0  0  0
    4.6995   -1.6059    4.2224 H   0  0  0  0  0  0  0  0  0  0  0  0
    5.1797   -3.2819    4.1878 H   0  0  0  0  0  0  0  0  0  0  0  0
    3.4559   -2.8261    4.1806 H   0  0  0  0  0  0  0  0  0  0  0  0
    3.0580   -1.5331    0.8288 H   0  0  0  0  0  0  0  0  0  0  0  0
    2.5270   -1.3841    2.5254 H   0  0  0  0  0  0  0  0  0  0  0  0
    3.7272    0.6457    2.5429 H   0  0  0  0  0  0  0  0  0  0  0  0
    6.1163    0.0771    2.7227 H   0  0  0  0  0  0  0  0  0  0  0  0
    6.5305   -2.1231    2.6037 H   0  0  0  0  0  0  0  0  0  0  0  0
    5.8274   -0.8909   -1.0790 H   0  0  0  0  0  0  0  0  0  0  0  0
    4.7314   -2.1978   -0.7330 H   0  0  0  0  0  0  0  0  0  0  0  0
    6.1826   -2.4799   -1.6685 H   0  0  0  0  0  0  0  0  0  0  0  0
    7.6380   -0.3951    0.2905 H   0  0  0  0  0  0  0  0  0  0  0  0
    8.5155   -1.7240   -0.4187 H   0  0  0  0  0  0  0  0  0  0  0  0
    8.5391   -1.4493    1.2738 H   0  0  0  0  0  0  0  0  0  0  0  0
    8.2469   -4.5177    1.9997 H   0  0  0  0  0  0  0  0  0  0  0  0
    6.5705   -5.5392    3.2744 H   0  0  0  0  0  0  0  0  0  0  0  0
    3.9602   -6.5085    0.2494 H   0  0  0  0  0  0  0  0  0  0  0  0
    5.6922   -6.7548    0.5028 H   0  0  0  0  0  0  0  0  0  0  0  0
    5.1360   -5.3558   -0.3048 H   0  0  0  0  0  0  0  0  0  0  0  0
    1.9196   -7.5877    4.1518 H   0  0  0  0  0  0  0  0  0  0  0  0
    0.4385   -8.1453    1.5549 H   0  0  0  0  0  0  0  0  0  0  0  0
   -0.1155   -7.0739    2.8366 H   0  0  0  0  0  0  0  0  0  0  0  0
  1  2  1  0
  1 34  1  0
  1 35  1  0
  1 36  1  0
  2 33  1  0
  2  3  1  0
  2  4  1  0
  3 37  1  0
  3 38  1  0
  3 39  1  0
  4  5  1  0
  4 40  1  0
  4 41  1  0
  5  6  1  0
  5 42  1  0
  5 43  1  0
  6 32  1  0
  6  7  1  6
  6  8  1  0
  7 44  1  0
  7 45  1  0
  7 46  1  0
  8  9  1  0
  8 47  1  0
  8 48  1  0
  9 10  1  0
  9 49  1  0
  9 50  1  0
 10 30  1  0
 10 11  1  1
 10 12  1  0
 11 51  1  0
 11 52  1  0
 11 53  1  0
 12 13  2  0
 12 32  1  0
 13 14  1  0
 13 54  1  0
 14 15  1  0
 14 55  1  0
 14 56  1  0
 15 30  1  0
 15 16  1  0
 15 57  1  6
 16 22  1  0
 16 17  1  1
 16 18  1  0
 17 58  1  0
 17 59  1  0
 17 60  1  0
 18 19  1  0
 18 61  1  0
 18 62  1  0
 19 21  1  0
 19 20  1  0
 19 63  1  1
 20 21  1  0
 21 22  1  0
 21 64  1  1
 22 23  1  0
 22 65  1  1
 23 24  1  0
 23 25  1  0
 23 26  1  0
 24 66  1  0
 24 67  1  0
 24 68  1  0
 25 69  1  0
 25 70  1  0
 25 71  1  0
 26 27  2  0
 26 28  1  0
 28 29  2  3
 28 72  1  0
 29 30  1  0
 29 73  1  0
 30 31  1  6
 31 74  1  0
 31 75  1  0
 31 76  1  0
 32 33  1  0
 32 77  1  1
 33 78  1  0
 33 79  1  0
M  END
>  <i_m_ct_stereo_status>  (343) 
1

>  <s_m_source_file>  (343) 
/var/tmp/pbs.5076255.sched01/tmp7onimy_i/150cvk1qxg3.sdf

>  <i_m_source_file_index>  (343) 
10

>  <i_lp_mmshare_version>  (343) 
48012

>  <i_f3d_flags>  (343) 
0

>  <s_epik_input>  (343) 
W0NIMl0xW0NIMl1DKFtDSDNdKShbQ0gzXSlbQ0gyXVtDQEBIXShbQ0BdMTJbQ0gzXSlDPTNbQ0BAXShbQ0gzXSkoW0NIMl1bQ0gyXTIpW0NAQF00KFtDSDNdKVtDQEBIXShbQ0gyXVtDSF0zKVtDQEBdNShbQ0gzXSlbQ0BIXShbQ0BASF02W0NAQEhdKE82KVtDSDJdNSlDKFtDSDNdKShbQ0gzXSlDKD1PKS9bQ0hdPVtDSF1cNA==

>  <s_epik_cmdline>  (343) 
J2VwaWtfcHl0aG9uJywgJy1waHQnLCAnMi4wJywgJy1waCcsICc3LjAnLCAnLXRuJywgJzgnLCAnLW1hJywgJzIwMCcsICctaW1hZScsICc8aW5maWxlLm1hZT4nLCAnLW9tYWUnLCAnPG91dGZpbGUubWFlPic=

>  <r_lp_tautomer_probability>  (343) 
1

>  <r_epik_Ionization_Penalty>  (343) 
1.66625e-11

>  <r_epik_Ionization_Penalty_Charging>  (343) 
0

>  <r_epik_Ionization_Penalty_Neutral>  (343) 
1.66625e-11

>  <r_epik_State_Penalty>  (343) 
-0

>  <r_epik_Charging_Adjusted_Penalty>  (343) 
0

>  <i_epik_Tot_Q>  (343) 
0

>  <i_epik_Tot_abs_Q>  (343) 
0

>  <s_lp_Force_Field>  (343) 
OPLS3e

>  <r_lp_Energy>  (343) 
103.858

>  <b_lp_Chiralities_Consistent>  (343) 
1

>  <s_lp_Variant>  (343) 
91:0-1

>  <s_i_glide_gridfile>  (343) 
pfpi4k_grid

>  <i_i_glide_lignum>  (343) 
10

>  <i_i_glide_rotatable_bonds>  (343) 
0

>  <r_i_docking_score>  (343) 
-2.64935

>  <r_i_glide_ligand_efficiency>  (343) 
-0.0802833

>  <r_i_glide_ligand_efficiency_sa>  (343) 
-0.257511

>  <r_i_glide_ligand_efficiency_ln>  (343) 
-0.589202

>  <r_i_glide_gscore>  (343) 
-2.64935

>  <r_i_glide_lipo>  (343) 
-0.735765

>  <r_i_glide_hbond>  (343) 
-0.0936463

>  <r_i_glide_metal>  (343) 
-0

>  <r_i_glide_rewards>  (343) 
-0.524117

>  <r_i_glide_evdw>  (343) 
-25.3957

>  <r_i_glide_ecoul>  (343) 
-0.173577

>  <r_i_glide_erotb>  (343) 
0

>  <r_i_glide_esite>  (343) 
0

>  <r_i_glide_emodel>  (343) 
-25.9878

>  <r_i_glide_energy>  (343) 
-25.5693

>  <r_i_glide_einternal>  (343) 
0

>  <r_i_glide_intrahb_reward>  (343) 
-0

>  <i_i_glide_confnum>  (343) 
1

>  <i_i_glide_posenum>  (343) 
11

>  <r_i_glide_eff_state_penalty>  (343) 
0

>  <ligand_id>  (343) 
91

>  <original_smiles>  (343) 
CC1(C)CCC2(C)CCC3(C)C(=CCC4C5(C)CC6OC6C5C(C)(C)C(=O)C=CC43C)C2C1

>  <smiles>  (343) 
[H]C1=C([H])C2(C([H])([H])[H])C([H])(C([H])([H])C([H])=C3C4([H])C([H])([H])C(C([H])([H])[H])(C([H])([H])[H])C([H])([H])C([H])([H])C4(C([H])([H])[H])C([H])([H])C([H])([H])C32C([H])([H])[H])C2(C([H])([H])[H])C([H])([H])C3([H])OC3([H])C2([H])C(C([H])([H])[H])(C([H])([H])[H])C1=O

$$$$
91:0:1
     RDKit          3D

 79 84  0  0  1  0  0  0  0  0999 V2000
    0.2012   -9.5842    6.4891 C   0  0  0  0  0  0  0  0  0  0  0  0
    1.6551   -9.3355    6.0576 C   0  0  0  0  0  0  0  0  0  0  0  0
    2.4563   -9.0057    7.3408 C   0  0  0  0  0  0  0  0  0  0  0  0
    2.2141  -10.5925    5.3567 C   0  0  0  0  0  0  0  0  0  0  0  0
    3.6068  -10.3750    4.7600 C   0  0  0  0  0  0  0  0  0  0  0  0
    3.6768   -9.1752    3.7856 C   0  0  2  0  0  0  0  0  0  0  0  0
    2.9421   -9.5531    2.4767 C   0  0  0  0  0  0  0  0  0  0  0  0
    5.1624   -8.8815    3.5106 C   0  0  0  0  0  0  0  0  0  0  0  0
    5.3595   -7.6758    2.5807 C   0  0  0  0  0  0  0  0  0  0  0  0
    4.6405   -6.3408    3.0087 C   0  0  2  0  0  0  0  0  0  0  0  0
    5.4854   -5.7636    4.1747 C   0  0  0  0  0  0  0  0  0  0  0  0
    3.2509   -6.6236    3.6131 C   0  0  0  0  0  0  0  0  0  0  0  0
    2.2780   -5.6932    3.5224 C   0  0  0  0  0  0  0  0  0  0  0  0
    2.4461   -4.2979    2.9634 C   0  0  0  0  0  0  0  0  0  0  0  0
    3.6536   -4.0297    2.0238 C   0  0  1  0  0  0  0  0  0  0  0  0
    4.2930   -2.5801    2.2287 C   0  0  2  0  0  0  0  0  0  0  0  0
    5.2238   -2.5797    3.4491 C   0  0  0  0  0  0  0  0  0  0  0  0
    3.2042   -1.5121    2.5651 C   0  0  0  0  0  0  0  0  0  0  0  0
    3.7839   -0.1824    2.2145 C   0  0  2  0  0  0  0  0  0  0  0  0
    3.6881    0.1986    0.8548 O   0  0  0  0  0  0  0  0  0  0  0  0
    4.9163   -0.4086    1.2606 C   0  0  2  0  0  0  0  0  0  0  0  0
    5.0933   -1.8962    1.0360 C   0  0  2  0  0  0  0  0  0  0  0  0
    4.8612   -2.2877   -0.4768 C   0  0  0  0  0  0  0  0  0  0  0  0
    3.4137   -2.0551   -0.9912 C   0  0  0  0  0  0  0  0  0  0  0  0
    5.7708   -1.4189   -1.3568 C   0  0  0  0  0  0  0  0  0  0  0  0
    5.3343   -3.7144   -0.7957 C   0  0  0  0  0  0  0  0  0  0  0  0
    5.0152   -4.2328   -1.8690 O   0  0  0  0  0  0  0  0  0  0  0  0
    6.2859   -4.3622    0.1031 C   0  0  0  0  0  0  0  0  0  0  0  0
    5.9267   -5.0320    1.2132 C   0  0  0  0  0  0  0  0  0  0  0  0
    4.5186   -5.3402    1.7502 C   0  0  1  0  0  0  0  0  0  0  0  0
    3.7550   -6.1009    0.6104 C   0  0  0  0  0  0  0  0  0  0  0  0
    3.0893   -7.9048    4.4573 C   0  0  1  0  0  0  0  0  0  0  0  0
    1.6789   -8.1658    5.0468 C   0  0  0  0  0  0  0  0  0  0  0  0
    0.1228  -10.4220    7.1832 H   0  0  0  0  0  0  0  0  0  0  0  0
   -0.4180   -9.8264    5.6276 H   0  0  0  0  0  0  0  0  0  0  0  0
   -0.2266   -8.7117    6.9846 H   0  0  0  0  0  0  0  0  0  0  0  0
    3.5215   -8.8709    7.1493 H   0  0  0  0  0  0  0  0  0  0  0  0
    2.3687   -9.8095    8.0775 H   0  0  0  0  0  0  0  0  0  0  0  0
    2.0929   -8.0867    7.8056 H   0  0  0  0  0  0  0  0  0  0  0  0
    2.2847  -11.4162    6.0625 H   0  0  0  0  0  0  0  0  0  0  0  0
    1.5221  -10.9270    4.5859 H   0  0  0  0  0  0  0  0  0  0  0  0
    4.3206  -10.2472    5.5722 H   0  0  0  0  0  0  0  0  0  0  0  0
    3.9129  -11.2903    4.2513 H   0  0  0  0  0  0  0  0  0  0  0  0
    2.8960   -8.7238    1.7751 H   0  0  0  0  0  0  0  0  0  0  0  0
    1.9134   -9.8666    2.6516 H   0  0  0  0  0  0  0  0  0  0  0  0
    3.4482  -10.3789    1.9724 H   0  0  0  0  0  0  0  0  0  0  0  0
    5.6778   -8.6987    4.4531 H   0  0  0  0  0  0  0  0  0  0  0  0
    5.6436   -9.7609    3.0804 H   0  0  0  0  0  0  0  0  0  0  0  0
    6.4305   -7.5058    2.4801 H   0  0  0  0  0  0  0  0  0  0  0  0
    5.0416   -8.0234    1.6054 H   0  0  0  0  0  0  0  0  0  0  0  0
    5.6697   -6.5092    4.9448 H   0  0  0  0  0  0  0  0  0  0  0  0
    4.9637   -4.9564    4.6801 H   0  0  0  0  0  0  0  0  0  0  0  0
    6.4664   -5.4068    3.8720 H   0  0  0  0  0  0  0  0  0  0  0  0
    1.3200   -5.8457    3.9897 H   0  0  0  0  0  0  0  0  0  0  0  0
    1.5192   -4.0403    2.4503 H   0  0  0  0  0  0  0  0  0  0  0  0
    2.4955   -3.6647    3.8463 H   0  0  0  0  0  0  0  0  0  0  0  0
    3.1382   -3.8542    1.0921 H   0  0  0  0  0  0  0  0  0  0  0  0
    5.6683   -1.5962    3.6330 H   0  0  0  0  0  0  0  0  0  0  0  0
    6.0464   -3.2631    3.2803 H   0  0  0  0  0  0  0  0  0  0  0  0
    4.7062   -2.8581    4.3661 H   0  0  0  0  0  0  0  0  0  0  0  0
    2.2990   -1.6511    1.9698 H   0  0  0  0  0  0  0  0  0  0  0  0
    2.9207   -1.4966    3.6143 H   0  0  0  0  0  0  0  0  0  0  0  0
    3.7773    0.6358    2.9336 H   0  0  0  0  0  0  0  0  0  0  0  0
    5.7946    0.2368    1.2448 H   0  0  0  0  0  0  0  0  0  0  0  0
    6.1528   -2.0539    1.2307 H   0  0  0  0  0  0  0  0  0  0  0  0
    3.2380   -1.0082   -1.2391 H   0  0  0  0  0  0  0  0  0  0  0  0
    2.6504   -2.3265   -0.2681 H   0  0  0  0  0  0  0  0  0  0  0  0
    3.1959   -2.5962   -1.9085 H   0  0  0  0  0  0  0  0  0  0  0  0
    5.4961   -0.3634   -1.3161 H   0  0  0  0  0  0  0  0  0  0  0  0
    5.7104   -1.7065   -2.4058 H   0  0  0  0  0  0  0  0  0  0  0  0
    6.8092   -1.5007   -1.0399 H   0  0  0  0  0  0  0  0  0  0  0  0
    7.3325   -4.2651   -0.1413 H   0  0  0  0  0  0  0  0  0  0  0  0
    6.7524   -5.4461    1.7663 H   0  0  0  0  0  0  0  0  0  0  0  0
    2.8791   -6.6307    0.9797 H   0  0  0  0  0  0  0  0  0  0  0  0
    4.3838   -6.8174    0.0823 H   0  0  0  0  0  0  0  0  0  0  0  0
    3.3792   -5.4585   -0.1826 H   0  0  0  0  0  0  0  0  0  0  0  0
    3.7216   -7.6893    5.3152 H   0  0  0  0  0  0  0  0  0  0  0  0
    0.9879   -8.3816    4.2312 H   0  0  0  0  0  0  0  0  0  0  0  0
    1.2914   -7.2848    5.5562 H   0  0  0  0  0  0  0  0  0  0  0  0
  1  2  1  0
  1 34  1  0
  1 35  1  0
  1 36  1  0
  2 33  1  0
  2  3  1  0
  2  4  1  0
  3 37  1  0
  3 38  1  0
  3 39  1  0
  4  5  1  0
  4 40  1  0
  4 41  1  0
  5  6  1  0
  5 42  1  0
  5 43  1  0
  6 32  1  0
  6  7  1  6
  6  8  1  0
  7 44  1  0
  7 45  1  0
  7 46  1  0
  8  9  1  0
  8 47  1  0
  8 48  1  0
  9 10  1  0
  9 49  1  0
  9 50  1  0
 10 30  1  0
 10 11  1  1
 10 12  1  0
 11 51  1  0
 11 52  1  0
 11 53  1  0
 12 13  2  0
 12 32  1  0
 13 14  1  0
 13 54  1  0
 14 15  1  0
 14 55  1  0
 14 56  1  0
 15 30  1  0
 15 16  1  0
 15 57  1  6
 16 22  1  0
 16 17  1  1
 16 18  1  0
 17 58  1  0
 17 59  1  0
 17 60  1  0
 18 19  1  0
 18 61  1  0
 18 62  1  0
 19 21  1  0
 19 20  1  0
 19 63  1  1
 20 21  1  0
 21 22  1  0
 21 64  1  1
 22 23  1  0
 22 65  1  1
 23 24  1  0
 23 25  1  0
 23 26  1  0
 24 66  1  0
 24 67  1  0
 24 68  1  0
 25 69  1  0
 25 70  1  0
 25 71  1  0
 26 27  2  0
 26 28  1  0
 28 29  2  3
 28 72  1  0
 29 30  1  0
 29 73  1  0
 30 31  1  6
 31 74  1  0
 31 75  1  0
 31 76  1  0
 32 33  1  0
 32 77  1  1
 33 78  1  0
 33 79  1  0
M  END
>  <i_m_ct_stereo_status>  (344) 
1

>  <s_m_source_file>  (344) 
/var/tmp/pbs.5076255.sched01/tmp7onimy_i/150cvk1qxg3.sdf

>  <i_m_source_file_index>  (344) 
10

>  <i_lp_mmshare_version>  (344) 
48012

>  <i_f3d_flags>  (344) 
0

>  <s_epik_input>  (344) 
W0NIMl0xW0NIMl1DKFtDSDNdKShbQ0gzXSlbQ0gyXVtDQEBIXShbQ0BdMTJbQ0gzXSlDPTNbQ0BAXShbQ0gzXSkoW0NIMl1bQ0gyXTIpW0NAQF00KFtDSDNdKVtDQEBIXShbQ0gyXVtDSF0zKVtDQEBdNShbQ0gzXSlbQ0BIXShbQ0BASF02W0NAQEhdKE82KVtDSDJdNSlDKFtDSDNdKShbQ0gzXSlDKD1PKS9bQ0hdPVtDSF1cNA==

>  <s_epik_cmdline>  (344) 
J2VwaWtfcHl0aG9uJywgJy1waHQnLCAnMi4wJywgJy1waCcsICc3LjAnLCAnLXRuJywgJzgnLCAnLW1hJywgJzIwMCcsICctaW1hZScsICc8aW5maWxlLm1hZT4nLCAnLW9tYWUnLCAnPG91dGZpbGUubWFlPic=

>  <r_lp_tautomer_probability>  (344) 
1

>  <r_epik_Ionization_Penalty>  (344) 
1.66625e-11

>  <r_epik_Ionization_Penalty_Charging>  (344) 
0

>  <r_epik_Ionization_Penalty_Neutral>  (344) 
1.66625e-11

>  <r_epik_State_Penalty>  (344) 
-0

>  <r_epik_Charging_Adjusted_Penalty>  (344) 
0

>  <i_epik_Tot_Q>  (344) 
0

>  <i_epik_Tot_abs_Q>  (344) 
0

>  <s_lp_Force_Field>  (344) 
OPLS3e

>  <r_lp_Energy>  (344) 
103.858

>  <b_lp_Chiralities_Consistent>  (344) 
1

>  <s_lp_Variant>  (344) 
91:0-1

>  <s_i_glide_gridfile>  (344) 
pfpi4k_grid

>  <i_i_glide_lignum>  (344) 
10

>  <i_i_glide_rotatable_bonds>  (344) 
0

>  <r_i_docking_score>  (344) 
-2.11135

>  <r_i_glide_ligand_efficiency>  (344) 
-0.0639802

>  <r_i_glide_ligand_efficiency_sa>  (344) 
-0.205219

>  <r_i_glide_ligand_efficiency_ln>  (344) 
-0.469552

>  <r_i_glide_gscore>  (344) 
-2.11135

>  <r_i_glide_lipo>  (344) 
-0.554712

>  <r_i_glide_hbond>  (344) 
0

>  <r_i_glide_metal>  (344) 
-0

>  <r_i_glide_rewards>  (344) 
-0.41139

>  <r_i_glide_evdw>  (344) 
-27.0479

>  <r_i_glide_ecoul>  (344) 
1.38101

>  <r_i_glide_erotb>  (344) 
0

>  <r_i_glide_esite>  (344) 
0

>  <r_i_glide_emodel>  (344) 
-28.8964

>  <r_i_glide_energy>  (344) 
-25.6669

>  <r_i_glide_einternal>  (344) 
0

>  <r_i_glide_intrahb_reward>  (344) 
-0

>  <i_i_glide_confnum>  (344) 
1

>  <i_i_glide_posenum>  (344) 
2

>  <r_i_glide_eff_state_penalty>  (344) 
0

>  <ligand_id>  (344) 
91

>  <original_smiles>  (344) 
CC1(C)CCC2(C)CCC3(C)C(=CCC4C5(C)CC6OC6C5C(C)(C)C(=O)C=CC43C)C2C1

>  <smiles>  (344) 
[H]C1=C([H])C2(C([H])([H])[H])C([H])(C([H])([H])C([H])=C3C4([H])C([H])([H])C(C([H])([H])[H])(C([H])([H])[H])C([H])([H])C([H])([H])C4(C([H])([H])[H])C([H])([H])C([H])([H])C32C([H])([H])[H])C2(C([H])([H])[H])C([H])([H])C3([H])OC3([H])C2([H])C(C([H])([H])[H])(C([H])([H])[H])C1=O

$$$$
91:0:2
     RDKit          3D

 79 84  0  0  1  0  0  0  0  0999 V2000
    1.0188  -11.1945    3.8313 C   0  0  0  0  0  0  0  0  0  0  0  0
    2.2585  -10.2912    3.9854 C   0  0  0  0  0  0  0  0  0  0  0  0
    2.8515  -10.5417    5.3938 C   0  0  0  0  0  0  0  0  0  0  0  0
    3.2836  -10.6489    2.8910 C   0  0  0  0  0  0  0  0  0  0  0  0
    4.4840   -9.6871    2.8597 C   0  0  0  0  0  0  0  0  0  0  0  0
    4.0889   -8.1918    2.7336 C   0  0  2  0  0  0  0  0  0  0  0  0
    3.5829   -7.9247    1.2957 C   0  0  0  0  0  0  0  0  0  0  0  0
    5.3380   -7.3415    3.0316 C   0  0  0  0  0  0  0  0  0  0  0  0
    5.0548   -5.8321    2.9780 C   0  0  0  0  0  0  0  0  0  0  0  0
    3.8634   -5.3142    3.8671 C   0  0  2  0  0  0  0  0  0  0  0  0
    4.3950   -5.3100    5.3254 C   0  0  0  0  0  0  0  0  0  0  0  0
    2.6900   -6.3167    3.8639 C   0  0  0  0  0  0  0  0  0  0  0  0
    1.4341   -5.8718    4.0616 C   0  0  0  0  0  0  0  0  0  0  0  0
    1.0528   -4.4483    4.4129 C   0  0  0  0  0  0  0  0  0  0  0  0
    2.0646   -3.3144    4.0867 C   0  0  1  0  0  0  0  0  0  0  0  0
    2.0805   -2.1513    5.1866 C   0  0  2  0  0  0  0  0  0  0  0  0
    2.9311   -2.5821    6.4031 C   0  0  0  0  0  0  0  0  0  0  0  0
    0.6474   -1.8936    5.7608 C   0  0  0  0  0  0  0  0  0  0  0  0
    0.6332   -0.5041    6.3196 C   0  0  2  0  0  0  0  0  0  0  0  0
    0.4093    0.5644    5.4036 O   0  0  0  0  0  0  0  0  0  0  0  0
    1.7748    0.2459    5.7140 C   0  0  2  0  0  0  0  0  0  0  0  0
    2.5431   -0.6797    4.7820 C   0  0  2  0  0  0  0  0  0  0  0  0
    2.5140   -0.1414    3.2959 C   0  0  0  0  0  0  0  0  0  0  0  0
    1.0943   -0.1302    2.6546 C   0  0  0  0  0  0  0  0  0  0  0  0
    3.0030    1.3290    3.2895 C   0  0  0  0  0  0  0  0  0  0  0  0
    3.5151   -0.8804    2.3785 C   0  0  0  0  0  0  0  0  0  0  0  0
    3.4267   -0.7732    1.1563 O   0  0  0  0  0  0  0  0  0  0  0  0
    4.6350   -1.6070    2.9847 C   0  0  0  0  0  0  0  0  0  0  0  0
    4.5508   -2.8707    3.4356 C   0  0  0  0  0  0  0  0  0  0  0  0
    3.3732   -3.8613    3.3627 C   0  0  1  0  0  0  0  0  0  0  0  0
    2.9801   -3.9946    1.8471 C   0  0  0  0  0  0  0  0  0  0  0  0
    3.0355   -7.8235    3.8126 C   0  0  1  0  0  0  0  0  0  0  0  0
    1.8371   -8.8111    3.8009 C   0  0  0  0  0  0  0  0  0  0  0  0
    1.2806  -12.2492    3.9410 H   0  0  0  0  0  0  0  0  0  0  0  0
    0.5562  -11.0695    2.8521 H   0  0  0  0  0  0  0  0  0  0  0  0
    0.2641  -10.9663    4.5856 H   0  0  0  0  0  0  0  0  0  0  0  0
    3.7773   -9.9937    5.5693 H   0  0  0  0  0  0  0  0  0  0  0  0
    3.0797  -11.5985    5.5508 H   0  0  0  0  0  0  0  0  0  0  0  0
    2.1504  -10.2452    6.1778 H   0  0  0  0  0  0  0  0  0  0  0  0
    3.6355  -11.6729    3.0214 H   0  0  0  0  0  0  0  0  0  0  0  0
    2.7927  -10.6395    1.9192 H   0  0  0  0  0  0  0  0  0  0  0  0
    5.0806   -9.8402    3.7583 H   0  0  0  0  0  0  0  0  0  0  0  0
    5.1314   -9.9690    2.0291 H   0  0  0  0  0  0  0  0  0  0  0  0
    3.2161   -6.9086    1.1689 H   0  0  0  0  0  0  0  0  0  0  0  0
    2.7601   -8.5841    1.0231 H   0  0  0  0  0  0  0  0  0  0  0  0
    4.3779   -8.0759    0.5629 H   0  0  0  0  0  0  0  0  0  0  0  0
    5.7277   -7.5989    4.0164 H   0  0  0  0  0  0  0  0  0  0  0  0
    6.1354   -7.5881    2.3291 H   0  0  0  0  0  0  0  0  0  0  0  0
    5.9733   -5.3105    3.2466 H   0  0  0  0  0  0  0  0  0  0  0  0
    4.9127   -5.6129    1.9280 H   0  0  0  0  0  0  0  0  0  0  0  0
    4.8519   -6.2611    5.5900 H   0  0  0  0  0  0  0  0  0  0  0  0
    3.5911   -5.1752    6.0434 H   0  0  0  0  0  0  0  0  0  0  0  0
    5.1555   -4.5558    5.5142 H   0  0  0  0  0  0  0  0  0  0  0  0
    0.6067   -6.5602    4.1242 H   0  0  0  0  0  0  0  0  0  0  0  0
    0.1156   -4.2316    3.9090 H   0  0  0  0  0  0  0  0  0  0  0  0
    0.8260   -4.4855    5.4751 H   0  0  0  0  0  0  0  0  0  0  0  0
    1.5258   -2.7982    3.3042 H   0  0  0  0  0  0  0  0  0  0  0  0
    2.9317   -1.8293    7.1933 H   0  0  0  0  0  0  0  0  0  0  0  0
    3.9739   -2.7350    6.1340 H   0  0  0  0  0  0  0  0  0  0  0  0
    2.5500   -3.4954    6.8569 H   0  0  0  0  0  0  0  0  0  0  0  0
   -0.1192   -1.9454    4.9866 H   0  0  0  0  0  0  0  0  0  0  0  0
    0.3676   -2.5892    6.5509 H   0  0  0  0  0  0  0  0  0  0  0  0
    0.3140   -0.3277    7.3454 H   0  0  0  0  0  0  0  0  0  0  0  0
    2.3204    0.9921    6.2905 H   0  0  0  0  0  0  0  0  0  0  0  0
    3.5778   -0.5835    5.1109 H   0  0  0  0  0  0  0  0  0  0  0  0
    0.5154    0.7351    2.9747 H   0  0  0  0  0  0  0  0  0  0  0  0
    0.5021   -1.0035    2.9037 H   0  0  0  0  0  0  0  0  0  0  0  0
    1.1176   -0.0631    1.5679 H   0  0  0  0  0  0  0  0  0  0  0  0
    2.3223    1.9968    3.8176 H   0  0  0  0  0  0  0  0  0  0  0  0
    3.0781    1.7228    2.2758 H   0  0  0  0  0  0  0  0  0  0  0  0
    3.9862    1.4329    3.7515 H   0  0  0  0  0  0  0  0  0  0  0  0
    5.5656   -1.0663    3.0887 H   0  0  0  0  0  0  0  0  0  0  0  0
    5.4635   -3.2520    3.8667 H   0  0  0  0  0  0  0  0  0  0  0  0
    2.3815   -4.8802    1.6465 H   0  0  0  0  0  0  0  0  0  0  0  0
    3.8474   -4.0181    1.1895 H   0  0  0  0  0  0  0  0  0  0  0  0
    2.3883   -3.1675    1.4628 H   0  0  0  0  0  0  0  0  0  0  0  0
    3.5176   -7.9733    4.7764 H   0  0  0  0  0  0  0  0  0  0  0  0
    1.2994   -8.7042    2.8579 H   0  0  0  0  0  0  0  0  0  0  0  0
    1.1237   -8.5741    4.5903 H   0  0  0  0  0  0  0  0  0  0  0  0
  1  2  1  0
  1 34  1  0
  1 35  1  0
  1 36  1  0
  2 33  1  0
  2  3  1  0
  2  4  1  0
  3 37  1  0
  3 38  1  0
  3 39  1  0
  4  5  1  0
  4 40  1  0
  4 41  1  0
  5  6  1  0
  5 42  1  0
  5 43  1  0
  6 32  1  0
  6  7  1  6
  6  8  1  0
  7 44  1  0
  7 45  1  0
  7 46  1  0
  8  9  1  0
  8 47  1  0
  8 48  1  0
  9 10  1  0
  9 49  1  0
  9 50  1  0
 10 30  1  0
 10 11  1  1
 10 12  1  0
 11 51  1  0
 11 52  1  0
 11 53  1  0
 12 13  2  0
 12 32  1  0
 13 14  1  0
 13 54  1  0
 14 15  1  0
 14 55  1  0
 14 56  1  0
 15 30  1  0
 15 16  1  0
 15 57  1  6
 16 22  1  0
 16 17  1  1
 16 18  1  0
 17 58  1  0
 17 59  1  0
 17 60  1  0
 18 19  1  0
 18 61  1  0
 18 62  1  0
 19 21  1  0
 19 20  1  0
 19 63  1  1
 20 21  1  0
 21 22  1  0
 21 64  1  1
 22 23  1  0
 22 65  1  1
 23 24  1  0
 23 25  1  0
 23 26  1  0
 24 66  1  0
 24 67  1  0
 24 68  1  0
 25 69  1  0
 25 70  1  0
 25 71  1  0
 26 27  2  0
 26 28  1  0
 28 29  2  3
 28 72  1  0
 29 30  1  0
 29 73  1  0
 30 31  1  6
 31 74  1  0
 31 75  1  0
 31 76  1  0
 32 33  1  0
 32 77  1  1
 33 78  1  0
 33 79  1  0
M  END
>  <i_m_ct_stereo_status>  (345) 
1

>  <s_m_source_file>  (345) 
/var/tmp/pbs.5076255.sched01/tmp7onimy_i/150cvk1qxg3.sdf

>  <i_m_source_file_index>  (345) 
10

>  <i_lp_mmshare_version>  (345) 
48012

>  <i_f3d_flags>  (345) 
0

>  <s_epik_input>  (345) 
W0NIMl0xW0NIMl1DKFtDSDNdKShbQ0gzXSlbQ0gyXVtDQEBIXShbQ0BdMTJbQ0gzXSlDPTNbQ0BAXShbQ0gzXSkoW0NIMl1bQ0gyXTIpW0NAQF00KFtDSDNdKVtDQEBIXShbQ0gyXVtDSF0zKVtDQEBdNShbQ0gzXSlbQ0BIXShbQ0BASF02W0NAQEhdKE82KVtDSDJdNSlDKFtDSDNdKShbQ0gzXSlDKD1PKS9bQ0hdPVtDSF1cNA==

>  <s_epik_cmdline>  (345) 
J2VwaWtfcHl0aG9uJywgJy1waHQnLCAnMi4wJywgJy1waCcsICc3LjAnLCAnLXRuJywgJzgnLCAnLW1hJywgJzIwMCcsICctaW1hZScsICc8aW5maWxlLm1hZT4nLCAnLW9tYWUnLCAnPG91dGZpbGUubWFlPic=

>  <r_lp_tautomer_probability>  (345) 
1

>  <r_epik_Ionization_Penalty>  (345) 
1.66625e-11

>  <r_epik_Ionization_Penalty_Charging>  (345) 
0

>  <r_epik_Ionization_Penalty_Neutral>  (345) 
1.66625e-11

>  <r_epik_State_Penalty>  (345) 
-0

>  <r_epik_Charging_Adjusted_Penalty>  (345) 
0

>  <i_epik_Tot_Q>  (345) 
0

>  <i_epik_Tot_abs_Q>  (345) 
0

>  <s_lp_Force_Field>  (345) 
OPLS3e

>  <r_lp_Energy>  (345) 
103.858

>  <b_lp_Chiralities_Consistent>  (345) 
1

>  <s_lp_Variant>  (345) 
91:0-1

>  <s_i_glide_gridfile>  (345) 
pfpi4k_grid

>  <i_i_glide_lignum>  (345) 
10

>  <i_i_glide_rotatable_bonds>  (345) 
0

>  <r_i_docking_score>  (345) 
-1.88249

>  <r_i_glide_ligand_efficiency>  (345) 
-0.0570451

>  <r_i_glide_ligand_efficiency_sa>  (345) 
-0.182974

>  <r_i_glide_ligand_efficiency_ln>  (345) 
-0.418655

>  <r_i_glide_gscore>  (345) 
-1.88249

>  <r_i_glide_lipo>  (345) 
-0.239916

>  <r_i_glide_hbond>  (345) 
0

>  <r_i_glide_metal>  (345) 
-0

>  <r_i_glide_rewards>  (345) 
-0.338199

>  <r_i_glide_evdw>  (345) 
-26.9308

>  <r_i_glide_ecoul>  (345) 
0.28111

>  <r_i_glide_erotb>  (345) 
0

>  <r_i_glide_esite>  (345) 
0

>  <r_i_glide_emodel>  (345) 
-29.5365

>  <r_i_glide_energy>  (345) 
-26.6496

>  <r_i_glide_einternal>  (345) 
0

>  <r_i_glide_intrahb_reward>  (345) 
-0

>  <i_i_glide_confnum>  (345) 
2

>  <i_i_glide_posenum>  (345) 
10

>  <r_i_glide_eff_state_penalty>  (345) 
0

>  <ligand_id>  (345) 
91

>  <original_smiles>  (345) 
CC1(C)CCC2(C)CCC3(C)C(=CCC4C5(C)CC6OC6C5C(C)(C)C(=O)C=CC43C)C2C1

>  <smiles>  (345) 
[H]C1=C([H])C2(C([H])([H])[H])C([H])(C([H])([H])C([H])=C3C4([H])C([H])([H])C(C([H])([H])[H])(C([H])([H])[H])C([H])([H])C([H])([H])C4(C([H])([H])[H])C([H])([H])C([H])([H])C32C([H])([H])[H])C2(C([H])([H])[H])C([H])([H])C3([H])OC3([H])C2([H])C(C([H])([H])[H])(C([H])([H])[H])C1=O

$$$$
91:1:0
     RDKit          3D

 79 84  0  0  1  0  0  0  0  0999 V2000
   -0.5900   -7.7235    2.0913 C   0  0  0  0  0  0  0  0  0  0  0  0
    0.1397   -8.4246    3.2506 C   0  0  0  0  0  0  0  0  0  0  0  0
   -0.7333   -8.2572    4.5198 C   0  0  0  0  0  0  0  0  0  0  0  0
    0.3309   -9.9145    2.8997 C   0  0  0  0  0  0  0  0  0  0  0  0
    1.1896  -10.6714    3.9272 C   0  0  0  0  0  0  0  0  0  0  0  0
    2.5730  -10.0161    4.1863 C   0  0  2  0  0  0  0  0  0  0  0  0
    3.4889  -10.2522    2.9575 C   0  0  0  0  0  0  0  0  0  0  0  0
    3.1875  -10.6728    5.4417 C   0  0  0  0  0  0  0  0  0  0  0  0
    4.5293  -10.0355    5.8579 C   0  0  0  0  0  0  0  0  0  0  0  0
    4.5297   -8.4724    6.0228 C   0  0  2  0  0  0  0  0  0  0  0  0
    3.7240   -8.1988    7.3254 C   0  0  0  0  0  0  0  0  0  0  0  0
    3.7265   -7.8152    4.8825 C   0  0  0  0  0  0  0  0  0  0  0  0
    4.1336   -6.6626    4.3086 C   0  0  0  0  0  0  0  0  0  0  0  0
    5.3499   -5.8363    4.6875 C   0  0  0  0  0  0  0  0  0  0  0  0
    6.2079   -6.3400    5.8869 C   0  0  1  0  0  0  0  0  0  0  0  0
    6.3343   -5.3111    7.1322 C   0  0  2  0  0  0  0  0  0  0  0  0
    4.9485   -5.1958    7.8057 C   0  0  0  0  0  0  0  0  0  0  0  0
    6.6306   -3.8779    6.5831 C   0  0  0  0  0  0  0  0  0  0  0  0
    7.1370   -3.0485    7.7216 C   0  0  2  0  0  0  0  0  0  0  0  0
    8.5141   -3.1641    8.0722 O   0  0  0  0  0  0  0  0  0  0  0  0
    7.5870   -3.9852    8.7952 C   0  0  2  0  0  0  0  0  0  0  0  0
    7.4153   -5.4293    8.3437 C   0  0  2  0  0  0  0  0  0  0  0  0
    8.8445   -6.1547    8.3277 C   0  0  0  0  0  0  0  0  0  0  0  0
    9.6879   -5.8423    7.0657 C   0  0  0  0  0  0  0  0  0  0  0  0
    9.7057   -5.6675    9.5332 C   0  0  0  0  0  0  0  0  0  0  0  0
    8.7331   -7.7010    8.4758 C   0  0  0  0  0  0  0  0  0  0  0  0
    9.1562   -8.3004    9.4670 O   0  0  0  0  0  0  0  0  0  0  0  0
    8.1013   -8.3834    7.3718 C   0  0  0  0  0  0  0  0  0  0  0  0
    6.7728   -8.2240    7.3151 C   0  0  0  0  0  0  0  0  0  0  0  0
    6.0403   -7.9092    6.0347 C   0  0  1  0  0  0  0  0  0  0  0  0
    6.8229   -8.5189    4.8147 C   0  0  0  0  0  0  0  0  0  0  0  0
    2.3990   -8.5054    4.5040 C   0  0  1  0  0  0  0  0  0  0  0  0
    1.5381   -7.7862    3.4326 C   0  0  0  0  0  0  0  0  0  0  0  0
   -1.5730   -8.1673    1.9206 H   0  0  0  0  0  0  0  0  0  0  0  0
   -0.0286   -7.8101    1.1614 H   0  0  0  0  0  0  0  0  0  0  0  0
   -0.7321   -6.6641    2.3008 H   0  0  0  0  0  0  0  0  0  0  0  0
   -0.3318   -8.8025    5.3753 H   0  0  0  0  0  0  0  0  0  0  0  0
   -1.7425   -8.6498    4.3673 H   0  0  0  0  0  0  0  0  0  0  0  0
   -0.8178   -7.2107    4.8193 H   0  0  0  0  0  0  0  0  0  0  0  0
   -0.6381  -10.3997    2.8014 H   0  0  0  0  0  0  0  0  0  0  0  0
    0.7984   -9.9997    1.9214 H   0  0  0  0  0  0  0  0  0  0  0  0
    0.6330  -10.7562    4.8602 H   0  0  0  0  0  0  0  0  0  0  0  0
    1.3278  -11.6981    3.5844 H   0  0  0  0  0  0  0  0  0  0  0  0
    4.4495   -9.7479    3.0554 H   0  0  0  0  0  0  0  0  0  0  0  0
    3.0462   -9.8912    2.0296 H   0  0  0  0  0  0  0  0  0  0  0  0
    3.6957  -11.3156    2.8184 H   0  0  0  0  0  0  0  0  0  0  0  0
    2.4796  -10.6156    6.2675 H   0  0  0  0  0  0  0  0  0  0  0  0
    3.3266  -11.7425    5.2743 H   0  0  0  0  0  0  0  0  0  0  0  0
    4.8742  -10.4997    6.7823 H   0  0  0  0  0  0  0  0  0  0  0  0
    5.2210  -10.3753    5.0969 H   0  0  0  0  0  0  0  0  0  0  0  0
    4.2630   -8.4102    8.2446 H   0  0  0  0  0  0  0  0  0  0  0  0
    2.8289   -8.8125    7.3921 H   0  0  0  0  0  0  0  0  0  0  0  0
    3.3405   -7.1845    7.3562 H   0  0  0  0  0  0  0  0  0  0  0  0
    3.5574   -6.2164    3.5131 H   0  0  0  0  0  0  0  0  0  0  0  0
    5.9774   -5.7942    3.7944 H   0  0  0  0  0  0  0  0  0  0  0  0
    4.9791   -4.8267    4.8335 H   0  0  0  0  0  0  0  0  0  0  0  0
    7.2063   -6.2104    5.4903 H   0  0  0  0  0  0  0  0  0  0  0  0
    4.8576   -4.3032    8.4291 H   0  0  0  0  0  0  0  0  0  0  0  0
    4.7595   -6.0348    8.4711 H   0  0  0  0  0  0  0  0  0  0  0  0
    4.1440   -5.1367    7.0723 H   0  0  0  0  0  0  0  0  0  0  0  0
    7.4042   -3.9010    5.8162 H   0  0  0  0  0  0  0  0  0  0  0  0
    5.7593   -3.3761    6.1677 H   0  0  0  0  0  0  0  0  0  0  0  0
    6.6702   -2.0928    7.9526 H   0  0  0  0  0  0  0  0  0  0  0  0
    7.4458   -3.7329    9.8449 H   0  0  0  0  0  0  0  0  0  0  0  0
    6.8922   -5.9142    9.1685 H   0  0  0  0  0  0  0  0  0  0  0  0
    9.9792   -4.7935    7.0188 H   0  0  0  0  0  0  0  0  0  0  0  0
    9.1831   -6.0780    6.1354 H   0  0  0  0  0  0  0  0  0  0  0  0
   10.6142   -6.4153    7.0697 H   0  0  0  0  0  0  0  0  0  0  0  0
   10.0308   -4.6320    9.4273 H   0  0  0  0  0  0  0  0  0  0  0  0
   10.6281   -6.2400    9.6344 H   0  0  0  0  0  0  0  0  0  0  0  0
    9.1670   -5.7482   10.4799 H   0  0  0  0  0  0  0  0  0  0  0  0
    8.7119   -8.5419    6.4976 H   0  0  0  0  0  0  0  0  0  0  0  0
    6.2683   -7.9157    8.2158 H   0  0  0  0  0  0  0  0  0  0  0  0
    6.2377   -8.4983    3.8959 H   0  0  0  0  0  0  0  0  0  0  0  0
    7.1237   -9.5524    4.9899 H   0  0  0  0  0  0  0  0  0  0  0  0
    7.7534   -8.0014    4.5828 H   0  0  0  0  0  0  0  0  0  0  0  0
    1.8207   -8.4427    5.4214 H   0  0  0  0  0  0  0  0  0  0  0  0
    2.0664   -7.8083    2.4790 H   0  0  0  0  0  0  0  0  0  0  0  0
    1.4069   -6.7348    3.6878 H   0  0  0  0  0  0  0  0  0  0  0  0
  1  2  1  0
  1 34  1  0
  1 35  1  0
  1 36  1  0
  2 33  1  0
  2  3  1  0
  2  4  1  0
  3 37  1  0
  3 38  1  0
  3 39  1  0
  4  5  1  0
  4 40  1  0
  4 41  1  0
  5  6  1  0
  5 42  1  0
  5 43  1  0
  6 32  1  0
  6  7  1  6
  6  8  1  0
  7 44  1  0
  7 45  1  0
  7 46  1  0
  8  9  1  0
  8 47  1  0
  8 48  1  0
  9 10  1  0
  9 49  1  0
  9 50  1  0
 10 30  1  0
 10 11  1  1
 10 12  1  0
 11 51  1  0
 11 52  1  0
 11 53  1  0
 12 13  2  0
 12 32  1  0
 13 14  1  0
 13 54  1  0
 14 15  1  0
 14 55  1  0
 14 56  1  0
 15 30  1  0
 15 16  1  0
 15 57  1  6
 16 22  1  0
 16 17  1  1
 16 18  1  0
 17 58  1  0
 17 59  1  0
 17 60  1  0
 18 19  1  0
 18 61  1  0
 18 62  1  0
 19 21  1  0
 19 20  1  0
 19 63  1  1
 20 21  1  0
 21 22  1  0
 21 64  1  1
 22 23  1  0
 22 65  1  1
 23 24  1  0
 23 25  1  0
 23 26  1  0
 24 66  1  0
 24 67  1  0
 24 68  1  0
 25 69  1  0
 25 70  1  0
 25 71  1  0
 26 27  2  0
 26 28  1  0
 28 29  2  3
 28 72  1  0
 29 30  1  0
 29 73  1  0
 30 31  1  6
 31 74  1  0
 31 75  1  0
 31 76  1  0
 32 33  1  0
 32 77  1  1
 33 78  1  0
 33 79  1  0
M  END
>  <i_m_ct_stereo_status>  (346) 
1

>  <s_m_source_file>  (346) 
/var/tmp/pbs.5076255.sched01/tmp7onimy_i/150cvk1qxg3.sdf

>  <i_m_source_file_index>  (346) 
11

>  <i_lp_mmshare_version>  (346) 
48012

>  <i_f3d_flags>  (346) 
0

>  <s_epik_input>  (346) 
W0NIMl0xW0NIMl1DKFtDSDNdKShbQ0gzXSlbQ0gyXVtDQEBIXShbQ0BdMTJbQ0gzXSlDPTNbQ0BAXShbQ0gzXSkoW0NIMl1bQ0gyXTIpW0NAQF00KFtDSDNdKVtDQEBIXShbQ0gyXVtDSF0zKVtDQEBdNShbQ0gzXSlbQ0BIXShbQ0BASF02W0NAQEhdKE82KVtDSDJdNSlDKFtDSDNdKShbQ0gzXSlDKD1PKS9bQ0hdPVtDSF1cNA==

>  <s_epik_cmdline>  (346) 
J2VwaWtfcHl0aG9uJywgJy1waHQnLCAnMi4wJywgJy1waCcsICc3LjAnLCAnLXRuJywgJzgnLCAnLW1hJywgJzIwMCcsICctaW1hZScsICc8aW5maWxlLm1hZT4nLCAnLW9tYWUnLCAnPG91dGZpbGUubWFlPic=

>  <r_lp_tautomer_probability>  (346) 
1

>  <r_epik_Ionization_Penalty>  (346) 
1.66625e-11

>  <r_epik_Ionization_Penalty_Charging>  (346) 
0

>  <r_epik_Ionization_Penalty_Neutral>  (346) 
1.66625e-11

>  <r_epik_State_Penalty>  (346) 
-0

>  <r_epik_Charging_Adjusted_Penalty>  (346) 
0

>  <i_epik_Tot_Q>  (346) 
0

>  <i_epik_Tot_abs_Q>  (346) 
0

>  <s_lp_Force_Field>  (346) 
OPLS3e

>  <r_lp_Energy>  (346) 
122.524

>  <b_lp_Chiralities_Consistent>  (346) 
1

>  <s_lp_Variant>  (346) 
91:0-2

>  <s_i_glide_gridfile>  (346) 
pfpi4k_grid

>  <i_i_glide_lignum>  (346) 
11

>  <i_i_glide_rotatable_bonds>  (346) 
0

>  <r_i_docking_score>  (346) 
-1.67738

>  <r_i_glide_ligand_efficiency>  (346) 
-0.0508297

>  <r_i_glide_ligand_efficiency_sa>  (346) 
-0.163038

>  <r_i_glide_ligand_efficiency_ln>  (346) 
-0.373041

>  <r_i_glide_gscore>  (346) 
-1.67738

>  <r_i_glide_lipo>  (346) 
-0.16584

>  <r_i_glide_hbond>  (346) 
0

>  <r_i_glide_metal>  (346) 
-0

>  <r_i_glide_rewards>  (346) 
-0.336165

>  <r_i_glide_evdw>  (346) 
-22.511

>  <r_i_glide_ecoul>  (346) 
-0.332183

>  <r_i_glide_erotb>  (346) 
0

>  <r_i_glide_esite>  (346) 
0

>  <r_i_glide_emodel>  (346) 
-25.0733

>  <r_i_glide_energy>  (346) 
-22.8431

>  <r_i_glide_einternal>  (346) 
0

>  <r_i_glide_intrahb_reward>  (346) 
-0

>  <i_i_glide_confnum>  (346) 
1

>  <i_i_glide_posenum>  (346) 
4

>  <r_i_glide_eff_state_penalty>  (346) 
0

>  <ligand_id>  (346) 
91

>  <original_smiles>  (346) 
CC1(C)CCC2(C)CCC3(C)C(=CCC4C5(C)CC6OC6C5C(C)(C)C(=O)C=CC43C)C2C1

>  <smiles>  (346) 
[H]C1=C([H])C2(C([H])([H])[H])C([H])(C([H])([H])C([H])=C3C4([H])C([H])([H])C(C([H])([H])[H])(C([H])([H])[H])C([H])([H])C([H])([H])C4(C([H])([H])[H])C([H])([H])C([H])([H])C32C([H])([H])[H])C2(C([H])([H])[H])C([H])([H])C3([H])OC3([H])C2([H])C(C([H])([H])[H])(C([H])([H])[H])C1=O

$$$$
92:0:0
     RDKit          3D

 40 43  0  0  1  0  0  0  0  0999 V2000
   -8.5752   -8.7893  -10.6371 C   0  0  0  0  0  0  0  0  0  0  0  0
   -9.9806   -9.1040  -10.0858 C   0  0  0  0  0  0  0  0  0  0  0  0
  -10.4228  -10.4232  -10.7683 C   0  0  0  0  0  0  0  0  0  0  0  0
  -10.0186   -9.2071   -8.5507 C   0  0  2  0  0  0  0  0  0  0  0  0
  -11.5311   -9.2304   -8.2349 C   0  0  0  0  0  0  0  0  0  0  0  0
  -12.1937   -8.4226   -9.3738 C   0  0  0  0  0  0  0  0  0  0  0  0
  -11.0209   -7.9703  -10.2707 C   0  0  1  0  0  0  0  0  0  0  0  0
  -10.4449   -6.5841   -9.8460 C   0  0  1  0  0  0  0  0  0  0  0  0
  -11.4084   -5.5536  -10.0495 O   0  0  0  0  0  0  0  0  0  0  0  0
   -9.9127   -6.5947   -8.3757 C   0  0  2  0  0  0  0  0  0  0  0  0
  -10.9881   -6.2669   -7.5291 O   0  0  0  0  0  0  0  0  0  0  0  0
   -8.9218   -5.5944   -8.3056 O   0  0  0  0  0  0  0  0  0  0  0  0
   -8.1025   -5.6030   -7.1939 C   0  0  0  0  0  0  0  0  0  0  0  0
   -7.6172   -4.3859   -6.6654 C   0  0  0  0  0  0  0  0  0  0  0  0
   -6.7088   -4.3931   -5.5818 C   0  0  0  0  0  0  0  0  0  0  0  0
   -6.3123   -5.6161   -5.0075 C   0  0  0  0  0  0  0  0  0  0  0  0
   -6.8121   -6.8285   -5.5166 C   0  0  0  0  0  0  0  0  0  0  0  0
   -7.6957   -6.8202   -6.6146 C   0  0  0  0  0  0  0  0  0  0  0  0
   -8.2655   -8.0547   -7.1484 C   0  0  0  0  0  0  0  0  0  0  0  0
   -9.3469   -7.9719   -7.9524 C   0  0  0  0  0  0  0  0  0  0  0  0
   -7.9076   -9.6379  -10.4854 H   0  0  0  0  0  0  0  0  0  0  0  0
   -8.0816   -7.9326  -10.1816 H   0  0  0  0  0  0  0  0  0  0  0  0
   -8.6380   -8.5864  -11.7030 H   0  0  0  0  0  0  0  0  0  0  0  0
  -11.4100  -10.7723  -10.4648 H   0  0  0  0  0  0  0  0  0  0  0  0
   -9.7192  -11.2329  -10.5638 H   0  0  0  0  0  0  0  0  0  0  0  0
  -10.4560  -10.2901  -11.8481 H   0  0  0  0  0  0  0  0  0  0  0  0
   -9.5234  -10.1036   -8.1821 H   0  0  0  0  0  0  0  0  0  0  0  0
  -11.9067  -10.2536   -8.2500 H   0  0  0  0  0  0  0  0  0  0  0  0
  -11.7662   -8.8310   -7.2468 H   0  0  0  0  0  0  0  0  0  0  0  0
  -12.8735   -9.0680   -9.9323 H   0  0  0  0  0  0  0  0  0  0  0  0
  -12.7989   -7.5989   -8.9897 H   0  0  0  0  0  0  0  0  0  0  0  0
  -11.3392   -7.9256  -11.3170 H   0  0  0  0  0  0  0  0  0  0  0  0
   -9.5974   -6.3620  -10.5103 H   0  0  0  0  0  0  0  0  0  0  0  0
  -12.2520   -5.8211   -9.6988 H   0  0  0  0  0  0  0  0  0  0  0  0
  -11.6592   -5.8539   -8.0634 H   0  0  0  0  0  0  0  0  0  0  0  0
   -7.8773   -3.4562   -7.1431 H   0  0  0  0  0  0  0  0  0  0  0  0
   -6.2653   -3.4824   -5.2197 H   0  0  0  0  0  0  0  0  0  0  0  0
   -5.6198   -5.6161   -4.1802 H   0  0  0  0  0  0  0  0  0  0  0  0
   -6.5279   -7.7604   -5.0566 H   0  0  0  0  0  0  0  0  0  0  0  0
   -7.8314   -9.0063   -6.8556 H   0  0  0  0  0  0  0  0  0  0  0  0
  1  2  1  0
  1 21  1  0
  1 22  1  0
  1 23  1  0
  2  7  1  0
  2  3  1  0
  2  4  1  0
  3 24  1  0
  3 25  1  0
  3 26  1  0
  4 20  1  0
  4  5  1  0
  4 27  1  6
  5  6  1  0
  5 28  1  0
  5 29  1  0
  6  7  1  0
  6 30  1  0
  6 31  1  0
  7  8  1  0
  7 32  1  6
  8  9  1  0
  8 10  1  0
  8 33  1  6
  9 34  1  0
 10 20  1  0
 10 11  1  1
 10 12  1  0
 11 35  1  0
 12 13  1  0
 13 18  2  0
 13 14  1  0
 14 15  2  0
 14 36  1  0
 15 16  1  0
 15 37  1  0
 16 17  2  0
 16 38  1  0
 17 18  1  0
 17 39  1  0
 18 19  1  0
 19 20  2  0
 19 40  1  0
M  END
>  <i_m_ct_stereo_status>  (347) 
1

>  <s_m_source_file>  (347) 
/var/tmp/pbs.5076255.sched01/tmp7onimy_i/150cvk1qxg3.sdf

>  <i_m_source_file_index>  (347) 
12

>  <i_lp_mmshare_version>  (347) 
48012

>  <i_f3d_flags>  (347) 
0

>  <s_epik_input>  (347) 
W0NIMl0xW0NIMl1bQ0BASF0oW0NASF0yW09IXSlDKFtDSDNdKShbQ0gzXSlbQ0BIXTFDKFtDQF0yM1tPSF0pPVtDSF1jNGMoTzMpW2NIXVtjSF1bY0hdW2NIXTQ=

>  <s_epik_cmdline>  (347) 
J2VwaWtfcHl0aG9uJywgJy1waHQnLCAnMi4wJywgJy1waCcsICc3LjAnLCAnLXRuJywgJzgnLCAnLW1hJywgJzIwMCcsICctaW1hZScsICc8aW5maWxlLm1hZT4nLCAnLW9tYWUnLCAnPG91dGZpbGUubWFlPic=

>  <r_lp_tautomer_probability>  (347) 
1

>  <r_epik_Ionization_Penalty>  (347) 
1.51948e-05

>  <r_epik_Ionization_Penalty_Charging>  (347) 
0

>  <r_epik_Ionization_Penalty_Neutral>  (347) 
1.51948e-05

>  <r_epik_State_Penalty>  (347) 
-0

>  <r_epik_Charging_Adjusted_Penalty>  (347) 
0

>  <i_epik_Tot_Q>  (347) 
0

>  <i_epik_Tot_abs_Q>  (347) 
0

>  <s_lp_Force_Field>  (347) 
OPLS3e

>  <r_lp_Energy>  (347) 
50.473

>  <b_lp_Chiralities_Consistent>  (347) 
1

>  <s_lp_Variant>  (347) 
92:0-1

>  <s_i_glide_gridfile>  (347) 
pfpi4k_grid

>  <i_i_glide_lignum>  (347) 
12

>  <i_i_glide_rotatable_bonds>  (347) 
2

>  <r_i_docking_score>  (347) 
-5.82637

>  <r_i_glide_ligand_efficiency>  (347) 
-0.291319

>  <r_i_glide_ligand_efficiency_sa>  (347) 
-0.79076

>  <r_i_glide_ligand_efficiency_ln>  (347) 
-1.45815

>  <r_i_glide_gscore>  (347) 
-5.82637

>  <r_i_glide_lipo>  (347) 
-1.8782

>  <r_i_glide_hbond>  (347) 
0

>  <r_i_glide_metal>  (347) 
-0

>  <r_i_glide_rewards>  (347) 
-2.12955

>  <r_i_glide_evdw>  (347) 
-17.6268

>  <r_i_glide_ecoul>  (347) 
-6.24855

>  <r_i_glide_erotb>  (347) 
0

>  <r_i_glide_esite>  (347) 
0

>  <r_i_glide_emodel>  (347) 
-33.8382

>  <r_i_glide_energy>  (347) 
-23.8754

>  <r_i_glide_einternal>  (347) 
0.643926

>  <r_i_glide_intrahb_reward>  (347) 
-0

>  <i_i_glide_confnum>  (347) 
1

>  <i_i_glide_posenum>  (347) 
10

>  <r_i_glide_eff_state_penalty>  (347) 
0

>  <ligand_id>  (347) 
92

>  <original_smiles>  (347) 
CC1(C)C2CCC1C(O)C1(O)Oc3ccccc3C=C21

>  <smiles>  (347) 
[H]OC12Oc3c([H])c([H])c([H])c([H])c3C([H])=C1C1([H])C([H])([H])C([H])([H])C([H])(C2([H])O[H])C1(C([H])([H])[H])C([H])([H])[H]

$$$$
92:0:1
     RDKit          3D

 40 43  0  0  1  0  0  0  0  0999 V2000
    2.7654   -1.2628    1.6137 C   0  0  0  0  0  0  0  0  0  0  0  0
    4.1918   -1.5639    1.0899 C   0  0  0  0  0  0  0  0  0  0  0  0
    5.0135   -0.2762    1.3412 C   0  0  0  0  0  0  0  0  0  0  0  0
    4.8475   -2.8034    1.7283 C   0  0  2  0  0  0  0  0  0  0  0  0
    6.1065   -3.0382    0.8645 C   0  0  0  0  0  0  0  0  0  0  0  0
    5.7289   -2.5162   -0.5340 C   0  0  0  0  0  0  0  0  0  0  0  0
    4.2751   -2.0131   -0.3847 C   0  0  1  0  0  0  0  0  0  0  0  0
    3.2466   -3.1332   -0.7080 C   0  0  1  0  0  0  0  0  0  0  0  0
    3.3577   -3.4542   -2.0863 O   0  0  0  0  0  0  0  0  0  0  0  0
    3.4163   -4.3941    0.2232 C   0  0  2  0  0  0  0  0  0  0  0  0
    4.3585   -5.2939   -0.3184 O   0  0  0  0  0  0  0  0  0  0  0  0
    2.1504   -5.0052    0.2598 O   0  0  0  0  0  0  0  0  0  0  0  0
    1.8854   -5.9000    1.2762 C   0  0  0  0  0  0  0  0  0  0  0  0
    0.9473   -6.9316    1.0660 C   0  0  0  0  0  0  0  0  0  0  0  0
    0.6622   -7.8524    2.0896 C   0  0  0  0  0  0  0  0  0  0  0  0
    1.2932   -7.7283    3.3431 C   0  0  0  0  0  0  0  0  0  0  0  0
    2.2091   -6.6781    3.5687 C   0  0  0  0  0  0  0  0  0  0  0  0
    2.5042   -5.7611    2.5395 C   0  0  0  0  0  0  0  0  0  0  0  0
    3.4654   -4.6725    2.7115 C   0  0  0  0  0  0  0  0  0  0  0  0
    3.9048   -4.0054    1.6336 C   0  0  0  0  0  0  0  0  0  0  0  0
    2.7923   -0.9407    2.6554 H   0  0  0  0  0  0  0  0  0  0  0  0
    2.0823   -2.1103    1.5673 H   0  0  0  0  0  0  0  0  0  0  0  0
    2.3074   -0.4595    1.0325 H   0  0  0  0  0  0  0  0  0  0  0  0
    6.0542   -0.3394    1.0302 H   0  0  0  0  0  0  0  0  0  0  0  0
    5.0195   -0.0173    2.4001 H   0  0  0  0  0  0  0  0  0  0  0  0
    4.5722    0.5624    0.8036 H   0  0  0  0  0  0  0  0  0  0  0  0
    5.1137   -2.6328    2.7728 H   0  0  0  0  0  0  0  0  0  0  0  0
    6.9526   -2.4745    1.2589 H   0  0  0  0  0  0  0  0  0  0  0  0
    6.4109   -4.0854    0.8523 H   0  0  0  0  0  0  0  0  0  0  0  0
    6.3889   -1.6944   -0.8072 H   0  0  0  0  0  0  0  0  0  0  0  0
    5.8451   -3.2803   -1.3027 H   0  0  0  0  0  0  0  0  0  0  0  0
    4.0968   -1.1691   -1.0515 H   0  0  0  0  0  0  0  0  0  0  0  0
    2.2456   -2.7322   -0.5496 H   0  0  0  0  0  0  0  0  0  0  0  0
    2.9658   -4.3112   -2.2424 H   0  0  0  0  0  0  0  0  0  0  0  0
    4.0684   -5.5208   -1.1948 H   0  0  0  0  0  0  0  0  0  0  0  0
    0.4737   -7.0490    0.1017 H   0  0  0  0  0  0  0  0  0  0  0  0
   -0.0164   -8.6713    1.9046 H   0  0  0  0  0  0  0  0  0  0  0  0
    1.0962   -8.4526    4.1199 H   0  0  0  0  0  0  0  0  0  0  0  0
    2.6980   -6.5891    4.5309 H   0  0  0  0  0  0  0  0  0  0  0  0
    3.7613   -4.3970    3.7152 H   0  0  0  0  0  0  0  0  0  0  0  0
  1  2  1  0
  1 21  1  0
  1 22  1  0
  1 23  1  0
  2  7  1  0
  2  3  1  0
  2  4  1  0
  3 24  1  0
  3 25  1  0
  3 26  1  0
  4 20  1  0
  4  5  1  0
  4 27  1  1
  5  6  1  0
  5 28  1  0
  5 29  1  0
  6  7  1  0
  6 30  1  0
  6 31  1  0
  7  8  1  0
  7 32  1  6
  8  9  1  0
  8 10  1  0
  8 33  1  6
  9 34  1  0
 10 20  1  0
 10 11  1  6
 10 12  1  0
 11 35  1  0
 12 13  1  0
 13 18  2  0
 13 14  1  0
 14 15  2  0
 14 36  1  0
 15 16  1  0
 15 37  1  0
 16 17  2  0
 16 38  1  0
 17 18  1  0
 17 39  1  0
 18 19  1  0
 19 20  2  0
 19 40  1  0
M  END
>  <i_m_ct_stereo_status>  (348) 
1

>  <s_m_source_file>  (348) 
/var/tmp/pbs.5076255.sched01/tmp7onimy_i/150cvk1qxg3.sdf

>  <i_m_source_file_index>  (348) 
12

>  <i_lp_mmshare_version>  (348) 
48012

>  <i_f3d_flags>  (348) 
0

>  <s_epik_input>  (348) 
W0NIMl0xW0NIMl1bQ0BASF0oW0NASF0yW09IXSlDKFtDSDNdKShbQ0gzXSlbQ0BIXTFDKFtDQF0yM1tPSF0pPVtDSF1jNGMoTzMpW2NIXVtjSF1bY0hdW2NIXTQ=

>  <s_epik_cmdline>  (348) 
J2VwaWtfcHl0aG9uJywgJy1waHQnLCAnMi4wJywgJy1waCcsICc3LjAnLCAnLXRuJywgJzgnLCAnLW1hJywgJzIwMCcsICctaW1hZScsICc8aW5maWxlLm1hZT4nLCAnLW9tYWUnLCAnPG91dGZpbGUubWFlPic=

>  <r_lp_tautomer_probability>  (348) 
1

>  <r_epik_Ionization_Penalty>  (348) 
1.51948e-05

>  <r_epik_Ionization_Penalty_Charging>  (348) 
0

>  <r_epik_Ionization_Penalty_Neutral>  (348) 
1.51948e-05

>  <r_epik_State_Penalty>  (348) 
-0

>  <r_epik_Charging_Adjusted_Penalty>  (348) 
0

>  <i_epik_Tot_Q>  (348) 
0

>  <i_epik_Tot_abs_Q>  (348) 
0

>  <s_lp_Force_Field>  (348) 
OPLS3e

>  <r_lp_Energy>  (348) 
50.473

>  <b_lp_Chiralities_Consistent>  (348) 
1

>  <s_lp_Variant>  (348) 
92:0-1

>  <s_i_glide_gridfile>  (348) 
pfpi4k_grid

>  <i_i_glide_lignum>  (348) 
12

>  <i_i_glide_rotatable_bonds>  (348) 
2

>  <r_i_docking_score>  (348) 
-4.12342

>  <r_i_glide_ligand_efficiency>  (348) 
-0.206171

>  <r_i_glide_ligand_efficiency_sa>  (348) 
-0.559634

>  <r_i_glide_ligand_efficiency_ln>  (348) 
-1.03196

>  <r_i_glide_gscore>  (348) 
-4.12342

>  <r_i_glide_lipo>  (348) 
-0.298217

>  <r_i_glide_hbond>  (348) 
-0.0229279

>  <r_i_glide_metal>  (348) 
-0

>  <r_i_glide_rewards>  (348) 
-1.55223

>  <r_i_glide_evdw>  (348) 
-21.3097

>  <r_i_glide_ecoul>  (348) 
-7.81184

>  <r_i_glide_erotb>  (348) 
0

>  <r_i_glide_esite>  (348) 
-0.0127809

>  <r_i_glide_emodel>  (348) 
-35.9487

>  <r_i_glide_energy>  (348) 
-29.1215

>  <r_i_glide_einternal>  (348) 
1.24636

>  <r_i_glide_intrahb_reward>  (348) 
-0

>  <i_i_glide_confnum>  (348) 
2

>  <i_i_glide_posenum>  (348) 
13

>  <r_i_glide_eff_state_penalty>  (348) 
0

>  <ligand_id>  (348) 
92

>  <original_smiles>  (348) 
CC1(C)C2CCC1C(O)C1(O)Oc3ccccc3C=C21

>  <smiles>  (348) 
[H]OC12Oc3c([H])c([H])c([H])c([H])c3C([H])=C1C1([H])C([H])([H])C([H])([H])C([H])(C2([H])O[H])C1(C([H])([H])[H])C([H])([H])[H]

$$$$
92:0:2
     RDKit          3D

 40 43  0  0  1  0  0  0  0  0999 V2000
    3.1750   -1.8929    2.9410 C   0  0  0  0  0  0  0  0  0  0  0  0
    4.3984   -1.9260    1.9886 C   0  0  0  0  0  0  0  0  0  0  0  0
    5.2391   -0.6721    2.3347 C   0  0  0  0  0  0  0  0  0  0  0  0
    5.2278   -3.2234    2.0770 C   0  0  2  0  0  0  0  0  0  0  0  0
    6.1848   -3.1276    0.8677 C   0  0  0  0  0  0  0  0  0  0  0  0
    5.4137   -2.3107   -0.1875 C   0  0  0  0  0  0  0  0  0  0  0  0
    4.0616   -1.9921    0.4823 C   0  0  1  0  0  0  0  0  0  0  0  0
    2.9979   -3.0869    0.1855 C   0  0  1  0  0  0  0  0  0  0  0  0
    2.6155   -3.0550   -1.1779 O   0  0  0  0  0  0  0  0  0  0  0  0
    3.4312   -4.5143    0.6779 C   0  0  2  0  0  0  0  0  0  0  0  0
    4.1813   -5.1758   -0.3195 O   0  0  0  0  0  0  0  0  0  0  0  0
    2.2316   -5.2104    0.9167 O   0  0  0  0  0  0  0  0  0  0  0  0
    2.2942   -6.3600    1.6775 C   0  0  0  0  0  0  0  0  0  0  0  0
    1.3604   -7.3945    1.4593 C   0  0  0  0  0  0  0  0  0  0  0  0
    1.4069   -8.5649    2.2423 C   0  0  0  0  0  0  0  0  0  0  0  0
    2.3734   -8.6954    3.2606 C   0  0  0  0  0  0  0  0  0  0  0  0
    3.2969   -7.6546    3.4922 C   0  0  0  0  0  0  0  0  0  0  0  0
    3.2574   -6.4868    2.7029 C   0  0  0  0  0  0  0  0  0  0  0  0
    4.2131   -5.3937    2.8832 C   0  0  0  0  0  0  0  0  0  0  0  0
    4.3119   -4.4422    1.9379 C   0  0  0  0  0  0  0  0  0  0  0  0
    3.4994   -1.8382    3.9804 H   0  0  0  0  0  0  0  0  0  0  0  0
    2.5255   -2.7638    2.8709 H   0  0  0  0  0  0  0  0  0  0  0  0
    2.5579   -1.0150    2.7435 H   0  0  0  0  0  0  0  0  0  0  0  0
    6.1465   -0.5672    1.7421 H   0  0  0  0  0  0  0  0  0  0  0  0
    5.5507   -0.6821    3.3788 H   0  0  0  0  0  0  0  0  0  0  0  0
    4.6489    0.2313    2.1808 H   0  0  0  0  0  0  0  0  0  0  0  0
    5.7823   -3.2914    3.0112 H   0  0  0  0  0  0  0  0  0  0  0  0
    7.1003   -2.6048    1.1451 H   0  0  0  0  0  0  0  0  0  0  0  0
    6.4876   -4.1078    0.4983 H   0  0  0  0  0  0  0  0  0  0  0  0
    5.9521   -1.3895   -0.4085 H   0  0  0  0  0  0  0  0  0  0  0  0
    5.3071   -2.8515   -1.1289 H   0  0  0  0  0  0  0  0  0  0  0  0
    3.6816   -1.0297    0.1336 H   0  0  0  0  0  0  0  0  0  0  0  0
    2.0923   -2.8193    0.7266 H   0  0  0  0  0  0  0  0  0  0  0  0
    2.0522   -2.2968   -1.2988 H   0  0  0  0  0  0  0  0  0  0  0  0
    3.6351   -5.2387   -1.0937 H   0  0  0  0  0  0  0  0  0  0  0  0
    0.6260   -7.3140    0.6707 H   0  0  0  0  0  0  0  0  0  0  0  0
    0.7116   -9.3705    2.0567 H   0  0  0  0  0  0  0  0  0  0  0  0
    2.4140   -9.5991    3.8503 H   0  0  0  0  0  0  0  0  0  0  0  0
    4.0380   -7.7597    4.2712 H   0  0  0  0  0  0  0  0  0  0  0  0
    4.7876   -5.3510    3.7976 H   0  0  0  0  0  0  0  0  0  0  0  0
  1  2  1  0
  1 21  1  0
  1 22  1  0
  1 23  1  0
  2  7  1  0
  2  3  1  0
  2  4  1  0
  3 24  1  0
  3 25  1  0
  3 26  1  0
  4 20  1  0
  4  5  1  0
  4 27  1  1
  5  6  1  0
  5 28  1  0
  5 29  1  0
  6  7  1  0
  6 30  1  0
  6 31  1  0
  7  8  1  0
  7 32  1  6
  8  9  1  0
  8 10  1  0
  8 33  1  1
  9 34  1  0
 10 20  1  0
 10 11  1  6
 10 12  1  0
 11 35  1  0
 12 13  1  0
 13 18  2  0
 13 14  1  0
 14 15  2  0
 14 36  1  0
 15 16  1  0
 15 37  1  0
 16 17  2  0
 16 38  1  0
 17 18  1  0
 17 39  1  0
 18 19  1  0
 19 20  2  0
 19 40  1  0
M  END
>  <i_m_ct_stereo_status>  (349) 
1

>  <s_m_source_file>  (349) 
/var/tmp/pbs.5076255.sched01/tmp7onimy_i/150cvk1qxg3.sdf

>  <i_m_source_file_index>  (349) 
12

>  <i_lp_mmshare_version>  (349) 
48012

>  <i_f3d_flags>  (349) 
0

>  <s_epik_input>  (349) 
W0NIMl0xW0NIMl1bQ0BASF0oW0NASF0yW09IXSlDKFtDSDNdKShbQ0gzXSlbQ0BIXTFDKFtDQF0yM1tPSF0pPVtDSF1jNGMoTzMpW2NIXVtjSF1bY0hdW2NIXTQ=

>  <s_epik_cmdline>  (349) 
J2VwaWtfcHl0aG9uJywgJy1waHQnLCAnMi4wJywgJy1waCcsICc3LjAnLCAnLXRuJywgJzgnLCAnLW1hJywgJzIwMCcsICctaW1hZScsICc8aW5maWxlLm1hZT4nLCAnLW9tYWUnLCAnPG91dGZpbGUubWFlPic=

>  <r_lp_tautomer_probability>  (349) 
1

>  <r_epik_Ionization_Penalty>  (349) 
1.51948e-05

>  <r_epik_Ionization_Penalty_Charging>  (349) 
0

>  <r_epik_Ionization_Penalty_Neutral>  (349) 
1.51948e-05

>  <r_epik_State_Penalty>  (349) 
-0

>  <r_epik_Charging_Adjusted_Penalty>  (349) 
0

>  <i_epik_Tot_Q>  (349) 
0

>  <i_epik_Tot_abs_Q>  (349) 
0

>  <s_lp_Force_Field>  (349) 
OPLS3e

>  <r_lp_Energy>  (349) 
50.473

>  <b_lp_Chiralities_Consistent>  (349) 
1

>  <s_lp_Variant>  (349) 
92:0-1

>  <s_i_glide_gridfile>  (349) 
pfpi4k_grid

>  <i_i_glide_lignum>  (349) 
12

>  <i_i_glide_rotatable_bonds>  (349) 
2

>  <r_i_docking_score>  (349) 
-3.69667

>  <r_i_glide_ligand_efficiency>  (349) 
-0.184833

>  <r_i_glide_ligand_efficiency_sa>  (349) 
-0.501715

>  <r_i_glide_ligand_efficiency_ln>  (349) 
-0.925154

>  <r_i_glide_gscore>  (349) 
-3.69667

>  <r_i_glide_lipo>  (349) 
-0.278492

>  <r_i_glide_hbond>  (349) 
-0.0121155

>  <r_i_glide_metal>  (349) 
-0

>  <r_i_glide_rewards>  (349) 
-1.55223

>  <r_i_glide_evdw>  (349) 
-19.4668

>  <r_i_glide_ecoul>  (349) 
-5.83912

>  <r_i_glide_erotb>  (349) 
0

>  <r_i_glide_esite>  (349) 
-0.00461748

>  <r_i_glide_emodel>  (349) 
-31.6192

>  <r_i_glide_energy>  (349) 
-25.3059

>  <r_i_glide_einternal>  (349) 
0.879855

>  <r_i_glide_intrahb_reward>  (349) 
-0

>  <i_i_glide_confnum>  (349) 
2

>  <i_i_glide_posenum>  (349) 
1

>  <r_i_glide_eff_state_penalty>  (349) 
0

>  <ligand_id>  (349) 
92

>  <original_smiles>  (349) 
CC1(C)C2CCC1C(O)C1(O)Oc3ccccc3C=C21

>  <smiles>  (349) 
[H]OC12Oc3c([H])c([H])c([H])c([H])c3C([H])=C1C1([H])C([H])([H])C([H])([H])C([H])(C2([H])O[H])C1(C([H])([H])[H])C([H])([H])[H]

$$$$
93:0:0
     RDKit          3D

 41 45  0  0  1  0  0  0  0  0999 V2000
    4.2699   -0.7915   -2.7075 C   0  0  0  0  0  0  0  0  0  0  0  0
    4.3181   -2.2534   -2.1796 C   0  0  0  0  0  0  0  0  0  0  0  0
    3.6301   -3.0566   -3.3189 C   0  0  0  0  0  0  0  0  0  0  0  0
    5.7663   -2.8349   -2.0124 C   0  0  0  0  0  0  0  0  0  0  0  0
    6.2891   -2.8050   -0.5515 C   0  0  1  0  0  0  0  0  0  0  0  0
    5.8955   -1.4285   -0.0190 C   0  0  0  0  0  0  0  0  0  0  0  0
    4.4510   -1.7389    0.3990 C   0  0  2  0  0  0  0  0  0  0  0  0
    3.8385   -0.6600    1.3300 C   0  0  0  0  0  0  0  0  0  0  0  0
    4.4609   -0.9082    2.7458 C   0  0  0  0  0  0  0  0  0  0  0  0
    4.9206   -2.3295    2.7249 C   0  0  1  0  0  0  0  0  0  0  0  0
    3.9277   -3.3359    2.3655 O   0  0  0  0  0  0  0  0  0  0  0  0
    4.8191   -2.8356    1.3324 C   0  0  1  0  0  0  0  0  0  0  0  0
    5.5731   -3.7906    0.4565 C   0  0  2  0  0  0  0  0  0  0  0  0
    6.5801   -4.6672    1.2281 C   0  0  0  0  0  0  0  0  0  0  0  0
    4.4530   -4.6530   -0.1927 C   0  0  0  0  0  0  0  0  0  0  0  0
    3.1904   -3.7967   -0.5001 C   0  0  0  0  0  0  0  0  0  0  0  0
    3.5772   -2.3193   -0.8027 C   0  0  2  0  0  0  0  0  0  0  0  0
    4.9858   -0.6530   -3.5086 H   0  0  0  0  0  0  0  0  0  0  0  0
    4.4537   -0.0456   -1.9435 H   0  0  0  0  0  0  0  0  0  0  0  0
    3.2855   -0.5445   -3.1066 H   0  0  0  0  0  0  0  0  0  0  0  0
    3.7583   -4.1284   -3.1745 H   0  0  0  0  0  0  0  0  0  0  0  0
    4.0651   -2.8355   -4.2877 H   0  0  0  0  0  0  0  0  0  0  0  0
    2.5574   -2.8516   -3.3733 H   0  0  0  0  0  0  0  0  0  0  0  0
    5.8554   -3.8342   -2.4238 H   0  0  0  0  0  0  0  0  0  0  0  0
    6.4601   -2.2575   -2.6041 H   0  0  0  0  0  0  0  0  0  0  0  0
    7.3699   -2.9327   -0.5477 H   0  0  0  0  0  0  0  0  0  0  0  0
    6.5257   -1.1582    0.8349 H   0  0  0  0  0  0  0  0  0  0  0  0
    6.0239   -0.6186   -0.7200 H   0  0  0  0  0  0  0  0  0  0  0  0
    4.0104    0.3602    0.9778 H   0  0  0  0  0  0  0  0  0  0  0  0
    2.7627   -0.8084    1.3925 H   0  0  0  0  0  0  0  0  0  0  0  0
    5.3146   -0.2608    2.9163 H   0  0  0  0  0  0  0  0  0  0  0  0
    3.7382   -0.7501    3.5469 H   0  0  0  0  0  0  0  0  0  0  0  0
    5.7217   -2.6890    3.3918 H   0  0  0  0  0  0  0  0  0  0  0  0
    6.0829   -5.2512    1.9998 H   0  0  0  0  0  0  0  0  0  0  0  0
    7.3453   -4.0495    1.7069 H   0  0  0  0  0  0  0  0  0  0  0  0
    7.0911   -5.3574    0.5564 H   0  0  0  0  0  0  0  0  0  0  0  0
    4.8047   -5.1812   -1.0822 H   0  0  0  0  0  0  0  0  0  0  0  0
    4.1475   -5.4440    0.4993 H   0  0  0  0  0  0  0  0  0  0  0  0
    2.5828   -4.2573   -1.2806 H   0  0  0  0  0  0  0  0  0  0  0  0
    2.5305   -3.7938    0.3622 H   0  0  0  0  0  0  0  0  0  0  0  0
    2.6464   -1.7565   -0.8857 H   0  0  0  0  0  0  0  0  0  0  0  0
  1  2  1  0
  1 18  1  0
  1 19  1  0
  1 20  1  0
  2 17  1  0
  2  3  1  0
  2  4  1  0
  3 21  1  0
  3 22  1  0
  3 23  1  0
  4  5  1  0
  4 24  1  0
  4 25  1  0
  5 13  1  0
  5  6  1  0
  5 26  1  6
  6  7  1  0
  6 27  1  0
  6 28  1  0
  7 12  1  0
  7 17  1  0
  7  8  1  1
  8  9  1  0
  8 29  1  0
  8 30  1  0
  9 10  1  0
  9 31  1  0
  9 32  1  0
 10 12  1  0
 10 11  1  0
 10 33  1  1
 12 11  1  1
 12 13  1  0
 13 14  1  1
 13 15  1  0
 14 34  1  0
 14 35  1  0
 14 36  1  0
 15 16  1  0
 15 37  1  0
 15 38  1  0
 16 17  1  0
 16 39  1  0
 16 40  1  0
 17 41  1  6
M  END
>  <i_m_ct_stereo_status>  (350) 
1

>  <s_m_source_file>  (350) 
/var/tmp/pbs.5076255.sched01/tmp7onimy_i/150cvk1qxg3.sdf

>  <i_m_source_file_index>  (350) 
13

>  <i_lp_mmshare_version>  (350) 
48012

>  <i_f3d_flags>  (350) 
0

>  <s_epik_input>  (350) 
W0NIMl0xW0NIMl1bQ0BASF0yQyhbQ0gzXSkoW0NIM10pW0NIMl1bQ0BASF0oW0NIMl0zKVtDQEBdMShbQ0gzXSlbQ0BdNChbQ0BdMjM1KVtDQEhdKE80KVtDSDJdW0NIMl01

>  <s_epik_cmdline>  (350) 
J2VwaWtfcHl0aG9uJywgJy1waHQnLCAnMi4wJywgJy1waCcsICc3LjAnLCAnLXRuJywgJzgnLCAnLW1hJywgJzIwMCcsICctaW1hZScsICc8aW5maWxlLm1hZT4nLCAnLW9tYWUnLCAnPG91dGZpbGUubWFlPic=

>  <r_lp_tautomer_probability>  (350) 
1

>  <r_epik_Ionization_Penalty>  (350) 
1.51483e-10

>  <r_epik_Ionization_Penalty_Charging>  (350) 
0

>  <r_epik_Ionization_Penalty_Neutral>  (350) 
1.51483e-10

>  <r_epik_State_Penalty>  (350) 
-0

>  <r_epik_Charging_Adjusted_Penalty>  (350) 
0

>  <i_epik_Tot_Q>  (350) 
0

>  <i_epik_Tot_abs_Q>  (350) 
0

>  <s_lp_Force_Field>  (350) 
OPLS3e

>  <r_lp_Energy>  (350) 
88.0285

>  <b_lp_Chiralities_Consistent>  (350) 
1

>  <s_lp_Variant>  (350) 
93:0-1

>  <s_i_glide_gridfile>  (350) 
pfpi4k_grid

>  <i_i_glide_lignum>  (350) 
13

>  <i_i_glide_rotatable_bonds>  (350) 
0

>  <r_i_docking_score>  (350) 
-3.56982

>  <r_i_glide_ligand_efficiency>  (350) 
-0.209989

>  <r_i_glide_ligand_efficiency_sa>  (350) 
-0.539941

>  <r_i_glide_ligand_efficiency_ln>  (350) 
-0.931285

>  <r_i_glide_gscore>  (350) 
-3.56982

>  <r_i_glide_lipo>  (350) 
-0.570084

>  <r_i_glide_hbond>  (350) 
0

>  <r_i_glide_metal>  (350) 
-0

>  <r_i_glide_rewards>  (350) 
-1.82481

>  <r_i_glide_evdw>  (350) 
-22.8533

>  <r_i_glide_ecoul>  (350) 
-0.215041

>  <r_i_glide_erotb>  (350) 
0

>  <r_i_glide_esite>  (350) 
0

>  <r_i_glide_emodel>  (350) 
-27.9341

>  <r_i_glide_energy>  (350) 
-23.0683

>  <r_i_glide_einternal>  (350) 
0

>  <r_i_glide_intrahb_reward>  (350) 
-0

>  <i_i_glide_confnum>  (350) 
2

>  <i_i_glide_posenum>  (350) 
20

>  <r_i_glide_eff_state_penalty>  (350) 
0

>  <ligand_id>  (350) 
93

>  <original_smiles>  (350) 
CC1(C)CC2CC34CCC5OC53C2(C)CCC14

>  <smiles>  (350) 
[H]C([H])([H])C1(C([H])([H])[H])C([H])([H])C2([H])C([H])([H])C34C([H])([H])C([H])([H])C5([H])OC53C2(C([H])([H])[H])C([H])([H])C([H])([H])C14[H]

$$$$
94:0:0
     RDKit          3D

 36 40  0  0  1  0  0  0  0  0999 V2000
    6.4085   -4.8305    2.2278 C   0  0  0  0  0  0  0  0  0  0  0  0
    5.5532   -3.9332    1.3269 C   0  0  1  0  0  0  0  0  0  0  0  0
    5.4216   -2.4599    1.8253 C   0  0  1  0  0  0  0  0  0  0  0  0
    5.6373   -1.1989    0.9792 C   0  0  0  0  0  0  0  0  0  0  0  0
    4.6441   -0.9036   -0.1379 C   0  0  0  0  0  0  0  0  0  0  0  0
    4.3892   -1.6143   -1.2545 C   0  0  0  0  0  0  0  0  0  0  0  0
    3.5483   -1.1432   -2.3297 C   0  0  0  0  0  0  0  0  0  0  0  0
    3.6548   -1.9324   -3.4010 C   0  0  0  0  0  0  0  0  0  0  0  0
    4.5864   -3.0178   -3.1194 C   0  0  0  0  0  0  0  0  0  0  0  0
    4.9744   -3.8196   -3.9650 O   0  0  0  0  0  0  0  0  0  0  0  0
    4.9407   -2.9680   -1.6571 C   0  0  1  0  0  0  0  0  0  0  0  0
    6.3663   -3.3164   -1.2298 C   0  0  0  0  0  0  0  0  0  0  0  0
    5.7765   -4.2519   -0.1607 C   0  0  2  0  0  0  0  0  0  0  0  0
    4.4233   -4.1766   -0.8498 C   0  0  1  0  0  0  0  0  0  0  0  0
    3.2947   -4.0722    0.1785 C   0  0  1  0  0  0  0  0  0  0  0  0
    2.4494   -5.2021    0.0826 O   0  0  0  0  0  0  0  0  0  0  0  0
    4.0204   -4.0430    1.5306 C   0  0  2  0  0  0  0  0  0  0  0  0
    4.0225   -2.7590    2.3503 C   0  0  0  0  0  0  0  0  0  0  0  0
    6.2044   -4.6727    3.2867 H   0  0  0  0  0  0  0  0  0  0  0  0
    7.4729   -4.6579    2.0641 H   0  0  0  0  0  0  0  0  0  0  0  0
    6.2295   -5.8860    2.0218 H   0  0  0  0  0  0  0  0  0  0  0  0
    6.0692   -2.3745    2.6954 H   0  0  0  0  0  0  0  0  0  0  0  0
    5.5789   -0.3399    1.6454 H   0  0  0  0  0  0  0  0  0  0  0  0
    6.6528   -1.1303    0.6026 H   0  0  0  0  0  0  0  0  0  0  0  0
    4.1516    0.0501   -0.0343 H   0  0  0  0  0  0  0  0  0  0  0  0
    2.9060   -0.2800   -2.3167 H   0  0  0  0  0  0  0  0  0  0  0  0
    3.1421   -1.8125   -4.3417 H   0  0  0  0  0  0  0  0  0  0  0  0
    6.8881   -3.8536   -2.0158 H   0  0  0  0  0  0  0  0  0  0  0  0
    7.0075   -2.5219   -0.8671 H   0  0  0  0  0  0  0  0  0  0  0  0
    6.1748   -5.2634   -0.2772 H   0  0  0  0  0  0  0  0  0  0  0  0
    4.3466   -5.0495   -1.4963 H   0  0  0  0  0  0  0  0  0  0  0  0
    2.6733   -3.1847    0.0318 H   0  0  0  0  0  0  0  0  0  0  0  0
    2.4534   -5.4800   -0.8344 H   0  0  0  0  0  0  0  0  0  0  0  0
    3.7818   -4.8987    2.1664 H   0  0  0  0  0  0  0  0  0  0  0  0
    4.0028   -2.9414    3.4258 H   0  0  0  0  0  0  0  0  0  0  0  0
    3.2614   -2.0434    2.0376 H   0  0  0  0  0  0  0  0  0  0  0  0
  2  1  1  1
  1 19  1  0
  1 20  1  0
  1 21  1  0
  2 13  1  0
  2 17  1  0
  2  3  1  0
  3 18  1  0
  3  4  1  0
  3 22  1  1
  4  5  1  0
  4 23  1  0
  4 24  1  0
  5  6  2  3
  5 25  1  0
  6 11  1  0
  6  7  1  0
  7  8  2  0
  7 26  1  0
  8  9  1  0
  8 27  1  0
  9 10  2  0
 11  9  1  6
 11 14  1  0
 11 12  1  0
 12 13  1  0
 12 28  1  0
 12 29  1  0
 13 14  1  0
 13 30  1  1
 14 15  1  0
 14 31  1  6
 15 16  1  0
 15 17  1  0
 15 32  1  6
 16 33  1  0
 17 18  1  0
 17 34  1  1
 18 35  1  0
 18 36  1  0
M  END
>  <i_m_ct_stereo_status>  (351) 
1

>  <s_m_source_file>  (351) 
/var/tmp/pbs.5076255.sched01/tmp7onimy_i/150cvk1qxg3.sdf

>  <i_m_source_file_index>  (351) 
14

>  <i_lp_mmshare_version>  (351) 
48012

>  <i_f3d_flags>  (351) 
2

>  <s_epik_input>  (351) 
W0NIMl0xW0NASF0yW0NASF0oW09IXSlbQ0hdM1tDQEhdKFtDSDJdNClbQ0BAXTIoW0NIM10pW0NASF0xW0NIMl0vW0NIXT1DKFtDQF0zNDUpL1tDSF09W0NIXUM1PU8=

>  <s_epik_cmdline>  (351) 
J2VwaWtfcHl0aG9uJywgJy1waHQnLCAnMi4wJywgJy1waCcsICc3LjAnLCAnLXRuJywgJzgnLCAnLW1hJywgJzIwMCcsICctaW1hZScsICc8aW5maWxlLm1hZT4nLCAnLW9tYWUnLCAnPG91dGZpbGUubWFlPic=

>  <r_lp_tautomer_probability>  (351) 
1

>  <r_epik_Ionization_Penalty>  (351) 
7.04425e-08

>  <r_epik_Ionization_Penalty_Charging>  (351) 
0

>  <r_epik_Ionization_Penalty_Neutral>  (351) 
7.04425e-08

>  <r_epik_State_Penalty>  (351) 
-0

>  <r_epik_Charging_Adjusted_Penalty>  (351) 
0

>  <i_epik_Tot_Q>  (351) 
0

>  <i_epik_Tot_abs_Q>  (351) 
0

>  <s_lp_Force_Field>  (351) 
OPLS3e

>  <r_lp_Energy>  (351) 
46.8854

>  <b_lp_Chiralities_Consistent>  (351) 
0

>  <s_lp_Variant>  (351) 
94:0-1

>  <s_i_glide_gridfile>  (351) 
pfpi4k_grid

>  <i_i_glide_lignum>  (351) 
14

>  <i_i_glide_rotatable_bonds>  (351) 
1

>  <r_i_docking_score>  (351) 
-4.65642

>  <r_i_glide_ligand_efficiency>  (351) 
-0.25869

>  <r_i_glide_ligand_efficiency_sa>  (351) 
-0.677959

>  <r_i_glide_ligand_efficiency_ln>  (351) 
-1.19691

>  <r_i_glide_gscore>  (351) 
-4.65642

>  <r_i_glide_lipo>  (351) 
-0.655483

>  <r_i_glide_hbond>  (351) 
-0.32

>  <r_i_glide_metal>  (351) 
-0

>  <r_i_glide_rewards>  (351) 
-1.93703

>  <r_i_glide_evdw>  (351) 
-20.371

>  <r_i_glide_ecoul>  (351) 
-4.83568

>  <r_i_glide_erotb>  (351) 
0

>  <r_i_glide_esite>  (351) 
0

>  <r_i_glide_emodel>  (351) 
-31.6998

>  <r_i_glide_energy>  (351) 
-25.2066

>  <r_i_glide_einternal>  (351) 
0.97439

>  <r_i_glide_intrahb_reward>  (351) 
-0

>  <i_i_glide_confnum>  (351) 
1

>  <i_i_glide_posenum>  (351) 
17

>  <r_i_glide_eff_state_penalty>  (351) 
0

>  <ligand_id>  (351) 
94

>  <original_smiles>  (351) 
CC12C3CC=C4C=CC(=O)C45CC1C5C(O)C2C3

>  <smiles>  (351) 
[H]OC1([H])C2([H])C34C(=O)C([H])=C([H])C3=C([H])C([H])([H])C3([H])C([H])([H])C1([H])C3(C([H])([H])[H])C2([H])C4([H])[H]

$$$$
94:0:1
     RDKit          3D

 36 40  0  0  1  0  0  0  0  0999 V2000
    5.5103   -5.0086    1.4771 C   0  0  0  0  0  0  0  0  0  0  0  0
    4.9752   -3.8503    0.6542 C   0  0  1  0  0  0  0  0  0  0  0  0
    5.2352   -2.4532    1.2868 C   0  0  1  0  0  0  0  0  0  0  0  0
    5.7876   -1.2564    0.5373 C   0  0  0  0  0  0  0  0  0  0  0  0
    4.8773   -0.6559   -0.5101 C   0  0  0  0  0  0  0  0  0  0  0  0
    4.5492   -1.1494   -1.7228 C   0  0  0  0  0  0  0  0  0  0  0  0
    3.9305   -0.3781   -2.7739 C   0  0  0  0  0  0  0  0  0  0  0  0
    3.8191   -1.0848   -3.8846 C   0  0  0  0  0  0  0  0  0  0  0  0
    4.3237   -2.4236   -3.6183 C   0  0  0  0  0  0  0  0  0  0  0  0
    4.3052   -3.3984   -4.3607 O   0  0  0  0  0  0  0  0  0  0  0  0
    4.7433   -2.5286   -2.2217 C   0  0  1  0  0  0  0  0  0  0  0  0
    6.0001   -3.2671   -1.8507 C   0  0  0  0  0  0  0  0  0  0  0  0
    5.1638   -4.0967   -0.8511 C   0  0  2  0  0  0  0  0  0  0  0  0
    3.9142   -3.5474   -1.4958 C   0  0  1  0  0  0  0  0  0  0  0  0
    2.8200   -3.2836   -0.5141 C   0  0  1  0  0  0  0  0  0  0  0  0
    1.8422   -4.2597   -0.6891 O   0  0  0  0  0  0  0  0  0  0  0  0
    3.4662   -3.5379    0.8225 C   0  0  2  0  0  0  0  0  0  0  0  0
    3.7802   -2.3722    1.7428 C   0  0  0  0  0  0  0  0  0  0  0  0
    5.3190   -4.8747    2.5317 H   0  0  0  0  0  0  0  0  0  0  0  0
    6.5773   -5.1099    1.3310 H   0  0  0  0  0  0  0  0  0  0  0  0
    5.0501   -5.9366    1.1712 H   0  0  0  0  0  0  0  0  0  0  0  0
    5.8367   -2.6135    2.1744 H   0  0  0  0  0  0  0  0  0  0  0  0
    5.9385   -0.4477    1.2404 H   0  0  0  0  0  0  0  0  0  0  0  0
    6.7864   -1.4200    0.1550 H   0  0  0  0  0  0  0  0  0  0  0  0
    4.5151    0.3193   -0.2235 H   0  0  0  0  0  0  0  0  0  0  0  0
    3.6434    0.6638   -2.7462 H   0  0  0  0  0  0  0  0  0  0  0  0
    3.4065   -0.7445   -4.8376 H   0  0  0  0  0  0  0  0  0  0  0  0
    6.3431   -3.8737   -2.6769 H   0  0  0  0  0  0  0  0  0  0  0  0
    6.8202   -2.7011   -1.4293 H   0  0  0  0  0  0  0  0  0  0  0  0
    5.2190   -5.1678   -1.0883 H   0  0  0  0  0  0  0  0  0  0  0  0
    3.5747   -4.2478   -2.2812 H   0  0  0  0  0  0  0  0  0  0  0  0
    2.4074   -2.3060   -0.6301 H   0  0  0  0  0  0  0  0  0  0  0  0
    1.6303   -4.2382   -1.6372 H   0  0  0  0  0  0  0  0  0  0  0  0
    2.9749   -4.3206    1.3930 H   0  0  0  0  0  0  0  0  0  0  0  0
    3.6718   -2.6364    2.8025 H   0  0  0  0  0  0  0  0  0  0  0  0
    3.2474   -1.4478    1.4857 H   0  0  0  0  0  0  0  0  0  0  0  0
  2  1  1  1
  1 19  1  0
  1 20  1  0
  1 21  1  0
  2 13  1  0
  2 17  1  0
  2  3  1  0
  3 18  1  0
  3  4  1  0
  3 22  1  1
  4  5  1  0
  4 23  1  0
  4 24  1  0
  5  6  2  3
  5 25  1  0
  6 11  1  0
  6  7  1  0
  7  8  2  0
  7 26  1  0
  8  9  1  0
  8 27  1  0
  9 10  2  0
 11  9  1  6
 11 14  1  0
 11 12  1  0
 12 13  1  0
 12 28  1  0
 12 29  1  0
 13 14  1  0
 13 30  1  1
 14 15  1  0
 14 31  1  6
 15 16  1  0
 15 17  1  0
 15 32  1  1
 16 33  1  0
 17 18  1  0
 17 34  1  1
 18 35  1  0
 18 36  1  0
M  END
>  <i_m_ct_stereo_status>  (352) 
1

>  <s_m_source_file>  (352) 
/var/tmp/pbs.5076255.sched01/tmp7onimy_i/150cvk1qxg3.sdf

>  <i_m_source_file_index>  (352) 
14

>  <i_lp_mmshare_version>  (352) 
48012

>  <i_f3d_flags>  (352) 
2

>  <s_epik_input>  (352) 
W0NIMl0xW0NASF0yW0NASF0oW09IXSlbQ0hdM1tDQEhdKFtDSDJdNClbQ0BAXTIoW0NIM10pW0NASF0xW0NIMl0vW0NIXT1DKFtDQF0zNDUpL1tDSF09W0NIXUM1PU8=

>  <s_epik_cmdline>  (352) 
J2VwaWtfcHl0aG9uJywgJy1waHQnLCAnMi4wJywgJy1waCcsICc3LjAnLCAnLXRuJywgJzgnLCAnLW1hJywgJzIwMCcsICctaW1hZScsICc8aW5maWxlLm1hZT4nLCAnLW9tYWUnLCAnPG91dGZpbGUubWFlPic=

>  <r_lp_tautomer_probability>  (352) 
1

>  <r_epik_Ionization_Penalty>  (352) 
7.04425e-08

>  <r_epik_Ionization_Penalty_Charging>  (352) 
0

>  <r_epik_Ionization_Penalty_Neutral>  (352) 
7.04425e-08

>  <r_epik_State_Penalty>  (352) 
-0

>  <r_epik_Charging_Adjusted_Penalty>  (352) 
0

>  <i_epik_Tot_Q>  (352) 
0

>  <i_epik_Tot_abs_Q>  (352) 
0

>  <s_lp_Force_Field>  (352) 
OPLS3e

>  <r_lp_Energy>  (352) 
46.8854

>  <b_lp_Chiralities_Consistent>  (352) 
0

>  <s_lp_Variant>  (352) 
94:0-1

>  <s_i_glide_gridfile>  (352) 
pfpi4k_grid

>  <i_i_glide_lignum>  (352) 
14

>  <i_i_glide_rotatable_bonds>  (352) 
1

>  <r_i_docking_score>  (352) 
-4.3778

>  <r_i_glide_ligand_efficiency>  (352) 
-0.243211

>  <r_i_glide_ligand_efficiency_sa>  (352) 
-0.637394

>  <r_i_glide_ligand_efficiency_ln>  (352) 
-1.12529

>  <r_i_glide_gscore>  (352) 
-4.3778

>  <r_i_glide_lipo>  (352) 
-0.841702

>  <r_i_glide_hbond>  (352) 
-0.161904

>  <r_i_glide_metal>  (352) 
-0

>  <r_i_glide_rewards>  (352) 
-1.9663

>  <r_i_glide_evdw>  (352) 
-13.06

>  <r_i_glide_ecoul>  (352) 
-5.03265

>  <r_i_glide_erotb>  (352) 
0

>  <r_i_glide_esite>  (352) 
0

>  <r_i_glide_emodel>  (352) 
-23.0649

>  <r_i_glide_energy>  (352) 
-18.0927

>  <r_i_glide_einternal>  (352) 
0.759392

>  <r_i_glide_intrahb_reward>  (352) 
-0

>  <i_i_glide_confnum>  (352) 
1

>  <i_i_glide_posenum>  (352) 
6

>  <r_i_glide_eff_state_penalty>  (352) 
0

>  <ligand_id>  (352) 
94

>  <original_smiles>  (352) 
CC12C3CC=C4C=CC(=O)C45CC1C5C(O)C2C3

>  <smiles>  (352) 
[H]OC1([H])C2([H])C34C(=O)C([H])=C([H])C3=C([H])C([H])([H])C3([H])C([H])([H])C1([H])C3(C([H])([H])[H])C2([H])C4([H])[H]

$$$$
94:1:0
     RDKit          3D

 36 40  0  0  1  0  0  0  0  0999 V2000
    5.6146   -3.7319    2.5701 C   0  0  0  0  0  0  0  0  0  0  0  0
    4.7381   -3.2679    1.4073 C   0  0  1  0  0  0  0  0  0  0  0  0
    4.0415   -1.8553    1.6754 C   0  0  1  0  0  0  0  0  0  0  0  0
    3.6317   -0.7497    0.6690 C   0  0  0  0  0  0  0  0  0  0  0  0
    4.5340   -0.6791   -0.5182 C   0  0  0  0  0  0  0  0  0  0  0  0
    4.2232   -1.4856   -1.5452 C   0  0  0  0  0  0  0  0  0  0  0  0
    3.3672   -1.1626   -2.6510 C   0  0  0  0  0  0  0  0  0  0  0  0
    3.5574   -2.0521   -3.6414 C   0  0  0  0  0  0  0  0  0  0  0  0
    4.5654   -3.0350   -3.2269 C   0  0  0  0  0  0  0  0  0  0  0  0
    5.0511   -3.8676   -3.9831 O   0  0  0  0  0  0  0  0  0  0  0  0
    4.7962   -2.8512   -1.7604 C   0  0  1  0  0  0  0  0  0  0  0  0
    6.1278   -3.1180   -1.0571 C   0  0  0  0  0  0  0  0  0  0  0  0
    5.3120   -3.8011    0.0617 C   0  0  2  0  0  0  0  0  0  0  0  0
    4.1592   -3.9683   -0.9005 C   0  0  1  0  0  0  0  0  0  0  0  0
    2.8396   -3.8655   -0.1310 C   0  0  1  0  0  0  0  0  0  0  0  0
    2.0414   -5.0172   -0.3170 O   0  0  0  0  0  0  0  0  0  0  0  0
    3.2841   -3.7762    1.3432 C   0  0  2  0  0  0  0  0  0  0  0  0
    2.8559   -2.6333    2.2516 C   0  0  0  0  0  0  0  0  0  0  0  0
    5.2202   -3.4526    3.5446 H   0  0  0  0  0  0  0  0  0  0  0  0
    6.6014   -3.3043    2.4667 H   0  0  0  0  0  0  0  0  0  0  0  0
    5.7316   -4.8157    2.5680 H   0  0  0  0  0  0  0  0  0  0  0  0
    4.5786   -1.3955    2.5040 H   0  0  0  0  0  0  0  0  0  0  0  0
    2.6191   -0.8685    0.3225 H   0  0  0  0  0  0  0  0  0  0  0  0
    3.6558    0.2216    1.1645 H   0  0  0  0  0  0  0  0  0  0  0  0
    5.4647   -0.8513   -0.0186 H   0  0  0  0  0  0  0  0  0  0  0  0
    2.6457   -0.3612   -2.6834 H   0  0  0  0  0  0  0  0  0  0  0  0
    3.0380   -2.0894   -4.5886 H   0  0  0  0  0  0  0  0  0  0  0  0
    6.7221   -3.8443   -1.6141 H   0  0  0  0  0  0  0  0  0  0  0  0
    6.7449   -2.2800   -0.7466 H   0  0  0  0  0  0  0  0  0  0  0  0
    5.7347   -4.7945    0.2364 H   0  0  0  0  0  0  0  0  0  0  0  0
    4.3135   -4.9250   -1.4015 H   0  0  0  0  0  0  0  0  0  0  0  0
    2.2477   -2.9933   -0.4284 H   0  0  0  0  0  0  0  0  0  0  0  0
    2.2206   -5.3335   -1.2078 H   0  0  0  0  0  0  0  0  0  0  0  0
    3.2153   -4.7324    1.8650 H   0  0  0  0  0  0  0  0  0  0  0  0
    2.9617   -2.8670    3.3157 H   0  0  0  0  0  0  0  0  0  0  0  0
    1.8653   -2.2346    2.0097 H   0  0  0  0  0  0  0  0  0  0  0  0
  2  1  1  1
  1 19  1  0
  1 20  1  0
  1 21  1  0
  2 13  1  0
  2 17  1  0
  2  3  1  0
  3 18  1  0
  3  4  1  0
  3 22  1  1
  4  5  1  0
  4 23  1  0
  4 24  1  0
  5  6  2  3
  5 25  1  0
  6 11  1  0
  6  7  1  0
  7  8  2  0
  7 26  1  0
  8  9  1  0
  8 27  1  0
  9 10  2  0
 11  9  1  6
 11 14  1  0
 11 12  1  0
 12 13  1  0
 12 28  1  0
 12 29  1  0
 13 14  1  0
 13 30  1  1
 14 15  1  0
 14 31  1  6
 15 16  1  0
 15 17  1  0
 15 32  1  6
 16 33  1  0
 17 18  1  0
 17 34  1  1
 18 35  1  0
 18 36  1  0
M  END
>  <i_m_ct_stereo_status>  (353) 
1

>  <s_m_source_file>  (353) 
/var/tmp/pbs.5076255.sched01/tmp7onimy_i/150cvk1qxg3.sdf

>  <i_m_source_file_index>  (353) 
15

>  <i_lp_mmshare_version>  (353) 
48012

>  <i_f3d_flags>  (353) 
2

>  <s_epik_input>  (353) 
W0NIMl0xW0NASF0yW0NASF0oW09IXSlbQ0hdM1tDQEhdKFtDSDJdNClbQ0BAXTIoW0NIM10pW0NASF0xW0NIMl0vW0NIXT1DKFtDQF0zNDUpL1tDSF09W0NIXUM1PU8=

>  <s_epik_cmdline>  (353) 
J2VwaWtfcHl0aG9uJywgJy1waHQnLCAnMi4wJywgJy1waCcsICc3LjAnLCAnLXRuJywgJzgnLCAnLW1hJywgJzIwMCcsICctaW1hZScsICc8aW5maWxlLm1hZT4nLCAnLW9tYWUnLCAnPG91dGZpbGUubWFlPic=

>  <r_lp_tautomer_probability>  (353) 
1

>  <r_epik_Ionization_Penalty>  (353) 
7.04425e-08

>  <r_epik_Ionization_Penalty_Charging>  (353) 
0

>  <r_epik_Ionization_Penalty_Neutral>  (353) 
7.04425e-08

>  <r_epik_State_Penalty>  (353) 
-0

>  <r_epik_Charging_Adjusted_Penalty>  (353) 
0

>  <i_epik_Tot_Q>  (353) 
0

>  <i_epik_Tot_abs_Q>  (353) 
0

>  <s_lp_Force_Field>  (353) 
OPLS3e

>  <r_lp_Energy>  (353) 
95.7495

>  <b_lp_Chiralities_Consistent>  (353) 
0

>  <s_lp_Variant>  (353) 
94:0-2

>  <s_i_glide_gridfile>  (353) 
pfpi4k_grid

>  <i_i_glide_lignum>  (353) 
15

>  <i_i_glide_rotatable_bonds>  (353) 
1

>  <r_i_docking_score>  (353) 
-4.59945

>  <r_i_glide_ligand_efficiency>  (353) 
-0.255525

>  <r_i_glide_ligand_efficiency_sa>  (353) 
-0.669665

>  <r_i_glide_ligand_efficiency_ln>  (353) 
-1.18226

>  <r_i_glide_gscore>  (353) 
-4.59945

>  <r_i_glide_lipo>  (353) 
-0.403301

>  <r_i_glide_hbond>  (353) 
-0.330811

>  <r_i_glide_metal>  (353) 
-0

>  <r_i_glide_rewards>  (353) 
-1.95521

>  <r_i_glide_evdw>  (353) 
-18.308

>  <r_i_glide_ecoul>  (353) 
-6.63152

>  <r_i_glide_erotb>  (353) 
0

>  <r_i_glide_esite>  (353) 
0

>  <r_i_glide_emodel>  (353) 
-30.9873

>  <r_i_glide_energy>  (353) 
-24.9395

>  <r_i_glide_einternal>  (353) 
1.08457

>  <r_i_glide_intrahb_reward>  (353) 
-0

>  <i_i_glide_confnum>  (353) 
1

>  <i_i_glide_posenum>  (353) 
40

>  <r_i_glide_eff_state_penalty>  (353) 
0

>  <ligand_id>  (353) 
94

>  <original_smiles>  (353) 
CC12C3CC=C4C=CC(=O)C45CC1C5C(O)C2C3

>  <smiles>  (353) 
[H]OC1([H])C2([H])C34C(=O)C([H])=C([H])C3=C([H])C([H])([H])C3([H])C([H])([H])C1([H])C3(C([H])([H])[H])C2([H])C4([H])[H]

$$$$
94:1:1
     RDKit          3D

 36 40  0  0  1  0  0  0  0  0999 V2000
    6.1026   -5.5002    1.1438 C   0  0  0  0  0  0  0  0  0  0  0  0
    5.5355   -4.2062    0.5488 C   0  0  1  0  0  0  0  0  0  0  0  0
    6.4268   -2.9177    0.8803 C   0  0  1  0  0  0  0  0  0  0  0  0
    6.6173   -1.6277    0.0514 C   0  0  0  0  0  0  0  0  0  0  0  0
    6.4969   -1.9154   -1.3983 C   0  0  0  0  0  0  0  0  0  0  0  0
    5.2512   -1.8301   -1.9391 C   0  0  0  0  0  0  0  0  0  0  0  0
    4.6106   -0.6647   -2.4568 C   0  0  0  0  0  0  0  0  0  0  0  0
    3.5844   -1.0126   -3.2299 C   0  0  0  0  0  0  0  0  0  0  0  0
    3.4887   -2.4798   -3.2760 C   0  0  0  0  0  0  0  0  0  0  0  0
    2.8248   -3.0926   -4.0895 O   0  0  0  0  0  0  0  0  0  0  0  0
    4.3801   -2.9933   -2.1800 C   0  0  1  0  0  0  0  0  0  0  0  0
    5.1382   -4.2976   -2.2543 C   0  0  0  0  0  0  0  0  0  0  0  0
    4.7529   -4.5094   -0.7702 C   0  0  2  0  0  0  0  0  0  0  0  0
    3.6492   -3.4755   -0.9146 C   0  0  1  0  0  0  0  0  0  0  0  0
    3.5416   -2.6818    0.3919 C   0  0  1  0  0  0  0  0  0  0  0  0
    2.2177   -2.6330    0.8784 O   0  0  0  0  0  0  0  0  0  0  0  0
    4.4696   -3.4369    1.3574 C   0  0  2  0  0  0  0  0  0  0  0  0
    5.5649   -2.7266    2.1277 C   0  0  0  0  0  0  0  0  0  0  0  0
    6.5868   -5.3517    2.1072 H   0  0  0  0  0  0  0  0  0  0  0  0
    6.8371   -5.9450    0.4735 H   0  0  0  0  0  0  0  0  0  0  0  0
    5.3184   -6.2466    1.2831 H   0  0  0  0  0  0  0  0  0  0  0  0
    7.4002   -3.2915    1.1901 H   0  0  0  0  0  0  0  0  0  0  0  0
    5.9209   -0.8387    0.3234 H   0  0  0  0  0  0  0  0  0  0  0  0
    7.6087   -1.2167    0.2535 H   0  0  0  0  0  0  0  0  0  0  0  0
    7.0566   -2.8358   -1.4292 H   0  0  0  0  0  0  0  0  0  0  0  0
    4.9022    0.3628   -2.3158 H   0  0  0  0  0  0  0  0  0  0  0  0
    2.9196   -0.3560   -3.7771 H   0  0  0  0  0  0  0  0  0  0  0  0
    4.7107   -5.0142   -2.9479 H   0  0  0  0  0  0  0  0  0  0  0  0
    6.1863   -4.2126   -2.5092 H   0  0  0  0  0  0  0  0  0  0  0  0
    4.2582   -5.4768   -0.6738 H   0  0  0  0  0  0  0  0  0  0  0  0
    2.7154   -3.9508   -1.2200 H   0  0  0  0  0  0  0  0  0  0  0  0
    3.8409   -1.6368    0.2834 H   0  0  0  0  0  0  0  0  0  0  0  0
    1.7487   -2.0209    0.3174 H   0  0  0  0  0  0  0  0  0  0  0  0
    3.9396   -4.1379    1.9993 H   0  0  0  0  0  0  0  0  0  0  0  0
    5.9032   -3.2855    2.9996 H   0  0  0  0  0  0  0  0  0  0  0  0
    5.3191   -1.6890    2.3587 H   0  0  0  0  0  0  0  0  0  0  0  0
  2  1  1  1
  1 19  1  0
  1 20  1  0
  1 21  1  0
  2 13  1  0
  2 17  1  0
  2  3  1  0
  3 18  1  0
  3  4  1  0
  3 22  1  1
  4  5  1  0
  4 23  1  0
  4 24  1  0
  5  6  2  3
  5 25  1  0
  6 11  1  0
  6  7  1  0
  7  8  2  0
  7 26  1  0
  8  9  1  0
  8 27  1  0
  9 10  2  0
 11  9  1  6
 11 14  1  0
 11 12  1  0
 12 13  1  0
 12 28  1  0
 12 29  1  0
 13 14  1  0
 13 30  1  6
 14 15  1  0
 14 31  1  6
 15 16  1  0
 15 17  1  0
 15 32  1  6
 16 33  1  0
 17 18  1  0
 17 34  1  1
 18 35  1  0
 18 36  1  0
M  END
>  <i_m_ct_stereo_status>  (354) 
1

>  <s_m_source_file>  (354) 
/var/tmp/pbs.5076255.sched01/tmp7onimy_i/150cvk1qxg3.sdf

>  <i_m_source_file_index>  (354) 
15

>  <i_lp_mmshare_version>  (354) 
48012

>  <i_f3d_flags>  (354) 
2

>  <s_epik_input>  (354) 
W0NIMl0xW0NASF0yW0NASF0oW09IXSlbQ0hdM1tDQEhdKFtDSDJdNClbQ0BAXTIoW0NIM10pW0NASF0xW0NIMl0vW0NIXT1DKFtDQF0zNDUpL1tDSF09W0NIXUM1PU8=

>  <s_epik_cmdline>  (354) 
J2VwaWtfcHl0aG9uJywgJy1waHQnLCAnMi4wJywgJy1waCcsICc3LjAnLCAnLXRuJywgJzgnLCAnLW1hJywgJzIwMCcsICctaW1hZScsICc8aW5maWxlLm1hZT4nLCAnLW9tYWUnLCAnPG91dGZpbGUubWFlPic=

>  <r_lp_tautomer_probability>  (354) 
1

>  <r_epik_Ionization_Penalty>  (354) 
7.04425e-08

>  <r_epik_Ionization_Penalty_Charging>  (354) 
0

>  <r_epik_Ionization_Penalty_Neutral>  (354) 
7.04425e-08

>  <r_epik_State_Penalty>  (354) 
-0

>  <r_epik_Charging_Adjusted_Penalty>  (354) 
0

>  <i_epik_Tot_Q>  (354) 
0

>  <i_epik_Tot_abs_Q>  (354) 
0

>  <s_lp_Force_Field>  (354) 
OPLS3e

>  <r_lp_Energy>  (354) 
95.7495

>  <b_lp_Chiralities_Consistent>  (354) 
0

>  <s_lp_Variant>  (354) 
94:0-2

>  <s_i_glide_gridfile>  (354) 
pfpi4k_grid

>  <i_i_glide_lignum>  (354) 
15

>  <i_i_glide_rotatable_bonds>  (354) 
1

>  <r_i_docking_score>  (354) 
-3.77042

>  <r_i_glide_ligand_efficiency>  (354) 
-0.209468

>  <r_i_glide_ligand_efficiency_sa>  (354) 
-0.548962

>  <r_i_glide_ligand_efficiency_ln>  (354) 
-0.969168

>  <r_i_glide_gscore>  (354) 
-3.77042

>  <r_i_glide_lipo>  (354) 
-0.432259

>  <r_i_glide_hbond>  (354) 
-0.16398

>  <r_i_glide_metal>  (354) 
-0

>  <r_i_glide_rewards>  (354) 
-1.94482

>  <r_i_glide_evdw>  (354) 
-15.8271

>  <r_i_glide_ecoul>  (354) 
-2.9201

>  <r_i_glide_erotb>  (354) 
0

>  <r_i_glide_esite>  (354) 
0

>  <r_i_glide_emodel>  (354) 
-23.8093

>  <r_i_glide_energy>  (354) 
-18.7472

>  <r_i_glide_einternal>  (354) 
0.48128

>  <r_i_glide_intrahb_reward>  (354) 
-0

>  <i_i_glide_confnum>  (354) 
2

>  <i_i_glide_posenum>  (354) 
13

>  <r_i_glide_eff_state_penalty>  (354) 
0

>  <ligand_id>  (354) 
94

>  <original_smiles>  (354) 
CC12C3CC=C4C=CC(=O)C45CC1C5C(O)C2C3

>  <smiles>  (354) 
[H]OC1([H])C2([H])C34C(=O)C([H])=C([H])C3=C([H])C([H])([H])C3([H])C([H])([H])C1([H])C3(C([H])([H])[H])C2([H])C4([H])[H]

$$$$
94:1:2
     RDKit          3D

 36 40  0  0  1  0  0  0  0  0999 V2000
    4.8410   -1.2304   -2.0479 C   0  0  0  0  0  0  0  0  0  0  0  0
    4.7160   -1.9146   -0.6795 C   0  0  1  0  0  0  0  0  0  0  0  0
    4.5704   -0.8734    0.5269 C   0  0  1  0  0  0  0  0  0  0  0  0
    3.8415   -1.0334    1.8884 C   0  0  0  0  0  0  0  0  0  0  0  0
    2.6412   -1.9201    1.8058 C   0  0  0  0  0  0  0  0  0  0  0  0
    2.8647   -3.2333    1.9664 C   0  0  0  0  0  0  0  0  0  0  0  0
    2.8527   -3.9561    3.2049 C   0  0  0  0  0  0  0  0  0  0  0  0
    2.7509   -5.2701    2.9538 C   0  0  0  0  0  0  0  0  0  0  0  0
    2.6837   -5.4890    1.5055 C   0  0  0  0  0  0  0  0  0  0  0  0
    2.3491   -6.5496    0.9760 O   0  0  0  0  0  0  0  0  0  0  0  0
    3.0943   -4.2033    0.8493 C   0  0  1  0  0  0  0  0  0  0  0  0
    2.5918   -3.7716   -0.5252 C   0  0  0  0  0  0  0  0  0  0  0  0
    4.0308   -3.3120   -0.8330 C   0  0  2  0  0  0  0  0  0  0  0  0
    4.5376   -4.2146    0.2766 C   0  0  1  0  0  0  0  0  0  0  0  0
    5.7540   -3.5435    0.9261 C   0  0  1  0  0  0  0  0  0  0  0  0
    6.8738   -4.4018    0.9142 O   0  0  0  0  0  0  0  0  0  0  0  0
    6.0194   -2.3044    0.0472 C   0  0  2  0  0  0  0  0  0  0  0  0
    6.0926   -0.9088    0.6531 C   0  0  0  0  0  0  0  0  0  0  0  0
    5.3906   -0.2913   -2.0115 H   0  0  0  0  0  0  0  0  0  0  0  0
    3.8574   -1.0107   -2.4607 H   0  0  0  0  0  0  0  0  0  0  0  0
    5.3461   -1.8753   -2.7652 H   0  0  0  0  0  0  0  0  0  0  0  0
    4.2791    0.0828    0.0899 H   0  0  0  0  0  0  0  0  0  0  0  0
    4.5033   -1.4017    2.6785 H   0  0  0  0  0  0  0  0  0  0  0  0
    3.5076   -0.0546    2.2328 H   0  0  0  0  0  0  0  0  0  0  0  0
    2.2575   -1.5967    0.8602 H   0  0  0  0  0  0  0  0  0  0  0  0
    2.9042   -3.5180    4.1931 H   0  0  0  0  0  0  0  0  0  0  0  0
    2.7145   -6.0766    3.6730 H   0  0  0  0  0  0  0  0  0  0  0  0
    2.3044   -4.6377   -1.1208 H   0  0  0  0  0  0  0  0  0  0  0  0
    1.8158   -3.0146   -0.5940 H   0  0  0  0  0  0  0  0  0  0  0  0
    4.3376   -3.7455   -1.7890 H   0  0  0  0  0  0  0  0  0  0  0  0
    4.7642   -5.1977   -0.1391 H   0  0  0  0  0  0  0  0  0  0  0  0
    5.5686   -3.2664    1.9654 H   0  0  0  0  0  0  0  0  0  0  0  0
    6.6706   -5.1548    1.4457 H   0  0  0  0  0  0  0  0  0  0  0  0
    6.8157   -2.4669   -0.6809 H   0  0  0  0  0  0  0  0  0  0  0  0
    6.5937   -0.1738    0.0263 H   0  0  0  0  0  0  0  0  0  0  0  0
    6.4872   -0.8984    1.6710 H   0  0  0  0  0  0  0  0  0  0  0  0
  2  1  1  6
  1 19  1  0
  1 20  1  0
  1 21  1  0
  2 13  1  0
  2 17  1  0
  2  3  1  0
  3 18  1  0
  3  4  1  0
  3 22  1  6
  4  5  1  0
  4 23  1  0
  4 24  1  0
  5  6  2  3
  5 25  1  0
  6 11  1  0
  6  7  1  0
  7  8  2  0
  7 26  1  0
  8  9  1  0
  8 27  1  0
  9 10  2  0
 11  9  1  1
 11 14  1  0
 11 12  1  0
 12 13  1  0
 12 28  1  0
 12 29  1  0
 13 14  1  0
 13 30  1  6
 14 15  1  0
 14 31  1  6
 15 16  1  0
 15 17  1  0
 15 32  1  1
 16 33  1  0
 17 18  1  0
 17 34  1  6
 18 35  1  0
 18 36  1  0
M  END
>  <i_m_ct_stereo_status>  (355) 
1

>  <s_m_source_file>  (355) 
/var/tmp/pbs.5076255.sched01/tmp7onimy_i/150cvk1qxg3.sdf

>  <i_m_source_file_index>  (355) 
15

>  <i_lp_mmshare_version>  (355) 
48012

>  <i_f3d_flags>  (355) 
2

>  <s_epik_input>  (355) 
W0NIMl0xW0NASF0yW0NASF0oW09IXSlbQ0hdM1tDQEhdKFtDSDJdNClbQ0BAXTIoW0NIM10pW0NASF0xW0NIMl0vW0NIXT1DKFtDQF0zNDUpL1tDSF09W0NIXUM1PU8=

>  <s_epik_cmdline>  (355) 
J2VwaWtfcHl0aG9uJywgJy1waHQnLCAnMi4wJywgJy1waCcsICc3LjAnLCAnLXRuJywgJzgnLCAnLW1hJywgJzIwMCcsICctaW1hZScsICc8aW5maWxlLm1hZT4nLCAnLW9tYWUnLCAnPG91dGZpbGUubWFlPic=

>  <r_lp_tautomer_probability>  (355) 
1

>  <r_epik_Ionization_Penalty>  (355) 
7.04425e-08

>  <r_epik_Ionization_Penalty_Charging>  (355) 
0

>  <r_epik_Ionization_Penalty_Neutral>  (355) 
7.04425e-08

>  <r_epik_State_Penalty>  (355) 
-0

>  <r_epik_Charging_Adjusted_Penalty>  (355) 
0

>  <i_epik_Tot_Q>  (355) 
0

>  <i_epik_Tot_abs_Q>  (355) 
0

>  <s_lp_Force_Field>  (355) 
OPLS3e

>  <r_lp_Energy>  (355) 
95.7495

>  <b_lp_Chiralities_Consistent>  (355) 
0

>  <s_lp_Variant>  (355) 
94:0-2

>  <s_i_glide_gridfile>  (355) 
pfpi4k_grid

>  <i_i_glide_lignum>  (355) 
15

>  <i_i_glide_rotatable_bonds>  (355) 
1

>  <r_i_docking_score>  (355) 
-3.13424

>  <r_i_glide_ligand_efficiency>  (355) 
-0.174124

>  <r_i_glide_ligand_efficiency_sa>  (355) 
-0.456335

>  <r_i_glide_ligand_efficiency_ln>  (355) 
-0.80564

>  <r_i_glide_gscore>  (355) 
-3.13424

>  <r_i_glide_lipo>  (355) 
-0.324405

>  <r_i_glide_hbond>  (355) 
0

>  <r_i_glide_metal>  (355) 
-0

>  <r_i_glide_rewards>  (355) 
-1.75696

>  <r_i_glide_evdw>  (355) 
-16.7415

>  <r_i_glide_ecoul>  (355) 
-1.34372

>  <r_i_glide_erotb>  (355) 
0

>  <r_i_glide_esite>  (355) 
-0.0142464

>  <r_i_glide_emodel>  (355) 
-22.5349

>  <r_i_glide_energy>  (355) 
-18.0852

>  <r_i_glide_einternal>  (355) 
0.312369

>  <r_i_glide_intrahb_reward>  (355) 
-0

>  <i_i_glide_confnum>  (355) 
2

>  <i_i_glide_posenum>  (355) 
39

>  <r_i_glide_eff_state_penalty>  (355) 
0

>  <ligand_id>  (355) 
94

>  <original_smiles>  (355) 
CC12C3CC=C4C=CC(=O)C45CC1C5C(O)C2C3

>  <smiles>  (355) 
[H]OC1([H])C2([H])C34C(=O)C([H])=C([H])C3=C([H])C([H])([H])C3([H])C([H])([H])C1([H])C3(C([H])([H])[H])C2([H])C4([H])[H]

$$$$
94:2:0
     RDKit          3D

 36 40  0  0  1  0  0  0  0  0999 V2000
    5.2232   -3.8952    2.6548 C   0  0  0  0  0  0  0  0  0  0  0  0
    5.2287   -2.9798    1.4394 C   0  0  1  0  0  0  0  0  0  0  0  0
    6.5778   -2.3653    0.9345 C   0  0  1  0  0  0  0  0  0  0  0  0
    7.2592   -2.6284   -0.5289 C   0  0  0  0  0  0  0  0  0  0  0  0
    6.5932   -3.0808   -1.9197 C   0  0  0  0  0  0  0  0  0  0  0  0
    5.3078   -3.3779   -2.3584 C   0  0  0  0  0  0  0  0  0  0  0  0
    4.9697   -3.6227   -3.7298 C   0  0  0  0  0  0  0  0  0  0  0  0
    3.6598   -3.3906   -3.9426 C   0  0  0  0  0  0  0  0  0  0  0  0
    2.9754   -3.0375   -2.7202 C   0  0  0  0  0  0  0  0  0  0  0  0
    1.8122   -2.6819   -2.7009 O   0  0  0  0  0  0  0  0  0  0  0  0
    3.9481   -3.2559   -1.6068 C   0  0  1  0  0  0  0  0  0  0  0  0
    3.5773   -4.2498   -0.4574 C   0  0  0  0  0  0  0  0  0  0  0  0
    4.7459   -3.5452    0.1888 C   0  0  1  0  0  0  0  0  0  0  0  0
    4.2420   -2.2517   -0.5614 C   0  0  2  0  0  0  0  0  0  0  0  0
    3.5431   -1.3932    0.4694 C   0  0  1  0  0  0  0  0  0  0  0  0
    2.2759   -1.8575    0.8787 O   0  0  0  0  0  0  0  0  0  0  0  0
    4.6035   -1.5712    1.5741 C   0  0  2  0  0  0  0  0  0  0  0  0
    6.0198   -0.9859    1.3379 C   0  0  0  0  0  0  0  0  0  0  0  0
    5.6335   -3.4101    3.5391 H   0  0  0  0  0  0  0  0  0  0  0  0
    5.7986   -4.8040    2.4686 H   0  0  0  0  0  0  0  0  0  0  0  0
    4.2042   -4.2041    2.8896 H   0  0  0  0  0  0  0  0  0  0  0  0
    7.3142   -2.6250    1.6733 H   0  0  0  0  0  0  0  0  0  0  0  0
    7.8629   -1.7557   -0.7602 H   0  0  0  0  0  0  0  0  0  0  0  0
    8.0227   -3.3921   -0.3741 H   0  0  0  0  0  0  0  0  0  0  0  0
    7.3431   -3.1838   -2.6889 H   0  0  0  0  0  0  0  0  0  0  0  0
    5.6498   -3.9252   -4.5014 H   0  0  0  0  0  0  0  0  0  0  0  0
    3.1188   -3.4600   -4.8631 H   0  0  0  0  0  0  0  0  0  0  0  0
    2.5851   -4.0890   -0.0347 H   0  0  0  0  0  0  0  0  0  0  0  0
    3.7737   -5.2918   -0.7090 H   0  0  0  0  0  0  0  0  0  0  0  0
    5.5346   -4.2492   -0.1052 H   0  0  0  0  0  0  0  0  0  0  0  0
    4.9665   -1.5552   -0.9788 H   0  0  0  0  0  0  0  0  0  0  0  0
    3.4420   -0.3530    0.1557 H   0  0  0  0  0  0  0  0  0  0  0  0
    1.6370   -1.5261    0.2287 H   0  0  0  0  0  0  0  0  0  0  0  0
    4.2529   -1.3450    2.5822 H   0  0  0  0  0  0  0  0  0  0  0  0
    6.4652   -0.6218    2.2608 H   0  0  0  0  0  0  0  0  0  0  0  0
    6.0595   -0.2317    0.5490 H   0  0  0  0  0  0  0  0  0  0  0  0
  2  1  1  1
  1 19  1  0
  1 20  1  0
  1 21  1  0
  2 13  1  0
  2 17  1  0
  2  3  1  0
  3 18  1  0
  3  4  1  0
  3 22  1  1
  4  5  1  0
  4 23  1  0
  4 24  1  0
  5  6  2  3
  5 25  1  0
  6 11  1  0
  6  7  1  0
  7  8  2  0
  7 26  1  0
  8  9  1  0
  8 27  1  0
  9 10  2  0
 11  9  1  6
 11 14  1  0
 11 12  1  0
 12 13  1  0
 12 28  1  0
 12 29  1  0
 13 14  1  0
 13 30  1  6
 14 15  1  0
 14 31  1  6
 15 16  1  0
 15 17  1  0
 15 32  1  6
 16 33  1  0
 17 18  1  0
 17 34  1  1
 18 35  1  0
 18 36  1  0
M  END
>  <i_m_ct_stereo_status>  (356) 
1

>  <s_m_source_file>  (356) 
/var/tmp/pbs.5076255.sched01/tmp7onimy_i/150cvk1qxg3.sdf

>  <i_m_source_file_index>  (356) 
16

>  <i_lp_mmshare_version>  (356) 
48012

>  <i_f3d_flags>  (356) 
0

>  <s_epik_input>  (356) 
W0NIMl0xW0NASF0yW0NASF0oW09IXSlbQ0hdM1tDQEhdKFtDSDJdNClbQ0BAXTIoW0NIM10pW0NASF0xW0NIMl0vW0NIXT1DKFtDQF0zNDUpL1tDSF09W0NIXUM1PU8=

>  <s_epik_cmdline>  (356) 
J2VwaWtfcHl0aG9uJywgJy1waHQnLCAnMi4wJywgJy1waCcsICc3LjAnLCAnLXRuJywgJzgnLCAnLW1hJywgJzIwMCcsICctaW1hZScsICc8aW5maWxlLm1hZT4nLCAnLW9tYWUnLCAnPG91dGZpbGUubWFlPic=

>  <r_lp_tautomer_probability>  (356) 
1

>  <r_epik_Ionization_Penalty>  (356) 
7.04425e-08

>  <r_epik_Ionization_Penalty_Charging>  (356) 
0

>  <r_epik_Ionization_Penalty_Neutral>  (356) 
7.04425e-08

>  <r_epik_State_Penalty>  (356) 
-0

>  <r_epik_Charging_Adjusted_Penalty>  (356) 
0

>  <i_epik_Tot_Q>  (356) 
0

>  <i_epik_Tot_abs_Q>  (356) 
0

>  <s_lp_Force_Field>  (356) 
OPLS3e

>  <r_lp_Energy>  (356) 
144.537

>  <b_lp_Chiralities_Consistent>  (356) 
1

>  <s_lp_Variant>  (356) 
94:0-3

>  <s_i_glide_gridfile>  (356) 
pfpi4k_grid

>  <i_i_glide_lignum>  (356) 
16

>  <i_i_glide_rotatable_bonds>  (356) 
1

>  <r_i_docking_score>  (356) 
-3.94863

>  <r_i_glide_ligand_efficiency>  (356) 
-0.219368

>  <r_i_glide_ligand_efficiency_sa>  (356) 
-0.574908

>  <r_i_glide_ligand_efficiency_ln>  (356) 
-1.01497

>  <r_i_glide_gscore>  (356) 
-3.94863

>  <r_i_glide_lipo>  (356) 
-0.796807

>  <r_i_glide_hbond>  (356) 
-0.134483

>  <r_i_glide_metal>  (356) 
-0

>  <r_i_glide_rewards>  (356) 
-1.75696

>  <r_i_glide_evdw>  (356) 
-12.6619

>  <r_i_glide_ecoul>  (356) 
-4.04652

>  <r_i_glide_erotb>  (356) 
0

>  <r_i_glide_esite>  (356) 
-0.0203079

>  <r_i_glide_emodel>  (356) 
-20.0461

>  <r_i_glide_energy>  (356) 
-16.7084

>  <r_i_glide_einternal>  (356) 
0.629159

>  <r_i_glide_intrahb_reward>  (356) 
-0

>  <i_i_glide_confnum>  (356) 
1

>  <i_i_glide_posenum>  (356) 
35

>  <r_i_glide_eff_state_penalty>  (356) 
0

>  <ligand_id>  (356) 
94

>  <original_smiles>  (356) 
CC12C3CC=C4C=CC(=O)C45CC1C5C(O)C2C3

>  <smiles>  (356) 
[H]OC1([H])C2([H])C34C(=O)C([H])=C([H])C3=C([H])C([H])([H])C3([H])C([H])([H])C1([H])C3(C([H])([H])[H])C2([H])C4([H])[H]

$$$$
94:2:1
     RDKit          3D

 36 40  0  0  1  0  0  0  0  0999 V2000
    4.6704   -3.2463    2.8347 C   0  0  0  0  0  0  0  0  0  0  0  0
    5.1674   -2.5064    1.6011 C   0  0  1  0  0  0  0  0  0  0  0  0
    6.6791   -2.5461    1.2182 C   0  0  1  0  0  0  0  0  0  0  0  0
    7.3325   -3.1323   -0.1599 C   0  0  0  0  0  0  0  0  0  0  0  0
    6.6549   -3.3434   -1.5834 C   0  0  0  0  0  0  0  0  0  0  0  0
    5.4018   -3.1087   -2.1396 C   0  0  0  0  0  0  0  0  0  0  0  0
    5.0989   -3.3120   -3.5103 C   0  0  0  0  0  0  0  0  0  0  0  0
    4.0205   -2.6022   -3.8545 C   0  0  0  0  0  0  0  0  0  0  0  0
    3.5127   -1.8361   -2.7488 C   0  0  0  0  0  0  0  0  0  0  0  0
    2.7303   -0.9003   -2.9061 O   0  0  0  0  0  0  0  0  0  0  0  0
    4.1649   -2.3756   -1.5317 C   0  0  1  0  0  0  0  0  0  0  0  0
    3.3242   -3.0637   -0.4195 C   0  0  0  0  0  0  0  0  0  0  0  0
    4.6165   -2.8892    0.3317 C   0  0  1  0  0  0  0  0  0  0  0  0
    4.7605   -1.5470   -0.4758 C   0  0  2  0  0  0  0  0  0  0  0  0
    4.4004   -0.4280    0.4686 C   0  0  1  0  0  0  0  0  0  0  0  0
    3.0575   -0.3524    0.8875 O   0  0  0  0  0  0  0  0  0  0  0  0
    5.1967   -0.9707    1.6482 C   0  0  2  0  0  0  0  0  0  0  0  0
    6.7183   -1.0457    1.5313 C   0  0  0  0  0  0  0  0  0  0  0  0
    5.1676   -2.9199    3.7465 H   0  0  0  0  0  0  0  0  0  0  0  0
    4.8159   -4.3175    2.7232 H   0  0  0  0  0  0  0  0  0  0  0  0
    3.6004   -3.0772    2.9555 H   0  0  0  0  0  0  0  0  0  0  0  0
    7.1008   -3.0791    2.0765 H   0  0  0  0  0  0  0  0  0  0  0  0
    8.2527   -2.5799   -0.3578 H   0  0  0  0  0  0  0  0  0  0  0  0
    7.7073   -4.1309    0.0929 H   0  0  0  0  0  0  0  0  0  0  0  0
    7.3560   -3.7799   -2.2767 H   0  0  0  0  0  0  0  0  0  0  0  0
    5.6810   -3.9087   -4.1973 H   0  0  0  0  0  0  0  0  0  0  0  0
    3.5767   -2.5126   -4.8264 H   0  0  0  0  0  0  0  0  0  0  0  0
    2.4697   -2.4660   -0.1170 H   0  0  0  0  0  0  0  0  0  0  0  0
    3.0795   -4.0964   -0.6701 H   0  0  0  0  0  0  0  0  0  0  0  0
    5.0506   -3.8701    0.1150 H   0  0  0  0  0  0  0  0  0  0  0  0
    5.7369   -1.2530   -0.8551 H   0  0  0  0  0  0  0  0  0  0  0  0
    4.7589    0.5417    0.1136 H   0  0  0  0  0  0  0  0  0  0  0  0
    2.9163    0.4612    1.3458 H   0  0  0  0  0  0  0  0  0  0  0  0
    4.9181   -0.5534    2.6094 H   0  0  0  0  0  0  0  0  0  0  0  0
    7.1605   -0.7286    2.4766 H   0  0  0  0  0  0  0  0  0  0  0  0
    7.0987   -0.4902    0.6900 H   0  0  0  0  0  0  0  0  0  0  0  0
  2  1  1  1
  1 19  1  0
  1 20  1  0
  1 21  1  0
  2 13  1  0
  2 17  1  0
  2  3  1  0
  3 18  1  0
  3  4  1  0
  3 22  1  1
  4  5  1  0
  4 23  1  0
  4 24  1  0
  5  6  2  3
  5 25  1  0
  6 11  1  0
  6  7  1  0
  7  8  2  0
  7 26  1  0
  8  9  1  0
  8 27  1  0
  9 10  2  0
 11  9  1  6
 11 14  1  0
 11 12  1  0
 12 13  1  0
 12 28  1  0
 12 29  1  0
 13 14  1  0
 13 30  1  6
 14 15  1  0
 14 31  1  6
 15 16  1  0
 15 17  1  0
 15 32  1  6
 16 33  1  0
 17 18  1  0
 17 34  1  1
 18 35  1  0
 18 36  1  0
M  END
>  <i_m_ct_stereo_status>  (357) 
1

>  <s_m_source_file>  (357) 
/var/tmp/pbs.5076255.sched01/tmp7onimy_i/150cvk1qxg3.sdf

>  <i_m_source_file_index>  (357) 
16

>  <i_lp_mmshare_version>  (357) 
48012

>  <i_f3d_flags>  (357) 
0

>  <s_epik_input>  (357) 
W0NIMl0xW0NASF0yW0NASF0oW09IXSlbQ0hdM1tDQEhdKFtDSDJdNClbQ0BAXTIoW0NIM10pW0NASF0xW0NIMl0vW0NIXT1DKFtDQF0zNDUpL1tDSF09W0NIXUM1PU8=

>  <s_epik_cmdline>  (357) 
J2VwaWtfcHl0aG9uJywgJy1waHQnLCAnMi4wJywgJy1waCcsICc3LjAnLCAnLXRuJywgJzgnLCAnLW1hJywgJzIwMCcsICctaW1hZScsICc8aW5maWxlLm1hZT4nLCAnLW9tYWUnLCAnPG91dGZpbGUubWFlPic=

>  <r_lp_tautomer_probability>  (357) 
1

>  <r_epik_Ionization_Penalty>  (357) 
7.04425e-08

>  <r_epik_Ionization_Penalty_Charging>  (357) 
0

>  <r_epik_Ionization_Penalty_Neutral>  (357) 
7.04425e-08

>  <r_epik_State_Penalty>  (357) 
-0

>  <r_epik_Charging_Adjusted_Penalty>  (357) 
0

>  <i_epik_Tot_Q>  (357) 
0

>  <i_epik_Tot_abs_Q>  (357) 
0

>  <s_lp_Force_Field>  (357) 
OPLS3e

>  <r_lp_Energy>  (357) 
144.537

>  <b_lp_Chiralities_Consistent>  (357) 
1

>  <s_lp_Variant>  (357) 
94:0-3

>  <s_i_glide_gridfile>  (357) 
pfpi4k_grid

>  <i_i_glide_lignum>  (357) 
16

>  <i_i_glide_rotatable_bonds>  (357) 
1

>  <r_i_docking_score>  (357) 
-3.4251

>  <r_i_glide_ligand_efficiency>  (357) 
-0.190283

>  <r_i_glide_ligand_efficiency_sa>  (357) 
-0.498683

>  <r_i_glide_ligand_efficiency_ln>  (357) 
-0.880404

>  <r_i_glide_gscore>  (357) 
-3.4251

>  <r_i_glide_lipo>  (357) 
-1.24281

>  <r_i_glide_hbond>  (357) 
0

>  <r_i_glide_metal>  (357) 
-0

>  <r_i_glide_rewards>  (357) 
-1.75696

>  <r_i_glide_evdw>  (357) 
-14.8094

>  <r_i_glide_ecoul>  (357) 
2.24971

>  <r_i_glide_erotb>  (357) 
0

>  <r_i_glide_esite>  (357) 
-0.0223113

>  <r_i_glide_emodel>  (357) 
-14.769

>  <r_i_glide_energy>  (357) 
-12.5597

>  <r_i_glide_einternal>  (357) 
0.331947

>  <r_i_glide_intrahb_reward>  (357) 
-0

>  <i_i_glide_confnum>  (357) 
1

>  <i_i_glide_posenum>  (357) 
1

>  <r_i_glide_eff_state_penalty>  (357) 
0

>  <ligand_id>  (357) 
94

>  <original_smiles>  (357) 
CC12C3CC=C4C=CC(=O)C45CC1C5C(O)C2C3

>  <smiles>  (357) 
[H]OC1([H])C2([H])C34C(=O)C([H])=C([H])C3=C([H])C([H])([H])C3([H])C([H])([H])C1([H])C3(C([H])([H])[H])C2([H])C4([H])[H]

$$$$
96:0:0
     RDKit          3D

 64 71  0  0  1  0  0  0  0  0999 V2000
    3.8647    0.6140   -3.7612 C   0  0  0  0  0  0  0  0  0  0  0  0
    4.2721   -0.0466   -2.6712 C   0  0  0  0  0  0  0  0  0  0  0  0
    3.4636   -1.1127   -1.9531 C   0  0  0  0  0  0  0  0  0  0  0  0
    3.7380   -1.2933   -0.4744 N   0  0  2  0  0  0  0  0  0  0  0  0
    5.2453   -1.4467   -0.1596 C   0  0  1  0  0  0  0  0  0  0  0  0
    5.6924   -0.5361    0.9803 C   0  0  0  0  0  0  0  0  0  0  0  0
    4.8901   -0.8542    2.2282 C   0  0  0  0  0  0  0  0  0  0  0  0
    4.3189   -2.3078    2.2198 C   0  0  1  0  0  0  0  0  0  0  0  0
    2.8085   -2.1722    1.8602 C   0  0  0  0  0  0  0  0  0  0  0  0
    2.8808   -2.3989    0.3018 C   0  0  2  0  0  0  0  0  0  0  0  0
    3.3517   -3.9387    0.0246 C   0  0  2  0  0  0  0  0  0  0  0  0
    3.4251   -3.8620   -1.3875 O   0  0  0  0  0  0  0  0  0  0  0  0
    2.1650   -3.8248   -2.0741 C   0  0  0  0  0  0  0  0  0  0  0  0
    4.3080   -3.1932    0.9351 C   0  0  1  0  0  0  0  0  0  0  0  0
    5.5563   -2.9378    0.1616 C   0  0  2  0  0  0  0  0  0  0  0  0
    6.2351   -3.7276    1.2648 C   0  0  2  0  0  0  0  0  0  0  0  0
    7.6258   -3.5307    1.2426 O   0  0  0  0  0  0  0  0  0  0  0  0
    5.9125   -5.1544    0.6542 C   0  0  0  0  0  0  0  0  0  0  0  0
    4.3322   -5.3540    0.3692 C   0  0  1  0  0  0  0  0  0  0  0  0
    3.9215   -6.2610    1.5879 C   0  0  2  0  0  0  0  0  0  0  0  0
    3.8022   -7.7476    1.2707 C   0  0  0  0  0  0  0  0  0  0  0  0
    2.4926   -8.1728    1.9461 C   0  0  0  0  0  0  0  0  0  0  0  0
    2.2990   -7.2426    3.0803 N   0  0  1  0  0  0  0  0  0  0  0  0
    2.6040   -7.8263    4.4112 C   0  0  0  0  0  0  0  0  0  0  0  0
    2.9895   -5.9601    2.7490 C   0  0  1  0  0  0  0  0  0  0  0  0
    4.4819   -5.8965    3.0136 C   0  0  2  0  0  0  0  0  0  0  0  0
    5.0827   -4.5630    3.5728 C   0  0  0  0  0  0  0  0  0  0  0  0
    5.5072   -3.3422    2.6559 C   0  0  2  0  0  0  0  0  0  0  0  0
    2.9047    0.4541   -4.2503 H   0  0  0  0  0  0  0  0  0  0  0  0
    4.5215    1.3547   -4.1869 H   0  0  0  0  0  0  0  0  0  0  0  0
    5.2520    0.1636   -2.2793 H   0  0  0  0  0  0  0  0  0  0  0  0
    2.4104   -0.9053   -2.1546 H   0  0  0  0  0  0  0  0  0  0  0  0
    3.7562   -1.9760   -2.5389 H   0  0  0  0  0  0  0  0  0  0  0  0
    5.8762   -1.1987   -1.0104 H   0  0  0  0  0  0  0  0  0  0  0  0
    6.7513   -0.7131    1.1788 H   0  0  0  0  0  0  0  0  0  0  0  0
    5.5818    0.5146    0.7151 H   0  0  0  0  0  0  0  0  0  0  0  0
    5.5008   -0.6801    3.1177 H   0  0  0  0  0  0  0  0  0  0  0  0
    4.0987   -0.1068    2.3159 H   0  0  0  0  0  0  0  0  0  0  0  0
    2.1649   -2.9050    2.3518 H   0  0  0  0  0  0  0  0  0  0  0  0
    2.3695   -1.1940    2.0648 H   0  0  0  0  0  0  0  0  0  0  0  0
    1.8296   -2.3468    0.0606 H   0  0  0  0  0  0  0  0  0  0  0  0
    2.3921   -3.8878   -3.1426 H   0  0  0  0  0  0  0  0  0  0  0  0
    1.5861   -2.9255   -1.9199 H   0  0  0  0  0  0  0  0  0  0  0  0
    1.5373   -4.6611   -1.8008 H   0  0  0  0  0  0  0  0  0  0  0  0
    3.8894   -3.9254    1.6414 H   0  0  0  0  0  0  0  0  0  0  0  0
    5.6692   -3.4016   -0.8196 H   0  0  0  0  0  0  0  0  0  0  0  0
    8.0130   -4.0930    1.8994 H   0  0  0  0  0  0  0  0  0  0  0  0
    6.4407   -5.2648   -0.2953 H   0  0  0  0  0  0  0  0  0  0  0  0
    6.3559   -5.9449    1.2721 H   0  0  0  0  0  0  0  0  0  0  0  0
    4.2636   -5.9960   -0.5167 H   0  0  0  0  0  0  0  0  0  0  0  0
    3.8131   -7.9793    0.2117 H   0  0  0  0  0  0  0  0  0  0  0  0
    4.6375   -8.2872    1.7298 H   0  0  0  0  0  0  0  0  0  0  0  0
    1.6666   -8.0096    1.2437 H   0  0  0  0  0  0  0  0  0  0  0  0
    2.4641   -9.2284    2.2347 H   0  0  0  0  0  0  0  0  0  0  0  0
    3.6108   -8.2539    4.4500 H   0  0  0  0  0  0  0  0  0  0  0  0
    1.8889   -8.6307    4.6348 H   0  0  0  0  0  0  0  0  0  0  0  0
    2.5087   -7.0649    5.1946 H   0  0  0  0  0  0  0  0  0  0  0  0
    2.3537   -5.0667    2.7482 H   0  0  0  0  0  0  0  0  0  0  0  0
    4.9572   -6.7495    3.5154 H   0  0  0  0  0  0  0  0  0  0  0  0
    4.4011   -4.1958    4.3427 H   0  0  0  0  0  0  0  0  0  0  0  0
    5.9798   -4.8521    4.1154 H   0  0  0  0  0  0  0  0  0  0  0  0
    6.2014   -2.7486    3.2533 H   0  0  0  0  0  0  0  0  0  0  0  0
    1.3099   -7.0355    3.1037 H   0  0  0  0  0  0  0  0  0  0  0  0
    3.4320   -0.4196   -0.0620 H   0  0  0  0  0  0  0  0  0  0  0  0
  1  2  2  0
  1 29  1  0
  1 30  1  0
  2  3  1  0
  2 31  1  0
  3  4  1  0
  3 32  1  0
  3 33  1  0
  4 10  1  0
  4  5  1  0
  4 64  1  1
  5 15  1  0
  5  6  1  0
  5 34  1  6
  6  7  1  0
  6 35  1  0
  6 36  1  0
  8  7  1  6
  7 37  1  0
  7 38  1  0
  8 14  1  0
  8 28  1  0
  8  9  1  0
  9 10  1  0
  9 39  1  0
  9 40  1  0
 10 11  1  0
 10 41  1  6
 11 19  1  0
 11 12  1  1
 11 14  1  0
 12 13  1  0
 13 42  1  0
 13 43  1  0
 13 44  1  0
 14 15  1  0
 14 45  1  1
 15 16  1  0
 15 46  1  6
 16 28  1  0
 16 17  1  1
 16 18  1  0
 17 47  1  0
 18 19  1  0
 18 48  1  0
 18 49  1  0
 19 20  1  0
 19 50  1  6
 20 25  1  0
 20 26  1  0
 20 21  1  6
 21 22  1  0
 21 51  1  0
 21 52  1  0
 22 23  1  0
 22 53  1  0
 22 54  1  0
 23 24  1  0
 23 25  1  0
 23 63  1  1
 24 55  1  0
 24 56  1  0
 24 57  1  0
 25 26  1  0
 25 58  1  6
 26 27  1  0
 26 59  1  1
 27 28  1  0
 27 60  1  0
 27 61  1  0
 28 62  1  1
M  CHG  2   4   1  23   1
M  END
>  <i_m_ct_stereo_status>  (358) 
1

>  <s_m_source_file>  (358) 
/var/tmp/pbs.5076255.sched01/tmp7onimy_i/150cvk1qxg3.sdf

>  <i_m_source_file_index>  (358) 
18

>  <i_lp_mmshare_version>  (358) 
48012

>  <i_f3d_flags>  (358) 
0

>  <s_epik_input>  (358) 
W0NAXTEyM1tDQEBIXTRbQ0BdNShPW0NIM10pW0NAQEhdKFtDSDJdMilOKFtDSDJdW0NIXT1bQ0gyXSlbQ0BASF0oW0NIMl1bQ0gyXTEpW0NASF00W0NAQF02KFtPSF0pW0NAQEhdM1tDSDJdW0NAQEhdN1tDQF04KFtDQEBIXTVbQ0gyXTYpW0NASF03TihbQ0gzXSlbQ0gyXVtDSDJdOA==

>  <s_epik_cmdline>  (358) 
J2VwaWtfcHl0aG9uJywgJy1waHQnLCAnMi4wJywgJy1waCcsICc3LjAnLCAnLXRuJywgJzgnLCAnLW1hJywgJzIwMCcsICctaW1hZScsICc8aW5maWxlLm1hZT4nLCAnLW9tYWUnLCAnPG91dGZpbGUubWFlPic=

>  <r_epik_Ionization_Penalty>  (358) 
0.0153604

>  <r_epik_Ionization_Penalty_Charging>  (358) 
0.0153604

>  <r_epik_Ionization_Penalty_Neutral>  (358) 
3.16286e-08

>  <r_epik_State_Penalty>  (358) 
0.0114139

>  <r_epik_Charging_Adjusted_Penalty>  (358) 
0.0267743

>  <i_epik_Tot_Q>  (358) 
2

>  <i_epik_Tot_abs_Q>  (358) 
2

>  <s_lp_Force_Field>  (358) 
OPLS3e

>  <r_lp_Energy>  (358) 
414.218

>  <b_lp_Chiralities_Consistent>  (358) 
1

>  <s_lp_Variant>  (358) 
96:0-1

>  <s_i_glide_gridfile>  (358) 
pfpi4k_grid

>  <i_i_glide_lignum>  (358) 
18

>  <i_i_glide_rotatable_bonds>  (358) 
4

>  <r_i_docking_score>  (358) 
-2.6339

>  <r_i_glide_ligand_efficiency>  (358) 
-0.0940677

>  <r_i_glide_ligand_efficiency_sa>  (358) 
-0.285645

>  <r_i_glide_ligand_efficiency_ln>  (358) 
-0.60798

>  <r_i_glide_gscore>  (358) 
-2.6339

>  <r_i_glide_lipo>  (358) 
-0.82875

>  <r_i_glide_hbond>  (358) 
0

>  <r_i_glide_metal>  (358) 
-0

>  <r_i_glide_rewards>  (358) 
-0.787126

>  <r_i_glide_evdw>  (358) 
-11.2942

>  <r_i_glide_ecoul>  (358) 
-4.21421

>  <r_i_glide_erotb>  (358) 
0.262963

>  <r_i_glide_esite>  (358) 
-0.0841418

>  <r_i_glide_emodel>  (358) 
-9.56953

>  <r_i_glide_energy>  (358) 
-15.5084

>  <r_i_glide_einternal>  (358) 
9.23915

>  <r_i_glide_intrahb_reward>  (358) 
-0

>  <i_i_glide_confnum>  (358) 
4

>  <i_i_glide_posenum>  (358) 
4

>  <r_i_glide_eff_state_penalty>  (358) 
0

>  <ligand_id>  (358) 
96

>  <original_smiles>  (358) 
C=CCN1C2CCC34CC1C1(OC)C3C2C2(O)CC1C13CCN(C)C1C3CC24

>  <smiles>  (358) 
[H]OC12C([H])([H])C3([H])C4(OC([H])([H])[H])C5([H])C1([H])C1([H])C([H])([H])C([H])([H])C5(C([H])([H])C4([H])[N+]1([H])C([H])([H])C([H])=C([H])[H])C2([H])C([H])([H])C1([H])C32C([H])([H])C([H])([H])[N+]([H])(C([H])([H])[H])C12[H]

$$$$
96:0:1
     RDKit          3D

 64 71  0  0  1  0  0  0  0  0999 V2000
    3.7476    0.5413   -3.9144 C   0  0  0  0  0  0  0  0  0  0  0  0
    4.1909   -0.1165   -2.8395 C   0  0  0  0  0  0  0  0  0  0  0  0
    3.2944   -1.0224   -1.9969 C   0  0  0  0  0  0  0  0  0  0  0  0
    3.7319   -1.2274   -0.5357 N   0  0  2  0  0  0  0  0  0  0  0  0
    5.2706   -1.3474   -0.3838 C   0  0  1  0  0  0  0  0  0  0  0  0
    5.7907   -0.4659    0.7401 C   0  0  0  0  0  0  0  0  0  0  0  0
    5.1204   -0.7891    2.0612 C   0  0  0  0  0  0  0  0  0  0  0  0
    4.5744   -2.2457    2.0902 C   0  0  1  0  0  0  0  0  0  0  0  0
    3.0318   -2.1342    1.8672 C   0  0  0  0  0  0  0  0  0  0  0  0
    2.9598   -2.3436    0.3077 C   0  0  2  0  0  0  0  0  0  0  0  0
    3.4079   -3.8890   -0.0014 C   0  0  2  0  0  0  0  0  0  0  0  0
    3.3276   -3.8119   -1.4118 O   0  0  0  0  0  0  0  0  0  0  0  0
    2.0093   -3.8573   -1.9634 C   0  0  0  0  0  0  0  0  0  0  0  0
    4.4416   -3.1164    0.8011 C   0  0  1  0  0  0  0  0  0  0  0  0
    5.5979   -2.8381   -0.0925 C   0  0  2  0  0  0  0  0  0  0  0  0
    6.4177   -3.6013    0.9293 C   0  0  2  0  0  0  0  0  0  0  0  0
    7.7963   -3.3448    0.7773 O   0  0  0  0  0  0  0  0  0  0  0  0
    6.0523   -5.0264    0.3398 C   0  0  0  0  0  0  0  0  0  0  0  0
    4.4582   -5.2686    0.2177 C   0  0  1  0  0  0  0  0  0  0  0  0
    4.2023   -6.1957    1.4569 C   0  0  2  0  0  0  0  0  0  0  0  0
    4.0800   -7.6829    1.1375 C   0  0  0  0  0  0  0  0  0  0  0  0
    2.8671   -8.1527    1.9226 C   0  0  0  0  0  0  0  0  0  0  0  0
    2.7837   -7.2225    3.0945 N   0  0  1  0  0  0  0  0  0  0  0  0
    3.2458   -7.8260    4.3961 C   0  0  0  0  0  0  0  0  0  0  0  0
    3.4060   -5.9238    2.7099 C   0  0  1  0  0  0  0  0  0  0  0  0
    4.9096   -5.8380    2.8073 C   0  0  2  0  0  0  0  0  0  0  0  0
    5.5371   -4.5020    3.3120 C   0  0  0  0  0  0  0  0  0  0  0  0
    5.8167   -3.2537    2.3748 C   0  0  2  0  0  0  0  0  0  0  0  0
    2.7185    0.5601   -4.2804 H   0  0  0  0  0  0  0  0  0  0  0  0
    4.4605    1.1345   -4.4764 H   0  0  0  0  0  0  0  0  0  0  0  0
    5.2170   -0.0353   -2.6098 H   0  0  0  0  0  0  0  0  0  0  0  0
    2.2905   -0.6427   -2.0448 H   0  0  0  0  0  0  0  0  0  0  0  0
    3.3202   -1.9140   -2.5895 H   0  0  0  0  0  0  0  0  0  0  0  0
    5.8324   -1.1112   -1.2226 H   0  0  0  0  0  0  0  0  0  0  0  0
    6.8567   -0.6235    0.8216 H   0  0  0  0  0  0  0  0  0  0  0  0
    5.6226    0.5724    0.4836 H   0  0  0  0  0  0  0  0  0  0  0  0
    5.8255   -0.6044    2.8727 H   0  0  0  0  0  0  0  0  0  0  0  0
    4.3356   -0.0497    2.2328 H   0  0  0  0  0  0  0  0  0  0  0  0
    2.4691   -2.8860    2.4257 H   0  0  0  0  0  0  0  0  0  0  0  0
    2.6130   -1.1712    2.1472 H   0  0  0  0  0  0  0  0  0  0  0  0
    1.9089   -2.2789    0.1058 H   0  0  0  0  0  0  0  0  0  0  0  0
    2.1175   -3.8965   -3.0483 H   0  0  0  0  0  0  0  0  0  0  0  0
    1.3800   -3.0009   -1.7437 H   0  0  0  0  0  0  0  0  0  0  0  0
    1.4532   -4.7356   -1.6299 H   0  0  0  0  0  0  0  0  0  0  0  0
    4.1104   -3.8620    1.5398 H   0  0  0  0  0  0  0  0  0  0  0  0
    5.6020   -3.2724   -1.0976 H   0  0  0  0  0  0  0  0  0  0  0  0
    8.0513   -3.5314   -0.1126 H   0  0  0  0  0  0  0  0  0  0  0  0
    6.4233   -5.0586   -0.6735 H   0  0  0  0  0  0  0  0  0  0  0  0
    6.5920   -5.8194    0.8574 H   0  0  0  0  0  0  0  0  0  0  0  0
    4.3215   -5.9003   -0.6614 H   0  0  0  0  0  0  0  0  0  0  0  0
    3.9896   -7.9061    0.0758 H   0  0  0  0  0  0  0  0  0  0  0  0
    4.9723   -8.2041    1.4864 H   0  0  0  0  0  0  0  0  0  0  0  0
    1.9724   -7.9914    1.3345 H   0  0  0  0  0  0  0  0  0  0  0  0
    2.8930   -9.1981    2.2166 H   0  0  0  0  0  0  0  0  0  0  0  0
    4.2514   -8.2224    4.3026 H   0  0  0  0  0  0  0  0  0  0  0  0
    2.5792   -8.6324    4.6692 H   0  0  0  0  0  0  0  0  0  0  0  0
    3.2206   -7.0713    5.1718 H   0  0  0  0  0  0  0  0  0  0  0  0
    2.7568   -5.0613    2.7911 H   0  0  0  0  0  0  0  0  0  0  0  0
    5.4550   -6.6737    3.2423 H   0  0  0  0  0  0  0  0  0  0  0  0
    4.9446   -4.1497    4.1607 H   0  0  0  0  0  0  0  0  0  0  0  0
    6.4958   -4.7848    3.7475 H   0  0  0  0  0  0  0  0  0  0  0  0
    6.5295   -2.6286    2.8768 H   0  0  0  0  0  0  0  0  0  0  0  0
    1.7950   -7.0387    3.2332 H   0  0  0  0  0  0  0  0  0  0  0  0
    3.4476   -0.3642   -0.0740 H   0  0  0  0  0  0  0  0  0  0  0  0
  1  2  2  0
  1 29  1  0
  1 30  1  0
  2  3  1  0
  2 31  1  0
  3  4  1  0
  3 32  1  0
  3 33  1  0
  4 10  1  0
  4  5  1  0
  4 64  1  1
  5 15  1  0
  5  6  1  0
  5 34  1  6
  6  7  1  0
  6 35  1  0
  6 36  1  0
  8  7  1  6
  7 37  1  0
  7 38  1  0
  8 14  1  0
  8 28  1  0
  8  9  1  0
  9 10  1  0
  9 39  1  0
  9 40  1  0
 10 11  1  0
 10 41  1  6
 11 19  1  0
 11 12  1  1
 11 14  1  0
 12 13  1  0
 13 42  1  0
 13 43  1  0
 13 44  1  0
 14 15  1  0
 14 45  1  1
 15 16  1  0
 15 46  1  6
 16 28  1  0
 16 17  1  1
 16 18  1  0
 17 47  1  0
 18 19  1  0
 18 48  1  0
 18 49  1  0
 19 20  1  0
 19 50  1  6
 20 25  1  0
 20 26  1  0
 20 21  1  6
 21 22  1  0
 21 51  1  0
 21 52  1  0
 22 23  1  0
 22 53  1  0
 22 54  1  0
 23 24  1  0
 23 25  1  0
 23 63  1  1
 24 55  1  0
 24 56  1  0
 24 57  1  0
 25 26  1  0
 25 58  1  6
 26 27  1  0
 26 59  1  1
 27 28  1  0
 27 60  1  0
 27 61  1  0
 28 62  1  1
M  CHG  2   4   1  23   1
M  END
>  <i_m_ct_stereo_status>  (359) 
1

>  <s_m_source_file>  (359) 
/var/tmp/pbs.5076255.sched01/tmp7onimy_i/150cvk1qxg3.sdf

>  <i_m_source_file_index>  (359) 
18

>  <i_lp_mmshare_version>  (359) 
48012

>  <i_f3d_flags>  (359) 
0

>  <s_epik_input>  (359) 
W0NAXTEyM1tDQEBIXTRbQ0BdNShPW0NIM10pW0NAQEhdKFtDSDJdMilOKFtDSDJdW0NIXT1bQ0gyXSlbQ0BASF0oW0NIMl1bQ0gyXTEpW0NASF00W0NAQF02KFtPSF0pW0NAQEhdM1tDSDJdW0NAQEhdN1tDQF04KFtDQEBIXTVbQ0gyXTYpW0NASF03TihbQ0gzXSlbQ0gyXVtDSDJdOA==

>  <s_epik_cmdline>  (359) 
J2VwaWtfcHl0aG9uJywgJy1waHQnLCAnMi4wJywgJy1waCcsICc3LjAnLCAnLXRuJywgJzgnLCAnLW1hJywgJzIwMCcsICctaW1hZScsICc8aW5maWxlLm1hZT4nLCAnLW9tYWUnLCAnPG91dGZpbGUubWFlPic=

>  <r_epik_Ionization_Penalty>  (359) 
0.0153604

>  <r_epik_Ionization_Penalty_Charging>  (359) 
0.0153604

>  <r_epik_Ionization_Penalty_Neutral>  (359) 
3.16286e-08

>  <r_epik_State_Penalty>  (359) 
0.0114139

>  <r_epik_Charging_Adjusted_Penalty>  (359) 
0.0267743

>  <i_epik_Tot_Q>  (359) 
2

>  <i_epik_Tot_abs_Q>  (359) 
2

>  <s_lp_Force_Field>  (359) 
OPLS3e

>  <r_lp_Energy>  (359) 
414.218

>  <b_lp_Chiralities_Consistent>  (359) 
1

>  <s_lp_Variant>  (359) 
96:0-1

>  <s_i_glide_gridfile>  (359) 
pfpi4k_grid

>  <i_i_glide_lignum>  (359) 
18

>  <i_i_glide_rotatable_bonds>  (359) 
4

>  <r_i_docking_score>  (359) 
-2.47599

>  <r_i_glide_ligand_efficiency>  (359) 
-0.0884282

>  <r_i_glide_ligand_efficiency_sa>  (359) 
-0.26852

>  <r_i_glide_ligand_efficiency_ln>  (359) 
-0.571531

>  <r_i_glide_gscore>  (359) 
-2.47599

>  <r_i_glide_lipo>  (359) 
-0.847288

>  <r_i_glide_hbond>  (359) 
0

>  <r_i_glide_metal>  (359) 
-0

>  <r_i_glide_rewards>  (359) 
-0.787126

>  <r_i_glide_evdw>  (359) 
-9.51199

>  <r_i_glide_ecoul>  (359) 
-3.66324

>  <r_i_glide_erotb>  (359) 
0.262963

>  <r_i_glide_esite>  (359) 
-0.0794528

>  <r_i_glide_emodel>  (359) 
-6.13472

>  <r_i_glide_energy>  (359) 
-13.1752

>  <r_i_glide_einternal>  (359) 
10.6833

>  <r_i_glide_intrahb_reward>  (359) 
-0

>  <i_i_glide_confnum>  (359) 
4

>  <i_i_glide_posenum>  (359) 
1

>  <r_i_glide_eff_state_penalty>  (359) 
0

>  <ligand_id>  (359) 
96

>  <original_smiles>  (359) 
C=CCN1C2CCC34CC1C1(OC)C3C2C2(O)CC1C13CCN(C)C1C3CC24

>  <smiles>  (359) 
[H]OC12C([H])([H])C3([H])C4(OC([H])([H])[H])C5([H])C1([H])C1([H])C([H])([H])C([H])([H])C5(C([H])([H])C4([H])[N+]1([H])C([H])([H])C([H])=C([H])[H])C2([H])C([H])([H])C1([H])C32C([H])([H])C([H])([H])[N+]([H])(C([H])([H])[H])C12[H]

$$$$
96:1:0
     RDKit          3D

 63 70  0  0  1  0  0  0  0  0999 V2000
    0.9713  -11.5676    4.3989 C   0  0  0  0  0  0  0  0  0  0  0  0
    1.7620  -10.4870    4.3147 C   0  0  0  0  0  0  0  0  0  0  0  0
    1.7297   -9.4542    3.1903 C   0  0  0  0  0  0  0  0  0  0  0  0
    3.0829   -9.1057    2.7377 N   0  0  0  0  0  0  0  0  0  0  0  0
    3.9002   -8.3680    3.7864 C   0  0  1  0  0  0  0  0  0  0  0  0
    5.2869   -8.9560    3.9657 C   0  0  0  0  0  0  0  0  0  0  0  0
    6.0708   -8.8156    2.6739 C   0  0  0  0  0  0  0  0  0  0  0  0
    5.4796   -7.7294    1.7227 C   0  0  1  0  0  0  0  0  0  0  0  0
    4.5885   -8.4883    0.6786 C   0  0  0  0  0  0  0  0  0  0  0  0
    3.1733   -8.3653    1.3587 C   0  0  2  0  0  0  0  0  0  0  0  0
    2.7715   -6.7646    1.3287 C   0  0  2  0  0  0  0  0  0  0  0  0
    1.5237   -6.8153    2.0026 O   0  0  0  0  0  0  0  0  0  0  0  0
    0.4325   -6.9412    1.1100 C   0  0  0  0  0  0  0  0  0  0  0  0
    4.1061   -7.0392    1.9998 C   0  0  1  0  0  0  0  0  0  0  0  0
    3.9421   -6.8492    3.4689 C   0  0  2  0  0  0  0  0  0  0  0  0
    5.0112   -5.7818    3.3185 C   0  0  2  0  0  0  0  0  0  0  0  0
    5.6144   -5.4454    4.5470 O   0  0  0  0  0  0  0  0  0  0  0  0
    4.0062   -4.6523    2.8662 C   0  0  0  0  0  0  0  0  0  0  0  0
    3.1406   -5.0822    1.5754 C   0  0  1  0  0  0  0  0  0  0  0  0
    3.8481   -4.3060    0.4201 C   0  0  2  0  0  0  0  0  0  0  0  0
    3.1442   -3.0228    0.0114 C   0  0  0  0  0  0  0  0  0  0  0  0
    3.1790   -3.0467   -1.5113 C   0  0  0  0  0  0  0  0  0  0  0  0
    4.3558   -3.8614   -1.8611 N   0  0  1  0  0  0  0  0  0  0  0  0
    5.5086   -3.0765   -2.3664 C   0  0  0  0  0  0  0  0  0  0  0  0
    4.6356   -4.8134   -0.7602 C   0  0  1  0  0  0  0  0  0  0  0  0
    5.4183   -4.2997    0.4125 C   0  0  2  0  0  0  0  0  0  0  0  0
    6.4512   -5.2388    1.0959 C   0  0  0  0  0  0  0  0  0  0  0  0
    6.0652   -6.2877    2.2175 C   0  0  2  0  0  0  0  0  0  0  0  0
    0.2314  -11.8107    3.6527 H   0  0  0  0  0  0  0  0  0  0  0  0
    1.0659  -12.2287    5.2502 H   0  0  0  0  0  0  0  0  0  0  0  0
    2.4632  -10.3502    5.1239 H   0  0  0  0  0  0  0  0  0  0  0  0
    1.1442   -9.8567    2.3621 H   0  0  0  0  0  0  0  0  0  0  0  0
    1.1861   -8.5765    3.5669 H   0  0  0  0  0  0  0  0  0  0  0  0
    3.4210   -8.4475    4.7561 H   0  0  0  0  0  0  0  0  0  0  0  0
    5.7902   -8.4251    4.7694 H   0  0  0  0  0  0  0  0  0  0  0  0
    5.2283  -10.0051    4.2668 H   0  0  0  0  0  0  0  0  0  0  0  0
    7.1144   -8.6142    2.9132 H   0  0  0  0  0  0  0  0  0  0  0  0
    6.1101   -9.7929    2.1944 H   0  0  0  0  0  0  0  0  0  0  0  0
    4.6142   -8.0682   -0.3299 H   0  0  0  0  0  0  0  0  0  0  0  0
    4.8294   -9.5427    0.5826 H   0  0  0  0  0  0  0  0  0  0  0  0
    2.4888   -8.9068    0.7094 H   0  0  0  0  0  0  0  0  0  0  0  0
   -0.4891   -6.9690    1.6887 H   0  0  0  0  0  0  0  0  0  0  0  0
    0.4866   -7.8446    0.5281 H   0  0  0  0  0  0  0  0  0  0  0  0
    0.3891   -6.1031    0.4169 H   0  0  0  0  0  0  0  0  0  0  0  0
    4.4233   -6.4800    1.1186 H   0  0  0  0  0  0  0  0  0  0  0  0
    2.9745   -6.4744    3.8168 H   0  0  0  0  0  0  0  0  0  0  0  0
    6.0218   -6.2166    4.8972 H   0  0  0  0  0  0  0  0  0  0  0  0
    3.3131   -4.4346    3.6782 H   0  0  0  0  0  0  0  0  0  0  0  0
    4.5312   -3.7136    2.7294 H   0  0  0  0  0  0  0  0  0  0  0  0
    2.1782   -4.6000    1.6956 H   0  0  0  0  0  0  0  0  0  0  0  0
    2.1262   -2.9070    0.4037 H   0  0  0  0  0  0  0  0  0  0  0  0
    3.7274   -2.1725    0.3726 H   0  0  0  0  0  0  0  0  0  0  0  0
    2.2893   -3.5658   -1.8602 H   0  0  0  0  0  0  0  0  0  0  0  0
    3.1608   -2.0515   -1.9581 H   0  0  0  0  0  0  0  0  0  0  0  0
    5.8062   -2.2975   -1.6679 H   0  0  0  0  0  0  0  0  0  0  0  0
    5.2640   -2.5805   -3.3007 H   0  0  0  0  0  0  0  0  0  0  0  0
    6.3682   -3.7077   -2.5508 H   0  0  0  0  0  0  0  0  0  0  0  0
    4.6205   -5.8474   -1.0368 H   0  0  0  0  0  0  0  0  0  0  0  0
    5.8365   -3.3041    0.3394 H   0  0  0  0  0  0  0  0  0  0  0  0
    6.9916   -5.7630    0.3029 H   0  0  0  0  0  0  0  0  0  0  0  0
    7.1955   -4.5759    1.5475 H   0  0  0  0  0  0  0  0  0  0  0  0
    6.9989   -6.4820    2.7298 H   0  0  0  0  0  0  0  0  0  0  0  0
    4.0413   -4.4585   -2.6281 H   0  0  0  0  0  0  0  0  0  0  0  0
  1  2  2  0
  1 29  1  0
  1 30  1  0
  2  3  1  0
  2 31  1  0
  3  4  1  0
  3 32  1  0
  3 33  1  0
  4 10  1  0
  4  5  1  0
  5 15  1  0
  5  6  1  0
  5 34  1  1
  6  7  1  0
  6 35  1  0
  6 36  1  0
  8  7  1  1
  7 37  1  0
  7 38  1  0
  8 14  1  0
  8 28  1  0
  8  9  1  0
  9 10  1  0
  9 39  1  0
  9 40  1  0
 10 11  1  0
 10 41  1  6
 11 19  1  0
 11 12  1  6
 11 14  1  0
 12 13  1  0
 13 42  1  0
 13 43  1  0
 13 44  1  0
 14 15  1  0
 14 45  1  6
 15 16  1  0
 15 46  1  6
 16 28  1  0
 16 17  1  1
 16 18  1  0
 17 47  1  0
 18 19  1  0
 18 48  1  0
 18 49  1  0
 19 20  1  0
 19 50  1  1
 20 25  1  0
 20 26  1  0
 20 21  1  6
 21 22  1  0
 21 51  1  0
 21 52  1  0
 22 23  1  0
 22 53  1  0
 22 54  1  0
 23 24  1  0
 23 25  1  0
 23 63  1  6
 24 55  1  0
 24 56  1  0
 24 57  1  0
 25 26  1  0
 25 58  1  6
 26 27  1  0
 26 59  1  6
 27 28  1  0
 27 60  1  0
 27 61  1  0
 28 62  1  1
M  CHG  1  23   1
M  END
>  <i_m_ct_stereo_status>  (360) 
1

>  <s_m_source_file>  (360) 
/var/tmp/pbs.5076255.sched01/tmp7onimy_i/150cvk1qxg3.sdf

>  <i_m_source_file_index>  (360) 
19

>  <i_lp_mmshare_version>  (360) 
48012

>  <i_f3d_flags>  (360) 
0

>  <s_epik_input>  (360) 
W0NAXTEyM1tDQEBIXTRbQ0BdNShPW0NIM10pW0NAQEhdKFtDSDJdMilOKFtDSDJdW0NIXT1bQ0gyXSlbQ0BASF0oW0NIMl1bQ0gyXTEpW0NASF00W0NAQF02KFtPSF0pW0NAQEhdM1tDSDJdW0NAQEhdN1tDQF04KFtDQEBIXTVbQ0gyXTYpW0NASF03TihbQ0gzXSlbQ0gyXVtDSDJdOA==

>  <s_epik_cmdline>  (360) 
J2VwaWtfcHl0aG9uJywgJy1waHQnLCAnMi4wJywgJy1waCcsICc3LjAnLCAnLXRuJywgJzgnLCAnLW1hJywgJzIwMCcsICctaW1hZScsICc8aW5maWxlLm1hZT4nLCAnLW9tYWUnLCAnPG91dGZpbGUubWFlPic=

>  <r_epik_Ionization_Penalty>  (360) 
2.20246

>  <r_epik_Ionization_Penalty_Charging>  (360) 
0.000312944

>  <r_epik_Ionization_Penalty_Neutral>  (360) 
2.20215

>  <r_epik_State_Penalty>  (360) 
2.34572

>  <r_epik_Charging_Adjusted_Penalty>  (360) 
2.34603

>  <i_epik_Tot_Q>  (360) 
1

>  <i_epik_Tot_abs_Q>  (360) 
1

>  <s_lp_Force_Field>  (360) 
OPLS3e

>  <r_lp_Energy>  (360) 
416.593

>  <b_lp_Chiralities_Consistent>  (360) 
1

>  <s_lp_Variant>  (360) 
96:0-2

>  <s_i_glide_gridfile>  (360) 
pfpi4k_grid

>  <i_i_glide_lignum>  (360) 
19

>  <i_i_glide_rotatable_bonds>  (360) 
4

>  <r_i_docking_score>  (360) 
-2.7983

>  <r_i_glide_ligand_efficiency>  (360) 
-0.0999393

>  <r_i_glide_ligand_efficiency_sa>  (360) 
-0.303475

>  <r_i_glide_ligand_efficiency_ln>  (360) 
-0.64593

>  <r_i_glide_gscore>  (360) 
-2.7983

>  <r_i_glide_lipo>  (360) 
-0.548441

>  <r_i_glide_hbond>  (360) 
0

>  <r_i_glide_metal>  (360) 
-0

>  <r_i_glide_rewards>  (360) 
-0.793998

>  <r_i_glide_evdw>  (360) 
-22.2664

>  <r_i_glide_ecoul>  (360) 
-3.80637

>  <r_i_glide_erotb>  (360) 
0.264204

>  <r_i_glide_esite>  (360) 
-0.0357909

>  <r_i_glide_emodel>  (360) 
-29.4501

>  <r_i_glide_energy>  (360) 
-26.0727

>  <r_i_glide_einternal>  (360) 
1.60835

>  <r_i_glide_intrahb_reward>  (360) 
-0

>  <i_i_glide_confnum>  (360) 
2

>  <i_i_glide_posenum>  (360) 
40

>  <r_i_glide_eff_state_penalty>  (360) 
0

>  <ligand_id>  (360) 
96

>  <original_smiles>  (360) 
C=CCN1C2CCC34CC1C1(OC)C3C2C2(O)CC1C13CCN(C)C1C3CC24

>  <smiles>  (360) 
[H]OC12C([H])([H])C3([H])C4(OC([H])([H])[H])C5([H])N(C([H])([H])C([H])=C([H])[H])C6([H])C([H])([H])C([H])([H])C(C5([H])[H])(C1([H])C([H])([H])C1([H])C35C([H])([H])C([H])([H])[N+]([H])(C([H])([H])[H])C15[H])C4([H])C62[H]

$$$$
96:1:1
     RDKit          3D

 63 70  0  0  1  0  0  0  0  0999 V2000
    0.5775   -9.6085    5.6422 C   0  0  0  0  0  0  0  0  0  0  0  0
    1.3823   -9.8294    4.5898 C   0  0  0  0  0  0  0  0  0  0  0  0
    1.4533   -8.9422    3.3560 C   0  0  0  0  0  0  0  0  0  0  0  0
    2.8392   -8.6098    3.0102 N   0  0  0  0  0  0  0  0  0  0  0  0
    3.5166   -7.7475    4.0648 C   0  0  1  0  0  0  0  0  0  0  0  0
    4.8917   -8.2567    4.4577 C   0  0  0  0  0  0  0  0  0  0  0  0
    5.8141   -8.2306    3.2526 C   0  0  0  0  0  0  0  0  0  0  0  0
    5.3140   -7.2774    2.1215 C   0  0  1  0  0  0  0  0  0  0  0  0
    4.5583   -8.1733    1.0784 C   0  0  0  0  0  0  0  0  0  0  0  0
    3.0716   -8.0178    1.5742 C   0  0  2  0  0  0  0  0  0  0  0  0
    2.6443   -6.4443    1.3261 C   0  0  2  0  0  0  0  0  0  0  0  0
    1.3274   -6.4587    1.8628 O   0  0  0  0  0  0  0  0  0  0  0  0
    0.3523   -6.8020    0.8946 C   0  0  0  0  0  0  0  0  0  0  0  0
    3.9069   -6.5967    2.1610 C   0  0  1  0  0  0  0  0  0  0  0  0
    3.5685   -6.2681    3.5808 C   0  0  2  0  0  0  0  0  0  0  0  0
    4.6240   -5.1846    3.4384 C   0  0  2  0  0  0  0  0  0  0  0  0
    5.0738   -4.7185    4.6896 O   0  0  0  0  0  0  0  0  0  0  0  0
    3.6552   -4.1340    2.7567 C   0  0  0  0  0  0  0  0  0  0  0  0
    2.9407   -4.7330    1.4351 C   0  0  1  0  0  0  0  0  0  0  0  0
    3.7664   -4.0608    0.2847 C   0  0  2  0  0  0  0  0  0  0  0  0
    3.0905   -2.8527   -0.3379 C   0  0  0  0  0  0  0  0  0  0  0  0
    3.2911   -3.0472   -1.8403 C   0  0  0  0  0  0  0  0  0  0  0  0
    4.5193   -3.8608   -1.9821 N   0  0  1  0  0  0  0  0  0  0  0  0
    5.7059   -3.0864   -2.4290 C   0  0  0  0  0  0  0  0  0  0  0  0
    4.6859   -4.6791   -0.7469 C   0  0  1  0  0  0  0  0  0  0  0  0
    5.3275   -4.0018    0.4384 C   0  0  2  0  0  0  0  0  0  0  0  0
    6.2982   -4.8363    1.3335 C   0  0  0  0  0  0  0  0  0  0  0  0
    5.8095   -5.7680    2.5164 C   0  0  2  0  0  0  0  0  0  0  0  0
   -0.0859   -8.7560    5.6666 H   0  0  0  0  0  0  0  0  0  0  0  0
    0.5725  -10.2829    6.4893 H   0  0  0  0  0  0  0  0  0  0  0  0
    2.0226  -10.7013    4.6010 H   0  0  0  0  0  0  0  0  0  0  0  0
    0.9832   -9.4826    2.5338 H   0  0  0  0  0  0  0  0  0  0  0  0
    0.8597   -8.0440    3.5412 H   0  0  0  0  0  0  0  0  0  0  0  0
    2.9314   -7.7633    4.9857 H   0  0  0  0  0  0  0  0  0  0  0  0
    5.2923   -7.6174    5.2447 H   0  0  0  0  0  0  0  0  0  0  0  0
    4.8289   -9.2665    4.8688 H   0  0  0  0  0  0  0  0  0  0  0  0
    6.8210   -7.9671    3.5789 H   0  0  0  0  0  0  0  0  0  0  0  0
    5.9312   -9.2498    2.8902 H   0  0  0  0  0  0  0  0  0  0  0  0
    4.6883   -7.8624    0.0393 H   0  0  0  0  0  0  0  0  0  0  0  0
    4.8384   -9.2262    1.1185 H   0  0  0  0  0  0  0  0  0  0  0  0
    2.4891   -8.6353    0.8872 H   0  0  0  0  0  0  0  0  0  0  0  0
   -0.6246   -6.7963    1.3725 H   0  0  0  0  0  0  0  0  0  0  0  0
    0.5087   -7.7986    0.4870 H   0  0  0  0  0  0  0  0  0  0  0  0
    0.3435   -6.0918    0.0692 H   0  0  0  0  0  0  0  0  0  0  0  0
    4.3095   -6.1252    1.2567 H   0  0  0  0  0  0  0  0  0  0  0  0
    2.5645   -5.8886    3.7899 H   0  0  0  0  0  0  0  0  0  0  0  0
    5.5868   -3.9399    4.5511 H   0  0  0  0  0  0  0  0  0  0  0  0
    2.8663   -3.8509    3.4563 H   0  0  0  0  0  0  0  0  0  0  0  0
    4.1688   -3.1919    2.5670 H   0  0  0  0  0  0  0  0  0  0  0  0
    1.9569   -4.2700    1.3926 H   0  0  0  0  0  0  0  0  0  0  0  0
    2.0404   -2.7411   -0.0732 H   0  0  0  0  0  0  0  0  0  0  0  0
    3.6096   -1.9466   -0.0143 H   0  0  0  0  0  0  0  0  0  0  0  0
    2.4520   -3.6339   -2.2243 H   0  0  0  0  0  0  0  0  0  0  0  0
    3.3067   -2.1084   -2.3966 H   0  0  0  0  0  0  0  0  0  0  0  0
    5.8982   -2.2274   -1.7852 H   0  0  0  0  0  0  0  0  0  0  0  0
    5.5463   -2.7058   -3.4398 H   0  0  0  0  0  0  0  0  0  0  0  0
    6.5976   -3.7117   -2.4468 H   0  0  0  0  0  0  0  0  0  0  0  0
    4.7135   -5.7556   -0.9038 H   0  0  0  0  0  0  0  0  0  0  0  0
    5.7304   -2.9965    0.3037 H   0  0  0  0  0  0  0  0  0  0  0  0
    6.9301   -5.4227    0.6676 H   0  0  0  0  0  0  0  0  0  0  0  0
    6.9730   -4.1057    1.7783 H   0  0  0  0  0  0  0  0  0  0  0  0
    6.6894   -5.8716    3.1535 H   0  0  0  0  0  0  0  0  0  0  0  0
    4.3070   -4.5360   -2.7052 H   0  0  0  0  0  0  0  0  0  0  0  0
  1  2  2  0
  1 29  1  0
  1 30  1  0
  2  3  1  0
  2 31  1  0
  3  4  1  0
  3 32  1  0
  3 33  1  0
  4 10  1  0
  4  5  1  0
  5 15  1  0
  5  6  1  0
  5 34  1  1
  6  7  1  0
  6 35  1  0
  6 36  1  0
  8  7  1  1
  7 37  1  0
  7 38  1  0
  8 14  1  0
  8 28  1  0
  8  9  1  0
  9 10  1  0
  9 39  1  0
  9 40  1  0
 10 11  1  0
 10 41  1  6
 11 19  1  0
 11 12  1  6
 11 14  1  0
 12 13  1  0
 13 42  1  0
 13 43  1  0
 13 44  1  0
 14 15  1  0
 14 45  1  6
 15 16  1  0
 15 46  1  6
 16 28  1  0
 16 17  1  1
 16 18  1  0
 17 47  1  0
 18 19  1  0
 18 48  1  0
 18 49  1  0
 19 20  1  0
 19 50  1  6
 20 25  1  0
 20 26  1  0
 20 21  1  6
 21 22  1  0
 21 51  1  0
 21 52  1  0
 22 23  1  0
 22 53  1  0
 22 54  1  0
 23 24  1  0
 23 25  1  0
 23 63  1  6
 24 55  1  0
 24 56  1  0
 24 57  1  0
 25 26  1  0
 25 58  1  6
 26 27  1  0
 26 59  1  6
 27 28  1  0
 27 60  1  0
 27 61  1  0
 28 62  1  1
M  CHG  1  23   1
M  END
>  <i_m_ct_stereo_status>  (361) 
1

>  <s_m_source_file>  (361) 
/var/tmp/pbs.5076255.sched01/tmp7onimy_i/150cvk1qxg3.sdf

>  <i_m_source_file_index>  (361) 
19

>  <i_lp_mmshare_version>  (361) 
48012

>  <i_f3d_flags>  (361) 
0

>  <s_epik_input>  (361) 
W0NAXTEyM1tDQEBIXTRbQ0BdNShPW0NIM10pW0NAQEhdKFtDSDJdMilOKFtDSDJdW0NIXT1bQ0gyXSlbQ0BASF0oW0NIMl1bQ0gyXTEpW0NASF00W0NAQF02KFtPSF0pW0NAQEhdM1tDSDJdW0NAQEhdN1tDQF04KFtDQEBIXTVbQ0gyXTYpW0NASF03TihbQ0gzXSlbQ0gyXVtDSDJdOA==

>  <s_epik_cmdline>  (361) 
J2VwaWtfcHl0aG9uJywgJy1waHQnLCAnMi4wJywgJy1waCcsICc3LjAnLCAnLXRuJywgJzgnLCAnLW1hJywgJzIwMCcsICctaW1hZScsICc8aW5maWxlLm1hZT4nLCAnLW9tYWUnLCAnPG91dGZpbGUubWFlPic=

>  <r_epik_Ionization_Penalty>  (361) 
2.20246

>  <r_epik_Ionization_Penalty_Charging>  (361) 
0.000312944

>  <r_epik_Ionization_Penalty_Neutral>  (361) 
2.20215

>  <r_epik_State_Penalty>  (361) 
2.34572

>  <r_epik_Charging_Adjusted_Penalty>  (361) 
2.34603

>  <i_epik_Tot_Q>  (361) 
1

>  <i_epik_Tot_abs_Q>  (361) 
1

>  <s_lp_Force_Field>  (361) 
OPLS3e

>  <r_lp_Energy>  (361) 
416.593

>  <b_lp_Chiralities_Consistent>  (361) 
1

>  <s_lp_Variant>  (361) 
96:0-2

>  <s_i_glide_gridfile>  (361) 
pfpi4k_grid

>  <i_i_glide_lignum>  (361) 
19

>  <i_i_glide_rotatable_bonds>  (361) 
4

>  <r_i_docking_score>  (361) 
-2.57903

>  <r_i_glide_ligand_efficiency>  (361) 
-0.0921083

>  <r_i_glide_ligand_efficiency_sa>  (361) 
-0.279695

>  <r_i_glide_ligand_efficiency_ln>  (361) 
-0.595317

>  <r_i_glide_gscore>  (361) 
-2.57903

>  <r_i_glide_lipo>  (361) 
-0.40147

>  <r_i_glide_hbond>  (361) 
0

>  <r_i_glide_metal>  (361) 
-0

>  <r_i_glide_rewards>  (361) 
-0.793998

>  <r_i_glide_evdw>  (361) 
-20.8799

>  <r_i_glide_ecoul>  (361) 
-3.83487

>  <r_i_glide_erotb>  (361) 
0.264204

>  <r_i_glide_esite>  (361) 
-0.0285418

>  <r_i_glide_emodel>  (361) 
-27.5217

>  <r_i_glide_energy>  (361) 
-24.7148

>  <r_i_glide_einternal>  (361) 
2.17727

>  <r_i_glide_intrahb_reward>  (361) 
-0

>  <i_i_glide_confnum>  (361) 
2

>  <i_i_glide_posenum>  (361) 
17

>  <r_i_glide_eff_state_penalty>  (361) 
0

>  <ligand_id>  (361) 
96

>  <original_smiles>  (361) 
C=CCN1C2CCC34CC1C1(OC)C3C2C2(O)CC1C13CCN(C)C1C3CC24

>  <smiles>  (361) 
[H]OC12C([H])([H])C3([H])C4(OC([H])([H])[H])C5([H])N(C([H])([H])C([H])=C([H])[H])C6([H])C([H])([H])C([H])([H])C(C5([H])[H])(C1([H])C([H])([H])C1([H])C35C([H])([H])C([H])([H])[N+]([H])(C([H])([H])[H])C15[H])C4([H])C62[H]

$$$$
96:1:2
     RDKit          3D

 63 70  0  0  1  0  0  0  0  0999 V2000
    1.4826   -7.9502    6.1781 C   0  0  0  0  0  0  0  0  0  0  0  0
    2.2263   -8.4014    5.1516 C   0  0  0  0  0  0  0  0  0  0  0  0
    2.1446   -7.8767    3.7255 C   0  0  0  0  0  0  0  0  0  0  0  0
    3.4443   -7.3571    3.2893 N   0  0  0  0  0  0  0  0  0  0  0  0
    3.8542   -6.1006    4.0527 C   0  0  1  0  0  0  0  0  0  0  0  0
    5.2883   -6.1581    4.5414 C   0  0  0  0  0  0  0  0  0  0  0  0
    6.2317   -6.2403    3.3574 C   0  0  0  0  0  0  0  0  0  0  0  0
    5.5771   -5.7762    2.0228 C   0  0  1  0  0  0  0  0  0  0  0  0
    5.1023   -7.0710    1.2742 C   0  0  0  0  0  0  0  0  0  0  0  0
    3.5948   -7.1318    1.7361 C   0  0  2  0  0  0  0  0  0  0  0  0
    2.8398   -5.8159    1.0962 C   0  0  2  0  0  0  0  0  0  0  0  0
    1.5269   -5.9731    1.6286 O   0  0  0  0  0  0  0  0  0  0  0  0
    0.6648   -6.6627    0.7403 C   0  0  0  0  0  0  0  0  0  0  0  0
    4.0542   -5.4601    1.9229 C   0  0  1  0  0  0  0  0  0  0  0  0
    3.5858   -4.8362    3.1901 C   0  0  2  0  0  0  0  0  0  0  0  0
    4.3854   -3.6253    2.7363 C   0  0  2  0  0  0  0  0  0  0  0  0
    4.6813   -2.7669    3.8123 O   0  0  0  0  0  0  0  0  0  0  0  0
    3.2462   -3.0465    1.8133 C   0  0  0  0  0  0  0  0  0  0  0  0
    2.7964   -4.1265    0.7140 C   0  0  1  0  0  0  0  0  0  0  0  0
    3.4845   -3.6402   -0.5917 C   0  0  2  0  0  0  0  0  0  0  0  0
    2.5503   -2.8783   -1.5027 C   0  0  0  0  0  0  0  0  0  0  0  0
    2.8690   -3.3467   -2.8985 C   0  0  0  0  0  0  0  0  0  0  0  0
    4.2405   -3.8592   -2.8203 N   0  0  1  0  0  0  0  0  0  0  0  0
    5.2077   -2.9822   -3.4764 C   0  0  0  0  0  0  0  0  0  0  0  0
    4.5662   -4.2623   -1.4405 C   0  0  1  0  0  0  0  0  0  0  0  0
    4.9568   -3.1565   -0.4801 C   0  0  2  0  0  0  0  0  0  0  0  0
    6.0314   -3.4701    0.5910 C   0  0  0  0  0  0  0  0  0  0  0  0
    5.7000   -4.1497    1.9731 C   0  0  2  0  0  0  0  0  0  0  0  0
    0.7720   -7.1503    6.0285 H   0  0  0  0  0  0  0  0  0  0  0  0
    1.5841   -8.3726    7.1701 H   0  0  0  0  0  0  0  0  0  0  0  0
    2.9376   -9.1977    5.3333 H   0  0  0  0  0  0  0  0  0  0  0  0
    1.8635   -8.7249    3.0978 H   0  0  0  0  0  0  0  0  0  0  0  0
    1.3386   -7.1360    3.6513 H   0  0  0  0  0  0  0  0  0  0  0  0
    3.2533   -6.0015    4.9571 H   0  0  0  0  0  0  0  0  0  0  0  0
    5.4982   -5.2587    5.1177 H   0  0  0  0  0  0  0  0  0  0  0  0
    5.4396   -7.0108    5.2084 H   0  0  0  0  0  0  0  0  0  0  0  0
    7.1337   -5.6700    3.5786 H   0  0  0  0  0  0  0  0  0  0  0  0
    6.5907   -7.2624    3.2775 H   0  0  0  0  0  0  0  0  0  0  0  0
    5.1957   -7.0046    0.1858 H   0  0  0  0  0  0  0  0  0  0  0  0
    5.6187   -7.9779    1.5919 H   0  0  0  0  0  0  0  0  0  0  0  0
    3.1776   -8.0133    1.2419 H   0  0  0  0  0  0  0  0  0  0  0  0
   -0.3121   -6.7736    1.2074 H   0  0  0  0  0  0  0  0  0  0  0  0
    1.0202   -7.6630    0.4965 H   0  0  0  0  0  0  0  0  0  0  0  0
    0.5401   -6.1044   -0.1864 H   0  0  0  0  0  0  0  0  0  0  0  0
    4.3955   -5.1825    0.9214 H   0  0  0  0  0  0  0  0  0  0  0  0
    2.5099   -4.6570    3.3048 H   0  0  0  0  0  0  0  0  0  0  0  0
    4.9978   -1.9539    3.4598 H   0  0  0  0  0  0  0  0  0  0  0  0
    2.3643   -2.8038    2.4068 H   0  0  0  0  0  0  0  0  0  0  0  0
    3.5260   -2.0931    1.3676 H   0  0  0  0  0  0  0  0  0  0  0  0
    1.7871   -3.9331    0.5162 H   0  0  0  0  0  0  0  0  0  0  0  0
    1.4949   -3.1022   -1.3193 H   0  0  0  0  0  0  0  0  0  0  0  0
    2.7781   -1.8070   -1.4212 H   0  0  0  0  0  0  0  0  0  0  0  0
    2.1714   -4.1517   -3.1162 H   0  0  0  0  0  0  0  0  0  0  0  0
    2.6821   -2.5848   -3.6510 H   0  0  0  0  0  0  0  0  0  0  0  0
    5.1645   -1.9542   -3.1099 H   0  0  0  0  0  0  0  0  0  0  0  0
    4.9084   -3.0229   -4.4870 H   0  0  0  0  0  0  0  0  0  0  0  0
    6.2228   -3.3642   -3.3774 H   0  0  0  0  0  0  0  0  0  0  0  0
    4.8066   -5.3053   -1.2850 H   0  0  0  0  0  0  0  0  0  0  0  0
    5.1107   -2.1568   -0.8769 H   0  0  0  0  0  0  0  0  0  0  0  0
    6.8121   -4.0461    0.0937 H   0  0  0  0  0  0  0  0  0  0  0  0
    6.4822   -2.5005    0.8218 H   0  0  0  0  0  0  0  0  0  0  0  0
    6.5663   -3.8857    2.5483 H   0  0  0  0  0  0  0  0  0  0  0  0
    4.1908   -4.7273   -3.2904 H   0  0  0  0  0  0  0  0  0  0  0  0
  1  2  2  0
  1 29  1  0
  1 30  1  0
  2  3  1  0
  2 31  1  0
  3  4  1  0
  3 32  1  0
  3 33  1  0
  4 10  1  0
  4  5  1  0
  5 15  1  0
  5  6  1  0
  5 34  1  1
  6  7  1  0
  6 35  1  0
  6 36  1  0
  8  7  1  1
  7 37  1  0
  7 38  1  0
  8 14  1  0
  8 28  1  0
  8  9  1  0
  9 10  1  0
  9 39  1  0
  9 40  1  0
 10 11  1  0
 10 41  1  6
 11 19  1  0
 11 12  1  6
 11 14  1  0
 12 13  1  0
 13 42  1  0
 13 43  1  0
 13 44  1  0
 14 15  1  0
 14 45  1  6
 15 16  1  0
 15 46  1  6
 16 28  1  0
 16 17  1  1
 16 18  1  0
 17 47  1  0
 18 19  1  0
 18 48  1  0
 18 49  1  0
 19 20  1  0
 19 50  1  6
 20 25  1  0
 20 26  1  0
 20 21  1  6
 21 22  1  0
 21 51  1  0
 21 52  1  0
 22 23  1  0
 22 53  1  0
 22 54  1  0
 23 24  1  0
 23 25  1  0
 23 63  1  6
 24 55  1  0
 24 56  1  0
 24 57  1  0
 25 26  1  0
 25 58  1  6
 26 27  1  0
 26 59  1  6
 27 28  1  0
 27 60  1  0
 27 61  1  0
 28 62  1  1
M  CHG  1  23   1
M  END
>  <i_m_ct_stereo_status>  (362) 
1

>  <s_m_source_file>  (362) 
/var/tmp/pbs.5076255.sched01/tmp7onimy_i/150cvk1qxg3.sdf

>  <i_m_source_file_index>  (362) 
19

>  <i_lp_mmshare_version>  (362) 
48012

>  <i_f3d_flags>  (362) 
0

>  <s_epik_input>  (362) 
W0NAXTEyM1tDQEBIXTRbQ0BdNShPW0NIM10pW0NAQEhdKFtDSDJdMilOKFtDSDJdW0NIXT1bQ0gyXSlbQ0BASF0oW0NIMl1bQ0gyXTEpW0NASF00W0NAQF02KFtPSF0pW0NAQEhdM1tDSDJdW0NAQEhdN1tDQF04KFtDQEBIXTVbQ0gyXTYpW0NASF03TihbQ0gzXSlbQ0gyXVtDSDJdOA==

>  <s_epik_cmdline>  (362) 
J2VwaWtfcHl0aG9uJywgJy1waHQnLCAnMi4wJywgJy1waCcsICc3LjAnLCAnLXRuJywgJzgnLCAnLW1hJywgJzIwMCcsICctaW1hZScsICc8aW5maWxlLm1hZT4nLCAnLW9tYWUnLCAnPG91dGZpbGUubWFlPic=

>  <r_epik_Ionization_Penalty>  (362) 
2.20246

>  <r_epik_Ionization_Penalty_Charging>  (362) 
0.000312944

>  <r_epik_Ionization_Penalty_Neutral>  (362) 
2.20215

>  <r_epik_State_Penalty>  (362) 
2.34572

>  <r_epik_Charging_Adjusted_Penalty>  (362) 
2.34603

>  <i_epik_Tot_Q>  (362) 
1

>  <i_epik_Tot_abs_Q>  (362) 
1

>  <s_lp_Force_Field>  (362) 
OPLS3e

>  <r_lp_Energy>  (362) 
416.593

>  <b_lp_Chiralities_Consistent>  (362) 
1

>  <s_lp_Variant>  (362) 
96:0-2

>  <s_i_glide_gridfile>  (362) 
pfpi4k_grid

>  <i_i_glide_lignum>  (362) 
19

>  <i_i_glide_rotatable_bonds>  (362) 
4

>  <r_i_docking_score>  (362) 
-2.53897

>  <r_i_glide_ligand_efficiency>  (362) 
-0.0906777

>  <r_i_glide_ligand_efficiency_sa>  (362) 
-0.275351

>  <r_i_glide_ligand_efficiency_ln>  (362) 
-0.58607

>  <r_i_glide_gscore>  (362) 
-2.53897

>  <r_i_glide_lipo>  (362) 
-0.536742

>  <r_i_glide_hbond>  (362) 
-0.0560002

>  <r_i_glide_metal>  (362) 
-0

>  <r_i_glide_rewards>  (362) 
-0.793998

>  <r_i_glide_evdw>  (362) 
-15.7835

>  <r_i_glide_ecoul>  (362) 
-3.94193

>  <r_i_glide_erotb>  (362) 
0.264204

>  <r_i_glide_esite>  (362) 
-0.0359741

>  <r_i_glide_emodel>  (362) 
-21.6376

>  <r_i_glide_energy>  (362) 
-19.7254

>  <r_i_glide_einternal>  (362) 
1.9086

>  <r_i_glide_intrahb_reward>  (362) 
-0

>  <i_i_glide_confnum>  (362) 
2

>  <i_i_glide_posenum>  (362) 
1

>  <r_i_glide_eff_state_penalty>  (362) 
0

>  <ligand_id>  (362) 
96

>  <original_smiles>  (362) 
C=CCN1C2CCC34CC1C1(OC)C3C2C2(O)CC1C13CCN(C)C1C3CC24

>  <smiles>  (362) 
[H]OC12C([H])([H])C3([H])C4(OC([H])([H])[H])C5([H])N(C([H])([H])C([H])=C([H])[H])C6([H])C([H])([H])C([H])([H])C(C5([H])[H])(C1([H])C([H])([H])C1([H])C35C([H])([H])C([H])([H])[N+]([H])(C([H])([H])[H])C15[H])C4([H])C62[H]

$$$$
97:0:0
     RDKit          3D

 19 21  0  0  1  0  0  0  0  0999 V2000
    6.7003   -1.5195   -0.3110 O   0  0  0  0  0  0  0  0  0  0  0  0
    5.9240   -2.2963   -0.8487 C   0  0  0  0  0  0  0  0  0  0  0  0
    5.8080   -3.6265   -0.6675 N   0  0  0  0  0  0  0  0  0  0  0  0
    6.6226   -4.3948    0.2144 C   0  0  0  0  0  0  0  0  0  0  0  0
    6.1601   -5.5833    0.7101 C   0  0  0  0  0  0  0  0  0  0  0  0
    7.4386   -6.2596    1.6239 S   0  0  0  0  0  0  0  0  0  0  0  0
    8.5062   -5.0201    1.3022 N   0  0  0  0  0  0  0  0  0  0  0  0
    7.9619   -4.1076    0.5562 N   0  0  0  0  0  0  0  0  0  0  0  0
    4.8255   -4.1665   -1.4522 N   0  0  0  0  0  0  0  0  0  0  0  0
    4.3652   -3.1661   -2.1070 C   0  0  0  0  0  0  0  0  0  0  0  0
    3.3174   -3.0358   -3.1026 C   0  0  0  0  0  0  0  0  0  0  0  0
    3.0184   -1.8242   -3.6131 C   0  0  0  0  0  0  0  0  0  0  0  0
    3.7539   -0.6611   -3.1458 C   0  0  0  0  0  0  0  0  0  0  0  0
    4.7057   -0.7416   -2.2659 N   0  0  0  0  0  0  0  0  0  0  0  0
    5.0070   -1.9913   -1.7662 N   0  0  0  0  0  0  0  0  0  0  0  0
    5.2079   -6.0916    0.5797 H   0  0  0  0  0  0  0  0  0  0  0  0
    2.7471   -3.8898   -3.4304 H   0  0  0  0  0  0  0  0  0  0  0  0
    2.2159   -1.7094   -4.3250 H   0  0  0  0  0  0  0  0  0  0  0  0
    3.4380    0.2735   -3.5994 H   0  0  0  0  0  0  0  0  0  0  0  0
  1  2  2  0
  2 15  1  0
  2  3  1  0
  3  4  1  0
  3  9  1  0
  4  8  1  0
  4  5  2  0
  5  6  1  0
  5 16  1  0
  6  7  1  0
  7  8  2  0
  9 10  2  0
 10 15  1  0
 10 11  1  0
 11 12  2  0
 11 17  1  0
 12 13  1  0
 12 18  1  0
 13 14  2  0
 13 19  1  0
 14 15  1  0
M  END
>  <i_m_ct_stereo_status>  (363) 
1

>  <s_m_source_file>  (363) 
/var/tmp/pbs.5076255.sched01/tmp7onimy_i/150cvk1qxg3.sdf

>  <i_m_source_file_index>  (363) 
20

>  <i_lp_mmshare_version>  (363) 
48012

>  <i_f3d_flags>  (363) 
0

>  <s_epik_input>  (363) 
W2NIXTFbY0hdW2NIXW5uKGMxMiljKD1PKW4objIpLWMzW2NIXXNubjM=

>  <s_epik_cmdline>  (363) 
J2VwaWtfcHl0aG9uJywgJy1waHQnLCAnMi4wJywgJy1waCcsICc3LjAnLCAnLXRuJywgJzgnLCAnLW1hJywgJzIwMCcsICctaW1hZScsICc8aW5maWxlLm1hZT4nLCAnLW9tYWUnLCAnPG91dGZpbGUubWFlPic=

>  <r_lp_tautomer_probability>  (363) 
1

>  <r_epik_Ionization_Penalty>  (363) 
6.20348e-06

>  <r_epik_Ionization_Penalty_Charging>  (363) 
2.87227e-10

>  <r_epik_Ionization_Penalty_Neutral>  (363) 
6.2032e-06

>  <r_epik_State_Penalty>  (363) 
-0

>  <r_epik_Charging_Adjusted_Penalty>  (363) 
2.87227e-10

>  <i_epik_Tot_Q>  (363) 
0

>  <i_epik_Tot_abs_Q>  (363) 
0

>  <s_lp_Force_Field>  (363) 
OPLS3e

>  <r_lp_Energy>  (363) 
30.1993

>  <b_lp_Chiralities_Consistent>  (363) 
1

>  <s_lp_Variant>  (363) 
97:0-1

>  <s_i_glide_gridfile>  (363) 
pfpi4k_grid

>  <i_i_glide_lignum>  (363) 
20

>  <i_i_glide_rotatable_bonds>  (363) 
1

>  <r_i_docking_score>  (363) 
-4.2642

>  <r_i_glide_ligand_efficiency>  (363) 
-0.28428

>  <r_i_glide_ligand_efficiency_sa>  (363) 
-0.701095

>  <r_i_glide_ligand_efficiency_ln>  (363) 
-1.14999

>  <r_i_glide_gscore>  (363) 
-4.2642

>  <r_i_glide_lipo>  (363) 
-0.538654

>  <r_i_glide_hbond>  (363) 
-0.120676

>  <r_i_glide_metal>  (363) 
-0

>  <r_i_glide_rewards>  (363) 
-2.13682

>  <r_i_glide_evdw>  (363) 
-26.4264

>  <r_i_glide_ecoul>  (363) 
-2.88219

>  <r_i_glide_erotb>  (363) 
0.347445

>  <r_i_glide_esite>  (363) 
-0.0618455

>  <r_i_glide_emodel>  (363) 
-37.0517

>  <r_i_glide_energy>  (363) 
-29.3086

>  <r_i_glide_einternal>  (363) 
0.859732

>  <r_i_glide_intrahb_reward>  (363) 
-0

>  <i_i_glide_confnum>  (363) 
4

>  <i_i_glide_posenum>  (363) 
37

>  <r_i_glide_eff_state_penalty>  (363) 
0

>  <ligand_id>  (363) 
97

>  <original_smiles>  (363) 
O=c1n(-c2csnn2)nc2cccnn12

>  <smiles>  (363) 
[H]c1nn2c(=O)n(-c3nnsc3[H])nc2c([H])c1[H]

$$$$
97:0:1
     RDKit          3D

 19 21  0  0  1  0  0  0  0  0999 V2000
    6.7131   -1.4870   -0.3136 O   0  0  0  0  0  0  0  0  0  0  0  0
    5.9313   -2.2726   -0.8547 C   0  0  0  0  0  0  0  0  0  0  0  0
    5.8295   -3.6064   -0.6834 N   0  0  0  0  0  0  0  0  0  0  0  0
    6.5908   -4.3955    0.2179 C   0  0  0  0  0  0  0  0  0  0  0  0
    7.8888   -4.1445    0.5811 C   0  0  0  0  0  0  0  0  0  0  0  0
    8.3980   -5.4547    1.5816 S   0  0  0  0  0  0  0  0  0  0  0  0
    6.9265   -6.2514    1.4836 N   0  0  0  0  0  0  0  0  0  0  0  0
    6.0851   -5.6015    0.7355 N   0  0  0  0  0  0  0  0  0  0  0  0
    4.8478   -4.1576   -1.4494 N   0  0  0  0  0  0  0  0  0  0  0  0
    4.3643   -3.1606   -2.0979 C   0  0  0  0  0  0  0  0  0  0  0  0
    3.3144   -3.0377   -3.0835 C   0  0  0  0  0  0  0  0  0  0  0  0
    3.0160   -1.8272   -3.6068 C   0  0  0  0  0  0  0  0  0  0  0  0
    3.7520   -0.6556   -3.1582 C   0  0  0  0  0  0  0  0  0  0  0  0
    4.6950   -0.7351   -2.2771 N   0  0  0  0  0  0  0  0  0  0  0  0
    5.0022   -1.9796   -1.7596 N   0  0  0  0  0  0  0  0  0  0  0  0
    8.5542   -3.3314    0.3109 H   0  0  0  0  0  0  0  0  0  0  0  0
    2.7400   -3.8874   -3.4104 H   0  0  0  0  0  0  0  0  0  0  0  0
    2.2175   -1.7179   -4.3221 H   0  0  0  0  0  0  0  0  0  0  0  0
    3.4458    0.2839   -3.6145 H   0  0  0  0  0  0  0  0  0  0  0  0
  1  2  2  0
  2 15  1  0
  2  3  1  0
  3  4  1  0
  3  9  1  0
  4  8  1  0
  4  5  2  0
  5  6  1  0
  5 16  1  0
  6  7  1  0
  7  8  2  0
  9 10  2  0
 10 15  1  0
 10 11  1  0
 11 12  2  0
 11 17  1  0
 12 13  1  0
 12 18  1  0
 13 14  2  0
 13 19  1  0
 14 15  1  0
M  END
>  <i_m_ct_stereo_status>  (364) 
1

>  <s_m_source_file>  (364) 
/var/tmp/pbs.5076255.sched01/tmp7onimy_i/150cvk1qxg3.sdf

>  <i_m_source_file_index>  (364) 
20

>  <i_lp_mmshare_version>  (364) 
48012

>  <i_f3d_flags>  (364) 
0

>  <s_epik_input>  (364) 
W2NIXTFbY0hdW2NIXW5uKGMxMiljKD1PKW4objIpLWMzW2NIXXNubjM=

>  <s_epik_cmdline>  (364) 
J2VwaWtfcHl0aG9uJywgJy1waHQnLCAnMi4wJywgJy1waCcsICc3LjAnLCAnLXRuJywgJzgnLCAnLW1hJywgJzIwMCcsICctaW1hZScsICc8aW5maWxlLm1hZT4nLCAnLW9tYWUnLCAnPG91dGZpbGUubWFlPic=

>  <r_lp_tautomer_probability>  (364) 
1

>  <r_epik_Ionization_Penalty>  (364) 
6.20348e-06

>  <r_epik_Ionization_Penalty_Charging>  (364) 
2.87227e-10

>  <r_epik_Ionization_Penalty_Neutral>  (364) 
6.2032e-06

>  <r_epik_State_Penalty>  (364) 
-0

>  <r_epik_Charging_Adjusted_Penalty>  (364) 
2.87227e-10

>  <i_epik_Tot_Q>  (364) 
0

>  <i_epik_Tot_abs_Q>  (364) 
0

>  <s_lp_Force_Field>  (364) 
OPLS3e

>  <r_lp_Energy>  (364) 
30.1993

>  <b_lp_Chiralities_Consistent>  (364) 
1

>  <s_lp_Variant>  (364) 
97:0-1

>  <s_i_glide_gridfile>  (364) 
pfpi4k_grid

>  <i_i_glide_lignum>  (364) 
20

>  <i_i_glide_rotatable_bonds>  (364) 
1

>  <r_i_docking_score>  (364) 
-4.23532

>  <r_i_glide_ligand_efficiency>  (364) 
-0.282354

>  <r_i_glide_ligand_efficiency_sa>  (364) 
-0.696346

>  <r_i_glide_ligand_efficiency_ln>  (364) 
-1.14219

>  <r_i_glide_gscore>  (364) 
-4.23532

>  <r_i_glide_lipo>  (364) 
-0.583279

>  <r_i_glide_hbond>  (364) 
-0.118406

>  <r_i_glide_metal>  (364) 
-0

>  <r_i_glide_rewards>  (364) 
-2.13892

>  <r_i_glide_evdw>  (364) 
-26.3086

>  <r_i_glide_ecoul>  (364) 
-2.41845

>  <r_i_glide_erotb>  (364) 
0.347445

>  <r_i_glide_esite>  (364) 
-0.0639633

>  <r_i_glide_emodel>  (364) 
-35.5501

>  <r_i_glide_energy>  (364) 
-28.727

>  <r_i_glide_einternal>  (364) 
2.72348

>  <r_i_glide_intrahb_reward>  (364) 
-0

>  <i_i_glide_confnum>  (364) 
4

>  <i_i_glide_posenum>  (364) 
2

>  <r_i_glide_eff_state_penalty>  (364) 
0

>  <ligand_id>  (364) 
97

>  <original_smiles>  (364) 
O=c1n(-c2csnn2)nc2cccnn12

>  <smiles>  (364) 
[H]c1nn2c(=O)n(-c3nnsc3[H])nc2c([H])c1[H]

$$$$
97:0:2
     RDKit          3D

 19 21  0  0  1  0  0  0  0  0999 V2000
    1.8615   -5.4841    0.8330 O   0  0  0  0  0  0  0  0  0  0  0  0
    2.5551   -6.3794    1.3233 C   0  0  0  0  0  0  0  0  0  0  0  0
    2.1419   -7.4875    1.9729 N   0  0  0  0  0  0  0  0  0  0  0  0
    0.7857   -7.8222    2.2383 C   0  0  0  0  0  0  0  0  0  0  0  0
    0.4176   -9.0775    2.6290 C   0  0  0  0  0  0  0  0  0  0  0  0
   -1.2845   -9.0576    2.8790 S   0  0  0  0  0  0  0  0  0  0  0  0
   -1.4336   -7.4444    2.4890 N   0  0  0  0  0  0  0  0  0  0  0  0
   -0.2891   -6.9196    2.1637 N   0  0  0  0  0  0  0  0  0  0  0  0
    3.1742   -8.2807    2.3842 N   0  0  0  0  0  0  0  0  0  0  0  0
    4.2168   -7.6467    1.9857 C   0  0  0  0  0  0  0  0  0  0  0  0
    5.6316   -7.9174    2.0963 C   0  0  0  0  0  0  0  0  0  0  0  0
    6.5324   -7.0563    1.5668 C   0  0  0  0  0  0  0  0  0  0  0  0
    6.0519   -5.8605    0.8860 C   0  0  0  0  0  0  0  0  0  0  0  0
    4.7905   -5.5906    0.7722 N   0  0  0  0  0  0  0  0  0  0  0  0
    3.8827   -6.4755    1.3232 N   0  0  0  0  0  0  0  0  0  0  0  0
    1.0071   -9.9738    2.7717 H   0  0  0  0  0  0  0  0  0  0  0  0
    5.9795   -8.8055    2.5984 H   0  0  0  0  0  0  0  0  0  0  0  0
    7.5916   -7.2579    1.6380 H   0  0  0  0  0  0  0  0  0  0  0  0
    6.8299   -5.2167    0.4745 H   0  0  0  0  0  0  0  0  0  0  0  0
  1  2  2  0
  2 15  1  0
  2  3  1  0
  3  4  1  0
  3  9  1  0
  4  8  1  0
  4  5  2  0
  5  6  1  0
  5 16  1  0
  6  7  1  0
  7  8  2  0
  9 10  2  0
 10 15  1  0
 10 11  1  0
 11 12  2  0
 11 17  1  0
 12 13  1  0
 12 18  1  0
 13 14  2  0
 13 19  1  0
 14 15  1  0
M  END
>  <i_m_ct_stereo_status>  (365) 
1

>  <s_m_source_file>  (365) 
/var/tmp/pbs.5076255.sched01/tmp7onimy_i/150cvk1qxg3.sdf

>  <i_m_source_file_index>  (365) 
20

>  <i_lp_mmshare_version>  (365) 
48012

>  <i_f3d_flags>  (365) 
0

>  <s_epik_input>  (365) 
W2NIXTFbY0hdW2NIXW5uKGMxMiljKD1PKW4objIpLWMzW2NIXXNubjM=

>  <s_epik_cmdline>  (365) 
J2VwaWtfcHl0aG9uJywgJy1waHQnLCAnMi4wJywgJy1waCcsICc3LjAnLCAnLXRuJywgJzgnLCAnLW1hJywgJzIwMCcsICctaW1hZScsICc8aW5maWxlLm1hZT4nLCAnLW9tYWUnLCAnPG91dGZpbGUubWFlPic=

>  <r_lp_tautomer_probability>  (365) 
1

>  <r_epik_Ionization_Penalty>  (365) 
6.20348e-06

>  <r_epik_Ionization_Penalty_Charging>  (365) 
2.87227e-10

>  <r_epik_Ionization_Penalty_Neutral>  (365) 
6.2032e-06

>  <r_epik_State_Penalty>  (365) 
-0

>  <r_epik_Charging_Adjusted_Penalty>  (365) 
2.87227e-10

>  <i_epik_Tot_Q>  (365) 
0

>  <i_epik_Tot_abs_Q>  (365) 
0

>  <s_lp_Force_Field>  (365) 
OPLS3e

>  <r_lp_Energy>  (365) 
30.1993

>  <b_lp_Chiralities_Consistent>  (365) 
1

>  <s_lp_Variant>  (365) 
97:0-1

>  <s_i_glide_gridfile>  (365) 
pfpi4k_grid

>  <i_i_glide_lignum>  (365) 
20

>  <i_i_glide_rotatable_bonds>  (365) 
1

>  <r_i_docking_score>  (365) 
-3.77062

>  <r_i_glide_ligand_efficiency>  (365) 
-0.251374

>  <r_i_glide_ligand_efficiency_sa>  (365) 
-0.619943

>  <r_i_glide_ligand_efficiency_ln>  (365) 
-1.01687

>  <r_i_glide_gscore>  (365) 
-3.77062

>  <r_i_glide_lipo>  (365) 
-0.207459

>  <r_i_glide_hbond>  (365) 
-0.0883731

>  <r_i_glide_metal>  (365) 
-0

>  <r_i_glide_rewards>  (365) 
-2.02292

>  <r_i_glide_evdw>  (365) 
-21.9776

>  <r_i_glide_ecoul>  (365) 
-3.05325

>  <r_i_glide_erotb>  (365) 
0.347445

>  <r_i_glide_esite>  (365) 
-0.242444

>  <r_i_glide_emodel>  (365) 
-32.194

>  <r_i_glide_energy>  (365) 
-25.0308

>  <r_i_glide_einternal>  (365) 
0.306982

>  <r_i_glide_intrahb_reward>  (365) 
-0

>  <i_i_glide_confnum>  (365) 
3

>  <i_i_glide_posenum>  (365) 
16

>  <r_i_glide_eff_state_penalty>  (365) 
0

>  <ligand_id>  (365) 
97

>  <original_smiles>  (365) 
O=c1n(-c2csnn2)nc2cccnn12

>  <smiles>  (365) 
[H]c1nn2c(=O)n(-c3nnsc3[H])nc2c([H])c1[H]

$$$$
98:0:0
     RDKit          3D

 30 32  0  0  1  0  0  0  0  0999 V2000
    3.2494    0.1235   -4.8138 C   0  0  0  0  0  0  0  0  0  0  0  0
    3.7344   -0.9643   -3.8783 C   0  0  0  0  0  0  0  0  0  0  0  0
    4.2869   -0.6318   -2.6333 C   0  0  0  0  0  0  0  0  0  0  0  0
    4.7315   -1.6723   -1.8105 C   0  0  0  0  0  0  0  0  0  0  0  0
    4.5839   -2.9892   -2.2991 C   0  0  0  0  0  0  0  0  0  0  0  0
    4.9815   -4.1057   -1.5577 N   0  0  0  0  0  0  0  0  0  0  0  0
    5.3663   -3.9464   -0.1604 C   0  0  0  0  0  0  0  0  0  0  0  0
    5.6049   -5.2617    0.5449 C   0  0  0  0  0  0  0  0  0  0  0  0
    4.6008   -6.2624    0.4970 C   0  0  0  0  0  0  0  0  0  0  0  0
    4.7933   -7.4802    1.1047 C   0  0  0  0  0  0  0  0  0  0  0  0
    6.0097   -7.7276    1.7957 C   0  0  0  0  0  0  0  0  0  0  0  0
    6.4939   -8.7747    2.4626 N   0  0  0  0  0  0  0  0  0  0  0  0
    7.7465   -8.4235    2.9453 N   0  0  0  0  0  0  0  0  0  0  0  0
    8.0142   -7.1808    2.5403 C   0  0  0  0  0  0  0  0  0  0  0  0
    6.9646   -6.6963    1.8286 N   0  0  0  0  0  0  0  0  0  0  0  0
    6.7819   -5.4880    1.2280 C   0  0  0  0  0  0  0  0  0  0  0  0
    4.0505   -3.2462   -3.5174 N   0  0  0  0  0  0  0  0  0  0  0  0
    3.6303   -2.2441   -4.2990 N   0  0  0  0  0  0  0  0  0  0  0  0
    4.6775   -5.0139   -1.8901 H   0  0  0  0  0  0  0  0  0  0  0  0
    3.3876    1.1037   -4.3581 H   0  0  0  0  0  0  0  0  0  0  0  0
    2.1887    0.0042   -5.0380 H   0  0  0  0  0  0  0  0  0  0  0  0
    3.8103    0.1130   -5.7479 H   0  0  0  0  0  0  0  0  0  0  0  0
    4.3767    0.3992   -2.3332 H   0  0  0  0  0  0  0  0  0  0  0  0
    5.1624   -1.4392   -0.8488 H   0  0  0  0  0  0  0  0  0  0  0  0
    4.5768   -3.4204    0.3794 H   0  0  0  0  0  0  0  0  0  0  0  0
    6.2689   -3.3343   -0.1068 H   0  0  0  0  0  0  0  0  0  0  0  0
    3.6755   -6.0723   -0.0377 H   0  0  0  0  0  0  0  0  0  0  0  0
    4.0391   -8.2565    1.0550 H   0  0  0  0  0  0  0  0  0  0  0  0
    8.9309   -6.6523    2.7463 H   0  0  0  0  0  0  0  0  0  0  0  0
    7.5889   -4.7658    1.3123 H   0  0  0  0  0  0  0  0  0  0  0  0
  1 20  1  0
  1 21  1  0
  1 22  1  0
  1  2  1  0
  2 18  2  0
  2  3  1  0
  3 23  1  0
  3  4  2  0
  4  5  1  0
  4 24  1  0
  5  6  1  0
  5 17  2  0
  6  7  1  0
  6 19  1  0
  7  8  1  0
  7 25  1  0
  7 26  1  0
  8 16  2  0
  8  9  1  0
  9 10  2  0
  9 27  1  0
 10 11  1  0
 10 28  1  0
 11 15  1  0
 11 12  2  0
 12 13  1  0
 13 14  2  0
 14 15  1  0
 14 29  1  0
 15 16  1  0
 16 30  1  0
 17 18  1  0
M  END
>  <i_m_ct_stereo_status>  (366) 
1

>  <s_m_source_file>  (366) 
/var/tmp/pbs.5076255.sched01/tmp7onimy_i/150cvk1qxg3.sdf

>  <i_m_source_file_index>  (366) 
21

>  <i_lp_mmshare_version>  (366) 
48012

>  <i_f3d_flags>  (366) 
0

>  <s_epik_input>  (366) 
W0NIM11jMVtjSF1bY0hdL2MoW25IXW4xKT1OL1tDSDJdYyhbY0hdW2NIXTIpW2NIXW4oYzIzKVtjSF1ubjM=

>  <s_epik_cmdline>  (366) 
J2VwaWtfcHl0aG9uJywgJy1waHQnLCAnMi4wJywgJy1waCcsICc3LjAnLCAnLXRuJywgJzgnLCAnLW1hJywgJzIwMCcsICctaW1hZScsICc8aW5maWxlLm1hZT4nLCAnLW9tYWUnLCAnPG91dGZpbGUubWFlPic=

>  <r_lp_tautomer_probability>  (366) 
0.999978

>  <r_epik_Ionization_Penalty>  (366) 
0.0269949

>  <r_epik_Ionization_Penalty_Charging>  (366) 
0

>  <r_epik_Ionization_Penalty_Neutral>  (366) 
0.0269949

>  <r_epik_State_Penalty>  (366) 
0.0336608

>  <r_epik_Charging_Adjusted_Penalty>  (366) 
0.0336608

>  <i_epik_Tot_Q>  (366) 
0

>  <i_epik_Tot_abs_Q>  (366) 
0

>  <s_lp_Force_Field>  (366) 
OPLS3e

>  <r_lp_Energy>  (366) 
29.3686

>  <b_lp_Chiralities_Consistent>  (366) 
1

>  <s_lp_Variant>  (366) 
98:0-1

>  <s_i_glide_gridfile>  (366) 
pfpi4k_grid

>  <i_i_glide_lignum>  (366) 
21

>  <i_i_glide_rotatable_bonds>  (366) 
3

>  <r_i_docking_score>  (366) 
-4.2949

>  <r_i_glide_ligand_efficiency>  (366) 
-0.238606

>  <r_i_glide_ligand_efficiency_sa>  (366) 
-0.625324

>  <r_i_glide_ligand_efficiency_ln>  (366) 
-1.10398

>  <r_i_glide_gscore>  (366) 
-4.2949

>  <r_i_glide_lipo>  (366) 
-0.893536

>  <r_i_glide_hbond>  (366) 
-0.203514

>  <r_i_glide_metal>  (366) 
-0

>  <r_i_glide_rewards>  (366) 
-1.9598

>  <r_i_glide_evdw>  (366) 
-27.1494

>  <r_i_glide_ecoul>  (366) 
-4.45675

>  <r_i_glide_erotb>  (366) 
0.899048

>  <r_i_glide_esite>  (366) 
-0.111116

>  <r_i_glide_emodel>  (366) 
-40.727

>  <r_i_glide_energy>  (366) 
-31.6062

>  <r_i_glide_einternal>  (366) 
1.5569

>  <r_i_glide_intrahb_reward>  (366) 
-0

>  <i_i_glide_confnum>  (366) 
2

>  <i_i_glide_posenum>  (366) 
9

>  <r_i_glide_eff_state_penalty>  (366) 
0

>  <ligand_id>  (366) 
98

>  <original_smiles>  (366) 
Cc1ccc(=NCc2ccc3nncn3c2)[nH]n1

>  <smiles>  (366) 
[H]c1c(N([H])C([H])([H])c2c([H])c([H])c3nnc([H])n3c2[H])nnc(C([H])([H])[H])c1[H]

$$$$
98:0:1
     RDKit          3D

 30 32  0  0  1  0  0  0  0  0999 V2000
   -1.4387   -9.1243    2.9578 C   0  0  0  0  0  0  0  0  0  0  0  0
   -0.2491   -8.3145    2.4905 C   0  0  0  0  0  0  0  0  0  0  0  0
    1.0414   -8.8722    2.4969 C   0  0  0  0  0  0  0  0  0  0  0  0
    2.0971   -8.0692    2.0453 C   0  0  0  0  0  0  0  0  0  0  0  0
    1.7852   -6.7601    1.6156 C   0  0  0  0  0  0  0  0  0  0  0  0
    2.7555   -5.8759    1.1341 N   0  0  0  0  0  0  0  0  0  0  0  0
    4.0975   -6.3662    0.8346 C   0  0  0  0  0  0  0  0  0  0  0  0
    5.0387   -5.2784    0.3668 C   0  0  0  0  0  0  0  0  0  0  0  0
    4.5943   -4.3409   -0.6016 C   0  0  0  0  0  0  0  0  0  0  0  0
    5.4122   -3.3249   -1.0268 C   0  0  0  0  0  0  0  0  0  0  0  0
    6.7261   -3.2297   -0.5019 C   0  0  0  0  0  0  0  0  0  0  0  0
    7.7342   -2.3819   -0.7042 N   0  0  0  0  0  0  0  0  0  0  0  0
    8.7947   -2.8036    0.0845 N   0  0  0  0  0  0  0  0  0  0  0  0
    8.4073   -3.8838    0.7633 C   0  0  0  0  0  0  0  0  0  0  0  0
    7.1288   -4.1955    0.4367 N   0  0  0  0  0  0  0  0  0  0  0  0
    6.3204   -5.2016    0.8719 C   0  0  0  0  0  0  0  0  0  0  0  0
    0.5181   -6.2823    1.6383 N   0  0  0  0  0  0  0  0  0  0  0  0
   -0.4902   -7.0500    2.0739 N   0  0  0  0  0  0  0  0  0  0  0  0
    2.4806   -4.9781    0.7659 H   0  0  0  0  0  0  0  0  0  0  0  0
   -1.1101  -10.1236    3.2391 H   0  0  0  0  0  0  0  0  0  0  0  0
   -2.1864   -9.2258    2.1696 H   0  0  0  0  0  0  0  0  0  0  0  0
   -1.9022   -8.6721    3.8357 H   0  0  0  0  0  0  0  0  0  0  0  0
    1.2154   -9.8845    2.8281 H   0  0  0  0  0  0  0  0  0  0  0  0
    3.0926   -8.4807    2.0384 H   0  0  0  0  0  0  0  0  0  0  0  0
    4.0267   -7.1177    0.0479 H   0  0  0  0  0  0  0  0  0  0  0  0
    4.5250   -6.8415    1.7187 H   0  0  0  0  0  0  0  0  0  0  0  0
    3.5938   -4.4165   -1.0138 H   0  0  0  0  0  0  0  0  0  0  0  0
    5.0594   -2.6006   -1.7503 H   0  0  0  0  0  0  0  0  0  0  0  0
    9.0124   -4.4201    1.4783 H   0  0  0  0  0  0  0  0  0  0  0  0
    6.7314   -5.8922    1.6040 H   0  0  0  0  0  0  0  0  0  0  0  0
  1 20  1  0
  1 21  1  0
  1 22  1  0
  1  2  1  0
  2 18  2  0
  2  3  1  0
  3 23  1  0
  3  4  2  0
  4  5  1  0
  4 24  1  0
  5  6  1  0
  5 17  2  0
  6  7  1  0
  6 19  1  0
  7  8  1  0
  7 25  1  0
  7 26  1  0
  8 16  2  0
  8  9  1  0
  9 10  2  0
  9 27  1  0
 10 11  1  0
 10 28  1  0
 11 15  1  0
 11 12  2  0
 12 13  1  0
 13 14  2  0
 14 15  1  0
 14 29  1  0
 15 16  1  0
 16 30  1  0
 17 18  1  0
M  END
>  <i_m_ct_stereo_status>  (367) 
1

>  <s_m_source_file>  (367) 
/var/tmp/pbs.5076255.sched01/tmp7onimy_i/150cvk1qxg3.sdf

>  <i_m_source_file_index>  (367) 
21

>  <i_lp_mmshare_version>  (367) 
48012

>  <i_f3d_flags>  (367) 
0

>  <s_epik_input>  (367) 
W0NIM11jMVtjSF1bY0hdL2MoW25IXW4xKT1OL1tDSDJdYyhbY0hdW2NIXTIpW2NIXW4oYzIzKVtjSF1ubjM=

>  <s_epik_cmdline>  (367) 
J2VwaWtfcHl0aG9uJywgJy1waHQnLCAnMi4wJywgJy1waCcsICc3LjAnLCAnLXRuJywgJzgnLCAnLW1hJywgJzIwMCcsICctaW1hZScsICc8aW5maWxlLm1hZT4nLCAnLW9tYWUnLCAnPG91dGZpbGUubWFlPic=

>  <r_lp_tautomer_probability>  (367) 
0.999978

>  <r_epik_Ionization_Penalty>  (367) 
0.0269949

>  <r_epik_Ionization_Penalty_Charging>  (367) 
0

>  <r_epik_Ionization_Penalty_Neutral>  (367) 
0.0269949

>  <r_epik_State_Penalty>  (367) 
0.0336608

>  <r_epik_Charging_Adjusted_Penalty>  (367) 
0.0336608

>  <i_epik_Tot_Q>  (367) 
0

>  <i_epik_Tot_abs_Q>  (367) 
0

>  <s_lp_Force_Field>  (367) 
OPLS3e

>  <r_lp_Energy>  (367) 
29.3686

>  <b_lp_Chiralities_Consistent>  (367) 
1

>  <s_lp_Variant>  (367) 
98:0-1

>  <s_i_glide_gridfile>  (367) 
pfpi4k_grid

>  <i_i_glide_lignum>  (367) 
21

>  <i_i_glide_rotatable_bonds>  (367) 
3

>  <r_i_docking_score>  (367) 
-4.24401

>  <r_i_glide_ligand_efficiency>  (367) 
-0.235778

>  <r_i_glide_ligand_efficiency_sa>  (367) 
-0.617914

>  <r_i_glide_ligand_efficiency_ln>  (367) 
-1.0909

>  <r_i_glide_gscore>  (367) 
-4.24401

>  <r_i_glide_lipo>  (367) 
-0.385137

>  <r_i_glide_hbond>  (367) 
0

>  <r_i_glide_metal>  (367) 
-0

>  <r_i_glide_rewards>  (367) 
-2.24827

>  <r_i_glide_evdw>  (367) 
-25.0625

>  <r_i_glide_ecoul>  (367) 
-6.46876

>  <r_i_glide_erotb>  (367) 
0.899048

>  <r_i_glide_esite>  (367) 
-0.28621

>  <r_i_glide_emodel>  (367) 
-40.521

>  <r_i_glide_energy>  (367) 
-31.5312

>  <r_i_glide_einternal>  (367) 
1.62732

>  <r_i_glide_intrahb_reward>  (367) 
-0

>  <i_i_glide_confnum>  (367) 
3

>  <i_i_glide_posenum>  (367) 
26

>  <r_i_glide_eff_state_penalty>  (367) 
0

>  <ligand_id>  (367) 
98

>  <original_smiles>  (367) 
Cc1ccc(=NCc2ccc3nncn3c2)[nH]n1

>  <smiles>  (367) 
[H]c1c(N([H])C([H])([H])c2c([H])c([H])c3nnc([H])n3c2[H])nnc(C([H])([H])[H])c1[H]

$$$$
98:0:2
     RDKit          3D

 30 32  0  0  1  0  0  0  0  0999 V2000
   -1.7165   -9.0461    2.8947 C   0  0  0  0  0  0  0  0  0  0  0  0
   -0.4497   -8.3322    2.4895 C   0  0  0  0  0  0  0  0  0  0  0  0
    0.7913   -8.9954    2.5442 C   0  0  0  0  0  0  0  0  0  0  0  0
    1.9254   -8.2787    2.1404 C   0  0  0  0  0  0  0  0  0  0  0  0
    1.7359   -6.9473    1.7026 C   0  0  0  0  0  0  0  0  0  0  0  0
    2.7892   -6.1449    1.2578 N   0  0  0  0  0  0  0  0  0  0  0  0
    4.1290   -6.7063    1.1489 C   0  0  0  0  0  0  0  0  0  0  0  0
    5.1706   -5.6856    0.7564 C   0  0  0  0  0  0  0  0  0  0  0  0
    6.3944   -5.6107    1.4728 C   0  0  0  0  0  0  0  0  0  0  0  0
    7.3387   -4.6661    1.1412 C   0  0  0  0  0  0  0  0  0  0  0  0
    7.0821   -3.7648    0.0735 C   0  0  0  0  0  0  0  0  0  0  0  0
    7.7650   -2.7644   -0.4832 N   0  0  0  0  0  0  0  0  0  0  0  0
    6.9895   -2.2572   -1.5159 N   0  0  0  0  0  0  0  0  0  0  0  0
    5.8529   -2.9508   -1.5702 C   0  0  0  0  0  0  0  0  0  0  0  0
    5.8555   -3.8966   -0.6037 N   0  0  0  0  0  0  0  0  0  0  0  0
    4.9197   -4.8279   -0.2913 C   0  0  0  0  0  0  0  0  0  0  0  0
    0.5113   -6.3685    1.6766 N   0  0  0  0  0  0  0  0  0  0  0  0
   -0.5718   -7.0490    2.0729 N   0  0  0  0  0  0  0  0  0  0  0  0
    2.6037   -5.2534    0.8231 H   0  0  0  0  0  0  0  0  0  0  0  0
   -1.4737  -10.0700    3.1726 H   0  0  0  0  0  0  0  0  0  0  0  0
   -2.4352   -9.0805    2.0753 H   0  0  0  0  0  0  0  0  0  0  0  0
   -2.1779   -8.5694    3.7598 H   0  0  0  0  0  0  0  0  0  0  0  0
    0.8753  -10.0230    2.8655 H   0  0  0  0  0  0  0  0  0  0  0  0
    2.8863   -8.7665    2.1639 H   0  0  0  0  0  0  0  0  0  0  0  0
    4.1200   -7.5079    0.4072 H   0  0  0  0  0  0  0  0  0  0  0  0
    4.4256   -7.1458    2.1050 H   0  0  0  0  0  0  0  0  0  0  0  0
    6.5920   -6.2919    2.3003 H   0  0  0  0  0  0  0  0  0  0  0  0
    8.2696   -4.5940    1.6893 H   0  0  0  0  0  0  0  0  0  0  0  0
    5.0577   -2.7839   -2.2805 H   0  0  0  0  0  0  0  0  0  0  0  0
    4.0169   -4.8530   -0.8911 H   0  0  0  0  0  0  0  0  0  0  0  0
  1 20  1  0
  1 21  1  0
  1 22  1  0
  1  2  1  0
  2 18  2  0
  2  3  1  0
  3 23  1  0
  3  4  2  0
  4  5  1  0
  4 24  1  0
  5  6  1  0
  5 17  2  0
  6  7  1  0
  6 19  1  0
  7  8  1  0
  7 25  1  0
  7 26  1  0
  8 16  2  0
  8  9  1  0
  9 10  2  0
  9 27  1  0
 10 11  1  0
 10 28  1  0
 11 15  1  0
 11 12  2  0
 12 13  1  0
 13 14  2  0
 14 15  1  0
 14 29  1  0
 15 16  1  0
 16 30  1  0
 17 18  1  0
M  END
>  <i_m_ct_stereo_status>  (368) 
1

>  <s_m_source_file>  (368) 
/var/tmp/pbs.5076255.sched01/tmp7onimy_i/150cvk1qxg3.sdf

>  <i_m_source_file_index>  (368) 
21

>  <i_lp_mmshare_version>  (368) 
48012

>  <i_f3d_flags>  (368) 
0

>  <s_epik_input>  (368) 
W0NIM11jMVtjSF1bY0hdL2MoW25IXW4xKT1OL1tDSDJdYyhbY0hdW2NIXTIpW2NIXW4oYzIzKVtjSF1ubjM=

>  <s_epik_cmdline>  (368) 
J2VwaWtfcHl0aG9uJywgJy1waHQnLCAnMi4wJywgJy1waCcsICc3LjAnLCAnLXRuJywgJzgnLCAnLW1hJywgJzIwMCcsICctaW1hZScsICc8aW5maWxlLm1hZT4nLCAnLW9tYWUnLCAnPG91dGZpbGUubWFlPic=

>  <r_lp_tautomer_probability>  (368) 
0.999978

>  <r_epik_Ionization_Penalty>  (368) 
0.0269949

>  <r_epik_Ionization_Penalty_Charging>  (368) 
0

>  <r_epik_Ionization_Penalty_Neutral>  (368) 
0.0269949

>  <r_epik_State_Penalty>  (368) 
0.0336608

>  <r_epik_Charging_Adjusted_Penalty>  (368) 
0.0336608

>  <i_epik_Tot_Q>  (368) 
0

>  <i_epik_Tot_abs_Q>  (368) 
0

>  <s_lp_Force_Field>  (368) 
OPLS3e

>  <r_lp_Energy>  (368) 
29.3686

>  <b_lp_Chiralities_Consistent>  (368) 
1

>  <s_lp_Variant>  (368) 
98:0-1

>  <s_i_glide_gridfile>  (368) 
pfpi4k_grid

>  <i_i_glide_lignum>  (368) 
21

>  <i_i_glide_rotatable_bonds>  (368) 
3

>  <r_i_docking_score>  (368) 
-4.17886

>  <r_i_glide_ligand_efficiency>  (368) 
-0.232159

>  <r_i_glide_ligand_efficiency_sa>  (368) 
-0.608428

>  <r_i_glide_ligand_efficiency_ln>  (368) 
-1.07415

>  <r_i_glide_gscore>  (368) 
-4.17886

>  <r_i_glide_lipo>  (368) 
-0.397264

>  <r_i_glide_hbond>  (368) 
0

>  <r_i_glide_metal>  (368) 
-0

>  <r_i_glide_rewards>  (368) 
-2.06173

>  <r_i_glide_evdw>  (368) 
-24.3613

>  <r_i_glide_ecoul>  (368) 
-7.44671

>  <r_i_glide_erotb>  (368) 
0.899048

>  <r_i_glide_esite>  (368) 
-0.283838

>  <r_i_glide_emodel>  (368) 
-40.5834

>  <r_i_glide_energy>  (368) 
-31.808

>  <r_i_glide_einternal>  (368) 
1.66256

>  <r_i_glide_intrahb_reward>  (368) 
-0

>  <i_i_glide_confnum>  (368) 
2

>  <i_i_glide_posenum>  (368) 
28

>  <r_i_glide_eff_state_penalty>  (368) 
0

>  <ligand_id>  (368) 
98

>  <original_smiles>  (368) 
Cc1ccc(=NCc2ccc3nncn3c2)[nH]n1

>  <smiles>  (368) 
[H]c1c(N([H])C([H])([H])c2c([H])c([H])c3nnc([H])n3c2[H])nnc(C([H])([H])[H])c1[H]

$$$$
98:1:0
     RDKit          3D

 31 33  0  0  1  0  0  0  0  0999 V2000
    3.2314   -0.1637   -4.8278 C   0  0  0  0  0  0  0  0  0  0  0  0
    3.6297   -1.1930   -3.7872 C   0  0  0  0  0  0  0  0  0  0  0  0
    4.1456   -0.7931   -2.5429 C   0  0  0  0  0  0  0  0  0  0  0  0
    4.4831   -1.7997   -1.6194 C   0  0  0  0  0  0  0  0  0  0  0  0
    4.3061   -3.1536   -1.9976 C   0  0  0  0  0  0  0  0  0  0  0  0
    4.6148   -4.2561   -1.1825 N   0  0  0  0  0  0  0  0  0  0  0  0
    5.1364   -4.1058    0.1711 C   0  0  0  0  0  0  0  0  0  0  0  0
    5.6954   -5.3980    0.7501 C   0  0  0  0  0  0  0  0  0  0  0  0
    7.0215   -5.4239    1.2625 C   0  0  0  0  0  0  0  0  0  0  0  0
    7.5594   -6.5844    1.7715 C   0  0  0  0  0  0  0  0  0  0  0  0
    6.7784   -7.7672    1.7980 C   0  0  0  0  0  0  0  0  0  0  0  0
    7.0038   -9.0131    2.2158 N   0  0  0  0  0  0  0  0  0  0  0  0
    5.8568   -9.7510    1.9685 N   0  0  0  0  0  0  0  0  0  0  0  0
    4.9532   -8.9422    1.4159 C   0  0  0  0  0  0  0  0  0  0  0  0
    5.4710   -7.6914    1.2857 N   0  0  0  0  0  0  0  0  0  0  0  0
    4.9293   -6.5472    0.7768 C   0  0  0  0  0  0  0  0  0  0  0  0
    3.8100   -3.4363   -3.2290 N   0  0  0  0  0  0  0  0  0  0  0  0
    3.4728   -2.4946   -4.1300 N   0  0  0  0  0  0  0  0  0  0  0  0
    4.4321   -5.1909   -1.5291 H   0  0  0  0  0  0  0  0  0  0  0  0
    3.3994    0.8528   -4.4741 H   0  0  0  0  0  0  0  0  0  0  0  0
    2.1764   -0.2573   -5.0835 H   0  0  0  0  0  0  0  0  0  0  0  0
    3.8090   -0.3023   -5.7402 H   0  0  0  0  0  0  0  0  0  0  0  0
    4.2596    0.2535   -2.3022 H   0  0  0  0  0  0  0  0  0  0  0  0
    4.8646   -1.5257   -0.6483 H   0  0  0  0  0  0  0  0  0  0  0  0
    4.3400   -3.7473    0.8265 H   0  0  0  0  0  0  0  0  0  0  0  0
    5.9207   -3.3470    0.1896 H   0  0  0  0  0  0  0  0  0  0  0  0
    7.6346   -4.5267    1.2524 H   0  0  0  0  0  0  0  0  0  0  0  0
    8.5764   -6.6226    2.1495 H   0  0  0  0  0  0  0  0  0  0  0  0
    3.9624   -9.2520    1.1198 H   0  0  0  0  0  0  0  0  0  0  0  0
    3.9101   -6.6133    0.4086 H   0  0  0  0  0  0  0  0  0  0  0  0
    3.6519   -4.4199   -3.4669 H   0  0  0  0  0  0  0  0  0  0  0  0
  1 20  1  0
  1 21  1  0
  1 22  1  0
  1  2  1  0
  2 18  2  0
  2  3  1  0
  3 23  1  0
  3  4  2  0
  4  5  1  0
  4 24  1  0
  5  6  1  0
  5 17  2  0
  6  7  1  0
  6 19  1  0
  7  8  1  0
  7 25  1  0
  7 26  1  0
  8 16  2  0
  8  9  1  0
  9 10  2  0
  9 27  1  0
 10 11  1  0
 10 28  1  0
 11 15  1  0
 11 12  2  0
 12 13  1  0
 13 14  2  0
 14 15  1  0
 14 29  1  0
 15 16  1  0
 16 30  1  0
 17 18  1  0
 17 31  1  0
M  CHG  1  17   1
M  END
>  <i_m_ct_stereo_status>  (369) 
1

>  <s_m_source_file>  (369) 
/var/tmp/pbs.5076255.sched01/tmp7onimy_i/150cvk1qxg3.sdf

>  <i_m_source_file_index>  (369) 
22

>  <i_lp_mmshare_version>  (369) 
48012

>  <i_f3d_flags>  (369) 
0

>  <s_epik_input>  (369) 
W0NIM11jMVtjSF1bY0hdL2MoW25IXW4xKT1OL1tDSDJdYyhbY0hdW2NIXTIpW2NIXW4oYzIzKVtjSF1ubjM=

>  <s_epik_cmdline>  (369) 
J2VwaWtfcHl0aG9uJywgJy1waHQnLCAnMi4wJywgJy1waCcsICc3LjAnLCAnLXRuJywgJzgnLCAnLW1hJywgJzIwMCcsICctaW1hZScsICc8aW5maWxlLm1hZT4nLCAnLW9tYWUnLCAnPG91dGZpbGUubWFlPic=

>  <r_lp_tautomer_probability>  (369) 
0.966961

>  <r_epik_Ionization_Penalty>  (369) 
2.4072

>  <r_epik_Ionization_Penalty_Charging>  (369) 
2.40715

>  <r_epik_Ionization_Penalty_Neutral>  (369) 
4.43879e-05

>  <r_epik_State_Penalty>  (369) 
1.77663

>  <r_epik_Charging_Adjusted_Penalty>  (369) 
4.18378

>  <i_epik_Tot_Q>  (369) 
1

>  <i_epik_Tot_abs_Q>  (369) 
1

>  <s_lp_Force_Field>  (369) 
OPLS3e

>  <r_lp_Energy>  (369) 
26.5612

>  <b_lp_Chiralities_Consistent>  (369) 
1

>  <s_lp_Variant>  (369) 
98:0-2

>  <s_i_glide_gridfile>  (369) 
pfpi4k_grid

>  <i_i_glide_lignum>  (369) 
22

>  <i_i_glide_rotatable_bonds>  (369) 
3

>  <r_i_docking_score>  (369) 
-5.2924

>  <r_i_glide_ligand_efficiency>  (369) 
-0.294022

>  <r_i_glide_ligand_efficiency_sa>  (369) 
-0.770556

>  <r_i_glide_ligand_efficiency_ln>  (369) 
-1.36038

>  <r_i_glide_gscore>  (369) 
-5.2924

>  <r_i_glide_lipo>  (369) 
-0.802574

>  <r_i_glide_hbond>  (369) 
-0.23891

>  <r_i_glide_metal>  (369) 
-0

>  <r_i_glide_rewards>  (369) 
-2.53945

>  <r_i_glide_evdw>  (369) 
-25.309

>  <r_i_glide_ecoul>  (369) 
-6.57159

>  <r_i_glide_erotb>  (369) 
0.624854

>  <r_i_glide_esite>  (369) 
-0.0851276

>  <r_i_glide_emodel>  (369) 
-44.9984

>  <r_i_glide_energy>  (369) 
-31.8806

>  <r_i_glide_einternal>  (369) 
0.297582

>  <r_i_glide_intrahb_reward>  (369) 
-0

>  <i_i_glide_confnum>  (369) 
2

>  <i_i_glide_posenum>  (369) 
2

>  <r_i_glide_eff_state_penalty>  (369) 
0

>  <ligand_id>  (369) 
98

>  <original_smiles>  (369) 
Cc1ccc(=NCc2ccc3nncn3c2)[nH]n1

>  <smiles>  (369) 
[H]c1c(C([H])([H])[H])n[n+]([H])c(N([H])C([H])([H])c2c([H])c([H])c3nnc([H])n3c2[H])c1[H]

$$$$
98:1:1
     RDKit          3D

 31 33  0  0  1  0  0  0  0  0999 V2000
   -0.3411    3.3161    4.2913 C   0  0  0  0  0  0  0  0  0  0  0  0
    0.5264    2.4146    3.4387 C   0  0  0  0  0  0  0  0  0  0  0  0
    1.9119    2.3174    3.6688 C   0  0  0  0  0  0  0  0  0  0  0  0
    2.6486    1.4547    2.8405 C   0  0  0  0  0  0  0  0  0  0  0  0
    1.9724    0.7358    1.8302 C   0  0  0  0  0  0  0  0  0  0  0  0
    2.5989   -0.1622    0.9534 N   0  0  0  0  0  0  0  0  0  0  0  0
    4.0398   -0.3377    0.8636 C   0  0  0  0  0  0  0  0  0  0  0  0
    4.4805   -1.2235   -0.2985 C   0  0  0  0  0  0  0  0  0  0  0  0
    5.7834   -1.7958   -0.2921 C   0  0  0  0  0  0  0  0  0  0  0  0
    6.2007   -2.6056   -1.3239 C   0  0  0  0  0  0  0  0  0  0  0  0
    5.3148   -2.8861   -2.3999 C   0  0  0  0  0  0  0  0  0  0  0  0
    5.4045   -3.6062   -3.5141 N   0  0  0  0  0  0  0  0  0  0  0  0
    4.1962   -3.5068   -4.1857 N   0  0  0  0  0  0  0  0  0  0  0  0
    3.3997   -2.7077   -3.4825 C   0  0  0  0  0  0  0  0  0  0  0  0
    4.0465   -2.2940   -2.3621 N   0  0  0  0  0  0  0  0  0  0  0  0
    3.6339   -1.4801   -1.3634 C   0  0  0  0  0  0  0  0  0  0  0  0
    0.6338    0.9152    1.6804 N   0  0  0  0  0  0  0  0  0  0  0  0
   -0.1076    1.7142    2.4702 N   0  0  0  0  0  0  0  0  0  0  0  0
    2.0052   -0.6132    0.2508 H   0  0  0  0  0  0  0  0  0  0  0  0
    0.2449    3.8210    5.0590 H   0  0  0  0  0  0  0  0  0  0  0  0
   -1.1170    2.7335    4.7857 H   0  0  0  0  0  0  0  0  0  0  0  0
   -0.8221    4.0759    3.6756 H   0  0  0  0  0  0  0  0  0  0  0  0
    2.3967    2.8736    4.4587 H   0  0  0  0  0  0  0  0  0  0  0  0
    3.7126    1.3457    2.9795 H   0  0  0  0  0  0  0  0  0  0  0  0
    4.3789   -0.7866    1.7994 H   0  0  0  0  0  0  0  0  0  0  0  0
    4.5345    0.6314    0.7703 H   0  0  0  0  0  0  0  0  0  0  0  0
    6.4616   -1.5981    0.5358 H   0  0  0  0  0  0  0  0  0  0  0  0
    7.1868   -3.0558   -1.3302 H   0  0  0  0  0  0  0  0  0  0  0  0
    2.3912   -2.4361   -3.7631 H   0  0  0  0  0  0  0  0  0  0  0  0
    2.6278   -1.0915   -1.4911 H   0  0  0  0  0  0  0  0  0  0  0  0
    0.1598    0.4451    0.9045 H   0  0  0  0  0  0  0  0  0  0  0  0
  1 20  1  0
  1 21  1  0
  1 22  1  0
  1  2  1  0
  2 18  2  0
  2  3  1  0
  3 23  1  0
  3  4  2  0
  4  5  1  0
  4 24  1  0
  5  6  1  0
  5 17  2  0
  6  7  1  0
  6 19  1  0
  7  8  1  0
  7 25  1  0
  7 26  1  0
  8 16  2  0
  8  9  1  0
  9 10  2  0
  9 27  1  0
 10 11  1  0
 10 28  1  0
 11 15  1  0
 11 12  2  0
 12 13  1  0
 13 14  2  0
 14 15  1  0
 14 29  1  0
 15 16  1  0
 16 30  1  0
 17 18  1  0
 17 31  1  0
M  CHG  1  17   1
M  END
>  <i_m_ct_stereo_status>  (370) 
1

>  <s_m_source_file>  (370) 
/var/tmp/pbs.5076255.sched01/tmp7onimy_i/150cvk1qxg3.sdf

>  <i_m_source_file_index>  (370) 
22

>  <i_lp_mmshare_version>  (370) 
48012

>  <i_f3d_flags>  (370) 
0

>  <s_epik_input>  (370) 
W0NIM11jMVtjSF1bY0hdL2MoW25IXW4xKT1OL1tDSDJdYyhbY0hdW2NIXTIpW2NIXW4oYzIzKVtjSF1ubjM=

>  <s_epik_cmdline>  (370) 
J2VwaWtfcHl0aG9uJywgJy1waHQnLCAnMi4wJywgJy1waCcsICc3LjAnLCAnLXRuJywgJzgnLCAnLW1hJywgJzIwMCcsICctaW1hZScsICc8aW5maWxlLm1hZT4nLCAnLW9tYWUnLCAnPG91dGZpbGUubWFlPic=

>  <r_lp_tautomer_probability>  (370) 
0.966961

>  <r_epik_Ionization_Penalty>  (370) 
2.4072

>  <r_epik_Ionization_Penalty_Charging>  (370) 
2.40715

>  <r_epik_Ionization_Penalty_Neutral>  (370) 
4.43879e-05

>  <r_epik_State_Penalty>  (370) 
1.77663

>  <r_epik_Charging_Adjusted_Penalty>  (370) 
4.18378

>  <i_epik_Tot_Q>  (370) 
1

>  <i_epik_Tot_abs_Q>  (370) 
1

>  <s_lp_Force_Field>  (370) 
OPLS3e

>  <r_lp_Energy>  (370) 
26.5612

>  <b_lp_Chiralities_Consistent>  (370) 
1

>  <s_lp_Variant>  (370) 
98:0-2

>  <s_i_glide_gridfile>  (370) 
pfpi4k_grid

>  <i_i_glide_lignum>  (370) 
22

>  <i_i_glide_rotatable_bonds>  (370) 
3

>  <r_i_docking_score>  (370) 
-4.52864

>  <r_i_glide_ligand_efficiency>  (370) 
-0.251591

>  <r_i_glide_ligand_efficiency_sa>  (370) 
-0.659355

>  <r_i_glide_ligand_efficiency_ln>  (370) 
-1.16406

>  <r_i_glide_gscore>  (370) 
-4.52864

>  <r_i_glide_lipo>  (370) 
-0.100161

>  <r_i_glide_hbond>  (370) 
-0.436769

>  <r_i_glide_metal>  (370) 
-0

>  <r_i_glide_rewards>  (370) 
-2.28198

>  <r_i_glide_evdw>  (370) 
-23.0231

>  <r_i_glide_ecoul>  (370) 
-8.60305

>  <r_i_glide_erotb>  (370) 
0.892648

>  <r_i_glide_esite>  (370) 
-0.16076

>  <r_i_glide_emodel>  (370) 
-42.4187

>  <r_i_glide_energy>  (370) 
-31.6262

>  <r_i_glide_einternal>  (370) 
0.934297

>  <r_i_glide_intrahb_reward>  (370) 
-0

>  <i_i_glide_confnum>  (370) 
2

>  <i_i_glide_posenum>  (370) 
1

>  <r_i_glide_eff_state_penalty>  (370) 
0

>  <ligand_id>  (370) 
98

>  <original_smiles>  (370) 
Cc1ccc(=NCc2ccc3nncn3c2)[nH]n1

>  <smiles>  (370) 
[H]c1c(C([H])([H])[H])n[n+]([H])c(N([H])C([H])([H])c2c([H])c([H])c3nnc([H])n3c2[H])c1[H]

$$$$
98:1:2
     RDKit          3D

 31 33  0  0  1  0  0  0  0  0999 V2000
    0.1743    3.9210    4.3564 C   0  0  0  0  0  0  0  0  0  0  0  0
    0.7440    2.8293    3.4786 C   0  0  0  0  0  0  0  0  0  0  0  0
   -0.0958    1.9966    2.7139 C   0  0  0  0  0  0  0  0  0  0  0  0
    0.5282    1.0175    1.9197 C   0  0  0  0  0  0  0  0  0  0  0  0
    1.9333    0.8987    1.9647 C   0  0  0  0  0  0  0  0  0  0  0  0
    2.5920   -0.0961    1.2264 N   0  0  0  0  0  0  0  0  0  0  0  0
    4.0504   -0.1774    1.1439 C   0  0  0  0  0  0  0  0  0  0  0  0
    4.5899   -1.0645    0.0215 C   0  0  0  0  0  0  0  0  0  0  0  0
    5.9336   -1.5296    0.0696 C   0  0  0  0  0  0  0  0  0  0  0  0
    6.4353   -2.3325   -0.9343 C   0  0  0  0  0  0  0  0  0  0  0  0
    5.5976   -2.7064   -2.0253 C   0  0  0  0  0  0  0  0  0  0  0  0
    5.7627   -3.4509   -3.1196 N   0  0  0  0  0  0  0  0  0  0  0  0
    4.5650   -3.4433   -3.8258 N   0  0  0  0  0  0  0  0  0  0  0  0
    3.7004   -2.6857   -3.1533 C   0  0  0  0  0  0  0  0  0  0  0  0
    4.2894   -2.2079   -2.0294 N   0  0  0  0  0  0  0  0  0  0  0  0
    3.7959   -1.4077   -1.0534 C   0  0  0  0  0  0  0  0  0  0  0  0
    2.6455    1.7603    2.7283 N   0  0  0  0  0  0  0  0  0  0  0  0
    2.0932    2.7171    3.4836 N   0  0  0  0  0  0  0  0  0  0  0  0
    2.0328   -0.6337    0.5709 H   0  0  0  0  0  0  0  0  0  0  0  0
   -0.9124    3.9519    4.3008 H   0  0  0  0  0  0  0  0  0  0  0  0
    0.5645    4.8919    4.0505 H   0  0  0  0  0  0  0  0  0  0  0  0
    0.4619    3.7490    5.3932 H   0  0  0  0  0  0  0  0  0  0  0  0
   -1.1700    2.1217    2.7065 H   0  0  0  0  0  0  0  0  0  0  0  0
   -0.0638    0.3759    1.2810 H   0  0  0  0  0  0  0  0  0  0  0  0
    4.4034   -0.5699    2.0991 H   0  0  0  0  0  0  0  0  0  0  0  0
    4.4853    0.8155    1.0163 H   0  0  0  0  0  0  0  0  0  0  0  0
    6.5772   -1.2552    0.9032 H   0  0  0  0  0  0  0  0  0  0  0  0
    7.4515   -2.7081   -0.9025 H   0  0  0  0  0  0  0  0  0  0  0  0
    2.6798   -2.4924   -3.4542 H   0  0  0  0  0  0  0  0  0  0  0  0
    2.7729   -1.0884   -1.2122 H   0  0  0  0  0  0  0  0  0  0  0  0
    3.6652    1.7028    2.7072 H   0  0  0  0  0  0  0  0  0  0  0  0
  1 20  1  0
  1 21  1  0
  1 22  1  0
  1  2  1  0
  2 18  2  0
  2  3  1  0
  3 23  1  0
  3  4  2  0
  4  5  1  0
  4 24  1  0
  5  6  1  0
  5 17  2  0
  6  7  1  0
  6 19  1  0
  7  8  1  0
  7 25  1  0
  7 26  1  0
  8 16  2  0
  8  9  1  0
  9 10  2  0
  9 27  1  0
 10 11  1  0
 10 28  1  0
 11 15  1  0
 11 12  2  0
 12 13  1  0
 13 14  2  0
 14 15  1  0
 14 29  1  0
 15 16  1  0
 16 30  1  0
 17 18  1  0
 17 31  1  0
M  CHG  1  17   1
M  END
>  <i_m_ct_stereo_status>  (371) 
1

>  <s_m_source_file>  (371) 
/var/tmp/pbs.5076255.sched01/tmp7onimy_i/150cvk1qxg3.sdf

>  <i_m_source_file_index>  (371) 
22

>  <i_lp_mmshare_version>  (371) 
48012

>  <i_f3d_flags>  (371) 
0

>  <s_epik_input>  (371) 
W0NIM11jMVtjSF1bY0hdL2MoW25IXW4xKT1OL1tDSDJdYyhbY0hdW2NIXTIpW2NIXW4oYzIzKVtjSF1ubjM=

>  <s_epik_cmdline>  (371) 
J2VwaWtfcHl0aG9uJywgJy1waHQnLCAnMi4wJywgJy1waCcsICc3LjAnLCAnLXRuJywgJzgnLCAnLW1hJywgJzIwMCcsICctaW1hZScsICc8aW5maWxlLm1hZT4nLCAnLW9tYWUnLCAnPG91dGZpbGUubWFlPic=

>  <r_lp_tautomer_probability>  (371) 
0.966961

>  <r_epik_Ionization_Penalty>  (371) 
2.4072

>  <r_epik_Ionization_Penalty_Charging>  (371) 
2.40715

>  <r_epik_Ionization_Penalty_Neutral>  (371) 
4.43879e-05

>  <r_epik_State_Penalty>  (371) 
1.77663

>  <r_epik_Charging_Adjusted_Penalty>  (371) 
4.18378

>  <i_epik_Tot_Q>  (371) 
1

>  <i_epik_Tot_abs_Q>  (371) 
1

>  <s_lp_Force_Field>  (371) 
OPLS3e

>  <r_lp_Energy>  (371) 
26.5612

>  <b_lp_Chiralities_Consistent>  (371) 
1

>  <s_lp_Variant>  (371) 
98:0-2

>  <s_i_glide_gridfile>  (371) 
pfpi4k_grid

>  <i_i_glide_lignum>  (371) 
22

>  <i_i_glide_rotatable_bonds>  (371) 
3

>  <r_i_docking_score>  (371) 
-3.87245

>  <r_i_glide_ligand_efficiency>  (371) 
-0.215136

>  <r_i_glide_ligand_efficiency_sa>  (371) 
-0.563816

>  <r_i_glide_ligand_efficiency_ln>  (371) 
-0.995394

>  <r_i_glide_gscore>  (371) 
-3.87245

>  <r_i_glide_lipo>  (371) 
-0.080451

>  <r_i_glide_hbond>  (371) 
-0.2

>  <r_i_glide_metal>  (371) 
-0

>  <r_i_glide_rewards>  (371) 
-1.95906

>  <r_i_glide_evdw>  (371) 
-24.4153

>  <r_i_glide_ecoul>  (371) 
-8.26398

>  <r_i_glide_erotb>  (371) 
0.892648

>  <r_i_glide_esite>  (371) 
-0.0652281

>  <r_i_glide_emodel>  (371) 
-41.7672

>  <r_i_glide_energy>  (371) 
-32.6793

>  <r_i_glide_einternal>  (371) 
1.11149

>  <r_i_glide_intrahb_reward>  (371) 
-0

>  <i_i_glide_confnum>  (371) 
2

>  <i_i_glide_posenum>  (371) 
8

>  <r_i_glide_eff_state_penalty>  (371) 
0

>  <ligand_id>  (371) 
98

>  <original_smiles>  (371) 
Cc1ccc(=NCc2ccc3nncn3c2)[nH]n1

>  <smiles>  (371) 
[H]c1c(C([H])([H])[H])n[n+]([H])c(N([H])C([H])([H])c2c([H])c([H])c3nnc([H])n3c2[H])c1[H]

$$$$
99:0:0
     RDKit          3D

 55 59  0  0  1  0  0  0  0  0999 V2000
   -2.3225    2.9580    4.4971 C   0  0  0  0  0  0  0  0  0  0  0  0
   -1.7659    2.9314    3.0570 C   0  0  0  0  0  0  0  0  0  0  0  0
   -0.3330    2.5389    2.9841 N   0  0  1  0  0  0  0  0  0  0  0  0
    0.5800    3.5808    3.5171 C   0  0  0  0  0  0  0  0  0  0  0  0
    2.0523    3.1954    3.3067 C   0  0  1  0  0  0  0  0  0  0  0  0
    2.8562    4.2221    3.8541 O   0  0  0  0  0  0  0  0  0  0  0  0
    2.3558    1.8204    3.9092 C   0  0  0  0  0  0  0  0  0  0  0  0
    3.4029    1.5874    4.7266 C   0  0  0  0  0  0  0  0  0  0  0  0
    3.7536    0.2326    5.2936 C   0  0  2  0  0  0  0  0  0  0  0  0
    4.2799    0.4489    6.5917 O   0  0  0  0  0  0  0  0  0  0  0  0
    4.8878   -0.4111    4.4449 C   0  0  0  0  0  0  0  0  0  0  0  0
    4.4679   -1.3147    3.3196 C   0  0  0  0  0  0  0  0  0  0  0  0
    4.8095   -2.6329    3.4711 O   0  0  0  0  0  0  0  0  0  0  0  0
    4.3355   -3.3002    2.3630 C   0  0  0  0  0  0  0  0  0  0  0  0
    4.4393   -4.6716    2.0877 C   0  0  0  0  0  0  0  0  0  0  0  0
    3.8771   -5.1643    0.8937 C   0  0  0  0  0  0  0  0  0  0  0  0
    3.2264   -4.2787    0.0114 C   0  0  0  0  0  0  0  0  0  0  0  0
    3.1332   -2.9030    0.3127 C   0  0  0  0  0  0  0  0  0  0  0  0
    3.6907   -2.3836    1.5037 C   0  0  0  0  0  0  0  0  0  0  0  0
    3.7857   -1.0995    2.1394 C   0  0  0  0  0  0  0  0  0  0  0  0
    3.2092    0.1731    1.5997 C   0  0  0  0  0  0  0  0  0  0  0  0
    1.7156    0.3952    1.9496 C   0  0  0  0  0  0  0  0  0  0  0  0
    1.4042    0.7092    3.4398 C   0  0  1  0  0  0  0  0  0  0  0  0
    1.5084   -0.6094    4.2811 C   0  0  0  0  0  0  0  0  0  0  0  0
    2.4678   -0.6039    5.4871 C   0  0  1  0  0  0  0  0  0  0  0  0
    2.7394   -1.9776    5.9486 C   0  0  0  0  0  0  0  0  0  0  0  0
    2.9527   -3.0542    6.3113 N   0  0  0  0  0  0  0  0  0  0  0  0
   -0.0655    1.1994    3.5745 C   0  0  0  0  0  0  0  0  0  0  0  0
   -3.3441    3.3399    4.5229 H   0  0  0  0  0  0  0  0  0  0  0  0
   -1.7185    3.5868    5.1584 H   0  0  0  0  0  0  0  0  0  0  0  0
   -2.3585    1.9553    4.9326 H   0  0  0  0  0  0  0  0  0  0  0  0
   -2.3597    2.2410    2.4545 H   0  0  0  0  0  0  0  0  0  0  0  0
   -1.8935    3.9078    2.5850 H   0  0  0  0  0  0  0  0  0  0  0  0
    0.3727    4.5276    3.0106 H   0  0  0  0  0  0  0  0  0  0  0  0
    0.4045    3.7376    4.5812 H   0  0  0  0  0  0  0  0  0  0  0  0
    2.2658    3.1460    2.2355 H   0  0  0  0  0  0  0  0  0  0  0  0
    2.8519    4.9502    3.2508 H   0  0  0  0  0  0  0  0  0  0  0  0
    4.0736    2.3903    4.9985 H   0  0  0  0  0  0  0  0  0  0  0  0
    4.5410   -0.3776    6.9701 H   0  0  0  0  0  0  0  0  0  0  0  0
    5.5833    0.3478    4.0824 H   0  0  0  0  0  0  0  0  0  0  0  0
    5.4853   -1.0291    5.1178 H   0  0  0  0  0  0  0  0  0  0  0  0
    4.9387   -5.3263    2.7820 H   0  0  0  0  0  0  0  0  0  0  0  0
    3.9473   -6.2155    0.6549 H   0  0  0  0  0  0  0  0  0  0  0  0
    2.7985   -4.6512   -0.9081 H   0  0  0  0  0  0  0  0  0  0  0  0
    2.6257   -2.2347   -0.3680 H   0  0  0  0  0  0  0  0  0  0  0  0
    3.8151    1.0298    1.8946 H   0  0  0  0  0  0  0  0  0  0  0  0
    3.2868    0.1435    0.5152 H   0  0  0  0  0  0  0  0  0  0  0  0
    1.3661    1.2222    1.3303 H   0  0  0  0  0  0  0  0  0  0  0  0
    1.1247   -0.4596    1.6172 H   0  0  0  0  0  0  0  0  0  0  0  0
    0.5272   -0.9063    4.6569 H   0  0  0  0  0  0  0  0  0  0  0  0
    1.7625   -1.4498    3.6404 H   0  0  0  0  0  0  0  0  0  0  0  0
    1.9164   -0.1464    6.3096 H   0  0  0  0  0  0  0  0  0  0  0  0
   -0.2751    1.2524    4.6429 H   0  0  0  0  0  0  0  0  0  0  0  0
   -0.7595    0.4696    3.1480 H   0  0  0  0  0  0  0  0  0  0  0  0
   -0.1288    2.4907    1.9907 H   0  0  0  0  0  0  0  0  0  0  0  0
  1  2  1  0
  1 29  1  0
  1 30  1  0
  1 31  1  0
  2  3  1  0
  2 32  1  0
  2 33  1  0
  3 28  1  0
  3  4  1  0
  3 55  1  6
  4  5  1  0
  4 34  1  0
  4 35  1  0
  5  6  1  0
  5  7  1  0
  5 36  1  6
  6 37  1  0
  7 23  1  0
  7  8  2  0
  8  9  1  0
  8 38  1  0
  9 25  1  0
  9 10  1  1
  9 11  1  0
 10 39  1  0
 11 12  1  0
 11 40  1  0
 11 41  1  0
 12 20  2  0
 12 13  1  0
 13 14  1  0
 14 19  2  0
 14 15  1  0
 15 16  2  0
 15 42  1  0
 16 17  1  0
 16 43  1  0
 17 18  2  0
 17 44  1  0
 18 19  1  0
 18 45  1  0
 19 20  1  0
 20 21  1  0
 21 22  1  0
 21 46  1  0
 21 47  1  0
 22 23  1  0
 22 48  1  0
 22 49  1  0
 23 24  1  0
 23 28  1  6
 24 25  1  0
 24 50  1  0
 24 51  1  0
 25 26  1  0
 25 52  1  1
 26 27  3  0
 28 53  1  0
 28 54  1  0
M  CHG  1   3   1
M  END
>  <i_m_ct_stereo_status>  (372) 
1

>  <s_m_source_file>  (372) 
/var/tmp/pbs.5076255.sched01/tmp7onimy_i/150cvk1qxg3.sdf

>  <i_m_source_file_index>  (372) 
23

>  <i_lp_mmshare_version>  (372) 
48012

>  <i_f3d_flags>  (372) 
0

>  <s_epik_input>  (372) 
W0NIM11bQ0gyXU4oW0NIMl0xKVtDSDJdW0NAQEhdKFtPSF0pQyhbQ0BAXTEyMyk9W0NIXVtDQEBdKFtPSF0pKFtDQEBIXShbQ0gyXTMpQyNOKVtDSDJdYzRjKFtDSDJdW0NIMl0yKWM1YyhvNClbY0hdW2NIXVtjSF1bY0hdNQ==

>  <s_epik_cmdline>  (372) 
J2VwaWtfcHl0aG9uJywgJy1waHQnLCAnMi4wJywgJy1waCcsICc3LjAnLCAnLXRuJywgJzgnLCAnLW1hJywgJzIwMCcsICctaW1hZScsICc8aW5maWxlLm1hZT4nLCAnLW9tYWUnLCAnPG91dGZpbGUubWFlPic=

>  <r_epik_Ionization_Penalty>  (372) 
0.0179584

>  <r_epik_Ionization_Penalty_Charging>  (372) 
0.017939

>  <r_epik_Ionization_Penalty_Neutral>  (372) 
1.93805e-05

>  <r_epik_State_Penalty>  (372) 
0.0142466

>  <r_epik_Charging_Adjusted_Penalty>  (372) 
0.0321856

>  <i_epik_Tot_Q>  (372) 
1

>  <i_epik_Tot_abs_Q>  (372) 
1

>  <s_lp_Force_Field>  (372) 
OPLS3e

>  <r_lp_Energy>  (372) 
47.6505

>  <b_lp_Chiralities_Consistent>  (372) 
1

>  <s_lp_Variant>  (372) 
99:0-1

>  <s_i_glide_gridfile>  (372) 
pfpi4k_grid

>  <i_i_glide_lignum>  (372) 
23

>  <i_i_glide_rotatable_bonds>  (372) 
4

>  <r_i_docking_score>  (372) 
-3.18882

>  <r_i_glide_ligand_efficiency>  (372) 
-0.113887

>  <r_i_glide_ligand_efficiency_sa>  (372) 
-0.345827

>  <r_i_glide_ligand_efficiency_ln>  (372) 
-0.736074

>  <r_i_glide_gscore>  (372) 
-3.18882

>  <r_i_glide_lipo>  (372) 
-0.187081

>  <r_i_glide_hbond>  (372) 
-0.0473066

>  <r_i_glide_metal>  (372) 
-0

>  <r_i_glide_rewards>  (372) 
-0.821781

>  <r_i_glide_evdw>  (372) 
-24.7819

>  <r_i_glide_ecoul>  (372) 
-5.35916

>  <r_i_glide_erotb>  (372) 
0

>  <r_i_glide_esite>  (372) 
-0.0896831

>  <r_i_glide_emodel>  (372) 
-35.9078

>  <r_i_glide_energy>  (372) 
-30.1411

>  <r_i_glide_einternal>  (372) 
3.24321

>  <r_i_glide_intrahb_reward>  (372) 
-0

>  <i_i_glide_confnum>  (372) 
1

>  <i_i_glide_posenum>  (372) 
10

>  <r_i_glide_eff_state_penalty>  (372) 
0

>  <ligand_id>  (372) 
99

>  <original_smiles>  (372) 
CCN1CC(O)C2=CC3(O)Cc4oc5ccccc5c4CCC2(CC3C#N)C1

>  <smiles>  (372) 
[H]OC1([H])C2=C([H])C3(O[H])C([H])([H])c4oc5c([H])c([H])c([H])c([H])c5c4C([H])([H])C([H])([H])C2(C([H])([H])C3([H])C#N)C([H])([H])[N+]([H])(C([H])([H])C([H])([H])[H])C1([H])[H]

$$$$
99:0:1
     RDKit          3D

 55 59  0  0  1  0  0  0  0  0999 V2000
   -2.3407    2.9482    4.4404 C   0  0  0  0  0  0  0  0  0  0  0  0
   -1.7568    2.9385    3.0105 C   0  0  0  0  0  0  0  0  0  0  0  0
   -0.3271    2.5292    2.9578 N   0  0  1  0  0  0  0  0  0  0  0  0
    0.5862    3.5557    3.5182 C   0  0  0  0  0  0  0  0  0  0  0  0
    2.0581    3.1598    3.3284 C   0  0  1  0  0  0  0  0  0  0  0  0
    2.8626    4.1703    3.9047 O   0  0  0  0  0  0  0  0  0  0  0  0
    2.3383    1.7754    3.9192 C   0  0  0  0  0  0  0  0  0  0  0  0
    3.3706    1.5251    4.7483 C   0  0  0  0  0  0  0  0  0  0  0  0
    3.6978    0.1593    5.3018 C   0  0  2  0  0  0  0  0  0  0  0  0
    4.2250    0.3418    6.6042 O   0  0  0  0  0  0  0  0  0  0  0  0
    4.8384   -0.4886    4.4658 C   0  0  0  0  0  0  0  0  0  0  0  0
    4.4297   -1.3740    3.3234 C   0  0  0  0  0  0  0  0  0  0  0  0
    4.7581   -2.6969    3.4633 O   0  0  0  0  0  0  0  0  0  0  0  0
    4.2956   -3.3468    2.3407 C   0  0  0  0  0  0  0  0  0  0  0  0
    4.3910   -4.7148    2.0507 C   0  0  0  0  0  0  0  0  0  0  0  0
    3.8418   -5.1903    0.8433 C   0  0  0  0  0  0  0  0  0  0  0  0
    3.2117   -4.2879   -0.0374 C   0  0  0  0  0  0  0  0  0  0  0  0
    3.1267   -2.9157    0.2776 C   0  0  0  0  0  0  0  0  0  0  0  0
    3.6711   -2.4138    1.4819 C   0  0  0  0  0  0  0  0  0  0  0  0
    3.7681   -1.1391    2.1339 C   0  0  0  0  0  0  0  0  0  0  0  0
    3.2110    0.1458    1.6008 C   0  0  0  0  0  0  0  0  0  0  0  0
    1.7150    0.3788    1.9316 C   0  0  0  0  0  0  0  0  0  0  0  0
    1.3839    0.6781    3.4209 C   0  0  1  0  0  0  0  0  0  0  0  0
    1.4641   -0.6523    4.2478 C   0  0  0  0  0  0  0  0  0  0  0  0
    2.4051   -0.6702    5.4687 C   0  0  1  0  0  0  0  0  0  0  0  0
    2.6586   -2.0532    5.9178 C   0  0  0  0  0  0  0  0  0  0  0  0
    2.8529   -3.1363    6.2687 N   0  0  0  0  0  0  0  0  0  0  0  0
   -0.0832    1.1798    3.5372 C   0  0  0  0  0  0  0  0  0  0  0  0
   -3.3571    3.3430    4.4531 H   0  0  0  0  0  0  0  0  0  0  0  0
   -1.7410    3.5572    5.1228 H   0  0  0  0  0  0  0  0  0  0  0  0
   -2.3962    1.9382    4.8555 H   0  0  0  0  0  0  0  0  0  0  0  0
   -2.3471    2.2664    2.3852 H   0  0  0  0  0  0  0  0  0  0  0  0
   -1.8626    3.9249    2.5538 H   0  0  0  0  0  0  0  0  0  0  0  0
    0.3978    4.5110    3.0206 H   0  0  0  0  0  0  0  0  0  0  0  0
    0.3933    3.7013    4.5812 H   0  0  0  0  0  0  0  0  0  0  0  0
    2.2904    3.1212    2.2602 H   0  0  0  0  0  0  0  0  0  0  0  0
    2.8661    4.9122    3.3183 H   0  0  0  0  0  0  0  0  0  0  0  0
    4.0485    2.3179    5.0345 H   0  0  0  0  0  0  0  0  0  0  0  0
    3.5911    0.7857    7.1470 H   0  0  0  0  0  0  0  0  0  0  0  0
    5.5515    0.2652    4.1271 H   0  0  0  0  0  0  0  0  0  0  0  0
    5.4150   -1.1207    5.1441 H   0  0  0  0  0  0  0  0  0  0  0  0
    4.8751   -5.3831    2.7442 H   0  0  0  0  0  0  0  0  0  0  0  0
    3.9071   -6.2390    0.5926 H   0  0  0  0  0  0  0  0  0  0  0  0
    2.7934   -4.6456   -0.9678 H   0  0  0  0  0  0  0  0  0  0  0  0
    2.6343   -2.2361   -0.4034 H   0  0  0  0  0  0  0  0  0  0  0  0
    3.8157    0.9944    1.9173 H   0  0  0  0  0  0  0  0  0  0  0  0
    3.3066    0.1335    0.5170 H   0  0  0  0  0  0  0  0  0  0  0  0
    1.3848    1.2172    1.3180 H   0  0  0  0  0  0  0  0  0  0  0  0
    1.1216   -0.4651    1.5783 H   0  0  0  0  0  0  0  0  0  0  0  0
    0.4754   -0.9465    4.6050 H   0  0  0  0  0  0  0  0  0  0  0  0
    1.7212   -1.4875    3.6020 H   0  0  0  0  0  0  0  0  0  0  0  0
    1.8427   -0.2219    6.2871 H   0  0  0  0  0  0  0  0  0  0  0  0
   -0.3125    1.2229    4.6022 H   0  0  0  0  0  0  0  0  0  0  0  0
   -0.7770    0.4630    3.0898 H   0  0  0  0  0  0  0  0  0  0  0  0
   -0.1059    2.4900    1.9680 H   0  0  0  0  0  0  0  0  0  0  0  0
  1  2  1  0
  1 29  1  0
  1 30  1  0
  1 31  1  0
  2  3  1  0
  2 32  1  0
  2 33  1  0
  3 28  1  0
  3  4  1  0
  3 55  1  6
  4  5  1  0
  4 34  1  0
  4 35  1  0
  5  6  1  0
  5  7  1  0
  5 36  1  6
  6 37  1  0
  7 23  1  0
  7  8  2  0
  8  9  1  0
  8 38  1  0
  9 25  1  0
  9 10  1  1
  9 11  1  0
 10 39  1  0
 11 12  1  0
 11 40  1  0
 11 41  1  0
 12 20  2  0
 12 13  1  0
 13 14  1  0
 14 19  2  0
 14 15  1  0
 15 16  2  0
 15 42  1  0
 16 17  1  0
 16 43  1  0
 17 18  2  0
 17 44  1  0
 18 19  1  0
 18 45  1  0
 19 20  1  0
 20 21  1  0
 21 22  1  0
 21 46  1  0
 21 47  1  0
 22 23  1  0
 22 48  1  0
 22 49  1  0
 23 24  1  0
 23 28  1  6
 24 25  1  0
 24 50  1  0
 24 51  1  0
 25 26  1  0
 25 52  1  1
 26 27  3  0
 28 53  1  0
 28 54  1  0
M  CHG  1   3   1
M  END
>  <i_m_ct_stereo_status>  (373) 
1

>  <s_m_source_file>  (373) 
/var/tmp/pbs.5076255.sched01/tmp7onimy_i/150cvk1qxg3.sdf

>  <i_m_source_file_index>  (373) 
23

>  <i_lp_mmshare_version>  (373) 
48012

>  <i_f3d_flags>  (373) 
0

>  <s_epik_input>  (373) 
W0NIM11bQ0gyXU4oW0NIMl0xKVtDSDJdW0NAQEhdKFtPSF0pQyhbQ0BAXTEyMyk9W0NIXVtDQEBdKFtPSF0pKFtDQEBIXShbQ0gyXTMpQyNOKVtDSDJdYzRjKFtDSDJdW0NIMl0yKWM1YyhvNClbY0hdW2NIXVtjSF1bY0hdNQ==

>  <s_epik_cmdline>  (373) 
J2VwaWtfcHl0aG9uJywgJy1waHQnLCAnMi4wJywgJy1waCcsICc3LjAnLCAnLXRuJywgJzgnLCAnLW1hJywgJzIwMCcsICctaW1hZScsICc8aW5maWxlLm1hZT4nLCAnLW9tYWUnLCAnPG91dGZpbGUubWFlPic=

>  <r_epik_Ionization_Penalty>  (373) 
0.0179584

>  <r_epik_Ionization_Penalty_Charging>  (373) 
0.017939

>  <r_epik_Ionization_Penalty_Neutral>  (373) 
1.93805e-05

>  <r_epik_State_Penalty>  (373) 
0.0142466

>  <r_epik_Charging_Adjusted_Penalty>  (373) 
0.0321856

>  <i_epik_Tot_Q>  (373) 
1

>  <i_epik_Tot_abs_Q>  (373) 
1

>  <s_lp_Force_Field>  (373) 
OPLS3e

>  <r_lp_Energy>  (373) 
47.6505

>  <b_lp_Chiralities_Consistent>  (373) 
1

>  <s_lp_Variant>  (373) 
99:0-1

>  <s_i_glide_gridfile>  (373) 
pfpi4k_grid

>  <i_i_glide_lignum>  (373) 
23

>  <i_i_glide_rotatable_bonds>  (373) 
4

>  <r_i_docking_score>  (373) 
-3.17293

>  <r_i_glide_ligand_efficiency>  (373) 
-0.113319

>  <r_i_glide_ligand_efficiency_sa>  (373) 
-0.344103

>  <r_i_glide_ligand_efficiency_ln>  (373) 
-0.732404

>  <r_i_glide_gscore>  (373) 
-3.17293

>  <r_i_glide_lipo>  (373) 
-0.163171

>  <r_i_glide_hbond>  (373) 
-0.0502329

>  <r_i_glide_metal>  (373) 
-0

>  <r_i_glide_rewards>  (373) 
-0.821781

>  <r_i_glide_evdw>  (373) 
-24.6004

>  <r_i_glide_ecoul>  (373) 
-5.44255

>  <r_i_glide_erotb>  (373) 
0

>  <r_i_glide_esite>  (373) 
-0.0913404

>  <r_i_glide_emodel>  (373) 
-35.8856

>  <r_i_glide_energy>  (373) 
-30.0429

>  <r_i_glide_einternal>  (373) 
3.02361

>  <r_i_glide_intrahb_reward>  (373) 
-0

>  <i_i_glide_confnum>  (373) 
2

>  <i_i_glide_posenum>  (373) 
13

>  <r_i_glide_eff_state_penalty>  (373) 
0

>  <ligand_id>  (373) 
99

>  <original_smiles>  (373) 
CCN1CC(O)C2=CC3(O)Cc4oc5ccccc5c4CCC2(CC3C#N)C1

>  <smiles>  (373) 
[H]OC1([H])C2=C([H])C3(O[H])C([H])([H])c4oc5c([H])c([H])c([H])c([H])c5c4C([H])([H])C([H])([H])C2(C([H])([H])C3([H])C#N)C([H])([H])[N+]([H])(C([H])([H])C([H])([H])[H])C1([H])[H]

$$$$
99:0:2
     RDKit          3D

 55 59  0  0  1  0  0  0  0  0999 V2000
   -4.5342    4.5644    1.8814 C   0  0  0  0  0  0  0  0  0  0  0  0
   -3.7355    3.2515    2.1611 C   0  0  0  0  0  0  0  0  0  0  0  0
   -2.3874    3.3388    2.8117 N   0  0  1  0  0  0  0  0  0  0  0  0
   -1.8653    4.7004    2.9738 C   0  0  0  0  0  0  0  0  0  0  0  0
   -0.4840    4.7929    3.6146 C   0  0  1  0  0  0  0  0  0  0  0  0
   -0.1669    6.1489    3.8264 O   0  0  0  0  0  0  0  0  0  0  0  0
   -0.3941    3.9954    4.8953 C   0  0  0  0  0  0  0  0  0  0  0  0
    0.1391    4.4926    6.0291 C   0  0  0  0  0  0  0  0  0  0  0  0
    0.3259    3.6856    7.2802 C   0  0  2  0  0  0  0  0  0  0  0  0
    0.1298    4.5684    8.3700 O   0  0  0  0  0  0  0  0  0  0  0  0
    1.7947    3.1809    7.3436 C   0  0  0  0  0  0  0  0  0  0  0  0
    2.0736    1.8170    6.7778 C   0  0  0  0  0  0  0  0  0  0  0  0
    2.4524    0.8713    7.6931 O   0  0  0  0  0  0  0  0  0  0  0  0
    2.6553   -0.3079    6.9987 C   0  0  0  0  0  0  0  0  0  0  0  0
    3.0400   -1.5482    7.5205 C   0  0  0  0  0  0  0  0  0  0  0  0
    3.1833   -2.6454    6.6419 C   0  0  0  0  0  0  0  0  0  0  0  0
    2.9354   -2.4639    5.2636 C   0  0  0  0  0  0  0  0  0  0  0  0
    2.5487   -1.1976    4.7670 C   0  0  0  0  0  0  0  0  0  0  0  0
    2.3978   -0.0826    5.6290 C   0  0  0  0  0  0  0  0  0  0  0  0
    2.0216    1.2980    5.5015 C   0  0  0  0  0  0  0  0  0  0  0  0
    1.6278    1.9796    4.2249 C   0  0  0  0  0  0  0  0  0  0  0  0
    0.1326    1.7954    3.8532 C   0  0  0  0  0  0  0  0  0  0  0  0
   -0.8910    2.5599    4.7461 C   0  0  1  0  0  0  0  0  0  0  0  0
   -1.0473    1.8105    6.1097 C   0  0  0  0  0  0  0  0  0  0  0  0
   -0.7844    2.6207    7.3957 C   0  0  1  0  0  0  0  0  0  0  0  0
   -0.6067    1.7194    8.5463 C   0  0  0  0  0  0  0  0  0  0  0  0
   -0.4698    1.0036    9.4420 N   0  0  0  0  0  0  0  0  0  0  0  0
   -2.2871    2.5481    4.0654 C   0  0  0  0  0  0  0  0  0  0  0  0
   -5.4595    4.3567    1.3343 H   0  0  0  0  0  0  0  0  0  0  0  0
   -4.0031    5.3093    1.2768 H   0  0  0  0  0  0  0  0  0  0  0  0
   -4.8427    5.0588    2.8015 H   0  0  0  0  0  0  0  0  0  0  0  0
   -4.3949    2.6162    2.7346 H   0  0  0  0  0  0  0  0  0  0  0  0
   -3.6202    2.6966    1.2414 H   0  0  0  0  0  0  0  0  0  0  0  0
   -1.8329    5.2715    2.0468 H   0  0  0  0  0  0  0  0  0  0  0  0
   -2.5905    5.1174    3.6447 H   0  0  0  0  0  0  0  0  0  0  0  0
    0.2441    4.3870    2.9061 H   0  0  0  0  0  0  0  0  0  0  0  0
    0.0257    6.6036    3.0083 H   0  0  0  0  0  0  0  0  0  0  0  0
    0.5004    5.5106    6.0765 H   0  0  0  0  0  0  0  0  0  0  0  0
    0.3289    4.1216    9.1777 H   0  0  0  0  0  0  0  0  0  0  0  0
    2.4855    3.9125    6.9200 H   0  0  0  0  0  0  0  0  0  0  0  0
    2.0653    3.1239    8.3960 H   0  0  0  0  0  0  0  0  0  0  0  0
    3.2207   -1.6572    8.5782 H   0  0  0  0  0  0  0  0  0  0  0  0
    3.4820   -3.6118    7.0228 H   0  0  0  0  0  0  0  0  0  0  0  0
    3.0430   -3.2966    4.5806 H   0  0  0  0  0  0  0  0  0  0  0  0
    2.3602   -1.0669    3.7128 H   0  0  0  0  0  0  0  0  0  0  0  0
    1.9177    3.0314    4.2341 H   0  0  0  0  0  0  0  0  0  0  0  0
    2.2129    1.5499    3.4164 H   0  0  0  0  0  0  0  0  0  0  0  0
    0.0274    2.1352    2.8235 H   0  0  0  0  0  0  0  0  0  0  0  0
   -0.1179    0.7331    3.8129 H   0  0  0  0  0  0  0  0  0  0  0  0
   -2.0463    1.3766    6.1988 H   0  0  0  0  0  0  0  0  0  0  0  0
   -0.4148    0.9249    6.1270 H   0  0  0  0  0  0  0  0  0  0  0  0
   -1.7076    3.1537    7.6106 H   0  0  0  0  0  0  0  0  0  0  0  0
   -3.0290    2.9311    4.7679 H   0  0  0  0  0  0  0  0  0  0  0  0
   -2.5465    1.5105    3.8688 H   0  0  0  0  0  0  0  0  0  0  0  0
   -1.7280    2.9208    2.1632 H   0  0  0  0  0  0  0  0  0  0  0  0
  1  2  1  0
  1 29  1  0
  1 30  1  0
  1 31  1  0
  2  3  1  0
  2 32  1  0
  2 33  1  0
  3 28  1  0
  3  4  1  0
  3 55  1  6
  4  5  1  0
  4 34  1  0
  4 35  1  0
  5  6  1  0
  5  7  1  0
  5 36  1  6
  6 37  1  0
  7 23  1  0
  7  8  2  0
  8  9  1  0
  8 38  1  0
  9 25  1  0
  9 10  1  1
  9 11  1  0
 10 39  1  0
 11 12  1  0
 11 40  1  0
 11 41  1  0
 12 20  2  0
 12 13  1  0
 13 14  1  0
 14 19  2  0
 14 15  1  0
 15 16  2  0
 15 42  1  0
 16 17  1  0
 16 43  1  0
 17 18  2  0
 17 44  1  0
 18 19  1  0
 18 45  1  0
 19 20  1  0
 20 21  1  0
 21 22  1  0
 21 46  1  0
 21 47  1  0
 22 23  1  0
 22 48  1  0
 22 49  1  0
 23 24  1  0
 23 28  1  6
 24 25  1  0
 24 50  1  0
 24 51  1  0
 25 26  1  0
 25 52  1  1
 26 27  3  0
 28 53  1  0
 28 54  1  0
M  CHG  1   3   1
M  END
>  <i_m_ct_stereo_status>  (374) 
1

>  <s_m_source_file>  (374) 
/var/tmp/pbs.5076255.sched01/tmp7onimy_i/150cvk1qxg3.sdf

>  <i_m_source_file_index>  (374) 
23

>  <i_lp_mmshare_version>  (374) 
48012

>  <i_f3d_flags>  (374) 
0

>  <s_epik_input>  (374) 
W0NIM11bQ0gyXU4oW0NIMl0xKVtDSDJdW0NAQEhdKFtPSF0pQyhbQ0BAXTEyMyk9W0NIXVtDQEBdKFtPSF0pKFtDQEBIXShbQ0gyXTMpQyNOKVtDSDJdYzRjKFtDSDJdW0NIMl0yKWM1YyhvNClbY0hdW2NIXVtjSF1bY0hdNQ==

>  <s_epik_cmdline>  (374) 
J2VwaWtfcHl0aG9uJywgJy1waHQnLCAnMi4wJywgJy1waCcsICc3LjAnLCAnLXRuJywgJzgnLCAnLW1hJywgJzIwMCcsICctaW1hZScsICc8aW5maWxlLm1hZT4nLCAnLW9tYWUnLCAnPG91dGZpbGUubWFlPic=

>  <r_epik_Ionization_Penalty>  (374) 
0.0179584

>  <r_epik_Ionization_Penalty_Charging>  (374) 
0.017939

>  <r_epik_Ionization_Penalty_Neutral>  (374) 
1.93805e-05

>  <r_epik_State_Penalty>  (374) 
0.0142466

>  <r_epik_Charging_Adjusted_Penalty>  (374) 
0.0321856

>  <i_epik_Tot_Q>  (374) 
1

>  <i_epik_Tot_abs_Q>  (374) 
1

>  <s_lp_Force_Field>  (374) 
OPLS3e

>  <r_lp_Energy>  (374) 
47.6505

>  <b_lp_Chiralities_Consistent>  (374) 
1

>  <s_lp_Variant>  (374) 
99:0-1

>  <s_i_glide_gridfile>  (374) 
pfpi4k_grid

>  <i_i_glide_lignum>  (374) 
23

>  <i_i_glide_rotatable_bonds>  (374) 
4

>  <r_i_docking_score>  (374) 
-2.45668

>  <r_i_glide_ligand_efficiency>  (374) 
-0.0877386

>  <r_i_glide_ligand_efficiency_sa>  (374) 
-0.266426

>  <r_i_glide_ligand_efficiency_ln>  (374) 
-0.567074

>  <r_i_glide_gscore>  (374) 
-2.45668

>  <r_i_glide_lipo>  (374) 
-0.130242

>  <r_i_glide_hbond>  (374) 
-0.141463

>  <r_i_glide_metal>  (374) 
-0

>  <r_i_glide_rewards>  (374) 
-0.821781

>  <r_i_glide_evdw>  (374) 
-11.5335

>  <r_i_glide_ecoul>  (374) 
-4.71692

>  <r_i_glide_erotb>  (374) 
0

>  <r_i_glide_esite>  (374) 
-0.0789804

>  <r_i_glide_emodel>  (374) 
-16.8959

>  <r_i_glide_energy>  (374) 
-16.2504

>  <r_i_glide_einternal>  (374) 
8.79923

>  <r_i_glide_intrahb_reward>  (374) 
-0

>  <i_i_glide_confnum>  (374) 
1

>  <i_i_glide_posenum>  (374) 
11

>  <r_i_glide_eff_state_penalty>  (374) 
0

>  <ligand_id>  (374) 
99

>  <original_smiles>  (374) 
CCN1CC(O)C2=CC3(O)Cc4oc5ccccc5c4CCC2(CC3C#N)C1

>  <smiles>  (374) 
[H]OC1([H])C2=C([H])C3(O[H])C([H])([H])c4oc5c([H])c([H])c([H])c([H])c5c4C([H])([H])C([H])([H])C2(C([H])([H])C3([H])C#N)C([H])([H])[N+]([H])(C([H])([H])C([H])([H])[H])C1([H])[H]

$$$$
99:1:0
     RDKit          3D

 54 58  0  0  1  0  0  0  0  0999 V2000
    5.7935   -2.0490    1.1300 C   0  0  0  0  0  0  0  0  0  0  0  0
    4.5852   -2.1032    2.0889 C   0  0  0  0  0  0  0  0  0  0  0  0
    4.0006   -3.4309    2.2992 N   0  0  0  0  0  0  0  0  0  0  0  0
    3.3652   -3.9576    1.0912 C   0  0  0  0  0  0  0  0  0  0  0  0
    2.6941   -5.3177    1.3137 C   0  0  1  0  0  0  0  0  0  0  0  0
    2.1287   -5.7630    0.0932 O   0  0  0  0  0  0  0  0  0  0  0  0
    3.6849   -6.3083    1.9317 C   0  0  0  0  0  0  0  0  0  0  0  0
    3.9277   -7.5375    1.4364 C   0  0  0  0  0  0  0  0  0  0  0  0
    4.8604   -8.5316    2.1027 C   0  0  2  0  0  0  0  0  0  0  0  0
    5.3491   -9.4250    1.1142 O   0  0  0  0  0  0  0  0  0  0  0  0
    4.1407   -9.3530    3.2247 C   0  0  0  0  0  0  0  0  0  0  0  0
    2.7112   -8.9523    3.4641 C   0  0  0  0  0  0  0  0  0  0  0  0
    1.7740   -9.6460    2.7475 O   0  0  0  0  0  0  0  0  0  0  0  0
    0.5577   -9.0536    3.0011 C   0  0  0  0  0  0  0  0  0  0  0  0
   -0.6890   -9.4161    2.4798 C   0  0  0  0  0  0  0  0  0  0  0  0
   -1.8151   -8.6631    2.8489 C   0  0  0  0  0  0  0  0  0  0  0  0
   -1.6804   -7.5775    3.7371 C   0  0  0  0  0  0  0  0  0  0  0  0
   -0.4133   -7.2300    4.2500 C   0  0  0  0  0  0  0  0  0  0  0  0
    0.7417   -7.9689    3.8914 C   0  0  0  0  0  0  0  0  0  0  0  0
    2.1480   -7.9183    4.1858 C   0  0  0  0  0  0  0  0  0  0  0  0
    2.8335   -6.9223    5.0786 C   0  0  0  0  0  0  0  0  0  0  0  0
    3.3779   -5.6384    4.3927 C   0  0  0  0  0  0  0  0  0  0  0  0
    4.3844   -5.7825    3.2047 C   0  0  1  0  0  0  0  0  0  0  0  0
    5.5991   -6.6620    3.6557 C   0  0  0  0  0  0  0  0  0  0  0  0
    6.0619   -7.7255    2.6426 C   0  0  1  0  0  0  0  0  0  0  0  0
    7.1250   -8.5696    3.2255 C   0  0  0  0  0  0  0  0  0  0  0  0
    7.9541   -9.2278    3.6884 N   0  0  0  0  0  0  0  0  0  0  0  0
    4.9579   -4.3798    2.8731 C   0  0  0  0  0  0  0  0  0  0  0  0
    6.1055   -1.0223    0.9448 H   0  0  0  0  0  0  0  0  0  0  0  0
    5.5714   -2.4940    0.1600 H   0  0  0  0  0  0  0  0  0  0  0  0
    6.6514   -2.5774    1.5455 H   0  0  0  0  0  0  0  0  0  0  0  0
    4.8924   -1.6948    3.0542 H   0  0  0  0  0  0  0  0  0  0  0  0
    3.8093   -1.4240    1.7276 H   0  0  0  0  0  0  0  0  0  0  0  0
    2.6229   -3.2386    0.7371 H   0  0  0  0  0  0  0  0  0  0  0  0
    4.1016   -4.0680    0.2959 H   0  0  0  0  0  0  0  0  0  0  0  0
    1.8649   -5.1987    2.0081 H   0  0  0  0  0  0  0  0  0  0  0  0
    2.7932   -5.7624   -0.5842 H   0  0  0  0  0  0  0  0  0  0  0  0
    3.4301   -7.8871    0.5488 H   0  0  0  0  0  0  0  0  0  0  0  0
    4.7276  -10.1355    0.9848 H   0  0  0  0  0  0  0  0  0  0  0  0
    4.1453  -10.4080    2.9538 H   0  0  0  0  0  0  0  0  0  0  0  0
    4.6907   -9.3141    4.1658 H   0  0  0  0  0  0  0  0  0  0  0  0
   -0.7750  -10.2590    1.8093 H   0  0  0  0  0  0  0  0  0  0  0  0
   -2.7782   -8.9458    2.4590 H   0  0  0  0  0  0  0  0  0  0  0  0
   -2.5555   -7.0194    4.0405 H   0  0  0  0  0  0  0  0  0  0  0  0
   -0.3100   -6.4029    4.9319 H   0  0  0  0  0  0  0  0  0  0  0  0
    2.1163   -6.5953    5.8289 H   0  0  0  0  0  0  0  0  0  0  0  0
    3.6084   -7.4176    5.6629 H   0  0  0  0  0  0  0  0  0  0  0  0
    2.5251   -5.0435    4.0712 H   0  0  0  0  0  0  0  0  0  0  0  0
    3.8452   -5.0330    5.1706 H   0  0  0  0  0  0  0  0  0  0  0  0
    6.4537   -6.0368    3.9229 H   0  0  0  0  0  0  0  0  0  0  0  0
    5.3883   -7.1842    4.5849 H   0  0  0  0  0  0  0  0  0  0  0  0
    6.5379   -7.2145    1.8058 H   0  0  0  0  0  0  0  0  0  0  0  0
    5.7770   -4.5286    2.1722 H   0  0  0  0  0  0  0  0  0  0  0  0
    5.4028   -3.9410    3.7702 H   0  0  0  0  0  0  0  0  0  0  0  0
  1  2  1  0
  1 29  1  0
  1 30  1  0
  1 31  1  0
  2  3  1  0
  2 32  1  0
  2 33  1  0
  3 28  1  0
  3  4  1  0
  4  5  1  0
  4 34  1  0
  4 35  1  0
  5  6  1  0
  5  7  1  0
  5 36  1  1
  6 37  1  0
  7 23  1  0
  7  8  2  0
  8  9  1  0
  8 38  1  0
  9 25  1  0
  9 10  1  6
  9 11  1  0
 10 39  1  0
 11 12  1  0
 11 40  1  0
 11 41  1  0
 12 20  2  0
 12 13  1  0
 13 14  1  0
 14 19  2  0
 14 15  1  0
 15 16  2  0
 15 42  1  0
 16 17  1  0
 16 43  1  0
 17 18  2  0
 17 44  1  0
 18 19  1  0
 18 45  1  0
 19 20  1  0
 20 21  1  0
 21 22  1  0
 21 46  1  0
 21 47  1  0
 22 23  1  0
 22 48  1  0
 22 49  1  0
 23 24  1  0
 23 28  1  6
 24 25  1  0
 24 50  1  0
 24 51  1  0
 25 26  1  0
 25 52  1  6
 26 27  3  0
 28 53  1  0
 28 54  1  0
M  END
>  <i_m_ct_stereo_status>  (375) 
1

>  <s_m_source_file>  (375) 
/var/tmp/pbs.5076255.sched01/tmp7onimy_i/150cvk1qxg3.sdf

>  <i_m_source_file_index>  (375) 
24

>  <i_lp_mmshare_version>  (375) 
48012

>  <i_f3d_flags>  (375) 
0

>  <s_epik_input>  (375) 
W0NIM11bQ0gyXU4oW0NIMl0xKVtDSDJdW0NAQEhdKFtPSF0pQyhbQ0BAXTEyMyk9W0NIXVtDQEBdKFtPSF0pKFtDQEBIXShbQ0gyXTMpQyNOKVtDSDJdYzRjKFtDSDJdW0NIMl0yKWM1YyhvNClbY0hdW2NIXVtjSF1bY0hdNQ==

>  <s_epik_cmdline>  (375) 
J2VwaWtfcHl0aG9uJywgJy1waHQnLCAnMi4wJywgJy1waCcsICc3LjAnLCAnLXRuJywgJzgnLCAnLW1hJywgJzIwMCcsICctaW1hZScsICc8aW5maWxlLm1hZT4nLCAnLW9tYWUnLCAnPG91dGZpbGUubWFlPic=

>  <r_epik_Ionization_Penalty>  (375) 
2.08108

>  <r_epik_Ionization_Penalty_Charging>  (375) 
0

>  <r_epik_Ionization_Penalty_Neutral>  (375) 
2.08108

>  <r_epik_State_Penalty>  (375) 
2.21578

>  <r_epik_Charging_Adjusted_Penalty>  (375) 
2.21578

>  <i_epik_Tot_Q>  (375) 
0

>  <i_epik_Tot_abs_Q>  (375) 
0

>  <s_lp_Force_Field>  (375) 
OPLS3e

>  <r_lp_Energy>  (375) 
45.5044

>  <b_lp_Chiralities_Consistent>  (375) 
1

>  <s_lp_Variant>  (375) 
99:0-2

>  <s_i_glide_gridfile>  (375) 
pfpi4k_grid

>  <i_i_glide_lignum>  (375) 
24

>  <i_i_glide_rotatable_bonds>  (375) 
4

>  <r_i_docking_score>  (375) 
-3.6962

>  <r_i_glide_ligand_efficiency>  (375) 
-0.132007

>  <r_i_glide_ligand_efficiency_sa>  (375) 
-0.400851

>  <r_i_glide_ligand_efficiency_ln>  (375) 
-0.853191

>  <r_i_glide_gscore>  (375) 
-3.6962

>  <r_i_glide_lipo>  (375) 
-0.396392

>  <r_i_glide_hbond>  (375) 
-0.347268

>  <r_i_glide_metal>  (375) 
-0

>  <r_i_glide_rewards>  (375) 
-0.883905

>  <r_i_glide_evdw>  (375) 
-23.5662

>  <r_i_glide_ecoul>  (375) 
-5.93548

>  <r_i_glide_erotb>  (375) 
0

>  <r_i_glide_esite>  (375) 
0

>  <r_i_glide_emodel>  (375) 
-34.561

>  <r_i_glide_energy>  (375) 
-29.5017

>  <r_i_glide_einternal>  (375) 
5.03465

>  <r_i_glide_intrahb_reward>  (375) 
-0

>  <i_i_glide_confnum>  (375) 
1

>  <i_i_glide_posenum>  (375) 
6

>  <r_i_glide_eff_state_penalty>  (375) 
0

>  <ligand_id>  (375) 
99

>  <original_smiles>  (375) 
CCN1CC(O)C2=CC3(O)Cc4oc5ccccc5c4CCC2(CC3C#N)C1

>  <smiles>  (375) 
[H]OC1([H])C2=C([H])C3(O[H])C([H])([H])c4oc5c([H])c([H])c([H])c([H])c5c4C([H])([H])C([H])([H])C2(C([H])([H])N(C([H])([H])C([H])([H])[H])C1([H])[H])C([H])([H])C3([H])C#N

$$$$
99:1:1
     RDKit          3D

 54 58  0  0  1  0  0  0  0  0999 V2000
    4.2521   -9.0555    0.8744 C   0  0  0  0  0  0  0  0  0  0  0  0
    2.8922   -9.5070    1.4295 C   0  0  0  0  0  0  0  0  0  0  0  0
    2.4333   -8.7397    2.5856 N   0  0  0  0  0  0  0  0  0  0  0  0
    0.9997   -8.9229    2.8244 C   0  0  0  0  0  0  0  0  0  0  0  0
    0.4999   -8.1050    4.0330 C   0  0  1  0  0  0  0  0  0  0  0  0
   -0.8911   -8.3066    4.2368 O   0  0  0  0  0  0  0  0  0  0  0  0
    1.3357   -8.4070    5.2771 C   0  0  0  0  0  0  0  0  0  0  0  0
    0.8016   -8.7397    6.4655 C   0  0  0  0  0  0  0  0  0  0  0  0
    1.6450   -9.0012    7.6928 C   0  0  2  0  0  0  0  0  0  0  0  0
    0.9185   -9.8558    8.5525 O   0  0  0  0  0  0  0  0  0  0  0  0
    1.9832   -7.6765    8.4586 C   0  0  0  0  0  0  0  0  0  0  0  0
    1.4846   -6.4296    7.7915 C   0  0  0  0  0  0  0  0  0  0  0  0
    0.2473   -5.9939    8.1832 O   0  0  0  0  0  0  0  0  0  0  0  0
   -0.0713   -4.9221    7.3783 C   0  0  0  0  0  0  0  0  0  0  0  0
   -1.2510   -4.1574    7.4049 C   0  0  0  0  0  0  0  0  0  0  0  0
   -1.3846   -3.1012    6.4872 C   0  0  0  0  0  0  0  0  0  0  0  0
   -0.3597   -2.8359    5.5541 C   0  0  0  0  0  0  0  0  0  0  0  0
    0.8079   -3.6268    5.5423 C   0  0  0  0  0  0  0  0  0  0  0  0
    0.9820   -4.6917    6.4658 C   0  0  0  0  0  0  0  0  0  0  0  0
    1.9890   -5.6767    6.7468 C   0  0  0  0  0  0  0  0  0  0  0  0
    3.2969   -5.8354    6.0278 C   0  0  0  0  0  0  0  0  0  0  0  0
    3.3071   -6.8221    4.8267 C   0  0  0  0  0  0  0  0  0  0  0  0
    2.8574   -8.3032    5.0575 C   0  0  1  0  0  0  0  0  0  0  0  0
    3.7032   -8.9187    6.2216 C   0  0  0  0  0  0  0  0  0  0  0  0
    2.9136   -9.7499    7.2420 C   0  0  1  0  0  0  0  0  0  0  0  0
    3.7740  -10.1790    8.3591 C   0  0  0  0  0  0  0  0  0  0  0  0
    4.4544  -10.5132    9.2366 N   0  0  0  0  0  0  0  0  0  0  0  0
    3.1909   -9.1187    3.7840 C   0  0  0  0  0  0  0  0  0  0  0  0
    4.5801   -9.7407    0.0935 H   0  0  0  0  0  0  0  0  0  0  0  0
    5.0411   -9.0472    1.6255 H   0  0  0  0  0  0  0  0  0  0  0  0
    4.1920   -8.0540    0.4459 H   0  0  0  0  0  0  0  0  0  0  0  0
    2.1755   -9.4354    0.6147 H   0  0  0  0  0  0  0  0  0  0  0  0
    2.9365  -10.5683    1.6819 H   0  0  0  0  0  0  0  0  0  0  0  0
    0.4437   -8.6067    1.9380 H   0  0  0  0  0  0  0  0  0  0  0  0
    0.7674   -9.9802    2.9711 H   0  0  0  0  0  0  0  0  0  0  0  0
    0.6254   -7.0456    3.8091 H   0  0  0  0  0  0  0  0  0  0  0  0
   -1.0514   -9.2182    4.4530 H   0  0  0  0  0  0  0  0  0  0  0  0
   -0.2660   -8.8060    6.6029 H   0  0  0  0  0  0  0  0  0  0  0  0
    1.0183  -10.7748    8.2516 H   0  0  0  0  0  0  0  0  0  0  0  0
    1.5370   -7.7162    9.4511 H   0  0  0  0  0  0  0  0  0  0  0  0
    3.0524   -7.5819    8.6525 H   0  0  0  0  0  0  0  0  0  0  0  0
   -2.0277   -4.4036    8.1108 H   0  0  0  0  0  0  0  0  0  0  0  0
   -2.2936   -2.5286    6.4515 H   0  0  0  0  0  0  0  0  0  0  0  0
   -0.4801   -2.0469    4.8233 H   0  0  0  0  0  0  0  0  0  0  0  0
    1.5804   -3.4323    4.8147 H   0  0  0  0  0  0  0  0  0  0  0  0
    3.5893   -4.8611    5.6343 H   0  0  0  0  0  0  0  0  0  0  0  0
    4.0899   -6.0671    6.7364 H   0  0  0  0  0  0  0  0  0  0  0  0
    2.7111   -6.3833    4.0274 H   0  0  0  0  0  0  0  0  0  0  0  0
    4.3229   -6.8268    4.4234 H   0  0  0  0  0  0  0  0  0  0  0  0
    4.5177   -9.5286    5.8305 H   0  0  0  0  0  0  0  0  0  0  0  0
    4.2282   -8.1529    6.7827 H   0  0  0  0  0  0  0  0  0  0  0  0
    2.6115  -10.6706    6.7467 H   0  0  0  0  0  0  0  0  0  0  0  0
    3.0301  -10.1797    3.9848 H   0  0  0  0  0  0  0  0  0  0  0  0
    4.2596   -9.0167    3.6022 H   0  0  0  0  0  0  0  0  0  0  0  0
  1  2  1  0
  1 29  1  0
  1 30  1  0
  1 31  1  0
  2  3  1  0
  2 32  1  0
  2 33  1  0
  3 28  1  0
  3  4  1  0
  4  5  1  0
  4 34  1  0
  4 35  1  0
  5  6  1  0
  5  7  1  0
  5 36  1  6
  6 37  1  0
  7 23  1  0
  7  8  2  0
  8  9  1  0
  8 38  1  0
  9 25  1  0
  9 10  1  1
  9 11  1  0
 10 39  1  0
 11 12  1  0
 11 40  1  0
 11 41  1  0
 12 20  2  0
 12 13  1  0
 13 14  1  0
 14 19  2  0
 14 15  1  0
 15 16  2  0
 15 42  1  0
 16 17  1  0
 16 43  1  0
 17 18  2  0
 17 44  1  0
 18 19  1  0
 18 45  1  0
 19 20  1  0
 20 21  1  0
 21 22  1  0
 21 46  1  0
 21 47  1  0
 22 23  1  0
 22 48  1  0
 22 49  1  0
 23 24  1  0
 23 28  1  6
 24 25  1  0
 24 50  1  0
 24 51  1  0
 25 26  1  0
 25 52  1  6
 26 27  3  0
 28 53  1  0
 28 54  1  0
M  END
>  <i_m_ct_stereo_status>  (376) 
1

>  <s_m_source_file>  (376) 
/var/tmp/pbs.5076255.sched01/tmp7onimy_i/150cvk1qxg3.sdf

>  <i_m_source_file_index>  (376) 
24

>  <i_lp_mmshare_version>  (376) 
48012

>  <i_f3d_flags>  (376) 
0

>  <s_epik_input>  (376) 
W0NIM11bQ0gyXU4oW0NIMl0xKVtDSDJdW0NAQEhdKFtPSF0pQyhbQ0BAXTEyMyk9W0NIXVtDQEBdKFtPSF0pKFtDQEBIXShbQ0gyXTMpQyNOKVtDSDJdYzRjKFtDSDJdW0NIMl0yKWM1YyhvNClbY0hdW2NIXVtjSF1bY0hdNQ==

>  <s_epik_cmdline>  (376) 
J2VwaWtfcHl0aG9uJywgJy1waHQnLCAnMi4wJywgJy1waCcsICc3LjAnLCAnLXRuJywgJzgnLCAnLW1hJywgJzIwMCcsICctaW1hZScsICc8aW5maWxlLm1hZT4nLCAnLW9tYWUnLCAnPG91dGZpbGUubWFlPic=

>  <r_epik_Ionization_Penalty>  (376) 
2.08108

>  <r_epik_Ionization_Penalty_Charging>  (376) 
0

>  <r_epik_Ionization_Penalty_Neutral>  (376) 
2.08108

>  <r_epik_State_Penalty>  (376) 
2.21578

>  <r_epik_Charging_Adjusted_Penalty>  (376) 
2.21578

>  <i_epik_Tot_Q>  (376) 
0

>  <i_epik_Tot_abs_Q>  (376) 
0

>  <s_lp_Force_Field>  (376) 
OPLS3e

>  <r_lp_Energy>  (376) 
45.5044

>  <b_lp_Chiralities_Consistent>  (376) 
1

>  <s_lp_Variant>  (376) 
99:0-2

>  <s_i_glide_gridfile>  (376) 
pfpi4k_grid

>  <i_i_glide_lignum>  (376) 
24

>  <i_i_glide_rotatable_bonds>  (376) 
4

>  <r_i_docking_score>  (376) 
-3.40105

>  <r_i_glide_ligand_efficiency>  (376) 
-0.121466

>  <r_i_glide_ligand_efficiency_sa>  (376) 
-0.368842

>  <r_i_glide_ligand_efficiency_ln>  (376) 
-0.785061

>  <r_i_glide_gscore>  (376) 
-3.40105

>  <r_i_glide_lipo>  (376) 
0

>  <r_i_glide_hbond>  (376) 
-0.228255

>  <r_i_glide_metal>  (376) 
-0

>  <r_i_glide_rewards>  (376) 
-0.828654

>  <r_i_glide_evdw>  (376) 
-17.1277

>  <r_i_glide_ecoul>  (376) 
-9.57078

>  <r_i_glide_erotb>  (376) 
0

>  <r_i_glide_esite>  (376) 
-0.0521364

>  <r_i_glide_emodel>  (376) 
-32.7864

>  <r_i_glide_energy>  (376) 
-26.6985

>  <r_i_glide_einternal>  (376) 
1.43531

>  <r_i_glide_intrahb_reward>  (376) 
-0

>  <i_i_glide_confnum>  (376) 
2

>  <i_i_glide_posenum>  (376) 
29

>  <r_i_glide_eff_state_penalty>  (376) 
0

>  <ligand_id>  (376) 
99

>  <original_smiles>  (376) 
CCN1CC(O)C2=CC3(O)Cc4oc5ccccc5c4CCC2(CC3C#N)C1

>  <smiles>  (376) 
[H]OC1([H])C2=C([H])C3(O[H])C([H])([H])c4oc5c([H])c([H])c([H])c([H])c5c4C([H])([H])C([H])([H])C2(C([H])([H])N(C([H])([H])C([H])([H])[H])C1([H])[H])C([H])([H])C3([H])C#N

$$$$
99:1:2
     RDKit          3D

 54 58  0  0  1  0  0  0  0  0999 V2000
    3.3124   -0.6241    1.6120 C   0  0  0  0  0  0  0  0  0  0  0  0
    4.3879   -1.6801    1.9036 C   0  0  0  0  0  0  0  0  0  0  0  0
    3.8706   -3.0259    2.1548 N   0  0  0  0  0  0  0  0  0  0  0  0
    3.2161   -3.5965    0.9762 C   0  0  0  0  0  0  0  0  0  0  0  0
    2.6248   -4.9859    1.2493 C   0  0  1  0  0  0  0  0  0  0  0  0
    1.9929   -5.4765    0.0800 O   0  0  0  0  0  0  0  0  0  0  0  0
    3.6913   -5.9246    1.8179 C   0  0  0  0  0  0  0  0  0  0  0  0
    3.9489   -7.1505    1.3258 C   0  0  0  0  0  0  0  0  0  0  0  0
    4.9644   -8.0959    1.9320 C   0  0  2  0  0  0  0  0  0  0  0  0
    5.4043   -8.9828    0.9155 O   0  0  0  0  0  0  0  0  0  0  0  0
    4.3604   -8.9316    3.1109 C   0  0  0  0  0  0  0  0  0  0  0  0
    2.9375   -8.5906    3.4492 C   0  0  0  0  0  0  0  0  0  0  0  0
    1.9841   -9.3328    2.8078 O   0  0  0  0  0  0  0  0  0  0  0  0
    0.7670   -8.7925    3.1517 C   0  0  0  0  0  0  0  0  0  0  0  0
   -0.5013   -9.2170    2.7330 C   0  0  0  0  0  0  0  0  0  0  0  0
   -1.6315   -8.5100    3.1749 C   0  0  0  0  0  0  0  0  0  0  0  0
   -1.4779   -7.4036    4.0341 C   0  0  0  0  0  0  0  0  0  0  0  0
   -0.1915   -6.9958    4.4461 C   0  0  0  0  0  0  0  0  0  0  0  0
    0.9653   -7.6858    4.0100 C   0  0  0  0  0  0  0  0  0  0  0  0
    2.3847   -7.5678    4.1961 C   0  0  0  0  0  0  0  0  0  0  0  0
    3.0929   -6.5333    5.0232 C   0  0  0  0  0  0  0  0  0  0  0  0
    3.5298   -5.2362    4.2830 C   0  0  0  0  0  0  0  0  0  0  0  0
    4.4553   -5.3472    3.0250 C   0  0  1  0  0  0  0  0  0  0  0  0
    5.7320   -6.1741    3.3966 C   0  0  0  0  0  0  0  0  0  0  0  0
    6.1642   -7.2332    2.3675 C   0  0  1  0  0  0  0  0  0  0  0  0
    7.2938   -8.0245    2.8867 C   0  0  0  0  0  0  0  0  0  0  0  0
    8.1766   -8.6420    3.2997 N   0  0  0  0  0  0  0  0  0  0  0  0
    4.9323   -3.9201    2.6286 C   0  0  0  0  0  0  0  0  0  0  0  0
    3.7432    0.3769    1.5823 H   0  0  0  0  0  0  0  0  0  0  0  0
    2.5426   -0.6362    2.3845 H   0  0  0  0  0  0  0  0  0  0  0  0
    2.8257   -0.7920    0.6503 H   0  0  0  0  0  0  0  0  0  0  0  0
    5.1093   -1.7026    1.0850 H   0  0  0  0  0  0  0  0  0  0  0  0
    4.9412   -1.3457    2.7830 H   0  0  0  0  0  0  0  0  0  0  0  0
    2.3978   -2.9498    0.6612 H   0  0  0  0  0  0  0  0  0  0  0  0
    3.9174   -3.6431    0.1398 H   0  0  0  0  0  0  0  0  0  0  0  0
    1.8381   -4.8956    1.9964 H   0  0  0  0  0  0  0  0  0  0  0  0
    2.6141   -5.4725   -0.6355 H   0  0  0  0  0  0  0  0  0  0  0  0
    3.4009   -7.5378    0.4843 H   0  0  0  0  0  0  0  0  0  0  0  0
    4.8208   -9.7316    0.8787 H   0  0  0  0  0  0  0  0  0  0  0  0
    4.3917   -9.9904    2.8472 H   0  0  0  0  0  0  0  0  0  0  0  0
    4.9794   -8.8596    4.0063 H   0  0  0  0  0  0  0  0  0  0  0  0
   -0.5974  -10.0686    2.0803 H   0  0  0  0  0  0  0  0  0  0  0  0
   -2.6080   -8.8390    2.8668 H   0  0  0  0  0  0  0  0  0  0  0  0
   -2.3458   -6.8696    4.3902 H   0  0  0  0  0  0  0  0  0  0  0  0
   -0.0740   -6.1501    5.1044 H   0  0  0  0  0  0  0  0  0  0  0  0
    2.4199   -6.2262    5.8219 H   0  0  0  0  0  0  0  0  0  0  0  0
    3.9291   -6.9839    5.5576 H   0  0  0  0  0  0  0  0  0  0  0  0
    2.6287   -4.6839    4.0201 H   0  0  0  0  0  0  0  0  0  0  0  0
    4.0242   -4.5988    5.0185 H   0  0  0  0  0  0  0  0  0  0  0  0
    6.5741   -5.5127    3.5984 H   0  0  0  0  0  0  0  0  0  0  0  0
    5.6065   -6.6931    4.3411 H   0  0  0  0  0  0  0  0  0  0  0  0
    6.5547   -6.7160    1.4914 H   0  0  0  0  0  0  0  0  0  0  0  0
    5.7043   -4.0030    1.8604 H   0  0  0  0  0  0  0  0  0  0  0  0
    5.4236   -3.4633    3.4906 H   0  0  0  0  0  0  0  0  0  0  0  0
  1  2  1  0
  1 29  1  0
  1 30  1  0
  1 31  1  0
  2  3  1  0
  2 32  1  0
  2 33  1  0
  3 28  1  0
  3  4  1  0
  4  5  1  0
  4 34  1  0
  4 35  1  0
  5  6  1  0
  5  7  1  0
  5 36  1  1
  6 37  1  0
  7 23  1  0
  7  8  2  0
  8  9  1  0
  8 38  1  0
  9 25  1  0
  9 10  1  6
  9 11  1  0
 10 39  1  0
 11 12  1  0
 11 40  1  0
 11 41  1  0
 12 20  2  0
 12 13  1  0
 13 14  1  0
 14 19  2  0
 14 15  1  0
 15 16  2  0
 15 42  1  0
 16 17  1  0
 16 43  1  0
 17 18  2  0
 17 44  1  0
 18 19  1  0
 18 45  1  0
 19 20  1  0
 20 21  1  0
 21 22  1  0
 21 46  1  0
 21 47  1  0
 22 23  1  0
 22 48  1  0
 22 49  1  0
 23 24  1  0
 23 28  1  6
 24 25  1  0
 24 50  1  0
 24 51  1  0
 25 26  1  0
 25 52  1  6
 26 27  3  0
 28 53  1  0
 28 54  1  0
M  END
>  <i_m_ct_stereo_status>  (377) 
1

>  <s_m_source_file>  (377) 
/var/tmp/pbs.5076255.sched01/tmp7onimy_i/150cvk1qxg3.sdf

>  <i_m_source_file_index>  (377) 
24

>  <i_lp_mmshare_version>  (377) 
48012

>  <i_f3d_flags>  (377) 
0

>  <s_epik_input>  (377) 
W0NIM11bQ0gyXU4oW0NIMl0xKVtDSDJdW0NAQEhdKFtPSF0pQyhbQ0BAXTEyMyk9W0NIXVtDQEBdKFtPSF0pKFtDQEBIXShbQ0gyXTMpQyNOKVtDSDJdYzRjKFtDSDJdW0NIMl0yKWM1YyhvNClbY0hdW2NIXVtjSF1bY0hdNQ==

>  <s_epik_cmdline>  (377) 
J2VwaWtfcHl0aG9uJywgJy1waHQnLCAnMi4wJywgJy1waCcsICc3LjAnLCAnLXRuJywgJzgnLCAnLW1hJywgJzIwMCcsICctaW1hZScsICc8aW5maWxlLm1hZT4nLCAnLW9tYWUnLCAnPG91dGZpbGUubWFlPic=

>  <r_epik_Ionization_Penalty>  (377) 
2.08108

>  <r_epik_Ionization_Penalty_Charging>  (377) 
0

>  <r_epik_Ionization_Penalty_Neutral>  (377) 
2.08108

>  <r_epik_State_Penalty>  (377) 
2.21578

>  <r_epik_Charging_Adjusted_Penalty>  (377) 
2.21578

>  <i_epik_Tot_Q>  (377) 
0

>  <i_epik_Tot_abs_Q>  (377) 
0

>  <s_lp_Force_Field>  (377) 
OPLS3e

>  <r_lp_Energy>  (377) 
45.5044

>  <b_lp_Chiralities_Consistent>  (377) 
1

>  <s_lp_Variant>  (377) 
99:0-2

>  <s_i_glide_gridfile>  (377) 
pfpi4k_grid

>  <i_i_glide_lignum>  (377) 
24

>  <i_i_glide_rotatable_bonds>  (377) 
4

>  <r_i_docking_score>  (377) 
-3.36651

>  <r_i_glide_ligand_efficiency>  (377) 
-0.120233

>  <r_i_glide_ligand_efficiency_sa>  (377) 
-0.365097

>  <r_i_glide_ligand_efficiency_ln>  (377) 
-0.77709

>  <r_i_glide_gscore>  (377) 
-3.36651

>  <r_i_glide_lipo>  (377) 
-0.207526

>  <r_i_glide_hbond>  (377) 
-0.27614

>  <r_i_glide_metal>  (377) 
-0

>  <r_i_glide_rewards>  (377) 
-0.852111

>  <r_i_glide_evdw>  (377) 
-24.2533

>  <r_i_glide_ecoul>  (377) 
-5.45382

>  <r_i_glide_erotb>  (377) 
0

>  <r_i_glide_esite>  (377) 
0

>  <r_i_glide_emodel>  (377) 
-36.4711

>  <r_i_glide_energy>  (377) 
-29.7071

>  <r_i_glide_einternal>  (377) 
0.330141

>  <r_i_glide_intrahb_reward>  (377) 
-0

>  <i_i_glide_confnum>  (377) 
2

>  <i_i_glide_posenum>  (377) 
33

>  <r_i_glide_eff_state_penalty>  (377) 
0

>  <ligand_id>  (377) 
99

>  <original_smiles>  (377) 
CCN1CC(O)C2=CC3(O)Cc4oc5ccccc5c4CCC2(CC3C#N)C1

>  <smiles>  (377) 
[H]OC1([H])C2=C([H])C3(O[H])C([H])([H])c4oc5c([H])c([H])c([H])c([H])c5c4C([H])([H])C([H])([H])C2(C([H])([H])N(C([H])([H])C([H])([H])[H])C1([H])[H])C([H])([H])C3([H])C#N

$$$$
100:0:0
     RDKit          3D

 59 64  0  0  1  0  0  0  0  0999 V2000
    3.8957  -11.8612    3.5797 C   0  0  0  0  0  0  0  0  0  0  0  0
    2.6857  -11.2680    3.6438 C   0  0  0  0  0  0  0  0  0  0  0  0
    2.1078  -10.3300    4.7155 C   0  0  2  0  0  0  0  0  0  0  0  0
    2.1295   -8.8103    4.2387 C   0  0  1  0  0  0  0  0  0  0  0  0
    0.9421   -7.8560    4.7206 C   0  0  1  0  0  0  0  0  0  0  0  0
   -0.4545   -8.5129    4.6413 C   0  0  0  0  0  0  0  0  0  0  0  0
    1.1688   -7.0678    6.0808 C   0  0  2  0  0  0  0  0  0  0  0  0
    0.3514   -5.7987    6.2353 C   0  0  0  0  0  0  0  0  0  0  0  0
    1.0713   -4.7287    6.5849 C   0  0  0  0  0  0  0  0  0  0  0  0
    0.6800   -3.4364    6.8495 O   0  0  0  0  0  0  0  0  0  0  0  0
   -0.6813   -3.1276    6.6412 C   0  0  0  0  0  0  0  0  0  0  0  0
    2.4715   -5.0791    6.6805 C   0  0  0  0  0  0  0  0  0  0  0  0
    3.4127   -4.3491    6.9799 O   0  0  0  0  0  0  0  0  0  0  0  0
    2.6402   -6.5464    6.3068 C   0  0  2  0  0  0  0  0  0  0  0  0
    3.3782   -6.7295    5.0210 C   0  0  1  0  0  0  0  0  0  0  0  0
    4.8565   -6.5615    4.6638 C   0  0  0  0  0  0  0  0  0  0  0  0
    4.6440   -7.7788    3.7229 C   0  0  2  0  0  0  0  0  0  0  0  0
    5.7817   -8.7236    3.4123 C   0  0  0  0  0  0  0  0  0  0  0  0
    6.1365   -8.5812    1.9636 C   0  0  1  0  0  0  0  0  0  0  0  0
    6.4761   -9.9459    1.3362 C   0  0  0  0  0  0  0  0  0  0  0  0
    4.8590   -7.9493    1.4189 C   0  0  0  0  0  0  0  0  0  0  0  0
    4.5824   -7.9475    0.2278 O   0  0  0  0  0  0  0  0  0  0  0  0
    4.1400   -7.4217    2.4184 O   0  0  0  0  0  0  0  0  0  0  0  0
    3.4870   -8.2046    4.6794 C   0  0  2  0  0  0  0  0  0  0  0  0
    3.8829   -9.2316    5.7585 C   0  0  1  0  0  0  0  0  0  0  0  0
    4.9003   -9.3174    6.8891 C   0  0  0  0  0  0  0  0  0  0  0  0
    5.6568   -8.4224    7.2648 O   0  0  0  0  0  0  0  0  0  0  0  0
    4.8465  -10.7255    7.2989 C   0  0  0  0  0  0  0  0  0  0  0  0
    3.7419  -11.2910    6.7533 C   0  0  0  0  0  0  0  0  0  0  0  0
    2.8448  -10.2585    6.0854 C   0  0  2  0  0  0  0  0  0  0  0  0
    1.9314   -9.8571    7.0656 O   0  0  0  0  0  0  0  0  0  0  0  0
    4.6468  -11.7107    4.3455 H   0  0  0  0  0  0  0  0  0  0  0  0
    4.1628  -12.5027    2.7430 H   0  0  0  0  0  0  0  0  0  0  0  0
    1.9990  -11.4800    2.8303 H   0  0  0  0  0  0  0  0  0  0  0  0
    1.0878  -10.6827    4.8611 H   0  0  0  0  0  0  0  0  0  0  0  0
    2.0633   -8.8243    3.1516 H   0  0  0  0  0  0  0  0  0  0  0  0
    0.8945   -7.0862    3.9480 H   0  0  0  0  0  0  0  0  0  0  0  0
   -0.5984   -9.2345    5.4416 H   0  0  0  0  0  0  0  0  0  0  0  0
   -0.6019   -9.0296    3.6925 H   0  0  0  0  0  0  0  0  0  0  0  0
   -1.2445   -7.7674    4.7227 H   0  0  0  0  0  0  0  0  0  0  0  0
   -0.7252   -5.8278    6.1086 H   0  0  0  0  0  0  0  0  0  0  0  0
    0.8878   -7.6940    6.9155 H   0  0  0  0  0  0  0  0  0  0  0  0
   -0.8172   -2.0706    6.8823 H   0  0  0  0  0  0  0  0  0  0  0  0
   -1.3306   -3.7209    7.2910 H   0  0  0  0  0  0  0  0  0  0  0  0
   -0.9570   -3.2714    5.5945 H   0  0  0  0  0  0  0  0  0  0  0  0
    3.1198   -7.0575    7.1394 H   0  0  0  0  0  0  0  0  0  0  0  0
    2.8737   -6.1630    4.2244 H   0  0  0  0  0  0  0  0  0  0  0  0
    5.1008   -5.6305    4.1711 H   0  0  0  0  0  0  0  0  0  0  0  0
    5.5444   -6.7840    5.4853 H   0  0  0  0  0  0  0  0  0  0  0  0
    6.6402   -8.5785    4.0791 H   0  0  0  0  0  0  0  0  0  0  0  0
    5.4798   -9.7720    3.5202 H   0  0  0  0  0  0  0  0  0  0  0  0
    6.9514   -7.8617    1.8274 H   0  0  0  0  0  0  0  0  0  0  0  0
    6.6962   -9.8753    0.2734 H   0  0  0  0  0  0  0  0  0  0  0  0
    5.6554  -10.6641    1.4515 H   0  0  0  0  0  0  0  0  0  0  0  0
    7.3306  -10.3958    1.8531 H   0  0  0  0  0  0  0  0  0  0  0  0
    4.5302   -9.8095    5.1285 H   0  0  0  0  0  0  0  0  0  0  0  0
    5.6067  -11.2266    7.8887 H   0  0  0  0  0  0  0  0  0  0  0  0
    3.4441  -12.3232    6.8514 H   0  0  0  0  0  0  0  0  0  0  0  0
    1.4987  -10.6574    7.3437 H   0  0  0  0  0  0  0  0  0  0  0  0
  1  2  2  0
  1 32  1  0
  1 33  1  0
  2  3  1  0
  2 34  1  0
  3 30  1  0
  3  4  1  0
  3 35  1  1
  4 24  1  0
  4  5  1  0
  4 36  1  6
  5  6  1  0
  5 37  1  6
  5  7  1  0
  6 38  1  0
  6 39  1  0
  6 40  1  0
  7 42  1  1
  7  8  1  0
  7 14  1  0
  8 41  1  0
  8  9  2  0
  9 10  1  0
  9 12  1  0
 10 11  1  0
 11 43  1  0
 11 44  1  0
 11 45  1  0
 12 13  2  0
 12 14  1  0
 14 15  1  0
 14 46  1  1
 15 24  1  0
 15 16  1  0
 15 47  1  6
 16 17  1  0
 16 48  1  0
 16 49  1  0
 17 23  1  6
 17 18  1  0
 24 17  1  6
 18 19  1  0
 18 50  1  0
 18 51  1  0
 19 20  1  0
 19 21  1  0
 19 52  1  1
 20 53  1  0
 20 54  1  0
 20 55  1  0
 21 22  2  0
 21 23  1  0
 24 25  1  0
 25 30  1  0
 25 26  1  0
 25 56  1  6
 26 27  2  0
 26 28  1  0
 28 29  2  0
 28 57  1  0
 29 30  1  0
 29 58  1  0
 30 31  1  1
 31 59  1  0
M  END
>  <i_m_ct_stereo_status>  (378) 
1

>  <s_m_source_file>  (378) 
/var/tmp/pbs.5076255.sched01/tmp7onimy_i/150cvk1qxg3.sdf

>  <i_m_source_file_index>  (378) 
25

>  <i_lp_mmshare_version>  (378) 
48012

>  <i_f3d_flags>  (378) 
0

>  <s_epik_input>  (378) 
Tz1DKE8xKVtDQEhdKFtDSDNdKVtDSDJdW0NAXTEyW0NAXTM0W0NAQEhdKFtDQEBIXShbQ0hdPVtDSDJdKVtDQF01KFtPSF0pW0NAQEhdNEMoPU8pW0NIXT1bQ0hdNSlbQ0BASF0oW0NIM10pQz02W0NAQEhdKFtDQEhdM1tDSDJdMilDKD1PKVtDQEBIXShbQ0hdNilPW0NIM10=

>  <s_epik_cmdline>  (378) 
J2VwaWtfcHl0aG9uJywgJy1waHQnLCAnMi4wJywgJy1waCcsICc3LjAnLCAnLXRuJywgJzgnLCAnLW1hJywgJzIwMCcsICctaW1hZScsICc8aW5maWxlLm1hZT4nLCAnLW9tYWUnLCAnPG91dGZpbGUubWFlPic=

>  <r_lp_tautomer_probability>  (378) 
1

>  <r_epik_Ionization_Penalty>  (378) 
1.71466e-07

>  <r_epik_Ionization_Penalty_Charging>  (378) 
0

>  <r_epik_Ionization_Penalty_Neutral>  (378) 
1.71466e-07

>  <r_epik_State_Penalty>  (378) 
0.41068

>  <r_epik_Charging_Adjusted_Penalty>  (378) 
0.41068

>  <i_epik_Tot_Q>  (378) 
0

>  <i_epik_Tot_abs_Q>  (378) 
0

>  <s_epik_Chemistry_Notes>  (378) 
This compound has an ester and may undergo hydrolysis at high or low pH.

>  <s_lp_Force_Field>  (378) 
OPLS3e

>  <r_lp_Energy>  (378) 
63.6653

>  <b_lp_Chiralities_Consistent>  (378) 
1

>  <s_lp_Variant>  (378) 
100:0-1

>  <s_i_glide_gridfile>  (378) 
pfpi4k_grid

>  <i_i_glide_lignum>  (378) 
25

>  <i_i_glide_rotatable_bonds>  (378) 
3

>  <r_i_docking_score>  (378) 
-2.25375

>  <r_i_glide_ligand_efficiency>  (378) 
-0.0727016

>  <r_i_glide_ligand_efficiency_sa>  (378) 
-0.228383

>  <r_i_glide_ligand_efficiency_ln>  (378) 
-0.508289

>  <r_i_glide_gscore>  (378) 
-2.25375

>  <r_i_glide_lipo>  (378) 
-0.0654393

>  <r_i_glide_hbond>  (378) 
-0.16

>  <r_i_glide_metal>  (378) 
-0

>  <r_i_glide_rewards>  (378) 
-0.592708

>  <r_i_glide_evdw>  (378) 
-15.6211

>  <r_i_glide_ecoul>  (378) 
-5.08224

>  <r_i_glide_erotb>  (378) 
0.110045

>  <r_i_glide_esite>  (378) 
-0.00225624

>  <r_i_glide_emodel>  (378) 
-21.1243

>  <r_i_glide_energy>  (378) 
-20.7033

>  <r_i_glide_einternal>  (378) 
4.14953

>  <r_i_glide_intrahb_reward>  (378) 
-0

>  <i_i_glide_confnum>  (378) 
4

>  <i_i_glide_posenum>  (378) 
1

>  <r_i_glide_eff_state_penalty>  (378) 
0

>  <ligand_id>  (378) 
100

>  <original_smiles>  (378) 
C=CC1C2C(C)C3=CC(OC)C(=O)C3C3CC4(CC(C)C(=O)O4)C32C2C(=O)C=CC12O

>  <smiles>  (378) 
[H]OC12C([H])=C([H])C(=O)C1([H])C13C([H])(C([H])([H])C14OC(=O)C([H])(C([H])([H])[H])C4([H])[H])C1([H])C(=O)C(OC([H])([H])[H])=C([H])C1([H])C([H])(C([H])([H])[H])C3([H])C2([H])C([H])=C([H])[H]

$$$$
100:0:1
     RDKit          3D

 59 64  0  0  1  0  0  0  0  0999 V2000
    4.1108   -8.7249    0.9580 C   0  0  0  0  0  0  0  0  0  0  0  0
    3.0403   -9.4799    1.2526 C   0  0  0  0  0  0  0  0  0  0  0  0
    2.0155   -9.2825    2.3848 C   0  0  2  0  0  0  0  0  0  0  0  0
    2.1082   -7.8598    3.0751 C   0  0  1  0  0  0  0  0  0  0  0  0
    0.7599   -7.2044    3.5814 C   0  0  1  0  0  0  0  0  0  0  0  0
   -0.4082   -7.3558    2.5876 C   0  0  0  0  0  0  0  0  0  0  0  0
    0.3437   -7.5035    5.0850 C   0  0  2  0  0  0  0  0  0  0  0  0
   -0.5695   -6.4603    5.7011 C   0  0  0  0  0  0  0  0  0  0  0  0
   -0.1506   -6.0171    6.8885 C   0  0  0  0  0  0  0  0  0  0  0  0
   -0.7372   -5.1374    7.7751 O   0  0  0  0  0  0  0  0  0  0  0  0
   -1.9629   -4.5417    7.3711 C   0  0  0  0  0  0  0  0  0  0  0  0
    1.1139   -6.6488    7.2361 C   0  0  0  0  0  0  0  0  0  0  0  0
    1.7764   -6.4907    8.2540 O   0  0  0  0  0  0  0  0  0  0  0  0
    1.5327   -7.5630    6.1000 C   0  0  2  0  0  0  0  0  0  0  0  0
    2.7636   -7.0595    5.3921 C   0  0  1  0  0  0  0  0  0  0  0  0
    4.2330   -7.0183    5.8062 C   0  0  0  0  0  0  0  0  0  0  0  0
    4.5433   -7.2823    4.3115 C   0  0  2  0  0  0  0  0  0  0  0  0
    5.8031   -8.0764    3.9072 C   0  0  0  0  0  0  0  0  0  0  0  0
    6.7161   -7.0951    3.1685 C   0  0  1  0  0  0  0  0  0  0  0  0
    7.4125   -7.7932    1.9886 C   0  0  0  0  0  0  0  0  0  0  0  0
    5.7394   -5.9884    2.7854 C   0  0  0  0  0  0  0  0  0  0  0  0
    5.9219   -5.1772    1.8799 O   0  0  0  0  0  0  0  0  0  0  0  0
    4.6452   -6.0698    3.5565 O   0  0  0  0  0  0  0  0  0  0  0  0
    3.1319   -7.9716    4.2370 C   0  0  2  0  0  0  0  0  0  0  0  0
    3.2008   -9.5175    4.3545 C   0  0  1  0  0  0  0  0  0  0  0  0
    3.6105  -10.4832    5.4551 C   0  0  0  0  0  0  0  0  0  0  0  0
    4.0461  -10.1920    6.5701 O   0  0  0  0  0  0  0  0  0  0  0  0
    3.4907  -11.7959    4.8126 C   0  0  0  0  0  0  0  0  0  0  0  0
    2.7591  -11.6430    3.6717 C   0  0  0  0  0  0  0  0  0  0  0  0
    2.1330  -10.2672    3.5808 C   0  0  2  0  0  0  0  0  0  0  0  0
    0.8769  -10.3576    4.2315 O   0  0  0  0  0  0  0  0  0  0  0  0
    4.3316   -7.8616    1.5565 H   0  0  0  0  0  0  0  0  0  0  0  0
    4.7719   -8.9471    0.1321 H   0  0  0  0  0  0  0  0  0  0  0  0
    2.8464  -10.2908    0.5910 H   0  0  0  0  0  0  0  0  0  0  0  0
    1.0669   -9.4257    1.8677 H   0  0  0  0  0  0  0  0  0  0  0  0
    2.4540   -7.1456    2.3412 H   0  0  0  0  0  0  0  0  0  0  0  0
    0.9711   -6.1259    3.5565 H   0  0  0  0  0  0  0  0  0  0  0  0
   -0.8062   -8.3693    2.5912 H   0  0  0  0  0  0  0  0  0  0  0  0
   -0.0989   -7.1254    1.5664 H   0  0  0  0  0  0  0  0  0  0  0  0
   -1.2286   -6.6868    2.8399 H   0  0  0  0  0  0  0  0  0  0  0  0
   -1.4970   -6.1991    5.2139 H   0  0  0  0  0  0  0  0  0  0  0  0
   -0.2142   -8.4337    5.1273 H   0  0  0  0  0  0  0  0  0  0  0  0
   -2.2829   -3.8745    8.1679 H   0  0  0  0  0  0  0  0  0  0  0  0
   -2.7454   -5.2844    7.2098 H   0  0  0  0  0  0  0  0  0  0  0  0
   -1.8165   -3.9481    6.4734 H   0  0  0  0  0  0  0  0  0  0  0  0
    1.6779   -8.5700    6.5021 H   0  0  0  0  0  0  0  0  0  0  0  0
    2.5869   -6.0378    5.0501 H   0  0  0  0  0  0  0  0  0  0  0  0
    4.5677   -6.0470    6.1527 H   0  0  0  0  0  0  0  0  0  0  0  0
    4.5293   -7.8275    6.4693 H   0  0  0  0  0  0  0  0  0  0  0  0
    6.3023   -8.5156    4.7804 H   0  0  0  0  0  0  0  0  0  0  0  0
    5.5932   -8.9014    3.2618 H   0  0  0  0  0  0  0  0  0  0  0  0
    7.4500   -6.6526    3.8627 H   0  0  0  0  0  0  0  0  0  0  0  0
    8.0398   -7.1336    1.3948 H   0  0  0  0  0  0  0  0  0  0  0  0
    6.7173   -8.2731    1.2883 H   0  0  0  0  0  0  0  0  0  0  0  0
    8.0307   -8.6122    2.3695 H   0  0  0  0  0  0  0  0  0  0  0  0
    4.0199   -9.6513    3.7562 H   0  0  0  0  0  0  0  0  0  0  0  0
    3.9831  -12.7066    5.1635 H   0  0  0  0  0  0  0  0  0  0  0  0
    2.5682  -12.4211    2.9477 H   0  0  0  0  0  0  0  0  0  0  0  0
    0.9792  -10.9517    4.9607 H   0  0  0  0  0  0  0  0  0  0  0  0
  1  2  2  0
  1 32  1  0
  1 33  1  0
  2  3  1  0
  2 34  1  0
  3 30  1  0
  3  4  1  0
  3 35  1  6
  4 24  1  0
  4  5  1  0
  4 36  1  6
  5  6  1  0
  5 37  1  1
  5  7  1  0
  6 38  1  0
  6 39  1  0
  6 40  1  0
  7 42  1  6
  7  8  1  0
  7 14  1  0
  8 41  1  0
  8  9  2  0
  9 10  1  0
  9 12  1  0
 10 11  1  0
 11 43  1  0
 11 44  1  0
 11 45  1  0
 12 13  2  0
 12 14  1  0
 14 15  1  0
 14 46  1  1
 15 24  1  0
 15 16  1  0
 15 47  1  6
 16 17  1  0
 16 48  1  0
 16 49  1  0
 17 23  1  6
 17 18  1  0
 24 17  1  6
 18 19  1  0
 18 50  1  0
 18 51  1  0
 19 20  1  0
 19 21  1  0
 19 52  1  1
 20 53  1  0
 20 54  1  0
 20 55  1  0
 21 22  2  0
 21 23  1  0
 24 25  1  0
 25 30  1  0
 25 26  1  0
 25 56  1  6
 26 27  2  0
 26 28  1  0
 28 29  2  0
 28 57  1  0
 29 30  1  0
 29 58  1  0
 30 31  1  1
 31 59  1  0
M  END
>  <i_m_ct_stereo_status>  (379) 
1

>  <s_m_source_file>  (379) 
/var/tmp/pbs.5076255.sched01/tmp7onimy_i/150cvk1qxg3.sdf

>  <i_m_source_file_index>  (379) 
25

>  <i_lp_mmshare_version>  (379) 
48012

>  <i_f3d_flags>  (379) 
0

>  <s_epik_input>  (379) 
Tz1DKE8xKVtDQEhdKFtDSDNdKVtDSDJdW0NAXTEyW0NAXTM0W0NAQEhdKFtDQEBIXShbQ0hdPVtDSDJdKVtDQF01KFtPSF0pW0NAQEhdNEMoPU8pW0NIXT1bQ0hdNSlbQ0BASF0oW0NIM10pQz02W0NAQEhdKFtDQEhdM1tDSDJdMilDKD1PKVtDQEBIXShbQ0hdNilPW0NIM10=

>  <s_epik_cmdline>  (379) 
J2VwaWtfcHl0aG9uJywgJy1waHQnLCAnMi4wJywgJy1waCcsICc3LjAnLCAnLXRuJywgJzgnLCAnLW1hJywgJzIwMCcsICctaW1hZScsICc8aW5maWxlLm1hZT4nLCAnLW9tYWUnLCAnPG91dGZpbGUubWFlPic=

>  <r_lp_tautomer_probability>  (379) 
1

>  <r_epik_Ionization_Penalty>  (379) 
1.71466e-07

>  <r_epik_Ionization_Penalty_Charging>  (379) 
0

>  <r_epik_Ionization_Penalty_Neutral>  (379) 
1.71466e-07

>  <r_epik_State_Penalty>  (379) 
0.41068

>  <r_epik_Charging_Adjusted_Penalty>  (379) 
0.41068

>  <i_epik_Tot_Q>  (379) 
0

>  <i_epik_Tot_abs_Q>  (379) 
0

>  <s_epik_Chemistry_Notes>  (379) 
This compound has an ester and may undergo hydrolysis at high or low pH.

>  <s_lp_Force_Field>  (379) 
OPLS3e

>  <r_lp_Energy>  (379) 
63.6653

>  <b_lp_Chiralities_Consistent>  (379) 
1

>  <s_lp_Variant>  (379) 
100:0-1

>  <s_i_glide_gridfile>  (379) 
pfpi4k_grid

>  <i_i_glide_lignum>  (379) 
25

>  <i_i_glide_rotatable_bonds>  (379) 
3

>  <r_i_docking_score>  (379) 
-1.83787

>  <r_i_glide_ligand_efficiency>  (379) 
-0.0592862

>  <r_i_glide_ligand_efficiency_sa>  (379) 
-0.18624

>  <r_i_glide_ligand_efficiency_ln>  (379) 
-0.414496

>  <r_i_glide_gscore>  (379) 
-1.83787

>  <r_i_glide_lipo>  (379) 
-0.186389

>  <r_i_glide_hbond>  (379) 
0

>  <r_i_glide_metal>  (379) 
-0

>  <r_i_glide_rewards>  (379) 
-0.527255

>  <r_i_glide_evdw>  (379) 
-21.363

>  <r_i_glide_ecoul>  (379) 
-0.886604

>  <r_i_glide_erotb>  (379) 
0.110045

>  <r_i_glide_esite>  (379) 
-0.0331324

>  <r_i_glide_emodel>  (379) 
-22.0959

>  <r_i_glide_energy>  (379) 
-22.2496

>  <r_i_glide_einternal>  (379) 
2.30147

>  <r_i_glide_intrahb_reward>  (379) 
-0

>  <i_i_glide_confnum>  (379) 
3

>  <i_i_glide_posenum>  (379) 
30

>  <r_i_glide_eff_state_penalty>  (379) 
0

>  <ligand_id>  (379) 
100

>  <original_smiles>  (379) 
C=CC1C2C(C)C3=CC(OC)C(=O)C3C3CC4(CC(C)C(=O)O4)C32C2C(=O)C=CC12O

>  <smiles>  (379) 
[H]OC12C([H])=C([H])C(=O)C1([H])C13C([H])(C([H])([H])C14OC(=O)C([H])(C([H])([H])[H])C4([H])[H])C1([H])C(=O)C(OC([H])([H])[H])=C([H])C1([H])C([H])(C([H])([H])[H])C3([H])C2([H])C([H])=C([H])[H]

$$$$
100:0:2
     RDKit          3D

 59 64  0  0  1  0  0  0  0  0999 V2000
    4.0451   -8.6830    0.8169 C   0  0  0  0  0  0  0  0  0  0  0  0
    2.9911   -9.4557    1.1181 C   0  0  0  0  0  0  0  0  0  0  0  0
    1.9780   -9.2804    2.2475 C   0  0  2  0  0  0  0  0  0  0  0  0
    2.0775   -7.8674    2.9623 C   0  0  1  0  0  0  0  0  0  0  0  0
    0.7317   -7.2207    3.5010 C   0  0  1  0  0  0  0  0  0  0  0  0
   -0.4489   -7.3519    2.5187 C   0  0  0  0  0  0  0  0  0  0  0  0
    0.3357   -7.5483    5.0053 C   0  0  2  0  0  0  0  0  0  0  0  0
   -0.5746   -6.5225    5.6488 C   0  0  0  0  0  0  0  0  0  0  0  0
   -0.1321   -6.1001    6.8578 C   0  0  0  0  0  0  0  0  0  0  0  0
   -0.7066   -5.2344    7.7482 O   0  0  0  0  0  0  0  0  0  0  0  0
   -1.9051   -4.5877    7.3527 C   0  0  0  0  0  0  0  0  0  0  0  0
    1.1277   -6.7394    7.1572 C   0  0  0  0  0  0  0  0  0  0  0  0
    1.8071   -6.5907    8.1860 O   0  0  0  0  0  0  0  0  0  0  0  0
    1.5388   -7.6276    6.0061 C   0  0  2  0  0  0  0  0  0  0  0  0
    2.7586   -7.1125    5.2901 C   0  0  1  0  0  0  0  0  0  0  0  0
    4.2325   -7.0813    5.6868 C   0  0  0  0  0  0  0  0  0  0  0  0
    4.5213   -7.3140    4.1807 C   0  0  2  0  0  0  0  0  0  0  0  0
    5.7686   -8.1017    3.7475 C   0  0  0  0  0  0  0  0  0  0  0  0
    6.6743   -7.1144    3.0178 C   0  0  1  0  0  0  0  0  0  0  0  0
    7.3541   -7.7895    1.8148 C   0  0  0  0  0  0  0  0  0  0  0  0
    5.6967   -6.0021    2.6621 C   0  0  0  0  0  0  0  0  0  0  0  0
    5.8807   -5.1695    1.7704 O   0  0  0  0  0  0  0  0  0  0  0  0
    4.6047   -6.0959    3.4310 O   0  0  0  0  0  0  0  0  0  0  0  0
    3.1119   -7.9991    4.1134 C   0  0  2  0  0  0  0  0  0  0  0  0
    3.1797   -9.5449    4.2089 C   0  0  1  0  0  0  0  0  0  0  0  0
    3.5970  -10.5357    5.2780 C   0  0  0  0  0  0  0  0  0  0  0  0
    4.0566  -10.2675    6.3962 O   0  0  0  0  0  0  0  0  0  0  0  0
    3.4737  -11.8382    4.6204 C   0  0  0  0  0  0  0  0  0  0  0  0
    2.7321  -11.6632    3.4827 C   0  0  0  0  0  0  0  0  0  0  0  0
    2.1155  -10.2796    3.4271 C   0  0  2  0  0  0  0  0  0  0  0  0
    0.8624  -10.3771    4.0666 O   0  0  0  0  0  0  0  0  0  0  0  0
    4.2629   -7.8215    1.4122 H   0  0  0  0  0  0  0  0  0  0  0  0
    4.7001   -8.8839   -0.0143 H   0  0  0  0  0  0  0  0  0  0  0  0
    2.8025  -10.2708    0.4635 H   0  0  0  0  0  0  0  0  0  0  0  0
    1.0216   -9.4032    1.7396 H   0  0  0  0  0  0  0  0  0  0  0  0
    2.4161   -7.1335    2.2411 H   0  0  0  0  0  0  0  0  0  0  0  0
    0.9428   -6.1438    3.4941 H   0  0  0  0  0  0  0  0  0  0  0  0
   -0.8497   -8.3647    2.5075 H   0  0  0  0  0  0  0  0  0  0  0  0
   -0.1519   -7.1020    1.4979 H   0  0  0  0  0  0  0  0  0  0  0  0
   -1.2649   -6.6863    2.7943 H   0  0  0  0  0  0  0  0  0  0  0  0
   -1.5012   -6.2435    5.1822 H   0  0  0  0  0  0  0  0  0  0  0  0
   -0.2192   -8.4811    5.0364 H   0  0  0  0  0  0  0  0  0  0  0  0
   -2.2184   -3.9379    8.1670 H   0  0  0  0  0  0  0  0  0  0  0  0
   -2.7087   -5.2981    7.1529 H   0  0  0  0  0  0  0  0  0  0  0  0
   -1.7294   -3.9677    6.4757 H   0  0  0  0  0  0  0  0  0  0  0  0
    1.6852   -8.6433    6.3810 H   0  0  0  0  0  0  0  0  0  0  0  0
    2.5753   -6.0845    4.9716 H   0  0  0  0  0  0  0  0  0  0  0  0
    4.5748   -6.1189    6.0571 H   0  0  0  0  0  0  0  0  0  0  0  0
    4.5405   -7.9050    6.3282 H   0  0  0  0  0  0  0  0  0  0  0  0
    6.2730   -8.5668    4.5994 H   0  0  0  0  0  0  0  0  0  0  0  0
    5.5409   -8.9066    3.0749 H   0  0  0  0  0  0  0  0  0  0  0  0
    7.4190   -6.6880    3.7082 H   0  0  0  0  0  0  0  0  0  0  0  0
    7.9754   -7.1169    1.2278 H   0  0  0  0  0  0  0  0  0  0  0  0
    6.6469   -8.2554    1.1208 H   0  0  0  0  0  0  0  0  0  0  0  0
    7.9782   -8.6101    2.1727 H   0  0  0  0  0  0  0  0  0  0  0  0
    3.9989   -9.6863    3.5910 H   0  0  0  0  0  0  0  0  0  0  0  0
    3.9643  -12.7488    4.9483 H   0  0  0  0  0  0  0  0  0  0  0  0
    2.5353  -12.4320    2.7525 H   0  0  0  0  0  0  0  0  0  0  0  0
    0.3108  -10.9154    3.5192 H   0  0  0  0  0  0  0  0  0  0  0  0
  1  2  2  0
  1 32  1  0
  1 33  1  0
  2  3  1  0
  2 34  1  0
  3 30  1  0
  3  4  1  0
  3 35  1  6
  4 24  1  0
  4  5  1  0
  4 36  1  6
  5  6  1  0
  5 37  1  1
  5  7  1  0
  6 38  1  0
  6 39  1  0
  6 40  1  0
  7 42  1  6
  7  8  1  0
  7 14  1  0
  8 41  1  0
  8  9  2  0
  9 10  1  0
  9 12  1  0
 10 11  1  0
 11 43  1  0
 11 44  1  0
 11 45  1  0
 12 13  2  0
 12 14  1  0
 14 15  1  0
 14 46  1  1
 15 24  1  0
 15 16  1  0
 15 47  1  6
 16 17  1  0
 16 48  1  0
 16 49  1  0
 17 23  1  6
 17 18  1  0
 24 17  1  6
 18 19  1  0
 18 50  1  0
 18 51  1  0
 19 20  1  0
 19 21  1  0
 19 52  1  1
 20 53  1  0
 20 54  1  0
 20 55  1  0
 21 22  2  0
 21 23  1  0
 24 25  1  0
 25 30  1  0
 25 26  1  0
 25 56  1  6
 26 27  2  0
 26 28  1  0
 28 29  2  0
 28 57  1  0
 29 30  1  0
 29 58  1  0
 30 31  1  1
 31 59  1  0
M  END
>  <i_m_ct_stereo_status>  (380) 
1

>  <s_m_source_file>  (380) 
/var/tmp/pbs.5076255.sched01/tmp7onimy_i/150cvk1qxg3.sdf

>  <i_m_source_file_index>  (380) 
25

>  <i_lp_mmshare_version>  (380) 
48012

>  <i_f3d_flags>  (380) 
0

>  <s_epik_input>  (380) 
Tz1DKE8xKVtDQEhdKFtDSDNdKVtDSDJdW0NAXTEyW0NAXTM0W0NAQEhdKFtDQEBIXShbQ0hdPVtDSDJdKVtDQF01KFtPSF0pW0NAQEhdNEMoPU8pW0NIXT1bQ0hdNSlbQ0BASF0oW0NIM10pQz02W0NAQEhdKFtDQEhdM1tDSDJdMilDKD1PKVtDQEBIXShbQ0hdNilPW0NIM10=

>  <s_epik_cmdline>  (380) 
J2VwaWtfcHl0aG9uJywgJy1waHQnLCAnMi4wJywgJy1waCcsICc3LjAnLCAnLXRuJywgJzgnLCAnLW1hJywgJzIwMCcsICctaW1hZScsICc8aW5maWxlLm1hZT4nLCAnLW9tYWUnLCAnPG91dGZpbGUubWFlPic=

>  <r_lp_tautomer_probability>  (380) 
1

>  <r_epik_Ionization_Penalty>  (380) 
1.71466e-07

>  <r_epik_Ionization_Penalty_Charging>  (380) 
0

>  <r_epik_Ionization_Penalty_Neutral>  (380) 
1.71466e-07

>  <r_epik_State_Penalty>  (380) 
0.41068

>  <r_epik_Charging_Adjusted_Penalty>  (380) 
0.41068

>  <i_epik_Tot_Q>  (380) 
0

>  <i_epik_Tot_abs_Q>  (380) 
0

>  <s_epik_Chemistry_Notes>  (380) 
This compound has an ester and may undergo hydrolysis at high or low pH.

>  <s_lp_Force_Field>  (380) 
OPLS3e

>  <r_lp_Energy>  (380) 
63.6653

>  <b_lp_Chiralities_Consistent>  (380) 
1

>  <s_lp_Variant>  (380) 
100:0-1

>  <s_i_glide_gridfile>  (380) 
pfpi4k_grid

>  <i_i_glide_lignum>  (380) 
25

>  <i_i_glide_rotatable_bonds>  (380) 
3

>  <r_i_docking_score>  (380) 
-1.82292

>  <r_i_glide_ligand_efficiency>  (380) 
-0.058804

>  <r_i_glide_ligand_efficiency_sa>  (380) 
-0.184726

>  <r_i_glide_ligand_efficiency_ln>  (380) 
-0.411125

>  <r_i_glide_gscore>  (380) 
-1.82292

>  <r_i_glide_lipo>  (380) 
-0.246647

>  <r_i_glide_hbond>  (380) 
0

>  <r_i_glide_metal>  (380) 
-0

>  <r_i_glide_rewards>  (380) 
-0.528174

>  <r_i_glide_evdw>  (380) 
-21.7655

>  <r_i_glide_ecoul>  (380) 
-0.26002

>  <r_i_glide_erotb>  (380) 
0.110045

>  <r_i_glide_esite>  (380) 
-0.0308715

>  <r_i_glide_emodel>  (380) 
-21.7009

>  <r_i_glide_energy>  (380) 
-22.0255

>  <r_i_glide_einternal>  (380) 
2.23617

>  <r_i_glide_intrahb_reward>  (380) 
-0

>  <i_i_glide_confnum>  (380) 
4

>  <i_i_glide_posenum>  (380) 
10

>  <r_i_glide_eff_state_penalty>  (380) 
0

>  <ligand_id>  (380) 
100

>  <original_smiles>  (380) 
C=CC1C2C(C)C3=CC(OC)C(=O)C3C3CC4(CC(C)C(=O)O4)C32C2C(=O)C=CC12O

>  <smiles>  (380) 
[H]OC12C([H])=C([H])C(=O)C1([H])C13C([H])(C([H])([H])C14OC(=O)C([H])(C([H])([H])[H])C4([H])[H])C1([H])C(=O)C(OC([H])([H])[H])=C([H])C1([H])C([H])(C([H])([H])[H])C3([H])C2([H])C([H])=C([H])[H]

$$$$
101:0:0
     RDKit          3D

 88 94  0  0  1  0  0  0  0  0999 V2000
   -1.5887   -9.3542    2.1574 C   0  0  0  0  0  0  0  0  0  0  0  0
   -0.3720   -9.1780    3.0280 C   0  0  0  0  0  0  0  0  0  0  0  0
    0.3713  -10.1272    3.5910 C   0  0  0  0  0  0  0  0  0  0  0  0
    1.5221   -9.5649    4.3918 C   0  0  1  0  0  0  0  0  0  0  0  0
    2.8947   -9.9619    3.8219 C   0  0  0  0  0  0  0  0  0  0  0  0
    3.3907   -9.0217    2.7032 C   0  0  1  0  0  0  0  0  0  0  0  0
    2.5776   -9.1021    1.5500 O   0  0  0  0  0  0  0  0  0  0  0  0
    3.5691   -7.5681    3.2182 C   0  0  1  0  0  0  0  0  0  0  0  0
    4.1289   -6.4267    2.2639 C   0  0  1  0  0  0  0  0  0  0  0  0
    5.3272   -7.1037    1.5254 C   0  0  0  0  0  0  0  0  0  0  0  0
    3.1443   -5.9224    1.1585 C   0  0  1  0  0  0  0  0  0  0  0  0
    1.9007   -5.4857    1.6744 O   0  0  0  0  0  0  0  0  0  0  0  0
    3.7130   -4.7480    0.3302 C   0  0  0  0  0  0  0  0  0  0  0  0
    4.1644   -3.5383    1.1933 C   0  0  2  0  0  0  0  0  0  0  0  0
    4.5128   -2.2152    0.4149 C   0  0  0  0  0  0  0  0  0  0  0  0
    5.7273   -2.3094   -0.5388 C   0  0  0  0  0  0  0  0  0  0  0  0
    3.3474   -1.8532   -0.4931 C   0  0  0  0  0  0  0  0  0  0  0  0
    4.6814   -1.0378    1.4263 C   0  0  1  0  0  0  0  0  0  0  0  0
    3.4260   -0.7344    2.0545 O   0  0  0  0  0  0  0  0  0  0  0  0
    3.2743    0.5492    2.5938 C   0  0  2  0  0  0  0  0  0  0  0  0
    3.7470    0.5825    3.9152 O   0  0  0  0  0  0  0  0  0  0  0  0
    3.6445    1.8541    4.5555 C   0  0  0  0  0  0  0  0  0  0  0  0
    2.1741    2.2768    4.6604 C   0  0  1  0  0  0  0  0  0  0  0  0
    2.0722    3.5678    5.2278 O   0  0  0  0  0  0  0  0  0  0  0  0
    1.5179    2.2634    3.2664 C   0  0  1  0  0  0  0  0  0  0  0  0
    2.0209    3.3438    2.4807 O   0  0  0  0  0  0  0  0  0  0  0  0
    1.7594    0.8797    2.6044 C   0  0  1  0  0  0  0  0  0  0  0  0
    1.2042    0.9449    1.3072 O   0  0  0  0  0  0  0  0  0  0  0  0
    5.7434   -1.3846    2.4768 C   0  0  0  0  0  0  0  0  0  0  0  0
    5.3807   -2.6874    3.2177 C   0  0  0  0  0  0  0  0  0  0  0  0
    5.1869   -3.9467    2.3030 C   0  0  2  0  0  0  0  0  0  0  0  0
    6.5858   -4.3188    1.7132 C   0  0  0  0  0  0  0  0  0  0  0  0
    4.5980   -5.1788    3.1310 C   0  0  1  0  0  0  0  0  0  0  0  0
    3.5066   -4.6990    4.1524 C   0  0  0  0  0  0  0  0  0  0  0  0
    2.5499   -5.7227    4.7240 C   0  0  2  0  0  0  0  0  0  0  0  0
    3.1341   -6.7850    5.4771 O   0  0  0  0  0  0  0  0  0  0  0  0
    2.5089   -7.1325    4.2313 C   0  0  2  0  0  0  0  0  0  0  0  0
    1.2539   -8.0301    4.3679 C   0  0  2  0  0  0  0  0  0  0  0  0
    0.5848   -7.7244    5.5819 O   0  0  0  0  0  0  0  0  0  0  0  0
    0.1740   -7.8066    3.2798 C   0  0  0  0  0  0  0  0  0  0  0  0
   -2.4682   -8.8873    2.5998 H   0  0  0  0  0  0  0  0  0  0  0  0
   -1.7753  -10.4132    2.0045 H   0  0  0  0  0  0  0  0  0  0  0  0
   -1.3992   -8.8990    1.1895 H   0  0  0  0  0  0  0  0  0  0  0  0
    0.1906  -11.1902    3.5174 H   0  0  0  0  0  0  0  0  0  0  0  0
    1.4396   -9.9814    5.3969 H   0  0  0  0  0  0  0  0  0  0  0  0
    3.6108   -9.9169    4.6468 H   0  0  0  0  0  0  0  0  0  0  0  0
    2.8987  -11.0032    3.4929 H   0  0  0  0  0  0  0  0  0  0  0  0
    4.3647   -9.4168    2.4124 H   0  0  0  0  0  0  0  0  0  0  0  0
    2.5503  -10.0071    1.2714 H   0  0  0  0  0  0  0  0  0  0  0  0
    4.4307   -7.7336    3.8694 H   0  0  0  0  0  0  0  0  0  0  0  0
    5.7799   -6.4973    0.7566 H   0  0  0  0  0  0  0  0  0  0  0  0
    5.0151   -7.9833    0.9605 H   0  0  0  0  0  0  0  0  0  0  0  0
    6.1187   -7.4123    2.2139 H   0  0  0  0  0  0  0  0  0  0  0  0
    2.9311   -6.7413    0.4773 H   0  0  0  0  0  0  0  0  0  0  0  0
    2.0842   -4.8250    2.3232 H   0  0  0  0  0  0  0  0  0  0  0  0
    4.5288   -5.0882   -0.3028 H   0  0  0  0  0  0  0  0  0  0  0  0
    2.9318   -4.4507   -0.3673 H   0  0  0  0  0  0  0  0  0  0  0  0
    3.2596   -3.2602    1.7265 H   0  0  0  0  0  0  0  0  0  0  0  0
    5.7696   -1.4303   -1.1877 H   0  0  0  0  0  0  0  0  0  0  0  0
    5.6530   -3.1849   -1.1867 H   0  0  0  0  0  0  0  0  0  0  0  0
    6.6825   -2.3465   -0.0168 H   0  0  0  0  0  0  0  0  0  0  0  0
    3.4253   -0.8334   -0.8753 H   0  0  0  0  0  0  0  0  0  0  0  0
    2.4348   -1.9143    0.0948 H   0  0  0  0  0  0  0  0  0  0  0  0
    3.2288   -2.5247   -1.3443 H   0  0  0  0  0  0  0  0  0  0  0  0
    5.0046   -0.1594    0.8647 H   0  0  0  0  0  0  0  0  0  0  0  0
    3.8075    1.2815    1.9908 H   0  0  0  0  0  0  0  0  0  0  0  0
    4.0890    1.7870    5.5489 H   0  0  0  0  0  0  0  0  0  0  0  0
    4.2186    2.6079    4.0150 H   0  0  0  0  0  0  0  0  0  0  0  0
    1.6475    1.5812    5.3154 H   0  0  0  0  0  0  0  0  0  0  0  0
    2.3985    4.1819    4.5826 H   0  0  0  0  0  0  0  0  0  0  0  0
    0.4455    2.4299    3.3827 H   0  0  0  0  0  0  0  0  0  0  0  0
    1.3597    3.5764    1.8217 H   0  0  0  0  0  0  0  0  0  0  0  0
    1.2559    0.1026    3.1761 H   0  0  0  0  0  0  0  0  0  0  0  0
    1.2776    0.1111    0.8737 H   0  0  0  0  0  0  0  0  0  0  0  0
    6.7171   -1.4453    2.0019 H   0  0  0  0  0  0  0  0  0  0  0  0
    5.8424   -0.5738    3.1935 H   0  0  0  0  0  0  0  0  0  0  0  0
    6.1102   -2.9052    3.9957 H   0  0  0  0  0  0  0  0  0  0  0  0
    4.4726   -2.4350    3.7606 H   0  0  0  0  0  0  0  0  0  0  0  0
    7.0618   -5.1347    2.2649 H   0  0  0  0  0  0  0  0  0  0  0  0
    7.2991   -3.5006    1.7560 H   0  0  0  0  0  0  0  0  0  0  0  0
    6.5542   -4.5941    0.6623 H   0  0  0  0  0  0  0  0  0  0  0  0
    5.4022   -5.5457    3.7745 H   0  0  0  0  0  0  0  0  0  0  0  0
    3.9938   -4.2273    5.0057 H   0  0  0  0  0  0  0  0  0  0  0  0
    2.8812   -3.9250    3.7177 H   0  0  0  0  0  0  0  0  0  0  0  0
    1.6407   -5.3207    5.1622 H   0  0  0  0  0  0  0  0  0  0  0  0
    1.1280   -8.0440    6.2840 H   0  0  0  0  0  0  0  0  0  0  0  0
    0.5873   -7.4624    2.3389 H   0  0  0  0  0  0  0  0  0  0  0  0
   -0.6191   -7.1290    3.5829 H   0  0  0  0  0  0  0  0  0  0  0  0
  1  2  1  0
  1 41  1  0
  1 42  1  0
  1 43  1  0
  2 40  1  0
  2  3  2  0
  3  4  1  0
  3 44  1  0
  4 38  1  0
  4  5  1  0
  4 45  1  1
  5  6  1  0
  5 46  1  0
  5 47  1  0
  6  7  1  0
  6  8  1  0
  6 48  1  6
  7 49  1  0
  8 37  1  0
  8  9  1  0
  8 50  1  1
  9 33  1  0
  9 10  1  6
  9 11  1  0
 10 51  1  0
 10 52  1  0
 10 53  1  0
 11 12  1  0
 11 13  1  0
 11 54  1  6
 12 55  1  0
 13 14  1  0
 13 56  1  0
 13 57  1  0
 14 31  1  0
 14 15  1  0
 14 58  1  1
 15 16  1  0
 15 17  1  0
 15 18  1  0
 16 59  1  0
 16 60  1  0
 16 61  1  0
 17 62  1  0
 17 63  1  0
 17 64  1  0
 18 19  1  0
 18 29  1  0
 18 65  1  6
 19 20  1  0
 20 27  1  0
 20 21  1  0
 20 66  1  6
 21 22  1  0
 22 23  1  0
 22 67  1  0
 22 68  1  0
 23 24  1  0
 23 25  1  0
 23 69  1  1
 24 70  1  0
 25 26  1  0
 25 27  1  0
 25 71  1  1
 26 72  1  0
 27 28  1  0
 27 73  1  1
 28 74  1  0
 29 30  1  0
 29 75  1  0
 29 76  1  0
 30 31  1  0
 30 77  1  0
 30 78  1  0
 31 32  1  6
 31 33  1  0
 32 79  1  0
 32 80  1  0
 32 81  1  0
 33 34  1  0
 33 82  1  1
 34 35  1  0
 34 83  1  0
 34 84  1  0
 35 37  1  0
 35 36  1  0
 35 85  1  1
 37 36  1  1
 37 38  1  0
 38 39  1  1
 38 40  1  0
 39 86  1  0
 40 87  1  0
 40 88  1  0
M  END
>  <i_m_ct_stereo_status>  (381) 
1

>  <s_m_source_file>  (381) 
/var/tmp/pbs.5076255.sched01/tmp7onimy_i/150cvk1qxg3.sdf

>  <i_m_source_file_index>  (381) 
27

>  <i_lp_mmshare_version>  (381) 
48012

>  <i_f3d_flags>  (381) 
0

>  <s_epik_input>  (381) 
W0NIM11DKD1bQ0hdMSlbQ0gyXVtDQEBdMihbT0hdKVtDQEBIXTFbQ0gyXVtDQEBIXShbT0hdKVtDQEhdKFtDQF0yMzQpW0NAXTUoW0NIM10pW0NASF0oW0NIMl1bQ0BASF0zTzQpW0NAQF02KFtDSDNdKVtDQEhdKFtDSDJdW0NAQEhdNVtPSF0pQyhbQ0gzXSkoW0NIM10pW0NASF0oW0NIMl1bQ0gyXTYpT1tDQEBIXTdPW0NIMl1bQ0BASF0oW09IXSlbQ0BASF0oW09IXSlbQ0BIXTdbT0hd

>  <s_epik_cmdline>  (381) 
J2VwaWtfcHl0aG9uJywgJy1waHQnLCAnMi4wJywgJy1waCcsICc3LjAnLCAnLXRuJywgJzgnLCAnLW1hJywgJzIwMCcsICctaW1hZScsICc8aW5maWxlLm1hZT4nLCAnLW9tYWUnLCAnPG91dGZpbGUubWFlPic=

>  <r_lp_tautomer_probability>  (381) 
1

>  <r_epik_Ionization_Penalty>  (381) 
3.03155e-06

>  <r_epik_Ionization_Penalty_Charging>  (381) 
0

>  <r_epik_Ionization_Penalty_Neutral>  (381) 
3.03155e-06

>  <r_epik_State_Penalty>  (381) 
-0

>  <r_epik_Charging_Adjusted_Penalty>  (381) 
0

>  <i_epik_Tot_Q>  (381) 
0

>  <i_epik_Tot_abs_Q>  (381) 
0

>  <s_epik_Chemistry_Notes>  (381) 
This compound contains an acetal/aminal-like group ( X-CH(R)-Y where X, Y are N, S, or O) that may be acid/base labile, releasing an aldehyde.

>  <s_lp_Force_Field>  (381) 
OPLS3e

>  <r_lp_Energy>  (381) 
84.1971

>  <b_lp_Chiralities_Consistent>  (381) 
1

>  <s_lp_Variant>  (381) 
101:0-1

>  <s_i_glide_gridfile>  (381) 
pfpi4k_grid

>  <i_i_glide_lignum>  (381) 
27

>  <i_i_glide_rotatable_bonds>  (381) 
8

>  <r_i_docking_score>  (381) 
-3.44688

>  <r_i_glide_ligand_efficiency>  (381) 
-0.086172

>  <r_i_glide_ligand_efficiency_sa>  (381) 
-0.294704

>  <r_i_glide_ligand_efficiency_ln>  (381) 
-0.735118

>  <r_i_glide_gscore>  (381) 
-3.44688

>  <r_i_glide_lipo>  (381) 
-0.70354

>  <r_i_glide_hbond>  (381) 
-0.0208322

>  <r_i_glide_metal>  (381) 
-0

>  <r_i_glide_rewards>  (381) 
-0.0690877

>  <r_i_glide_evdw>  (381) 
-31.0917

>  <r_i_glide_ecoul>  (381) 
-7.63271

>  <r_i_glide_erotb>  (381) 
0.0460708

>  <r_i_glide_esite>  (381) 
0

>  <r_i_glide_emodel>  (381) 
-44.9608

>  <r_i_glide_energy>  (381) 
-38.7244

>  <r_i_glide_einternal>  (381) 
3.92047

>  <r_i_glide_intrahb_reward>  (381) 
-0

>  <i_i_glide_confnum>  (381) 
2

>  <i_i_glide_posenum>  (381) 
9

>  <r_i_glide_eff_state_penalty>  (381) 
0

>  <ligand_id>  (381) 
101

>  <original_smiles>  (381) 
CC1=CC2CC(O)C3C4(C)C(O)CC5C(C)(C)C(OC6OCC(O)C(O)C6O)CCC5(C)C4CC4OC43C2(O)C1

>  <smiles>  (381) 
[H]OC1([H])C([H])([H])OC([H])(OC2([H])C([H])([H])C([H])([H])C3(C([H])([H])[H])C([H])(C([H])([H])C([H])(O[H])C4(C([H])([H])[H])C5([H])C([H])(O[H])C([H])([H])C6([H])C([H])=C(C([H])([H])[H])C([H])([H])C6(O[H])C56OC6([H])C([H])([H])C34[H])C2(C([H])([H])[H])C([H])([H])[H])C([H])(O[H])C1([H])O[H]

$$$$
101:0:1
     RDKit          3D

 88 94  0  0  1  0  0  0  0  0999 V2000
   -3.2840    2.8426    7.4120 C   0  0  0  0  0  0  0  0  0  0  0  0
   -1.8180    3.1821    7.5107 C   0  0  0  0  0  0  0  0  0  0  0  0
   -1.1907    3.7729    8.5266 C   0  0  0  0  0  0  0  0  0  0  0  0
    0.2935    3.9248    8.2818 C   0  0  1  0  0  0  0  0  0  0  0  0
    1.1519    3.1065    9.2617 C   0  0  0  0  0  0  0  0  0  0  0  0
    1.3697    1.6461    8.8161 C   0  0  1  0  0  0  0  0  0  0  0  0
    0.1591    0.9081    8.8226 O   0  0  0  0  0  0  0  0  0  0  0  0
    2.1373    1.5788    7.4637 C   0  0  1  0  0  0  0  0  0  0  0  0
    2.5505    0.1775    6.8347 C   0  0  1  0  0  0  0  0  0  0  0  0
    3.1081   -0.6413    8.0398 C   0  0  0  0  0  0  0  0  0  0  0  0
    1.3746   -0.6548    6.2323 C   0  0  1  0  0  0  0  0  0  0  0  0
    0.6102    0.0612    5.2857 O   0  0  0  0  0  0  0  0  0  0  0  0
    1.8403   -1.9557    5.5378 C   0  0  0  0  0  0  0  0  0  0  0  0
    2.9057   -1.7205    4.4367 C   0  0  2  0  0  0  0  0  0  0  0  0
    3.2082   -2.9615    3.5182 C   0  0  0  0  0  0  0  0  0  0  0  0
    3.8644   -4.1629    4.2481 C   0  0  0  0  0  0  0  0  0  0  0  0
    1.8990   -3.5059    2.9003 C   0  0  0  0  0  0  0  0  0  0  0  0
    4.1314   -2.5246    2.3465 C   0  0  1  0  0  0  0  0  0  0  0  0
    3.4462   -1.6405    1.4607 O   0  0  0  0  0  0  0  0  0  0  0  0
    3.5162   -1.8617    0.0812 C   0  0  2  0  0  0  0  0  0  0  0  0
    2.8789   -3.0607   -0.2707 O   0  0  0  0  0  0  0  0  0  0  0  0
    2.7851   -3.2878   -1.6756 C   0  0  0  0  0  0  0  0  0  0  0  0
    4.2057   -3.4166   -2.2530 C   0  0  1  0  0  0  0  0  0  0  0  0
    4.2018   -3.6754   -3.6430 O   0  0  0  0  0  0  0  0  0  0  0  0
    5.0198   -2.1515   -1.9370 C   0  0  1  0  0  0  0  0  0  0  0  0
    4.5142   -1.0264   -2.6464 O   0  0  0  0  0  0  0  0  0  0  0  0
    4.9898   -1.8889   -0.4215 C   0  0  1  0  0  0  0  0  0  0  0  0
    5.6530   -0.6598   -0.2177 O   0  0  0  0  0  0  0  0  0  0  0  0
    5.3961   -1.8114    2.8646 C   0  0  0  0  0  0  0  0  0  0  0  0
    5.0552   -0.5927    3.7404 C   0  0  0  0  0  0  0  0  0  0  0  0
    4.1541   -0.9255    4.9728 C   0  0  2  0  0  0  0  0  0  0  0  0
    5.0540   -1.7510    5.9440 C   0  0  0  0  0  0  0  0  0  0  0  0
    3.6530    0.3991    5.7065 C   0  0  1  0  0  0  0  0  0  0  0  0
    3.2490    1.4953    4.6600 C   0  0  0  0  0  0  0  0  0  0  0  0
    2.3696    2.6391    5.1108 C   0  0  2  0  0  0  0  0  0  0  0  0
    2.8995    3.4686    6.1486 O   0  0  0  0  0  0  0  0  0  0  0  0
    1.7446    2.6741    6.4760 C   0  0  2  0  0  0  0  0  0  0  0  0
    0.4630    3.4939    6.7924 C   0  0  2  0  0  0  0  0  0  0  0  0
    0.4433    4.6990    6.0434 O   0  0  0  0  0  0  0  0  0  0  0  0
   -0.8676    2.7892    6.4144 C   0  0  0  0  0  0  0  0  0  0  0  0
   -3.7122    3.3293    6.5358 H   0  0  0  0  0  0  0  0  0  0  0  0
   -3.8324    3.1625    8.3013 H   0  0  0  0  0  0  0  0  0  0  0  0
   -3.3985    1.7670    7.2841 H   0  0  0  0  0  0  0  0  0  0  0  0
   -1.6656    4.1053    9.4355 H   0  0  0  0  0  0  0  0  0  0  0  0
    0.5389    4.9797    8.4137 H   0  0  0  0  0  0  0  0  0  0  0  0
    2.1280    3.5928    9.3209 H   0  0  0  0  0  0  0  0  0  0  0  0
    0.7447    3.1539   10.2722 H   0  0  0  0  0  0  0  0  0  0  0  0
    1.9961    1.2076    9.5911 H   0  0  0  0  0  0  0  0  0  0  0  0
   -0.2097    0.9741    9.6946 H   0  0  0  0  0  0  0  0  0  0  0  0
    3.1071    1.9369    7.8116 H   0  0  0  0  0  0  0  0  0  0  0  0
    3.3530   -1.6687    7.8049 H   0  0  0  0  0  0  0  0  0  0  0  0
    2.3669   -0.7594    8.8306 H   0  0  0  0  0  0  0  0  0  0  0  0
    3.9973   -0.1807    8.4790 H   0  0  0  0  0  0  0  0  0  0  0  0
    0.6896   -0.9278    7.0347 H   0  0  0  0  0  0  0  0  0  0  0  0
    1.1892    0.3173    4.5822 H   0  0  0  0  0  0  0  0  0  0  0  0
    2.2081   -2.6694    6.2697 H   0  0  0  0  0  0  0  0  0  0  0  0
    0.9544   -2.4213    5.1109 H   0  0  0  0  0  0  0  0  0  0  0  0
    2.4119   -1.0465    3.7423 H   0  0  0  0  0  0  0  0  0  0  0  0
    3.8936   -5.0416    3.5976 H   0  0  0  0  0  0  0  0  0  0  0  0
    3.3183   -4.4393    5.1505 H   0  0  0  0  0  0  0  0  0  0  0  0
    4.8997   -3.9787    4.5298 H   0  0  0  0  0  0  0  0  0  0  0  0
    2.1094   -4.2195    2.1017 H   0  0  0  0  0  0  0  0  0  0  0  0
    1.3040   -2.6985    2.4716 H   0  0  0  0  0  0  0  0  0  0  0  0
    1.2842   -4.0262    3.6357 H   0  0  0  0  0  0  0  0  0  0  0  0
    4.4065   -3.4297    1.8105 H   0  0  0  0  0  0  0  0  0  0  0  0
    2.9603   -1.0417   -0.3695 H   0  0  0  0  0  0  0  0  0  0  0  0
    2.2155   -4.2021   -1.8347 H   0  0  0  0  0  0  0  0  0  0  0  0
    2.2299   -2.4938   -2.1763 H   0  0  0  0  0  0  0  0  0  0  0  0
    4.6934   -4.2704   -1.7838 H   0  0  0  0  0  0  0  0  0  0  0  0
    3.7029   -4.4714   -3.7725 H   0  0  0  0  0  0  0  0  0  0  0  0
    6.0598   -2.3098   -2.2343 H   0  0  0  0  0  0  0  0  0  0  0  0
    3.5911   -0.9295   -2.4566 H   0  0  0  0  0  0  0  0  0  0  0  0
    5.5361   -2.6940    0.0683 H   0  0  0  0  0  0  0  0  0  0  0  0
    5.0834    0.0355   -0.5117 H   0  0  0  0  0  0  0  0  0  0  0  0
    6.0094   -2.5331    3.3912 H   0  0  0  0  0  0  0  0  0  0  0  0
    6.0292   -1.4628    2.0559 H   0  0  0  0  0  0  0  0  0  0  0  0
    5.9726   -0.0980    4.0661 H   0  0  0  0  0  0  0  0  0  0  0  0
    4.5737    0.1089    3.0650 H   0  0  0  0  0  0  0  0  0  0  0  0
    5.4590   -1.1496    6.7627 H   0  0  0  0  0  0  0  0  0  0  0  0
    5.9305   -2.1757    5.4627 H   0  0  0  0  0  0  0  0  0  0  0  0
    4.5304   -2.6025    6.3758 H   0  0  0  0  0  0  0  0  0  0  0  0
    4.5161    0.8368    6.2151 H   0  0  0  0  0  0  0  0  0  0  0  0
    4.1487    1.9502    4.2444 H   0  0  0  0  0  0  0  0  0  0  0  0
    2.7343    1.0545    3.8079 H   0  0  0  0  0  0  0  0  0  0  0  0
    1.8729    3.1844    4.3165 H   0  0  0  0  0  0  0  0  0  0  0  0
    0.6260    4.4882    5.1400 H   0  0  0  0  0  0  0  0  0  0  0  0
   -0.7975    1.7075    6.4382 H   0  0  0  0  0  0  0  0  0  0  0  0
   -1.2543    3.0789    5.4390 H   0  0  0  0  0  0  0  0  0  0  0  0
  1  2  1  0
  1 41  1  0
  1 42  1  0
  1 43  1  0
  2 40  1  0
  2  3  2  0
  3  4  1  0
  3 44  1  0
  4 38  1  0
  4  5  1  0
  4 45  1  6
  5  6  1  0
  5 46  1  0
  5 47  1  0
  6  7  1  0
  6  8  1  0
  6 48  1  1
  7 49  1  0
  8 37  1  0
  8  9  1  0
  8 50  1  1
  9 33  1  0
  9 10  1  1
  9 11  1  0
 10 51  1  0
 10 52  1  0
 10 53  1  0
 11 12  1  0
 11 13  1  0
 11 54  1  1
 12 55  1  0
 13 14  1  0
 13 56  1  0
 13 57  1  0
 14 31  1  0
 14 15  1  0
 14 58  1  6
 15 16  1  0
 15 17  1  0
 15 18  1  0
 16 59  1  0
 16 60  1  0
 16 61  1  0
 17 62  1  0
 17 63  1  0
 17 64  1  0
 18 19  1  0
 18 29  1  0
 18 65  1  6
 19 20  1  0
 20 27  1  0
 20 21  1  0
 20 66  1  6
 21 22  1  0
 22 23  1  0
 22 67  1  0
 22 68  1  0
 23 24  1  0
 23 25  1  0
 23 69  1  1
 24 70  1  0
 25 26  1  0
 25 27  1  0
 25 71  1  6
 26 72  1  0
 27 28  1  0
 27 73  1  1
 28 74  1  0
 29 30  1  0
 29 75  1  0
 29 76  1  0
 30 31  1  0
 30 77  1  0
 30 78  1  0
 31 32  1  1
 31 33  1  0
 32 79  1  0
 32 80  1  0
 32 81  1  0
 33 34  1  0
 33 82  1  1
 34 35  1  0
 34 83  1  0
 34 84  1  0
 35 37  1  0
 35 36  1  0
 35 85  1  6
 37 36  1  1
 37 38  1  0
 38 39  1  6
 38 40  1  0
 39 86  1  0
 40 87  1  0
 40 88  1  0
M  END
>  <i_m_ct_stereo_status>  (382) 
1

>  <s_m_source_file>  (382) 
/var/tmp/pbs.5076255.sched01/tmp7onimy_i/150cvk1qxg3.sdf

>  <i_m_source_file_index>  (382) 
27

>  <i_lp_mmshare_version>  (382) 
48012

>  <i_f3d_flags>  (382) 
0

>  <s_epik_input>  (382) 
W0NIM11DKD1bQ0hdMSlbQ0gyXVtDQEBdMihbT0hdKVtDQEBIXTFbQ0gyXVtDQEBIXShbT0hdKVtDQEhdKFtDQF0yMzQpW0NAXTUoW0NIM10pW0NASF0oW0NIMl1bQ0BASF0zTzQpW0NAQF02KFtDSDNdKVtDQEhdKFtDSDJdW0NAQEhdNVtPSF0pQyhbQ0gzXSkoW0NIM10pW0NASF0oW0NIMl1bQ0gyXTYpT1tDQEBIXTdPW0NIMl1bQ0BASF0oW09IXSlbQ0BASF0oW09IXSlbQ0BIXTdbT0hd

>  <s_epik_cmdline>  (382) 
J2VwaWtfcHl0aG9uJywgJy1waHQnLCAnMi4wJywgJy1waCcsICc3LjAnLCAnLXRuJywgJzgnLCAnLW1hJywgJzIwMCcsICctaW1hZScsICc8aW5maWxlLm1hZT4nLCAnLW9tYWUnLCAnPG91dGZpbGUubWFlPic=

>  <r_lp_tautomer_probability>  (382) 
1

>  <r_epik_Ionization_Penalty>  (382) 
3.03155e-06

>  <r_epik_Ionization_Penalty_Charging>  (382) 
0

>  <r_epik_Ionization_Penalty_Neutral>  (382) 
3.03155e-06

>  <r_epik_State_Penalty>  (382) 
-0

>  <r_epik_Charging_Adjusted_Penalty>  (382) 
0

>  <i_epik_Tot_Q>  (382) 
0

>  <i_epik_Tot_abs_Q>  (382) 
0

>  <s_epik_Chemistry_Notes>  (382) 
This compound contains an acetal/aminal-like group ( X-CH(R)-Y where X, Y are N, S, or O) that may be acid/base labile, releasing an aldehyde.

>  <s_lp_Force_Field>  (382) 
OPLS3e

>  <r_lp_Energy>  (382) 
84.1971

>  <b_lp_Chiralities_Consistent>  (382) 
1

>  <s_lp_Variant>  (382) 
101:0-1

>  <s_i_glide_gridfile>  (382) 
pfpi4k_grid

>  <i_i_glide_lignum>  (382) 
27

>  <i_i_glide_rotatable_bonds>  (382) 
8

>  <r_i_docking_score>  (382) 
-3.35253

>  <r_i_glide_ligand_efficiency>  (382) 
-0.0838131

>  <r_i_glide_ligand_efficiency_sa>  (382) 
-0.286637

>  <r_i_glide_ligand_efficiency_ln>  (382) 
-0.714995

>  <r_i_glide_gscore>  (382) 
-3.35253

>  <r_i_glide_lipo>  (382) 
-0.489585

>  <r_i_glide_hbond>  (382) 
0

>  <r_i_glide_metal>  (382) 
-0

>  <r_i_glide_rewards>  (382) 
0

>  <r_i_glide_evdw>  (382) 
-29.878

>  <r_i_glide_ecoul>  (382) 
-9.02392

>  <r_i_glide_erotb>  (382) 
0.0460708

>  <r_i_glide_esite>  (382) 
-0.0615265

>  <r_i_glide_emodel>  (382) 
-45.7607

>  <r_i_glide_energy>  (382) 
-38.9019

>  <r_i_glide_einternal>  (382) 
2.88052

>  <r_i_glide_intrahb_reward>  (382) 
-0

>  <i_i_glide_confnum>  (382) 
4

>  <i_i_glide_posenum>  (382) 
5

>  <r_i_glide_eff_state_penalty>  (382) 
0

>  <ligand_id>  (382) 
101

>  <original_smiles>  (382) 
CC1=CC2CC(O)C3C4(C)C(O)CC5C(C)(C)C(OC6OCC(O)C(O)C6O)CCC5(C)C4CC4OC43C2(O)C1

>  <smiles>  (382) 
[H]OC1([H])C([H])([H])OC([H])(OC2([H])C([H])([H])C([H])([H])C3(C([H])([H])[H])C([H])(C([H])([H])C([H])(O[H])C4(C([H])([H])[H])C5([H])C([H])(O[H])C([H])([H])C6([H])C([H])=C(C([H])([H])[H])C([H])([H])C6(O[H])C56OC6([H])C([H])([H])C34[H])C2(C([H])([H])[H])C([H])([H])[H])C([H])(O[H])C1([H])O[H]

$$$$
101:0:2
     RDKit          3D

 88 94  0  0  1  0  0  0  0  0999 V2000
   -1.5621   -9.4049    2.1546 C   0  0  0  0  0  0  0  0  0  0  0  0
   -0.3473   -9.2186    3.0320 C   0  0  0  0  0  0  0  0  0  0  0  0
    0.4005  -10.1631    3.6004 C   0  0  0  0  0  0  0  0  0  0  0  0
    1.5471   -9.5888    4.4024 C   0  0  1  0  0  0  0  0  0  0  0  0
    2.9215   -9.9823    3.8324 C   0  0  0  0  0  0  0  0  0  0  0  0
    3.4142   -9.0425    2.7121 C   0  0  1  0  0  0  0  0  0  0  0  0
    2.5970   -9.1234    1.5622 O   0  0  0  0  0  0  0  0  0  0  0  0
    3.5878   -7.5882    3.2231 C   0  0  1  0  0  0  0  0  0  0  0  0
    4.1511   -6.4463    2.2677 C   0  0  1  0  0  0  0  0  0  0  0  0
    5.3516   -7.1225    1.5343 C   0  0  0  0  0  0  0  0  0  0  0  0
    3.1721   -5.9456    1.1596 C   0  0  1  0  0  0  0  0  0  0  0  0
    1.9172   -5.5450    1.6684 O   0  0  0  0  0  0  0  0  0  0  0  0
    3.7299   -4.7705    0.3269 C   0  0  0  0  0  0  0  0  0  0  0  0
    4.1708   -3.5595    1.1913 C   0  0  2  0  0  0  0  0  0  0  0  0
    4.5155   -2.2357    0.4119 C   0  0  0  0  0  0  0  0  0  0  0  0
    5.7334   -2.3287   -0.5389 C   0  0  0  0  0  0  0  0  0  0  0  0
    3.3507   -1.8777   -0.4986 C   0  0  0  0  0  0  0  0  0  0  0  0
    4.6791   -1.0554    1.4203 C   0  0  1  0  0  0  0  0  0  0  0  0
    3.4222   -0.7511    2.0437 O   0  0  0  0  0  0  0  0  0  0  0  0
    3.2690    0.5305    2.5865 C   0  0  2  0  0  0  0  0  0  0  0  0
    3.7363    0.5556    3.9097 O   0  0  0  0  0  0  0  0  0  0  0  0
    3.6323    1.8229    4.5569 C   0  0  0  0  0  0  0  0  0  0  0  0
    2.1604    2.2425    4.6575 C   0  0  1  0  0  0  0  0  0  0  0  0
    2.0528    3.5309    5.2302 O   0  0  0  0  0  0  0  0  0  0  0  0
    1.5067    2.2338    3.2620 C   0  0  1  0  0  0  0  0  0  0  0  0
    2.0098    3.3201    2.4826 O   0  0  0  0  0  0  0  0  0  0  0  0
    1.7539    0.8546    2.5937 C   0  0  1  0  0  0  0  0  0  0  0  0
    1.2012    0.9316    1.2937 O   0  0  0  0  0  0  0  0  0  0  0  0
    5.7396   -1.3980    2.4737 C   0  0  0  0  0  0  0  0  0  0  0  0
    5.3797   -2.7012    3.2165 C   0  0  0  0  0  0  0  0  0  0  0  0
    5.1932   -3.9623    2.3035 C   0  0  2  0  0  0  0  0  0  0  0  0
    6.5953   -4.3308    1.7184 C   0  0  0  0  0  0  0  0  0  0  0  0
    4.6103   -5.1962    3.1335 C   0  0  1  0  0  0  0  0  0  0  0  0
    3.5138   -4.7169    4.1484 C   0  0  0  0  0  0  0  0  0  0  0  0
    2.5629   -5.7435    4.7230 C   0  0  2  0  0  0  0  0  0  0  0  0
    3.1551   -6.7981    5.4765 O   0  0  0  0  0  0  0  0  0  0  0  0
    2.5258   -7.1501    4.2370 C   0  0  2  0  0  0  0  0  0  0  0  0
    1.2734   -8.0548    4.3759 C   0  0  2  0  0  0  0  0  0  0  0  0
    0.5807   -7.7501    5.5776 O   0  0  0  0  0  0  0  0  0  0  0  0
    0.1942   -7.8450    3.2806 C   0  0  0  0  0  0  0  0  0  0  0  0
   -2.4430   -8.9428    2.5939 H   0  0  0  0  0  0  0  0  0  0  0  0
   -1.7582  -10.4618    1.9913 H   0  0  0  0  0  0  0  0  0  0  0  0
   -1.3900   -8.9397    1.1872 H   0  0  0  0  0  0  0  0  0  0  0  0
    0.2260  -11.2271    3.5220 H   0  0  0  0  0  0  0  0  0  0  0  0
    1.4680  -10.0014    5.4099 H   0  0  0  0  0  0  0  0  0  0  0  0
    3.6367   -9.9328    4.6577 H   0  0  0  0  0  0  0  0  0  0  0  0
    2.9310  -11.0241    3.5051 H   0  0  0  0  0  0  0  0  0  0  0  0
    4.3888   -9.4355    2.4201 H   0  0  0  0  0  0  0  0  0  0  0  0
    2.5866  -10.0257    1.2747 H   0  0  0  0  0  0  0  0  0  0  0  0
    4.4493   -7.7506    3.8759 H   0  0  0  0  0  0  0  0  0  0  0  0
    5.8023   -6.5148    0.7649 H   0  0  0  0  0  0  0  0  0  0  0  0
    5.0430   -8.0041    0.9704 H   0  0  0  0  0  0  0  0  0  0  0  0
    6.1417   -7.4253    2.2260 H   0  0  0  0  0  0  0  0  0  0  0  0
    2.9663   -6.7719    0.4821 H   0  0  0  0  0  0  0  0  0  0  0  0
    1.6088   -6.2465    2.2207 H   0  0  0  0  0  0  0  0  0  0  0  0
    4.5475   -5.1096   -0.3032 H   0  0  0  0  0  0  0  0  0  0  0  0
    2.9450   -4.4807   -0.3691 H   0  0  0  0  0  0  0  0  0  0  0  0
    3.2612   -3.2913    1.7207 H   0  0  0  0  0  0  0  0  0  0  0  0
    5.7764   -1.4515   -1.1910 H   0  0  0  0  0  0  0  0  0  0  0  0
    5.6657   -3.2067   -1.1850 H   0  0  0  0  0  0  0  0  0  0  0  0
    6.6875   -2.3615   -0.0144 H   0  0  0  0  0  0  0  0  0  0  0  0
    3.4238   -0.8598   -0.8844 H   0  0  0  0  0  0  0  0  0  0  0  0
    2.4385   -1.9425    0.0910 H   0  0  0  0  0  0  0  0  0  0  0  0
    3.2368   -2.5503   -1.3491 H   0  0  0  0  0  0  0  0  0  0  0  0
    5.0019   -0.1779    0.8572 H   0  0  0  0  0  0  0  0  0  0  0  0
    3.8028    1.2654    1.9890 H   0  0  0  0  0  0  0  0  0  0  0  0
    4.0701    1.7481    5.5525 H   0  0  0  0  0  0  0  0  0  0  0  0
    4.2151    2.5757    4.0244 H   0  0  0  0  0  0  0  0  0  0  0  0
    1.6328    1.5437    5.3065 H   0  0  0  0  0  0  0  0  0  0  0  0
    2.3784    4.1473    4.5886 H   0  0  0  0  0  0  0  0  0  0  0  0
    0.4324    2.3981    3.3757 H   0  0  0  0  0  0  0  0  0  0  0  0
    1.3560    3.5484    1.8190 H   0  0  0  0  0  0  0  0  0  0  0  0
    1.2492    0.0736    3.1602 H   0  0  0  0  0  0  0  0  0  0  0  0
    1.2711    0.0920    0.8522 H   0  0  0  0  0  0  0  0  0  0  0  0
    6.7152   -1.4557    2.0013 H   0  0  0  0  0  0  0  0  0  0  0  0
    5.8353   -0.5855    3.1895 H   0  0  0  0  0  0  0  0  0  0  0  0
    6.1080   -2.9140    3.9973 H   0  0  0  0  0  0  0  0  0  0  0  0
    4.4692   -2.4514    3.7556 H   0  0  0  0  0  0  0  0  0  0  0  0
    7.0721   -5.1445    2.2736 H   0  0  0  0  0  0  0  0  0  0  0  0
    7.3047   -3.5088    1.7618 H   0  0  0  0  0  0  0  0  0  0  0  0
    6.5661   -4.6086    0.6674 H   0  0  0  0  0  0  0  0  0  0  0  0
    5.4131   -5.5574    3.7804 H   0  0  0  0  0  0  0  0  0  0  0  0
    3.9920   -4.2370    5.0017 H   0  0  0  0  0  0  0  0  0  0  0  0
    2.8807   -3.9571    3.7028 H   0  0  0  0  0  0  0  0  0  0  0  0
    1.6507   -5.3438    5.1608 H   0  0  0  0  0  0  0  0  0  0  0  0
   -0.0315   -8.4557    5.7235 H   0  0  0  0  0  0  0  0  0  0  0  0
    0.5982   -7.5176    2.3304 H   0  0  0  0  0  0  0  0  0  0  0  0
   -0.6058   -7.1684    3.5679 H   0  0  0  0  0  0  0  0  0  0  0  0
  1  2  1  0
  1 41  1  0
  1 42  1  0
  1 43  1  0
  2 40  1  0
  2  3  2  0
  3  4  1  0
  3 44  1  0
  4 38  1  0
  4  5  1  0
  4 45  1  1
  5  6  1  0
  5 46  1  0
  5 47  1  0
  6  7  1  0
  6  8  1  0
  6 48  1  6
  7 49  1  0
  8 37  1  0
  8  9  1  0
  8 50  1  1
  9 33  1  0
  9 10  1  6
  9 11  1  0
 10 51  1  0
 10 52  1  0
 10 53  1  0
 11 12  1  0
 11 13  1  0
 11 54  1  6
 12 55  1  0
 13 14  1  0
 13 56  1  0
 13 57  1  0
 14 31  1  0
 14 15  1  0
 14 58  1  1
 15 16  1  0
 15 17  1  0
 15 18  1  0
 16 59  1  0
 16 60  1  0
 16 61  1  0
 17 62  1  0
 17 63  1  0
 17 64  1  0
 18 19  1  0
 18 29  1  0
 18 65  1  6
 19 20  1  0
 20 27  1  0
 20 21  1  0
 20 66  1  6
 21 22  1  0
 22 23  1  0
 22 67  1  0
 22 68  1  0
 23 24  1  0
 23 25  1  0
 23 69  1  1
 24 70  1  0
 25 26  1  0
 25 27  1  0
 25 71  1  1
 26 72  1  0
 27 28  1  0
 27 73  1  1
 28 74  1  0
 29 30  1  0
 29 75  1  0
 29 76  1  0
 30 31  1  0
 30 77  1  0
 30 78  1  0
 31 32  1  6
 31 33  1  0
 32 79  1  0
 32 80  1  0
 32 81  1  0
 33 34  1  0
 33 82  1  1
 34 35  1  0
 34 83  1  0
 34 84  1  0
 35 37  1  0
 35 36  1  0
 35 85  1  1
 37 36  1  1
 37 38  1  0
 38 39  1  1
 38 40  1  0
 39 86  1  0
 40 87  1  0
 40 88  1  0
M  END
>  <i_m_ct_stereo_status>  (383) 
1

>  <s_m_source_file>  (383) 
/var/tmp/pbs.5076255.sched01/tmp7onimy_i/150cvk1qxg3.sdf

>  <i_m_source_file_index>  (383) 
27

>  <i_lp_mmshare_version>  (383) 
48012

>  <i_f3d_flags>  (383) 
0

>  <s_epik_input>  (383) 
W0NIM11DKD1bQ0hdMSlbQ0gyXVtDQEBdMihbT0hdKVtDQEBIXTFbQ0gyXVtDQEBIXShbT0hdKVtDQEhdKFtDQF0yMzQpW0NAXTUoW0NIM10pW0NASF0oW0NIMl1bQ0BASF0zTzQpW0NAQF02KFtDSDNdKVtDQEhdKFtDSDJdW0NAQEhdNVtPSF0pQyhbQ0gzXSkoW0NIM10pW0NASF0oW0NIMl1bQ0gyXTYpT1tDQEBIXTdPW0NIMl1bQ0BASF0oW09IXSlbQ0BASF0oW09IXSlbQ0BIXTdbT0hd

>  <s_epik_cmdline>  (383) 
J2VwaWtfcHl0aG9uJywgJy1waHQnLCAnMi4wJywgJy1waCcsICc3LjAnLCAnLXRuJywgJzgnLCAnLW1hJywgJzIwMCcsICctaW1hZScsICc8aW5maWxlLm1hZT4nLCAnLW9tYWUnLCAnPG91dGZpbGUubWFlPic=

>  <r_lp_tautomer_probability>  (383) 
1

>  <r_epik_Ionization_Penalty>  (383) 
3.03155e-06

>  <r_epik_Ionization_Penalty_Charging>  (383) 
0

>  <r_epik_Ionization_Penalty_Neutral>  (383) 
3.03155e-06

>  <r_epik_State_Penalty>  (383) 
-0

>  <r_epik_Charging_Adjusted_Penalty>  (383) 
0

>  <i_epik_Tot_Q>  (383) 
0

>  <i_epik_Tot_abs_Q>  (383) 
0

>  <s_epik_Chemistry_Notes>  (383) 
This compound contains an acetal/aminal-like group ( X-CH(R)-Y where X, Y are N, S, or O) that may be acid/base labile, releasing an aldehyde.

>  <s_lp_Force_Field>  (383) 
OPLS3e

>  <r_lp_Energy>  (383) 
84.1971

>  <b_lp_Chiralities_Consistent>  (383) 
1

>  <s_lp_Variant>  (383) 
101:0-1

>  <s_i_glide_gridfile>  (383) 
pfpi4k_grid

>  <i_i_glide_lignum>  (383) 
27

>  <i_i_glide_rotatable_bonds>  (383) 
8

>  <r_i_docking_score>  (383) 
-3.3025

>  <r_i_glide_ligand_efficiency>  (383) 
-0.0825625

>  <r_i_glide_ligand_efficiency_sa>  (383) 
-0.28236

>  <r_i_glide_ligand_efficiency_ln>  (383) 
-0.704326

>  <r_i_glide_gscore>  (383) 
-3.3025

>  <r_i_glide_lipo>  (383) 
-0.688034

>  <r_i_glide_hbond>  (383) 
-0.0141046

>  <r_i_glide_metal>  (383) 
-0

>  <r_i_glide_rewards>  (383) 
-0.0689841

>  <r_i_glide_evdw>  (383) 
-30.9975

>  <r_i_glide_ecoul>  (383) 
-6.85048

>  <r_i_glide_erotb>  (383) 
0.0460708

>  <r_i_glide_esite>  (383) 
0

>  <r_i_glide_emodel>  (383) 
-43.5294

>  <r_i_glide_energy>  (383) 
-37.848

>  <r_i_glide_einternal>  (383) 
4.37674

>  <r_i_glide_intrahb_reward>  (383) 
-0

>  <i_i_glide_confnum>  (383) 
2

>  <i_i_glide_posenum>  (383) 
2

>  <r_i_glide_eff_state_penalty>  (383) 
0

>  <ligand_id>  (383) 
101

>  <original_smiles>  (383) 
CC1=CC2CC(O)C3C4(C)C(O)CC5C(C)(C)C(OC6OCC(O)C(O)C6O)CCC5(C)C4CC4OC43C2(O)C1

>  <smiles>  (383) 
[H]OC1([H])C([H])([H])OC([H])(OC2([H])C([H])([H])C([H])([H])C3(C([H])([H])[H])C([H])(C([H])([H])C([H])(O[H])C4(C([H])([H])[H])C5([H])C([H])(O[H])C([H])([H])C6([H])C([H])=C(C([H])([H])[H])C([H])([H])C6(O[H])C56OC6([H])C([H])([H])C34[H])C2(C([H])([H])[H])C([H])([H])[H])C([H])(O[H])C1([H])O[H]

$$$$
102:0:0
     RDKit          3D

 96103  0  0  1  0  0  0  0  0999 V2000
   -2.8519    2.8669    6.7483 C   0  0  0  0  0  0  0  0  0  0  0  0
   -1.6199    2.3694    6.0345 C   0  0  0  0  0  0  0  0  0  0  0  0
   -0.4528    2.0547    6.6094 C   0  0  0  0  0  0  0  0  0  0  0  0
    0.5988    1.4775    5.6371 C   0  0  1  0  0  0  0  0  0  0  0  0
    0.0191    2.2382    4.4240 C   0  0  2  0  0  0  0  0  0  0  0  0
   -1.5198    2.2742    4.5585 C   0  0  0  0  0  0  0  0  0  0  0  0
    0.4896    1.7441    3.1029 C   0  0  0  0  0  0  0  0  0  0  0  0
    2.0217    1.5943    3.0942 C   0  0  1  0  0  0  0  0  0  0  0  0
    2.7594    2.8194    3.8569 C   0  0  1  0  0  0  0  0  0  0  0  0
    2.5423    4.1939    3.1967 C   0  0  0  0  0  0  0  0  0  0  0  0
    2.6698    2.8698    5.4848 C   0  0  0  0  0  0  0  0  0  0  0  0
    2.2072    1.4773    6.0210 C   0  0  2  0  0  0  0  0  0  0  0  0
    3.4178    1.0879    5.2832 O   0  0  0  0  0  0  0  0  0  0  0  0
    3.8363   -0.3354    5.2073 O   0  0  0  0  0  0  0  0  0  0  0  0
    2.9325   -0.9304    4.3666 C   0  0  1  0  0  0  0  0  0  0  0  0
    3.5654   -2.2879    3.8760 C   0  0  1  0  0  0  0  0  0  0  0  0
    2.4758   -3.3219    3.4790 C   0  0  0  0  0  0  0  0  0  0  0  0
    1.4155   -3.5499    4.5730 C   0  0  0  0  0  0  0  0  0  0  0  0
    0.8590   -2.2355    5.1581 C   0  0  1  0  0  0  0  0  0  0  0  0
   -0.1556   -2.5185    6.2801 C   0  0  0  0  0  0  0  0  0  0  0  0
    2.0493   -1.3690    5.6043 C   0  0  2  0  0  0  0  0  0  0  0  0
    1.8000   -0.6096    6.8321 O   0  0  0  0  0  0  0  0  0  0  0  0
    2.4703    0.5784    7.3147 C   0  0  0  0  0  0  0  0  0  0  0  0
    1.6385    0.8767    8.5950 C   0  0  0  0  0  0  0  0  0  0  0  0
    1.4773   -0.2798    9.5809 C   0  0  0  0  0  0  0  0  0  0  0  0
    2.9900   -0.6707   10.4477 S   0  0  0  0  0  0  0  0  0  0  0  0
    4.0115   -0.8244    8.9568 C   0  0  0  0  0  0  0  0  0  0  0  0
    3.9255    0.3516    7.9264 C   0  0  0  0  0  0  0  0  0  0  0  0
    4.7244   -2.1488    2.8589 C   0  0  1  0  0  0  0  0  0  0  0  0
    5.3908   -3.4800    2.4583 C   0  0  0  0  0  0  0  0  0  0  0  0
    4.3605   -1.2912    1.6487 C   0  0  1  0  0  0  0  0  0  0  0  0
    3.4484   -1.9693    0.7805 O   0  0  0  0  0  0  0  0  0  0  0  0
    3.8570   -2.1399   -0.5390 C   0  0  2  0  0  0  0  0  0  0  0  0
    3.8640   -0.8944   -1.1603 O   0  0  0  0  0  0  0  0  0  0  0  0
    4.2394   -0.8976   -2.5251 C   0  0  0  0  0  0  0  0  0  0  0  0
    3.2313   -1.7101   -3.3390 C   0  0  1  0  0  0  0  0  0  0  0  0
    3.6075   -1.6800   -4.6960 O   0  0  0  0  0  0  0  0  0  0  0  0
    3.1227   -3.1298   -2.7572 C   0  0  1  0  0  0  0  0  0  0  0  0
    4.3305   -3.8507   -2.9914 O   0  0  0  0  0  0  0  0  0  0  0  0
    2.8235   -3.0561   -1.2422 C   0  0  1  0  0  0  0  0  0  0  0  0
    2.8011   -4.3306   -0.6610 O   0  0  0  0  0  0  0  0  0  0  0  0
    3.8201    0.0649    2.1405 C   0  0  0  0  0  0  0  0  0  0  0  0
    2.5705    0.0500    3.0817 C   0  0  2  0  0  0  0  0  0  0  0  0
    1.5990   -0.6463    2.3274 O   0  0  0  0  0  0  0  0  0  0  0  0
   -3.1463    3.8468    6.3751 H   0  0  0  0  0  0  0  0  0  0  0  0
   -2.6985    2.9260    7.8266 H   0  0  0  0  0  0  0  0  0  0  0  0
   -3.6763    2.1739    6.6051 H   0  0  0  0  0  0  0  0  0  0  0  0
   -0.4207    2.3266    7.6461 H   0  0  0  0  0  0  0  0  0  0  0  0
    0.2809    0.4595    5.4852 H   0  0  0  0  0  0  0  0  0  0  0  0
    0.3014    3.2832    4.5204 H   0  0  0  0  0  0  0  0  0  0  0  0
   -2.0056    1.3613    4.2069 H   0  0  0  0  0  0  0  0  0  0  0  0
   -1.9488    3.1558    4.0683 H   0  0  0  0  0  0  0  0  0  0  0  0
   -0.0777    0.8524    2.8394 H   0  0  0  0  0  0  0  0  0  0  0  0
    0.2016    2.4919    2.3644 H   0  0  0  0  0  0  0  0  0  0  0  0
    2.1929    1.8864    2.0597 H   0  0  0  0  0  0  0  0  0  0  0  0
    3.8125    2.6443    3.6459 H   0  0  0  0  0  0  0  0  0  0  0  0
    1.5135    4.5423    3.2810 H   0  0  0  0  0  0  0  0  0  0  0  0
    2.7842    4.1506    2.1323 H   0  0  0  0  0  0  0  0  0  0  0  0
    3.1959    4.9433    3.6487 H   0  0  0  0  0  0  0  0  0  0  0  0
    3.6329    3.1938    5.9104 H   0  0  0  0  0  0  0  0  0  0  0  0
    1.9696    3.6425    5.8135 H   0  0  0  0  0  0  0  0  0  0  0  0
    4.0637   -2.7367    4.7350 H   0  0  0  0  0  0  0  0  0  0  0  0
    1.9734   -3.0441    2.5571 H   0  0  0  0  0  0  0  0  0  0  0  0
    2.9378   -4.2833    3.2667 H   0  0  0  0  0  0  0  0  0  0  0  0
    0.6004   -4.1511    4.1690 H   0  0  0  0  0  0  0  0  0  0  0  0
    1.8634   -4.1443    5.3722 H   0  0  0  0  0  0  0  0  0  0  0  0
    0.3219   -1.7004    4.3753 H   0  0  0  0  0  0  0  0  0  0  0  0
    0.2969   -3.0364    7.1274 H   0  0  0  0  0  0  0  0  0  0  0  0
   -0.9708   -3.1395    5.9088 H   0  0  0  0  0  0  0  0  0  0  0  0
   -0.5968   -1.5922    6.6484 H   0  0  0  0  0  0  0  0  0  0  0  0
    2.6905   -2.0778    6.1322 H   0  0  0  0  0  0  0  0  0  0  0  0
    2.0312    1.7791    9.0726 H   0  0  0  0  0  0  0  0  0  0  0  0
    0.5639    0.9594    8.4232 H   0  0  0  0  0  0  0  0  0  0  0  0
    0.6688   -0.0428   10.2755 H   0  0  0  0  0  0  0  0  0  0  0  0
    1.1131   -1.1664    9.0666 H   0  0  0  0  0  0  0  0  0  0  0  0
    5.0378   -0.9423    9.3085 H   0  0  0  0  0  0  0  0  0  0  0  0
    3.7088   -1.7476    8.4656 H   0  0  0  0  0  0  0  0  0  0  0  0
    4.7485    0.1766    7.2253 H   0  0  0  0  0  0  0  0  0  0  0  0
    4.2432    1.2749    8.4141 H   0  0  0  0  0  0  0  0  0  0  0  0
    5.5004   -1.5972    3.3880 H   0  0  0  0  0  0  0  0  0  0  0  0
    4.7362   -4.1001    1.8475 H   0  0  0  0  0  0  0  0  0  0  0  0
    5.6882   -4.0607    3.3319 H   0  0  0  0  0  0  0  0  0  0  0  0
    6.2915   -3.3000    1.8736 H   0  0  0  0  0  0  0  0  0  0  0  0
    5.2897   -1.0968    1.1106 H   0  0  0  0  0  0  0  0  0  0  0  0
    4.8607   -2.5812   -0.5852 H   0  0  0  0  0  0  0  0  0  0  0  0
    4.2503    0.1306   -2.8881 H   0  0  0  0  0  0  0  0  0  0  0  0
    5.2475   -1.2970   -2.6371 H   0  0  0  0  0  0  0  0  0  0  0  0
    2.2439   -1.2330   -3.2746 H   0  0  0  0  0  0  0  0  0  0  0  0
    2.8235   -1.8584   -5.2065 H   0  0  0  0  0  0  0  0  0  0  0  0
    2.3217   -3.6586   -3.2794 H   0  0  0  0  0  0  0  0  0  0  0  0
    4.1452   -4.7583   -2.8407 H   0  0  0  0  0  0  0  0  0  0  0  0
    1.8311   -2.6691   -1.1196 H   0  0  0  0  0  0  0  0  0  0  0  0
    2.9284   -4.9887   -1.3572 H   0  0  0  0  0  0  0  0  0  0  0  0
    4.6282    0.5444    2.6976 H   0  0  0  0  0  0  0  0  0  0  0  0
    3.6614    0.6670    1.2437 H   0  0  0  0  0  0  0  0  0  0  0  0
    1.5772   -0.3077    1.4379 H   0  0  0  0  0  0  0  0  0  0  0  0
  1  2  1  0
  1 45  1  0
  1 46  1  0
  1 47  1  0
  2  6  1  0
  2  3  2  0
  3  4  1  0
  3 48  1  0
  4 12  1  0
  4  5  1  0
  4 49  1  6
  5  6  1  0
  5  7  1  0
  5 50  1  1
  6 51  1  0
  6 52  1  0
  7  8  1  0
  7 53  1  0
  7 54  1  0
  8 43  1  0
  8  9  1  0
  8 55  1  6
  9 10  1  0
  9 11  1  0
  9 56  1  1
 10 57  1  0
 10 58  1  0
 10 59  1  0
 11 12  1  0
 11 60  1  0
 11 61  1  0
 12 23  1  1
 12 13  1  0
 13 14  1  0
 15 14  1  1
 15 21  1  0
 15 43  1  0
 15 16  1  0
 16 17  1  0
 16 29  1  0
 16 62  1  1
 17 18  1  0
 17 63  1  0
 17 64  1  0
 18 19  1  0
 18 65  1  0
 18 66  1  0
 19 20  1  0
 19 21  1  0
 19 67  1  6
 20 68  1  0
 20 69  1  0
 20 70  1  0
 21 22  1  0
 21 71  1  1
 22 23  1  0
 23 28  1  0
 23 24  1  0
 24 25  1  0
 24 72  1  0
 24 73  1  0
 25 26  1  0
 25 74  1  0
 25 75  1  0
 26 27  1  0
 27 28  1  0
 27 76  1  0
 27 77  1  0
 28 78  1  0
 28 79  1  0
 29 30  1  0
 29 31  1  0
 29 80  1  1
 30 81  1  0
 30 82  1  0
 30 83  1  0
 31 32  1  0
 31 42  1  0
 31 84  1  6
 32 33  1  0
 33 40  1  0
 33 34  1  0
 33 85  1  1
 34 35  1  0
 35 36  1  0
 35 86  1  0
 35 87  1  0
 36 37  1  0
 36 38  1  0
 36 88  1  6
 37 89  1  0
 38 39  1  0
 38 40  1  0
 38 90  1  6
 39 91  1  0
 40 41  1  0
 40 92  1  6
 41 93  1  0
 42 43  1  0
 42 94  1  0
 42 95  1  0
 43 44  1  6
 44 96  1  0
M  END
>  <i_m_ct_stereo_status>  (384) 
1

>  <s_m_source_file>  (384) 
/var/tmp/pbs.5076255.sched01/tmp7onimy_i/150cvk1qxg3.sdf

>  <i_m_source_file_index>  (384) 
28

>  <i_lp_mmshare_version>  (384) 
48012

>  <i_f3d_flags>  (384) 
0

>  <s_epik_input>  (384) 
W0NIM11DKFtDSDJdMSk9W0NIXVtDQEhdMltDQEhdMVtDSDJdW0NAQEhdKFtDQEBIXShbQ0gzXSlbQ0gyXTMpW0NAQF00KFtPSF0pW0NIMl1bQ0BIXShPW0NAQEhdNU9bQ0gyXVtDQEBIXShbT0hdKVtDQEBIXShbT0hdKVtDQEhdNVtPSF0pW0NASF0oW0NIM10pW0NASF0oW0NIMl1bQ0gyXVtDQEhdNltDSDNdKVtDQF00KE9PNylbQ0BIXTZPQzgoW0NAQF0yMzcpW0NIMl1bQ0gyXVNbQ0gyXVtDSDJdOA==

>  <s_epik_cmdline>  (384) 
J2VwaWtfcHl0aG9uJywgJy1waHQnLCAnMi4wJywgJy1waCcsICc3LjAnLCAnLXRuJywgJzgnLCAnLW1hJywgJzIwMCcsICctaW1hZScsICc8aW5maWxlLm1hZT4nLCAnLW9tYWUnLCAnPG91dGZpbGUubWFlPic=

>  <r_lp_tautomer_probability>  (384) 
1

>  <r_epik_Ionization_Penalty>  (384) 
1.49018e-06

>  <r_epik_Ionization_Penalty_Charging>  (384) 
0

>  <r_epik_Ionization_Penalty_Neutral>  (384) 
1.49018e-06

>  <r_epik_State_Penalty>  (384) 
-0

>  <r_epik_Charging_Adjusted_Penalty>  (384) 
0

>  <i_epik_Tot_Q>  (384) 
0

>  <i_epik_Tot_abs_Q>  (384) 
0

>  <s_epik_Chemistry_Notes>  (384) 
This compound contains an acetal/aminal-like group ( X-CH(R)-Y where X, Y are N, S, or O) that may be acid/base labile, releasing an aldehyde.

>  <s_lp_Force_Field>  (384) 
OPLS3e

>  <r_lp_Energy>  (384) 
209.782

>  <b_lp_Chiralities_Consistent>  (384) 
1

>  <s_lp_Variant>  (384) 
102:0-1

>  <s_i_glide_gridfile>  (384) 
pfpi4k_grid

>  <i_i_glide_lignum>  (384) 
28

>  <i_i_glide_rotatable_bonds>  (384) 
6

>  <r_i_docking_score>  (384) 
-4.44281

>  <r_i_glide_ligand_efficiency>  (384) 
-0.100973

>  <r_i_glide_ligand_efficiency_sa>  (384) 
-0.35647

>  <r_i_glide_ligand_efficiency_ln>  (384) 
-0.928645

>  <r_i_glide_gscore>  (384) 
-4.44281

>  <r_i_glide_lipo>  (384) 
-0.458397

>  <r_i_glide_hbond>  (384) 
0

>  <r_i_glide_metal>  (384) 
-0

>  <r_i_glide_rewards>  (384) 
0

>  <r_i_glide_evdw>  (384) 
-33.0632

>  <r_i_glide_ecoul>  (384) 
-15.7363

>  <r_i_glide_erotb>  (384) 
0.0730961

>  <r_i_glide_esite>  (384) 
-0.043899

>  <r_i_glide_emodel>  (384) 
-57.8394

>  <r_i_glide_energy>  (384) 
-48.7996

>  <r_i_glide_einternal>  (384) 
4.33703

>  <r_i_glide_intrahb_reward>  (384) 
-0

>  <i_i_glide_confnum>  (384) 
4

>  <i_i_glide_posenum>  (384) 
28

>  <r_i_glide_eff_state_penalty>  (384) 
0

>  <ligand_id>  (384) 
102

>  <original_smiles>  (384) 
CC1=CC2C(C1)CC1C(C)CC23OOC24C(CCC(C)C2OC32CCSCC2)C(C)C(OC2OCC(O)C(O)C2O)CC14O

>  <smiles>  (384) 
[H]OC1([H])C([H])([H])OC([H])(OC2([H])C([H])([H])C3(O[H])C4([H])C([H])([H])C5([H])C([H])([H])C(C([H])([H])[H])=C([H])C5([H])C5(OOC36C([H])(OC53C([H])([H])C([H])([H])SC([H])([H])C3([H])[H])C([H])(C([H])([H])[H])C([H])([H])C([H])([H])C6([H])C2([H])C([H])([H])[H])C([H])([H])C4([H])C([H])([H])[H])C([H])(O[H])C1([H])O[H]

$$$$
102:0:1
     RDKit          3D

 96103  0  0  1  0  0  0  0  0999 V2000
   -2.6602    2.9373    6.7588 C   0  0  0  0  0  0  0  0  0  0  0  0
   -1.4213    2.3748    6.1074 C   0  0  0  0  0  0  0  0  0  0  0  0
   -0.3187    1.9616    6.7291 C   0  0  0  0  0  0  0  0  0  0  0  0
    0.7439    1.3316    5.7962 C   0  0  1  0  0  0  0  0  0  0  0  0
    0.2898    2.1675    4.5756 C   0  0  2  0  0  0  0  0  0  0  0  0
   -1.2472    2.3091    4.6328 C   0  0  0  0  0  0  0  0  0  0  0  0
    0.7967    1.6788    3.2644 C   0  0  0  0  0  0  0  0  0  0  0  0
    2.3112    1.4111    3.3296 C   0  0  1  0  0  0  0  0  0  0  0  0
    3.1013    2.5580    4.1689 C   0  0  1  0  0  0  0  0  0  0  0  0
    3.0049    3.9611    3.5445 C   0  0  0  0  0  0  0  0  0  0  0  0
    2.9199    2.5678    5.7941 C   0  0  0  0  0  0  0  0  0  0  0  0
    2.3312    1.2060    6.2678 C   0  0  2  0  0  0  0  0  0  0  0  0
    3.5508    0.7526    5.5884 O   0  0  0  0  0  0  0  0  0  0  0  0
    3.8652   -0.6914    5.4647 O   0  0  0  0  0  0  0  0  0  0  0  0
    2.9618   -1.2041    4.5727 C   0  0  1  0  0  0  0  0  0  0  0  0
    3.5210   -2.5945    4.0737 C   0  0  1  0  0  0  0  0  0  0  0  0
    2.3830   -3.5349    3.5861 C   0  0  0  0  0  0  0  0  0  0  0  0
    1.2525   -3.7114    4.6193 C   0  0  0  0  0  0  0  0  0  0  0  0
    0.7616   -2.3752    5.2164 C   0  0  1  0  0  0  0  0  0  0  0  0
   -0.3288   -2.6115    6.2750 C   0  0  0  0  0  0  0  0  0  0  0  0
    1.9851   -1.6108    5.7533 C   0  0  2  0  0  0  0  0  0  0  0  0
    1.7274   -0.8710    6.9872 O   0  0  0  0  0  0  0  0  0  0  0  0
    2.4531    0.2495    7.5357 C   0  0  0  0  0  0  0  0  0  0  0  0
    1.5771    0.5839    8.7836 C   0  0  0  0  0  0  0  0  0  0  0  0
    1.2658   -0.5920    9.7179 C   0  0  0  0  0  0  0  0  0  0  0  0
    2.7107   -1.0921   10.6461 S   0  0  0  0  0  0  0  0  0  0  0  0
    3.7994   -1.2939    9.2043 C   0  0  0  0  0  0  0  0  0  0  0  0
    3.8563   -0.0917    8.2194 C   0  0  0  0  0  0  0  0  0  0  0  0
    4.7430   -2.5126    3.1229 C   0  0  1  0  0  0  0  0  0  0  0  0
    5.3296   -3.8766    2.7121 C   0  0  0  0  0  0  0  0  0  0  0  0
    4.5054   -1.6003    1.9189 C   0  0  1  0  0  0  0  0  0  0  0  0
    3.5905   -2.1862    0.9959 O   0  0  0  0  0  0  0  0  0  0  0  0
    3.9902   -2.2387   -0.3387 C   0  0  2  0  0  0  0  0  0  0  0  0
    4.0408   -0.9412   -0.8599 O   0  0  0  0  0  0  0  0  0  0  0  0
    4.4422   -0.8570   -2.2202 C   0  0  0  0  0  0  0  0  0  0  0  0
    3.4291   -1.5742   -3.1144 C   0  0  1  0  0  0  0  0  0  0  0  0
    3.8042   -1.4934   -4.4783 O   0  0  0  0  0  0  0  0  0  0  0  0
    3.2728   -3.0407   -2.6445 C   0  0  1  0  0  0  0  0  0  0  0  0
    4.4760   -3.7620   -2.9060 O   0  0  0  0  0  0  0  0  0  0  0  0
    2.9479   -3.0614   -1.1286 C   0  0  1  0  0  0  0  0  0  0  0  0
    2.8874   -4.3902   -0.6390 O   0  0  0  0  0  0  0  0  0  0  0  0
    4.0467   -0.2185    2.4257 C   0  0  0  0  0  0  0  0  0  0  0  0
    2.7454   -0.1654    3.2974 C   0  0  2  0  0  0  0  0  0  0  0  0
    1.7658   -0.7701    2.4778 O   0  0  0  0  0  0  0  0  0  0  0  0
   -2.8622    3.9495    6.4139 H   0  0  0  0  0  0  0  0  0  0  0  0
   -2.5654    2.9518    7.8461 H   0  0  0  0  0  0  0  0  0  0  0  0
   -3.5188    2.3127    6.5269 H   0  0  0  0  0  0  0  0  0  0  0  0
   -0.3037    2.1864    7.7751 H   0  0  0  0  0  0  0  0  0  0  0  0
    0.3640    0.3391    5.5929 H   0  0  0  0  0  0  0  0  0  0  0  0
    0.6375    3.1851    4.7194 H   0  0  0  0  0  0  0  0  0  0  0  0
   -1.7803    1.4500    4.2273 H   0  0  0  0  0  0  0  0  0  0  0  0
   -1.5828    3.2286    4.1521 H   0  0  0  0  0  0  0  0  0  0  0  0
    0.1791    0.8399    2.9501 H   0  0  0  0  0  0  0  0  0  0  0  0
    0.5950    2.4624    2.5337 H   0  0  0  0  0  0  0  0  0  0  0  0
    2.5547    1.7186    2.3134 H   0  0  0  0  0  0  0  0  0  0  0  0
    4.1542    2.3136    4.0007 H   0  0  0  0  0  0  0  0  0  0  0  0
    1.9992    4.3822    3.5874 H   0  0  0  0  0  0  0  0  0  0  0  0
    3.2992    3.9417    2.4896 H   0  0  0  0  0  0  0  0  0  0  0  0
    3.6816    4.6559    4.0509 H   0  0  0  0  0  0  0  0  0  0  0  0
    3.8750    2.8213    6.2709 H   0  0  0  0  0  0  0  0  0  0  0  0
    2.2658    3.3846    6.0957 H   0  0  0  0  0  0  0  0  0  0  0  0
    3.9415   -3.1026    4.9431 H   0  0  0  0  0  0  0  0  0  0  0  0
    1.9532   -3.1943    2.6485 H   0  0  0  0  0  0  0  0  0  0  0  0
    2.7856   -4.5199    3.3686 H   0  0  0  0  0  0  0  0  0  0  0  0
    0.4188   -4.2421    4.1578 H   0  0  0  0  0  0  0  0  0  0  0  0
    1.6135   -4.3591    5.4215 H   0  0  0  0  0  0  0  0  0  0  0  0
    0.3098   -1.7822    4.4228 H   0  0  0  0  0  0  0  0  0  0  0  0
    0.0395   -3.1841    7.1274 H   0  0  0  0  0  0  0  0  0  0  0  0
   -1.1670   -3.1575    5.8452 H   0  0  0  0  0  0  0  0  0  0  0  0
   -0.7207   -1.6650    6.6465 H   0  0  0  0  0  0  0  0  0  0  0  0
    2.5432   -2.3797    6.2922 H   0  0  0  0  0  0  0  0  0  0  0  0
    1.9969    1.4315    9.3281 H   0  0  0  0  0  0  0  0  0  0  0  0
    0.5554    0.7530    8.5393 H   0  0  0  0  0  0  0  0  0  0  0  0
    0.4507   -0.3086   10.3782 H   0  0  0  0  0  0  0  0  0  0  0  0
    0.8802   -1.4339    9.1551 H   0  0  0  0  0  0  0  0  0  0  0  0
    4.7943   -1.5054    9.6125 H   0  0  0  0  0  0  0  0  0  0  0  0
    3.4596   -2.1866    8.6774 H   0  0  0  0  0  0  0  0  0  0  0  0
    4.6816   -0.3058    7.5470 H   0  0  0  0  0  0  0  0  0  0  0  0
    4.2110    0.7881    8.7521 H   0  0  0  0  0  0  0  0  0  0  0  0
    5.5276   -2.0317    3.7063 H   0  0  0  0  0  0  0  0  0  0  0  0
    4.6639   -4.4310    2.0512 H   0  0  0  0  0  0  0  0  0  0  0  0
    5.5396   -4.4998    3.5826 H   0  0  0  0  0  0  0  0  0  0  0  0
    6.2694   -3.7483    2.1754 H   0  0  0  0  0  0  0  0  0  0  0  0
    5.4758   -1.4646    1.4296 H   0  0  0  0  0  0  0  0  0  0  0  0
    4.9782   -2.7034   -0.4168 H   0  0  0  0  0  0  0  0  0  0  0  0
    4.4935    0.1965   -2.4922 H   0  0  0  0  0  0  0  0  0  0  0  0
    5.4439   -1.2676   -2.3312 H   0  0  0  0  0  0  0  0  0  0  0  0
    2.4681   -1.0746   -3.0187 H   0  0  0  0  0  0  0  0  0  0  0  0
    3.5760   -0.6251   -4.7996 H   0  0  0  0  0  0  0  0  0  0  0  0
    2.4643   -3.4980   -3.2146 H   0  0  0  0  0  0  0  0  0  0  0  0
    4.2988   -4.6898   -2.7663 H   0  0  0  0  0  0  0  0  0  0  0  0
    1.9486   -2.6695   -0.9596 H   0  0  0  0  0  0  0  0  0  0  0  0
    2.9646   -4.9848   -1.3922 H   0  0  0  0  0  0  0  0  0  0  0  0
    4.8582    0.1867    3.0320 H   0  0  0  0  0  0  0  0  0  0  0  0
    3.9809    0.4224    1.5462 H   0  0  0  0  0  0  0  0  0  0  0  0
    1.8000   -0.3838    1.6071 H   0  0  0  0  0  0  0  0  0  0  0  0
  1  2  1  0
  1 45  1  0
  1 46  1  0
  1 47  1  0
  2  6  1  0
  2  3  2  0
  3  4  1  0
  3 48  1  0
  4 12  1  0
  4  5  1  0
  4 49  1  6
  5  6  1  0
  5  7  1  0
  5 50  1  1
  6 51  1  0
  6 52  1  0
  7  8  1  0
  7 53  1  0
  7 54  1  0
  8 43  1  0
  8  9  1  0
  8 55  1  6
  9 10  1  0
  9 11  1  0
  9 56  1  1
 10 57  1  0
 10 58  1  0
 10 59  1  0
 11 12  1  0
 11 60  1  0
 11 61  1  0
 12 23  1  1
 12 13  1  0
 13 14  1  0
 15 14  1  1
 15 21  1  0
 15 43  1  0
 15 16  1  0
 16 17  1  0
 16 29  1  0
 16 62  1  1
 17 18  1  0
 17 63  1  0
 17 64  1  0
 18 19  1  0
 18 65  1  0
 18 66  1  0
 19 20  1  0
 19 21  1  0
 19 67  1  6
 20 68  1  0
 20 69  1  0
 20 70  1  0
 21 22  1  0
 21 71  1  1
 22 23  1  0
 23 28  1  0
 23 24  1  0
 24 25  1  0
 24 72  1  0
 24 73  1  0
 25 26  1  0
 25 74  1  0
 25 75  1  0
 26 27  1  0
 27 28  1  0
 27 76  1  0
 27 77  1  0
 28 78  1  0
 28 79  1  0
 29 30  1  0
 29 31  1  0
 29 80  1  1
 30 81  1  0
 30 82  1  0
 30 83  1  0
 31 32  1  0
 31 42  1  0
 31 84  1  6
 32 33  1  0
 33 40  1  0
 33 34  1  0
 33 85  1  1
 34 35  1  0
 35 36  1  0
 35 86  1  0
 35 87  1  0
 36 37  1  0
 36 38  1  0
 36 88  1  6
 37 89  1  0
 38 39  1  0
 38 40  1  0
 38 90  1  6
 39 91  1  0
 40 41  1  0
 40 92  1  6
 41 93  1  0
 42 43  1  0
 42 94  1  0
 42 95  1  0
 43 44  1  6
 44 96  1  0
M  END
>  <i_m_ct_stereo_status>  (385) 
1

>  <s_m_source_file>  (385) 
/var/tmp/pbs.5076255.sched01/tmp7onimy_i/150cvk1qxg3.sdf

>  <i_m_source_file_index>  (385) 
28

>  <i_lp_mmshare_version>  (385) 
48012

>  <i_f3d_flags>  (385) 
0

>  <s_epik_input>  (385) 
W0NIM11DKFtDSDJdMSk9W0NIXVtDQEhdMltDQEhdMVtDSDJdW0NAQEhdKFtDQEBIXShbQ0gzXSlbQ0gyXTMpW0NAQF00KFtPSF0pW0NIMl1bQ0BIXShPW0NAQEhdNU9bQ0gyXVtDQEBIXShbT0hdKVtDQEBIXShbT0hdKVtDQEhdNVtPSF0pW0NASF0oW0NIM10pW0NASF0oW0NIMl1bQ0gyXVtDQEhdNltDSDNdKVtDQF00KE9PNylbQ0BIXTZPQzgoW0NAQF0yMzcpW0NIMl1bQ0gyXVNbQ0gyXVtDSDJdOA==

>  <s_epik_cmdline>  (385) 
J2VwaWtfcHl0aG9uJywgJy1waHQnLCAnMi4wJywgJy1waCcsICc3LjAnLCAnLXRuJywgJzgnLCAnLW1hJywgJzIwMCcsICctaW1hZScsICc8aW5maWxlLm1hZT4nLCAnLW9tYWUnLCAnPG91dGZpbGUubWFlPic=

>  <r_lp_tautomer_probability>  (385) 
1

>  <r_epik_Ionization_Penalty>  (385) 
1.49018e-06

>  <r_epik_Ionization_Penalty_Charging>  (385) 
0

>  <r_epik_Ionization_Penalty_Neutral>  (385) 
1.49018e-06

>  <r_epik_State_Penalty>  (385) 
-0

>  <r_epik_Charging_Adjusted_Penalty>  (385) 
0

>  <i_epik_Tot_Q>  (385) 
0

>  <i_epik_Tot_abs_Q>  (385) 
0

>  <s_epik_Chemistry_Notes>  (385) 
This compound contains an acetal/aminal-like group ( X-CH(R)-Y where X, Y are N, S, or O) that may be acid/base labile, releasing an aldehyde.

>  <s_lp_Force_Field>  (385) 
OPLS3e

>  <r_lp_Energy>  (385) 
209.782

>  <b_lp_Chiralities_Consistent>  (385) 
1

>  <s_lp_Variant>  (385) 
102:0-1

>  <s_i_glide_gridfile>  (385) 
pfpi4k_grid

>  <i_i_glide_lignum>  (385) 
28

>  <i_i_glide_rotatable_bonds>  (385) 
6

>  <r_i_docking_score>  (385) 
-3.84604

>  <r_i_glide_ligand_efficiency>  (385) 
-0.0874101

>  <r_i_glide_ligand_efficiency_sa>  (385) 
-0.308588

>  <r_i_glide_ligand_efficiency_ln>  (385) 
-0.803907

>  <r_i_glide_gscore>  (385) 
-3.84604

>  <r_i_glide_lipo>  (385) 
-0.346937

>  <r_i_glide_hbond>  (385) 
0

>  <r_i_glide_metal>  (385) 
-0

>  <r_i_glide_rewards>  (385) 
0

>  <r_i_glide_evdw>  (385) 
-35.4878

>  <r_i_glide_ecoul>  (385) 
-11.7972

>  <r_i_glide_erotb>  (385) 
0.0730961

>  <r_i_glide_esite>  (385) 
-0.0282394

>  <r_i_glide_emodel>  (385) 
-55.2058

>  <r_i_glide_energy>  (385) 
-47.285

>  <r_i_glide_einternal>  (385) 
3.88699

>  <r_i_glide_intrahb_reward>  (385) 
-0

>  <i_i_glide_confnum>  (385) 
4

>  <i_i_glide_posenum>  (385) 
13

>  <r_i_glide_eff_state_penalty>  (385) 
0

>  <ligand_id>  (385) 
102

>  <original_smiles>  (385) 
CC1=CC2C(C1)CC1C(C)CC23OOC24C(CCC(C)C2OC32CCSCC2)C(C)C(OC2OCC(O)C(O)C2O)CC14O

>  <smiles>  (385) 
[H]OC1([H])C([H])([H])OC([H])(OC2([H])C([H])([H])C3(O[H])C4([H])C([H])([H])C5([H])C([H])([H])C(C([H])([H])[H])=C([H])C5([H])C5(OOC36C([H])(OC53C([H])([H])C([H])([H])SC([H])([H])C3([H])[H])C([H])(C([H])([H])[H])C([H])([H])C([H])([H])C6([H])C2([H])C([H])([H])[H])C([H])([H])C4([H])C([H])([H])[H])C([H])(O[H])C1([H])O[H]

$$$$
102:0:2
     RDKit          3D

 96103  0  0  1  0  0  0  0  0999 V2000
    1.0185  -11.3995    3.6276 C   0  0  0  0  0  0  0  0  0  0  0  0
    1.3228   -9.9868    4.0223 C   0  0  0  0  0  0  0  0  0  0  0  0
    2.4923   -9.4924    4.5034 C   0  0  0  0  0  0  0  0  0  0  0  0
    2.4699   -7.9611    4.6803 C   0  0  1  0  0  0  0  0  0  0  0  0
    0.9425   -7.8895    4.9100 C   0  0  2  0  0  0  0  0  0  0  0  0
    0.2860   -8.9216    3.9867 C   0  0  0  0  0  0  0  0  0  0  0  0
    0.3753   -6.5141    4.7998 C   0  0  0  0  0  0  0  0  0  0  0  0
    1.2018   -5.5200    5.6358 C   0  0  1  0  0  0  0  0  0  0  0  0
    1.6440   -6.1354    7.0755 C   0  0  1  0  0  0  0  0  0  0  0  0
    0.4582   -6.4912    7.9912 C   0  0  0  0  0  0  0  0  0  0  0  0
    2.8046   -7.2791    7.0667 C   0  0  0  0  0  0  0  0  0  0  0  0
    3.5525   -7.2589    5.6957 C   0  0  2  0  0  0  0  0  0  0  0  0
    3.7945   -5.8813    6.1371 O   0  0  0  0  0  0  0  0  0  0  0  0
    4.5012   -4.9058    5.2936 O   0  0  0  0  0  0  0  0  0  0  0  0
    3.6779   -4.6295    4.2420 C   0  0  1  0  0  0  0  0  0  0  0  0
    4.1868   -3.2936    3.5754 C   0  0  1  0  0  0  0  0  0  0  0  0
    3.7599   -3.2041    2.0808 C   0  0  0  0  0  0  0  0  0  0  0  0
    4.1538   -4.4484    1.2624 C   0  0  0  0  0  0  0  0  0  0  0  0
    3.7752   -5.7820    1.9466 C   0  0  1  0  0  0  0  0  0  0  0  0
    4.2441   -6.9833    1.1087 C   0  0  0  0  0  0  0  0  0  0  0  0
    4.3571   -5.7658    3.3721 C   0  0  2  0  0  0  0  0  0  0  0  0
    4.9128   -7.0410    3.8351 O   0  0  0  0  0  0  0  0  0  0  0  0
    5.0165   -7.5506    5.1838 C   0  0  0  0  0  0  0  0  0  0  0  0
    5.4495   -9.0083    4.8175 C   0  0  0  0  0  0  0  0  0  0  0  0
    5.5594   -9.9188    6.0341 C   0  0  0  0  0  0  0  0  0  0  0  0
    7.0218   -9.4941    7.0007 S   0  0  0  0  0  0  0  0  0  0  0  0
    6.6483   -7.7420    7.2697 C   0  0  0  0  0  0  0  0  0  0  0  0
    6.2983   -6.9952    5.9706 C   0  0  0  0  0  0  0  0  0  0  0  0
    3.9419   -2.0060    4.4029 C   0  0  1  0  0  0  0  0  0  0  0  0
    4.5476   -0.7312    3.7836 C   0  0  0  0  0  0  0  0  0  0  0  0
    2.4744   -1.8340    4.8204 C   0  0  1  0  0  0  0  0  0  0  0  0
    1.6334   -1.4948    3.7149 O   0  0  0  0  0  0  0  0  0  0  0  0
    1.2858   -0.1408    3.6008 C   0  0  2  0  0  0  0  0  0  0  0  0
    0.1320    0.1052    4.3610 O   0  0  0  0  0  0  0  0  0  0  0  0
   -0.3018    1.4555    4.3430 C   0  0  0  0  0  0  0  0  0  0  0  0
   -0.7073    1.8637    2.9189 C   0  0  1  0  0  0  0  0  0  0  0  0
   -1.1017    3.2235    2.9279 O   0  0  0  0  0  0  0  0  0  0  0  0
    0.4656    1.5988    1.9595 C   0  0  1  0  0  0  0  0  0  0  0  0
    1.5045    2.5229    2.2182 O   0  0  0  0  0  0  0  0  0  0  0  0
    0.9746    0.1528    2.1236 C   0  0  1  0  0  0  0  0  0  0  0  0
    2.1202   -0.0163    1.3184 O   0  0  0  0  0  0  0  0  0  0  0  0
    2.0193   -3.1124    5.5523 C   0  0  0  0  0  0  0  0  0  0  0  0
    2.1214   -4.4668    4.7731 C   0  0  2  0  0  0  0  0  0  0  0  0
    1.3442   -4.2200    3.6235 O   0  0  0  0  0  0  0  0  0  0  0  0
    0.1971  -11.8038    4.2217 H   0  0  0  0  0  0  0  0  0  0  0  0
    1.8835  -12.0484    3.7680 H   0  0  0  0  0  0  0  0  0  0  0  0
    0.7328  -11.4495    2.5734 H   0  0  0  0  0  0  0  0  0  0  0  0
    3.2713  -10.1770    4.7207 H   0  0  0  0  0  0  0  0  0  0  0  0
    2.6343   -7.5779    3.6821 H   0  0  0  0  0  0  0  0  0  0  0  0
    0.7214   -8.2750    5.9011 H   0  0  0  0  0  0  0  0  0  0  0  0
    0.1413   -8.5674    2.9654 H   0  0  0  0  0  0  0  0  0  0  0  0
   -0.6630   -9.2811    4.3886 H   0  0  0  0  0  0  0  0  0  0  0  0
    0.2710   -6.2700    3.7464 H   0  0  0  0  0  0  0  0  0  0  0  0
   -0.6423   -6.5575    5.1852 H   0  0  0  0  0  0  0  0  0  0  0  0
    0.3772   -4.8762    5.9462 H   0  0  0  0  0  0  0  0  0  0  0  0
    2.0690   -5.2769    7.6010 H   0  0  0  0  0  0  0  0  0  0  0  0
   -0.1271   -7.3318    7.6161 H   0  0  0  0  0  0  0  0  0  0  0  0
   -0.2188   -5.6381    8.0978 H   0  0  0  0  0  0  0  0  0  0  0  0
    0.8167   -6.7544    8.9899 H   0  0  0  0  0  0  0  0  0  0  0  0
    3.4753   -7.1416    7.9251 H   0  0  0  0  0  0  0  0  0  0  0  0
    2.3870   -8.2719    7.2368 H   0  0  0  0  0  0  0  0  0  0  0  0
    5.2790   -3.3439    3.5518 H   0  0  0  0  0  0  0  0  0  0  0  0
    2.6952   -3.0252    1.9608 H   0  0  0  0  0  0  0  0  0  0  0  0
    4.2370   -2.3437    1.6213 H   0  0  0  0  0  0  0  0  0  0  0  0
    3.6905   -4.3937    0.2774 H   0  0  0  0  0  0  0  0  0  0  0  0
    5.2321   -4.4229    1.0898 H   0  0  0  0  0  0  0  0  0  0  0  0
    2.6929   -5.8450    2.0197 H   0  0  0  0  0  0  0  0  0  0  0  0
    5.3274   -7.0198    1.0077 H   0  0  0  0  0  0  0  0  0  0  0  0
    3.8225   -6.9342    0.1053 H   0  0  0  0  0  0  0  0  0  0  0  0
    3.9143   -7.9233    1.5538 H   0  0  0  0  0  0  0  0  0  0  0  0
    5.3646   -5.3807    3.2165 H   0  0  0  0  0  0  0  0  0  0  0  0
    4.9029   -9.4585    3.9697 H   0  0  0  0  0  0  0  0  0  0  0  0
    6.4378   -8.9274    4.3806 H   0  0  0  0  0  0  0  0  0  0  0  0
    4.7020   -9.8555    6.7019 H   0  0  0  0  0  0  0  0  0  0  0  0
    5.6562  -10.9646    5.7479 H   0  0  0  0  0  0  0  0  0  0  0  0
    5.8218   -7.6900    7.9737 H   0  0  0  0  0  0  0  0  0  0  0  0
    7.5242   -7.2849    7.7501 H   0  0  0  0  0  0  0  0  0  0  0  0
    7.1550   -7.0442    5.3018 H   0  0  0  0  0  0  0  0  0  0  0  0
    6.2866   -5.9401    6.2380 H   0  0  0  0  0  0  0  0  0  0  0  0
    4.4932   -2.1513    5.3306 H   0  0  0  0  0  0  0  0  0  0  0  0
    4.0400   -0.4379    2.8701 H   0  0  0  0  0  0  0  0  0  0  0  0
    5.6031   -0.8583    3.5358 H   0  0  0  0  0  0  0  0  0  0  0  0
    4.4694    0.1067    4.4737 H   0  0  0  0  0  0  0  0  0  0  0  0
    2.4207   -1.0318    5.5602 H   0  0  0  0  0  0  0  0  0  0  0  0
    2.0939    0.5083    3.9408 H   0  0  0  0  0  0  0  0  0  0  0  0
   -1.1567    1.5510    5.0120 H   0  0  0  0  0  0  0  0  0  0  0  0
    0.4813    2.1145    4.7260 H   0  0  0  0  0  0  0  0  0  0  0  0
   -1.5604    1.2648    2.5970 H   0  0  0  0  0  0  0  0  0  0  0  0
   -0.7055    3.6636    2.1650 H   0  0  0  0  0  0  0  0  0  0  0  0
    0.1406    1.7551    0.9289 H   0  0  0  0  0  0  0  0  0  0  0  0
    1.2412    3.3564    1.8225 H   0  0  0  0  0  0  0  0  0  0  0  0
    0.2151   -0.5522    1.7778 H   0  0  0  0  0  0  0  0  0  0  0  0
    1.8050   -0.2487    0.4381 H   0  0  0  0  0  0  0  0  0  0  0  0
    2.6308   -3.2079    6.4488 H   0  0  0  0  0  0  0  0  0  0  0  0
    1.0056   -2.9100    5.8971 H   0  0  0  0  0  0  0  0  0  0  0  0
    1.6944   -3.4417    3.1991 H   0  0  0  0  0  0  0  0  0  0  0  0
  1  2  1  0
  1 45  1  0
  1 46  1  0
  1 47  1  0
  2  6  1  0
  2  3  2  0
  3  4  1  0
  3 48  1  0
  4 12  1  0
  4  5  1  0
  4 49  1  6
  5  6  1  0
  5  7  1  0
  5 50  1  1
  6 51  1  0
  6 52  1  0
  7  8  1  0
  7 53  1  0
  7 54  1  0
  8 43  1  0
  8  9  1  0
  8 55  1  1
  9 10  1  0
  9 11  1  0
  9 56  1  1
 10 57  1  0
 10 58  1  0
 10 59  1  0
 11 12  1  0
 11 60  1  0
 11 61  1  0
 12 23  1  1
 12 13  1  0
 13 14  1  0
 15 14  1  1
 15 21  1  0
 15 43  1  0
 15 16  1  0
 16 17  1  0
 16 29  1  0
 16 62  1  6
 17 18  1  0
 17 63  1  0
 17 64  1  0
 18 19  1  0
 18 65  1  0
 18 66  1  0
 19 20  1  0
 19 21  1  0
 19 67  1  1
 20 68  1  0
 20 69  1  0
 20 70  1  0
 21 22  1  0
 21 71  1  6
 22 23  1  0
 23 28  1  0
 23 24  1  0
 24 25  1  0
 24 72  1  0
 24 73  1  0
 25 26  1  0
 25 74  1  0
 25 75  1  0
 26 27  1  0
 27 28  1  0
 27 76  1  0
 27 77  1  0
 28 78  1  0
 28 79  1  0
 29 30  1  0
 29 31  1  0
 29 80  1  1
 30 81  1  0
 30 82  1  0
 30 83  1  0
 31 32  1  0
 31 42  1  0
 31 84  1  1
 32 33  1  0
 33 40  1  0
 33 34  1  0
 33 85  1  1
 34 35  1  0
 35 36  1  0
 35 86  1  0
 35 87  1  0
 36 37  1  0
 36 38  1  0
 36 88  1  6
 37 89  1  0
 38 39  1  0
 38 40  1  0
 38 90  1  6
 39 91  1  0
 40 41  1  0
 40 92  1  6
 41 93  1  0
 42 43  1  0
 42 94  1  0
 42 95  1  0
 43 44  1  6
 44 96  1  0
M  END
>  <i_m_ct_stereo_status>  (386) 
1

>  <s_m_source_file>  (386) 
/var/tmp/pbs.5076255.sched01/tmp7onimy_i/150cvk1qxg3.sdf

>  <i_m_source_file_index>  (386) 
28

>  <i_lp_mmshare_version>  (386) 
48012

>  <i_f3d_flags>  (386) 
0

>  <s_epik_input>  (386) 
W0NIM11DKFtDSDJdMSk9W0NIXVtDQEhdMltDQEhdMVtDSDJdW0NAQEhdKFtDQEBIXShbQ0gzXSlbQ0gyXTMpW0NAQF00KFtPSF0pW0NIMl1bQ0BIXShPW0NAQEhdNU9bQ0gyXVtDQEBIXShbT0hdKVtDQEBIXShbT0hdKVtDQEhdNVtPSF0pW0NASF0oW0NIM10pW0NASF0oW0NIMl1bQ0gyXVtDQEhdNltDSDNdKVtDQF00KE9PNylbQ0BIXTZPQzgoW0NAQF0yMzcpW0NIMl1bQ0gyXVNbQ0gyXVtDSDJdOA==

>  <s_epik_cmdline>  (386) 
J2VwaWtfcHl0aG9uJywgJy1waHQnLCAnMi4wJywgJy1waCcsICc3LjAnLCAnLXRuJywgJzgnLCAnLW1hJywgJzIwMCcsICctaW1hZScsICc8aW5maWxlLm1hZT4nLCAnLW9tYWUnLCAnPG91dGZpbGUubWFlPic=

>  <r_lp_tautomer_probability>  (386) 
1

>  <r_epik_Ionization_Penalty>  (386) 
1.49018e-06

>  <r_epik_Ionization_Penalty_Charging>  (386) 
0

>  <r_epik_Ionization_Penalty_Neutral>  (386) 
1.49018e-06

>  <r_epik_State_Penalty>  (386) 
-0

>  <r_epik_Charging_Adjusted_Penalty>  (386) 
0

>  <i_epik_Tot_Q>  (386) 
0

>  <i_epik_Tot_abs_Q>  (386) 
0

>  <s_epik_Chemistry_Notes>  (386) 
This compound contains an acetal/aminal-like group ( X-CH(R)-Y where X, Y are N, S, or O) that may be acid/base labile, releasing an aldehyde.

>  <s_lp_Force_Field>  (386) 
OPLS3e

>  <r_lp_Energy>  (386) 
209.782

>  <b_lp_Chiralities_Consistent>  (386) 
1

>  <s_lp_Variant>  (386) 
102:0-1

>  <s_i_glide_gridfile>  (386) 
pfpi4k_grid

>  <i_i_glide_lignum>  (386) 
28

>  <i_i_glide_rotatable_bonds>  (386) 
6

>  <r_i_docking_score>  (386) 
-3.40268

>  <r_i_glide_ligand_efficiency>  (386) 
-0.0773337

>  <r_i_glide_ligand_efficiency_sa>  (386) 
-0.273015

>  <r_i_glide_ligand_efficiency_ln>  (386) 
-0.711235

>  <r_i_glide_gscore>  (386) 
-3.40268

>  <r_i_glide_lipo>  (386) 
-0.397503

>  <r_i_glide_hbond>  (386) 
0

>  <r_i_glide_metal>  (386) 
-0

>  <r_i_glide_rewards>  (386) 
0

>  <r_i_glide_evdw>  (386) 
-31.0591

>  <r_i_glide_ecoul>  (386) 
-10.3231

>  <r_i_glide_erotb>  (386) 
0.104423

>  <r_i_glide_esite>  (386) 
-0.00817661

>  <r_i_glide_emodel>  (386) 
-48.7914

>  <r_i_glide_energy>  (386) 
-41.3823

>  <r_i_glide_einternal>  (386) 
4.71737

>  <r_i_glide_intrahb_reward>  (386) 
-0

>  <i_i_glide_confnum>  (386) 
2

>  <i_i_glide_posenum>  (386) 
14

>  <r_i_glide_eff_state_penalty>  (386) 
0

>  <ligand_id>  (386) 
102

>  <original_smiles>  (386) 
CC1=CC2C(C1)CC1C(C)CC23OOC24C(CCC(C)C2OC32CCSCC2)C(C)C(OC2OCC(O)C(O)C2O)CC14O

>  <smiles>  (386) 
[H]OC1([H])C([H])([H])OC([H])(OC2([H])C([H])([H])C3(O[H])C4([H])C([H])([H])C5([H])C([H])([H])C(C([H])([H])[H])=C([H])C5([H])C5(OOC36C([H])(OC53C([H])([H])C([H])([H])SC([H])([H])C3([H])[H])C([H])(C([H])([H])[H])C([H])([H])C([H])([H])C6([H])C2([H])C([H])([H])[H])C([H])([H])C4([H])C([H])([H])[H])C([H])(O[H])C1([H])O[H]

$$$$
103:0:0
     RDKit          3D

 45 48  0  0  1  0  0  0  0  0999 V2000
    5.4105   -1.3935    2.7951 C   0  0  0  0  0  0  0  0  0  0  0  0
    6.1427   -2.2301    2.0707 N   0  0  0  0  0  0  0  0  0  0  0  0
    5.6483   -2.3689    0.8128 C   0  0  0  0  0  0  0  0  0  0  0  0
    6.4401   -3.3967   -0.3800 S   0  0  0  0  0  0  0  0  0  0  0  0
    5.2201   -2.9951   -1.5494 C   0  0  0  0  0  0  0  0  0  0  0  0
    4.2383   -2.1342   -1.0915 C   0  0  0  0  0  0  0  0  0  0  0  0
    4.4683   -1.7497    0.2895 C   0  0  0  0  0  0  0  0  0  0  0  0
    3.7872   -0.9081    1.2271 C   0  0  0  0  0  0  0  0  0  0  0  0
    2.5711   -0.2718    0.9525 N   0  0  0  0  0  0  0  0  0  0  0  0
    2.0989    0.9265    1.6680 C   0  0  0  0  0  0  0  0  0  0  0  0
    0.6111    0.8305    2.0826 C   0  0  0  0  0  0  0  0  0  0  0  0
   -0.0285    2.1348    2.4218 N   0  0  0  0  0  0  0  0  0  0  0  0
   -1.4955    2.0281    2.6133 C   0  0  0  0  0  0  0  0  0  0  0  0
   -2.1291    3.3929    2.9369 C   0  0  0  0  0  0  0  0  0  0  0  0
   -1.4960    3.9414    4.0847 O   0  0  0  0  0  0  0  0  0  0  0  0
   -0.1091    4.1653    3.8433 C   0  0  0  0  0  0  0  0  0  0  0  0
    0.5904    2.8239    3.5667 C   0  0  0  0  0  0  0  0  0  0  0  0
    4.3161   -0.7433    2.4466 N   0  0  0  0  0  0  0  0  0  0  0  0
    3.0979   -1.7260   -1.9740 C   0  0  0  0  0  0  0  0  0  0  0  0
    3.3151   -2.0259   -3.4701 C   0  0  0  0  0  0  0  0  0  0  0  0
    3.9566   -3.3958   -3.7065 C   0  0  0  0  0  0  0  0  0  0  0  0
    5.2671   -3.5647   -2.9307 C   0  0  0  0  0  0  0  0  0  0  0  0
    5.7418   -1.2481    3.8069 H   0  0  0  0  0  0  0  0  0  0  0  0
    2.7174    1.1599    2.5330 H   0  0  0  0  0  0  0  0  0  0  0  0
    2.2173    1.7679    0.9946 H   0  0  0  0  0  0  0  0  0  0  0  0
    0.0412    0.3636    1.2798 H   0  0  0  0  0  0  0  0  0  0  0  0
    0.5336    0.1490    2.9276 H   0  0  0  0  0  0  0  0  0  0  0  0
   -1.9438    1.6483    1.6996 H   0  0  0  0  0  0  0  0  0  0  0  0
   -1.7229    1.3109    3.4045 H   0  0  0  0  0  0  0  0  0  0  0  0
   -2.0519    4.0796    2.0906 H   0  0  0  0  0  0  0  0  0  0  0  0
   -3.1906    3.2793    3.1561 H   0  0  0  0  0  0  0  0  0  0  0  0
    0.0355    4.8938    3.0362 H   0  0  0  0  0  0  0  0  0  0  0  0
    0.3177    4.6122    4.7394 H   0  0  0  0  0  0  0  0  0  0  0  0
    0.5242    2.1837    4.4476 H   0  0  0  0  0  0  0  0  0  0  0  0
    1.6390    3.0134    3.3507 H   0  0  0  0  0  0  0  0  0  0  0  0
    2.2131   -2.2761   -1.6526 H   0  0  0  0  0  0  0  0  0  0  0  0
    2.9000   -0.6589   -1.8644 H   0  0  0  0  0  0  0  0  0  0  0  0
    2.3639   -1.9483   -3.9990 H   0  0  0  0  0  0  0  0  0  0  0  0
    3.9760   -1.2732   -3.8910 H   0  0  0  0  0  0  0  0  0  0  0  0
    3.2471   -4.1504   -3.3891 H   0  0  0  0  0  0  0  0  0  0  0  0
    4.1216   -3.5958   -4.7572 H   0  0  0  0  0  0  0  0  0  0  0  0
    6.0829   -3.0929   -3.4821 H   0  0  0  0  0  0  0  0  0  0  0  0
    5.4845   -4.6297   -2.8857 H   0  0  0  0  0  0  0  0  0  0  0  0
    1.9897   -0.5855    0.1620 H   0  0  0  0  0  0  0  0  0  0  0  0
    0.0905    2.7610    1.6219 H   0  0  0  0  0  0  0  0  0  0  0  0
  1 18  2  0
  1  2  1  0
  1 23  1  0
  2  3  2  0
  3  7  1  0
  3  4  1  0
  4  5  1  0
  5 22  1  0
  5  6  2  0
  6  7  1  0
  6 19  1  0
  7  8  2  0
  8  9  1  0
  8 18  1  0
  9 10  1  0
  9 44  1  0
 10 11  1  0
 10 24  1  0
 10 25  1  0
 11 12  1  0
 11 26  1  0
 11 27  1  0
 12 17  1  0
 12 13  1  0
 12 45  1  0
 13 14  1  0
 13 28  1  0
 13 29  1  0
 14 15  1  0
 14 30  1  0
 14 31  1  0
 15 16  1  0
 16 17  1  0
 16 32  1  0
 16 33  1  0
 17 34  1  0
 17 35  1  0
 19 20  1  0
 19 36  1  0
 19 37  1  0
 20 21  1  0
 20 38  1  0
 20 39  1  0
 21 22  1  0
 21 40  1  0
 21 41  1  0
 22 42  1  0
 22 43  1  0
M  CHG  1  12   1
M  END
>  <i_m_ct_stereo_status>  (387) 
1

>  <s_m_source_file>  (387) 
/var/tmp/pbs.5076255.sched01/tmp7onimy_i/150cvk1qxg3.sdf

>  <i_m_source_file_index>  (387) 
29

>  <i_lp_mmshare_version>  (387) 
48012

>  <i_f3d_flags>  (387) 
0

>  <s_epik_input>  (387) 
W0NIMl0xW0NIMl1bQ0gyXVtDSDJdYyhzMiljMWMoYzIzKS9jKFtuSF1bY0hdbjMpPU4vW0NIMl1bQ0gyXU40W0NIMl1bQ0gyXU9bQ0gyXVtDSDJdNA==

>  <s_epik_cmdline>  (387) 
J2VwaWtfcHl0aG9uJywgJy1waHQnLCAnMi4wJywgJy1waCcsICc3LjAnLCAnLXRuJywgJzgnLCAnLW1hJywgJzIwMCcsICctaW1hZScsICc8aW5maWxlLm1hZT4nLCAnLW9tYWUnLCAnPG91dGZpbGUubWFlPic=

>  <r_epik_Ionization_Penalty>  (387) 
0.165547

>  <r_epik_Ionization_Penalty_Charging>  (387) 
0.165334

>  <r_epik_Ionization_Penalty_Neutral>  (387) 
0.000213362

>  <r_epik_State_Penalty>  (387) 
0.154675

>  <r_epik_Charging_Adjusted_Penalty>  (387) 
0.320009

>  <i_epik_Tot_Q>  (387) 
1

>  <i_epik_Tot_abs_Q>  (387) 
1

>  <s_lp_Force_Field>  (387) 
OPLS3e

>  <r_lp_Energy>  (387) 
33.5665

>  <b_lp_Chiralities_Consistent>  (387) 
1

>  <s_lp_Variant>  (387) 
103:0-1

>  <s_i_glide_gridfile>  (387) 
pfpi4k_grid

>  <i_i_glide_lignum>  (387) 
29

>  <i_i_glide_rotatable_bonds>  (387) 
4

>  <r_i_docking_score>  (387) 
-4.77135

>  <r_i_glide_ligand_efficiency>  (387) 
-0.216879

>  <r_i_glide_ligand_efficiency_sa>  (387) 
-0.607705

>  <r_i_glide_ligand_efficiency_ln>  (387) 
-1.16629

>  <r_i_glide_gscore>  (387) 
-4.77135

>  <r_i_glide_lipo>  (387) 
-0.715068

>  <r_i_glide_hbond>  (387) 
-0.36

>  <r_i_glide_metal>  (387) 
-0

>  <r_i_glide_rewards>  (387) 
-1.35889

>  <r_i_glide_evdw>  (387) 
-21.4407

>  <r_i_glide_ecoul>  (387) 
-9.78459

>  <r_i_glide_erotb>  (387) 
0.365698

>  <r_i_glide_esite>  (387) 
-0.163367

>  <r_i_glide_emodel>  (387) 
-41.6589

>  <r_i_glide_energy>  (387) 
-31.2253

>  <r_i_glide_einternal>  (387) 
3.60831

>  <r_i_glide_intrahb_reward>  (387) 
-0

>  <i_i_glide_confnum>  (387) 
1

>  <i_i_glide_posenum>  (387) 
15

>  <r_i_glide_eff_state_penalty>  (387) 
0

>  <ligand_id>  (387) 
103

>  <original_smiles>  (387) 
c1nc2sc3c(c2c(=NCCN2CCOCC2)[nH]1)CCCC3

>  <smiles>  (387) 
[H]c1nc(N([H])C([H])([H])C([H])([H])[N+]2([H])C([H])([H])C([H])([H])OC([H])([H])C2([H])[H])c2c3c(sc2n1)C([H])([H])C([H])([H])C([H])([H])C3([H])[H]

$$$$
103:0:1
     RDKit          3D

 45 48  0  0  1  0  0  0  0  0999 V2000
    6.4081   -0.9681    1.8922 C   0  0  0  0  0  0  0  0  0  0  0  0
    7.0657   -1.6304    0.9628 N   0  0  0  0  0  0  0  0  0  0  0  0
    6.2411   -1.9750   -0.0510 C   0  0  0  0  0  0  0  0  0  0  0  0
    6.8132   -3.0006   -1.3374 S   0  0  0  0  0  0  0  0  0  0  0  0
    5.2337   -2.9434   -2.0273 C   0  0  0  0  0  0  0  0  0  0  0  0
    4.3213   -2.1750   -1.3661 C   0  0  0  0  0  0  0  0  0  0  0  0
    4.8684   -1.6011   -0.1714 C   0  0  0  0  0  0  0  0  0  0  0  0
    4.3420   -0.8006    0.8893 C   0  0  0  0  0  0  0  0  0  0  0  0
    2.9988   -0.4078    1.0356 N   0  0  0  0  0  0  0  0  0  0  0  0
    2.5701    0.6720    1.9304 C   0  0  0  0  0  0  0  0  0  0  0  0
    1.0748    0.5284    2.2681 C   0  0  0  0  0  0  0  0  0  0  0  0
    0.3867    1.8149    2.5951 N   0  0  0  0  0  0  0  0  0  0  0  0
   -1.0790    1.6587    2.7679 C   0  0  0  0  0  0  0  0  0  0  0  0
   -1.7732    2.9973    3.0482 C   0  0  0  0  0  0  0  0  0  0  0  0
   -1.1821    3.5564    4.2149 O   0  0  0  0  0  0  0  0  0  0  0  0
    0.1997    3.8360    3.9952 C   0  0  0  0  0  0  0  0  0  0  0  0
    0.9567    2.5220    3.7576 C   0  0  0  0  0  0  0  0  0  0  0  0
    5.1733   -0.4785    1.8996 N   0  0  0  0  0  0  0  0  0  0  0  0
    2.9373   -2.0209   -1.8282 C   0  0  0  0  0  0  0  0  0  0  0  0
    2.5172   -2.9902   -2.9302 C   0  0  0  0  0  0  0  0  0  0  0  0
    3.6304   -3.1924   -3.9508 C   0  0  0  0  0  0  0  0  0  0  0  0
    4.9227   -3.6916   -3.2727 C   0  0  0  0  0  0  0  0  0  0  0  0
    6.9970   -0.6275    2.7185 H   0  0  0  0  0  0  0  0  0  0  0  0
    3.1288    0.6524    2.8735 H   0  0  0  0  0  0  0  0  0  0  0  0
    2.7759    1.6529    1.4891 H   0  0  0  0  0  0  0  0  0  0  0  0
    0.5489    0.0787    1.4320 H   0  0  0  0  0  0  0  0  0  0  0  0
    0.9792   -0.1677    3.0931 H   0  0  0  0  0  0  0  0  0  0  0  0
   -1.4488    1.2728    1.8327 H   0  0  0  0  0  0  0  0  0  0  0  0
   -1.2831    0.9575    3.5705 H   0  0  0  0  0  0  0  0  0  0  0  0
   -1.7227    3.6815    2.1960 H   0  0  0  0  0  0  0  0  0  0  0  0
   -2.8297    2.8358    3.2470 H   0  0  0  0  0  0  0  0  0  0  0  0
    0.3273    4.5598    3.1818 H   0  0  0  0  0  0  0  0  0  0  0  0
    0.5879    4.3006    4.8933 H   0  0  0  0  0  0  0  0  0  0  0  0
    0.8806    1.8804    4.6327 H   0  0  0  0  0  0  0  0  0  0  0  0
    2.0018    2.7395    3.5538 H   0  0  0  0  0  0  0  0  0  0  0  0
    2.3164   -2.3097   -0.9883 H   0  0  0  0  0  0  0  0  0  0  0  0
    2.7647   -0.9945   -2.1567 H   0  0  0  0  0  0  0  0  0  0  0  0
    2.2729   -3.9260   -2.4356 H   0  0  0  0  0  0  0  0  0  0  0  0
    1.5900   -2.6591   -3.3961 H   0  0  0  0  0  0  0  0  0  0  0  0
    3.3109   -3.8721   -4.7217 H   0  0  0  0  0  0  0  0  0  0  0  0
    3.8092   -2.2397   -4.4452 H   0  0  0  0  0  0  0  0  0  0  0  0
    5.7694   -3.6161   -3.9476 H   0  0  0  0  0  0  0  0  0  0  0  0
    4.8325   -4.7500   -3.0328 H   0  0  0  0  0  0  0  0  0  0  0  0
    2.3386   -0.6847    0.3014 H   0  0  0  0  0  0  0  0  0  0  0  0
    0.4935    2.4193    1.7916 H   0  0  0  0  0  0  0  0  0  0  0  0
  1 18  2  0
  1  2  1  0
  1 23  1  0
  2  3  2  0
  3  7  1  0
  3  4  1  0
  4  5  1  0
  5 22  1  0
  5  6  2  0
  6  7  1  0
  6 19  1  0
  7  8  2  0
  8  9  1  0
  8 18  1  0
  9 10  1  0
  9 44  1  0
 10 11  1  0
 10 24  1  0
 10 25  1  0
 11 12  1  0
 11 26  1  0
 11 27  1  0
 12 17  1  0
 12 13  1  0
 12 45  1  0
 13 14  1  0
 13 28  1  0
 13 29  1  0
 14 15  1  0
 14 30  1  0
 14 31  1  0
 15 16  1  0
 16 17  1  0
 16 32  1  0
 16 33  1  0
 17 34  1  0
 17 35  1  0
 19 20  1  0
 19 36  1  0
 19 37  1  0
 20 21  1  0
 20 38  1  0
 20 39  1  0
 21 22  1  0
 21 40  1  0
 21 41  1  0
 22 42  1  0
 22 43  1  0
M  CHG  1  12   1
M  END
>  <i_m_ct_stereo_status>  (388) 
1

>  <s_m_source_file>  (388) 
/var/tmp/pbs.5076255.sched01/tmp7onimy_i/150cvk1qxg3.sdf

>  <i_m_source_file_index>  (388) 
29

>  <i_lp_mmshare_version>  (388) 
48012

>  <i_f3d_flags>  (388) 
0

>  <s_epik_input>  (388) 
W0NIMl0xW0NIMl1bQ0gyXVtDSDJdYyhzMiljMWMoYzIzKS9jKFtuSF1bY0hdbjMpPU4vW0NIMl1bQ0gyXU40W0NIMl1bQ0gyXU9bQ0gyXVtDSDJdNA==

>  <s_epik_cmdline>  (388) 
J2VwaWtfcHl0aG9uJywgJy1waHQnLCAnMi4wJywgJy1waCcsICc3LjAnLCAnLXRuJywgJzgnLCAnLW1hJywgJzIwMCcsICctaW1hZScsICc8aW5maWxlLm1hZT4nLCAnLW9tYWUnLCAnPG91dGZpbGUubWFlPic=

>  <r_epik_Ionization_Penalty>  (388) 
0.165547

>  <r_epik_Ionization_Penalty_Charging>  (388) 
0.165334

>  <r_epik_Ionization_Penalty_Neutral>  (388) 
0.000213362

>  <r_epik_State_Penalty>  (388) 
0.154675

>  <r_epik_Charging_Adjusted_Penalty>  (388) 
0.320009

>  <i_epik_Tot_Q>  (388) 
1

>  <i_epik_Tot_abs_Q>  (388) 
1

>  <s_lp_Force_Field>  (388) 
OPLS3e

>  <r_lp_Energy>  (388) 
33.5665

>  <b_lp_Chiralities_Consistent>  (388) 
1

>  <s_lp_Variant>  (388) 
103:0-1

>  <s_i_glide_gridfile>  (388) 
pfpi4k_grid

>  <i_i_glide_lignum>  (388) 
29

>  <i_i_glide_rotatable_bonds>  (388) 
4

>  <r_i_docking_score>  (388) 
-4.27294

>  <r_i_glide_ligand_efficiency>  (388) 
-0.194224

>  <r_i_glide_ligand_efficiency_sa>  (388) 
-0.544224

>  <r_i_glide_ligand_efficiency_ln>  (388) 
-1.04446

>  <r_i_glide_gscore>  (388) 
-4.27294

>  <r_i_glide_lipo>  (388) 
-0.43976

>  <r_i_glide_hbond>  (388) 
-0.307825

>  <r_i_glide_metal>  (388) 
-0

>  <r_i_glide_rewards>  (388) 
-1.32078

>  <r_i_glide_evdw>  (388) 
-24.3061

>  <r_i_glide_ecoul>  (388) 
-8.18602

>  <r_i_glide_erotb>  (388) 
0.365698

>  <r_i_glide_esite>  (388) 
-0.127056

>  <r_i_glide_emodel>  (388) 
-39.9348

>  <r_i_glide_energy>  (388) 
-32.4922

>  <r_i_glide_einternal>  (388) 
4.24874

>  <r_i_glide_intrahb_reward>  (388) 
-0

>  <i_i_glide_confnum>  (388) 
6

>  <i_i_glide_posenum>  (388) 
18

>  <r_i_glide_eff_state_penalty>  (388) 
0

>  <ligand_id>  (388) 
103

>  <original_smiles>  (388) 
c1nc2sc3c(c2c(=NCCN2CCOCC2)[nH]1)CCCC3

>  <smiles>  (388) 
[H]c1nc(N([H])C([H])([H])C([H])([H])[N+]2([H])C([H])([H])C([H])([H])OC([H])([H])C2([H])[H])c2c3c(sc2n1)C([H])([H])C([H])([H])C([H])([H])C3([H])[H]

$$$$
103:0:2
     RDKit          3D

 45 48  0  0  1  0  0  0  0  0999 V2000
    1.4619   -2.5754    3.5482 C   0  0  0  0  0  0  0  0  0  0  0  0
    1.9142   -3.7165    3.0381 N   0  0  0  0  0  0  0  0  0  0  0  0
    2.7377   -3.5022    1.9725 C   0  0  0  0  0  0  0  0  0  0  0  0
    3.5065   -4.8304    1.1194 S   0  0  0  0  0  0  0  0  0  0  0  0
    4.2689   -3.7142    0.0276 C   0  0  0  0  0  0  0  0  0  0  0  0
    3.9811   -2.3888    0.2721 C   0  0  0  0  0  0  0  0  0  0  0  0
    3.0799   -2.2327    1.4071 C   0  0  0  0  0  0  0  0  0  0  0  0
    2.4749   -1.1157    2.0612 C   0  0  0  0  0  0  0  0  0  0  0  0
    2.6484    0.2046    1.6087 N   0  0  0  0  0  0  0  0  0  0  0  0
    1.9561    1.3825    2.1475 C   0  0  0  0  0  0  0  0  0  0  0  0
    0.4120    1.2555    2.2652 C   0  0  0  0  0  0  0  0  0  0  0  0
   -0.2984    2.5435    2.5150 N   0  0  0  0  0  0  0  0  0  0  0  0
   -1.7647    2.3532    2.6824 C   0  0  0  0  0  0  0  0  0  0  0  0
   -2.4641    3.7047    2.9371 C   0  0  0  0  0  0  0  0  0  0  0  0
   -1.8834    4.3499    4.0614 O   0  0  0  0  0  0  0  0  0  0  0  0
   -0.5091    4.6402    3.8352 C   0  0  0  0  0  0  0  0  0  0  0  0
    0.2534    3.3221    3.6543 C   0  0  0  0  0  0  0  0  0  0  0  0
    1.6950   -1.3316    3.1456 N   0  0  0  0  0  0  0  0  0  0  0  0
    4.5800   -1.2866   -0.5600 C   0  0  0  0  0  0  0  0  0  0  0  0
    5.2042   -1.7983   -1.8767 C   0  0  0  0  0  0  0  0  0  0  0  0
    6.0241   -3.0867   -1.6800 C   0  0  0  0  0  0  0  0  0  0  0  0
    5.1622   -4.2040   -1.0713 C   0  0  0  0  0  0  0  0  0  0  0  0
    0.7875   -2.6519    4.3796 H   0  0  0  0  0  0  0  0  0  0  0  0
    2.4068    1.6466    3.1079 H   0  0  0  0  0  0  0  0  0  0  0  0
    2.1754    2.2135    1.4727 H   0  0  0  0  0  0  0  0  0  0  0  0
    0.0117    0.7840    1.3658 H   0  0  0  0  0  0  0  0  0  0  0  0
    0.1535    0.6141    3.1070 H   0  0  0  0  0  0  0  0  0  0  0  0
   -2.1788    1.8826    1.7925 H   0  0  0  0  0  0  0  0  0  0  0  0
   -1.9712    1.6708    3.5122 H   0  0  0  0  0  0  0  0  0  0  0  0
   -2.3795    4.3672    2.0829 H   0  0  0  0  0  0  0  0  0  0  0  0
   -3.5288    3.5535    3.1166 H   0  0  0  0  0  0  0  0  0  0  0  0
   -0.3700    5.3202    2.9862 H   0  0  0  0  0  0  0  0  0  0  0  0
   -0.1294    5.1576    4.7133 H   0  0  0  0  0  0  0  0  0  0  0  0
    0.1962    2.7278    4.5703 H   0  0  0  0  0  0  0  0  0  0  0  0
    1.2965    3.5652    3.4663 H   0  0  0  0  0  0  0  0  0  0  0  0
    3.8251   -0.5429   -0.8061 H   0  0  0  0  0  0  0  0  0  0  0  0
    5.3525   -0.7779    0.0208 H   0  0  0  0  0  0  0  0  0  0  0  0
    4.4060   -2.0094   -2.5895 H   0  0  0  0  0  0  0  0  0  0  0  0
    5.8140   -1.0162   -2.3200 H   0  0  0  0  0  0  0  0  0  0  0  0
    6.4659   -3.4194   -2.6217 H   0  0  0  0  0  0  0  0  0  0  0  0
    6.8580   -2.8786   -1.0097 H   0  0  0  0  0  0  0  0  0  0  0  0
    5.7925   -5.0124   -0.7056 H   0  0  0  0  0  0  0  0  0  0  0  0
    4.5547   -4.6397   -1.8600 H   0  0  0  0  0  0  0  0  0  0  0  0
    3.1792    0.3369    0.7616 H   0  0  0  0  0  0  0  0  0  0  0  0
   -0.1762    3.1443    1.6901 H   0  0  0  0  0  0  0  0  0  0  0  0
  1 18  2  0
  1  2  1  0
  1 23  1  0
  2  3  2  0
  3  7  1  0
  3  4  1  0
  4  5  1  0
  5 22  1  0
  5  6  2  0
  6  7  1  0
  6 19  1  0
  7  8  2  0
  8  9  1  0
  8 18  1  0
  9 10  1  0
  9 44  1  0
 10 11  1  0
 10 24  1  0
 10 25  1  0
 11 12  1  0
 11 26  1  0
 11 27  1  0
 12 17  1  0
 12 13  1  0
 12 45  1  0
 13 14  1  0
 13 28  1  0
 13 29  1  0
 14 15  1  0
 14 30  1  0
 14 31  1  0
 15 16  1  0
 16 17  1  0
 16 32  1  0
 16 33  1  0
 17 34  1  0
 17 35  1  0
 19 20  1  0
 19 36  1  0
 19 37  1  0
 20 21  1  0
 20 38  1  0
 20 39  1  0
 21 22  1  0
 21 40  1  0
 21 41  1  0
 22 42  1  0
 22 43  1  0
M  CHG  1  12   1
M  END
>  <i_m_ct_stereo_status>  (389) 
1

>  <s_m_source_file>  (389) 
/var/tmp/pbs.5076255.sched01/tmp7onimy_i/150cvk1qxg3.sdf

>  <i_m_source_file_index>  (389) 
29

>  <i_lp_mmshare_version>  (389) 
48012

>  <i_f3d_flags>  (389) 
0

>  <s_epik_input>  (389) 
W0NIMl0xW0NIMl1bQ0gyXVtDSDJdYyhzMiljMWMoYzIzKS9jKFtuSF1bY0hdbjMpPU4vW0NIMl1bQ0gyXU40W0NIMl1bQ0gyXU9bQ0gyXVtDSDJdNA==

>  <s_epik_cmdline>  (389) 
J2VwaWtfcHl0aG9uJywgJy1waHQnLCAnMi4wJywgJy1waCcsICc3LjAnLCAnLXRuJywgJzgnLCAnLW1hJywgJzIwMCcsICctaW1hZScsICc8aW5maWxlLm1hZT4nLCAnLW9tYWUnLCAnPG91dGZpbGUubWFlPic=

>  <r_epik_Ionization_Penalty>  (389) 
0.165547

>  <r_epik_Ionization_Penalty_Charging>  (389) 
0.165334

>  <r_epik_Ionization_Penalty_Neutral>  (389) 
0.000213362

>  <r_epik_State_Penalty>  (389) 
0.154675

>  <r_epik_Charging_Adjusted_Penalty>  (389) 
0.320009

>  <i_epik_Tot_Q>  (389) 
1

>  <i_epik_Tot_abs_Q>  (389) 
1

>  <s_lp_Force_Field>  (389) 
OPLS3e

>  <r_lp_Energy>  (389) 
33.5665

>  <b_lp_Chiralities_Consistent>  (389) 
1

>  <s_lp_Variant>  (389) 
103:0-1

>  <s_i_glide_gridfile>  (389) 
pfpi4k_grid

>  <i_i_glide_lignum>  (389) 
29

>  <i_i_glide_rotatable_bonds>  (389) 
4

>  <r_i_docking_score>  (389) 
-3.59437

>  <r_i_glide_ligand_efficiency>  (389) 
-0.16338

>  <r_i_glide_ligand_efficiency_sa>  (389) 
-0.457798

>  <r_i_glide_ligand_efficiency_ln>  (389) 
-0.878595

>  <r_i_glide_gscore>  (389) 
-3.59437

>  <r_i_glide_lipo>  (389) 
-0.110844

>  <r_i_glide_hbond>  (389) 
-0.324711

>  <r_i_glide_metal>  (389) 
-0

>  <r_i_glide_rewards>  (389) 
-1.28447

>  <r_i_glide_evdw>  (389) 
-23.087

>  <r_i_glide_ecoul>  (389) 
-6.44082

>  <r_i_glide_erotb>  (389) 
0.365698

>  <r_i_glide_esite>  (389) 
-0.119568

>  <r_i_glide_emodel>  (389) 
-38.1448

>  <r_i_glide_energy>  (389) 
-29.5279

>  <r_i_glide_einternal>  (389) 
1.58398

>  <r_i_glide_intrahb_reward>  (389) 
-0

>  <i_i_glide_confnum>  (389) 
6

>  <i_i_glide_posenum>  (389) 
24

>  <r_i_glide_eff_state_penalty>  (389) 
0

>  <ligand_id>  (389) 
103

>  <original_smiles>  (389) 
c1nc2sc3c(c2c(=NCCN2CCOCC2)[nH]1)CCCC3

>  <smiles>  (389) 
[H]c1nc(N([H])C([H])([H])C([H])([H])[N+]2([H])C([H])([H])C([H])([H])OC([H])([H])C2([H])[H])c2c3c(sc2n1)C([H])([H])C([H])([H])C([H])([H])C3([H])[H]

$$$$
103:1:0
     RDKit          3D

 44 47  0  0  1  0  0  0  0  0999 V2000
    3.1996   -2.8468   -1.1650 C   0  0  0  0  0  0  0  0  0  0  0  0
    4.4265   -2.4568   -1.4991 N   0  0  0  0  0  0  0  0  0  0  0  0
    5.3754   -3.1646   -0.8283 C   0  0  0  0  0  0  0  0  0  0  0  0
    7.1015   -2.8510   -1.0515 S   0  0  0  0  0  0  0  0  0  0  0  0
    7.4861   -4.1016    0.0949 C   0  0  0  0  0  0  0  0  0  0  0  0
    6.3919   -4.7524    0.6430 C   0  0  0  0  0  0  0  0  0  0  0  0
    5.1484   -4.2198    0.1152 C   0  0  0  0  0  0  0  0  0  0  0  0
    3.7641   -4.5198    0.3402 C   0  0  0  0  0  0  0  0  0  0  0  0
    3.3529   -5.5465    1.1882 N   0  0  0  0  0  0  0  0  0  0  0  0
    2.0610   -5.4795    1.8688 C   0  0  0  0  0  0  0  0  0  0  0  0
    1.1989   -6.7378    1.6376 C   0  0  0  0  0  0  0  0  0  0  0  0
   -0.1288   -6.6986    2.2779 N   0  0  0  0  0  0  0  0  0  0  0  0
   -0.0545   -6.6351    3.7447 C   0  0  0  0  0  0  0  0  0  0  0  0
    0.4494   -7.9365    4.3823 C   0  0  0  0  0  0  0  0  0  0  0  0
   -0.4089   -8.9990    3.9911 O   0  0  0  0  0  0  0  0  0  0  0  0
   -0.4695   -9.1798    2.5818 C   0  0  0  0  0  0  0  0  0  0  0  0
   -0.9447   -7.8691    1.9241 C   0  0  0  0  0  0  0  0  0  0  0  0
    2.8408   -3.7984   -0.3115 N   0  0  0  0  0  0  0  0  0  0  0  0
    6.5554   -5.8431    1.6600 C   0  0  0  0  0  0  0  0  0  0  0  0
    7.9894   -6.3967    1.7495 C   0  0  0  0  0  0  0  0  0  0  0  0
    9.0711   -5.3098    1.6566 C   0  0  0  0  0  0  0  0  0  0  0  0
    8.9106   -4.4361    0.3987 C   0  0  0  0  0  0  0  0  0  0  0  0
    2.3941   -2.3303   -1.6643 H   0  0  0  0  0  0  0  0  0  0  0  0
    2.3124   -5.3923    2.9213 H   0  0  0  0  0  0  0  0  0  0  0  0
    1.4867   -4.5919    1.6293 H   0  0  0  0  0  0  0  0  0  0  0  0
    1.0606   -6.8732    0.5613 H   0  0  0  0  0  0  0  0  0  0  0  0
    1.7542   -7.6166    1.9600 H   0  0  0  0  0  0  0  0  0  0  0  0
    0.5744   -5.7997    4.0595 H   0  0  0  0  0  0  0  0  0  0  0  0
   -1.0461   -6.4011    4.1407 H   0  0  0  0  0  0  0  0  0  0  0  0
    1.4797   -8.1600    4.0985 H   0  0  0  0  0  0  0  0  0  0  0  0
    0.4421   -7.8513    5.4672 H   0  0  0  0  0  0  0  0  0  0  0  0
    0.5034   -9.4871    2.1957 H   0  0  0  0  0  0  0  0  0  0  0  0
   -1.1605   -9.9922    2.3586 H   0  0  0  0  0  0  0  0  0  0  0  0
   -1.9730   -7.6921    2.2455 H   0  0  0  0  0  0  0  0  0  0  0  0
   -0.9787   -7.9915    0.8398 H   0  0  0  0  0  0  0  0  0  0  0  0
    6.2686   -5.4495    2.6386 H   0  0  0  0  0  0  0  0  0  0  0  0
    5.8763   -6.6726    1.4476 H   0  0  0  0  0  0  0  0  0  0  0  0
    8.1099   -6.9821    2.6626 H   0  0  0  0  0  0  0  0  0  0  0  0
    8.1565   -7.0902    0.9227 H   0  0  0  0  0  0  0  0  0  0  0  0
    8.9881   -4.6619    2.5232 H   0  0  0  0  0  0  0  0  0  0  0  0
   10.0639   -5.7473    1.7141 H   0  0  0  0  0  0  0  0  0  0  0  0
    9.3296   -4.9670   -0.4581 H   0  0  0  0  0  0  0  0  0  0  0  0
    9.4899   -3.5180    0.5110 H   0  0  0  0  0  0  0  0  0  0  0  0
    4.0725   -6.0399    1.6947 H   0  0  0  0  0  0  0  0  0  0  0  0
  1 18  2  0
  1  2  1  0
  1 23  1  0
  2  3  2  0
  3  7  1  0
  3  4  1  0
  4  5  1  0
  5 22  1  0
  5  6  2  0
  6  7  1  0
  6 19  1  0
  7  8  2  0
  8  9  1  0
  8 18  1  0
  9 10  1  0
  9 44  1  0
 10 11  1  0
 10 24  1  0
 10 25  1  0
 11 12  1  0
 11 26  1  0
 11 27  1  0
 12 17  1  0
 12 13  1  0
 13 14  1  0
 13 28  1  0
 13 29  1  0
 14 15  1  0
 14 30  1  0
 14 31  1  0
 15 16  1  0
 16 17  1  0
 16 32  1  0
 16 33  1  0
 17 34  1  0
 17 35  1  0
 19 20  1  0
 19 36  1  0
 19 37  1  0
 20 21  1  0
 20 38  1  0
 20 39  1  0
 21 22  1  0
 21 40  1  0
 21 41  1  0
 22 42  1  0
 22 43  1  0
M  END
>  <i_m_ct_stereo_status>  (390) 
1

>  <s_m_source_file>  (390) 
/var/tmp/pbs.5076255.sched01/tmp7onimy_i/150cvk1qxg3.sdf

>  <i_m_source_file_index>  (390) 
30

>  <i_lp_mmshare_version>  (390) 
48012

>  <i_f3d_flags>  (390) 
0

>  <s_epik_input>  (390) 
W0NIMl0xW0NIMl1bQ0gyXVtDSDJdYyhzMiljMWMoYzIzKS9jKFtuSF1bY0hdbjMpPU4vW0NIMl1bQ0gyXU40W0NIMl1bQ0gyXU9bQ0gyXVtDSDJdNA==

>  <s_epik_cmdline>  (390) 
J2VwaWtfcHl0aG9uJywgJy1waHQnLCAnMi4wJywgJy1waCcsICc3LjAnLCAnLXRuJywgJzgnLCAnLW1hJywgJzIwMCcsICctaW1hZScsICc8aW5maWxlLm1hZT4nLCAnLW9tYWUnLCAnPG91dGZpbGUubWFlPic=

>  <r_epik_Ionization_Penalty>  (390) 
0.837246

>  <r_epik_Ionization_Penalty_Charging>  (390) 
0

>  <r_epik_Ionization_Penalty_Neutral>  (390) 
0.837246

>  <r_epik_State_Penalty>  (390) 
0.871365

>  <r_epik_Charging_Adjusted_Penalty>  (390) 
0.871365

>  <i_epik_Tot_Q>  (390) 
0

>  <i_epik_Tot_abs_Q>  (390) 
0

>  <s_lp_Force_Field>  (390) 
OPLS3e

>  <r_lp_Energy>  (390) 
31.3624

>  <b_lp_Chiralities_Consistent>  (390) 
1

>  <s_lp_Variant>  (390) 
103:0-2

>  <s_i_glide_gridfile>  (390) 
pfpi4k_grid

>  <i_i_glide_lignum>  (390) 
30

>  <i_i_glide_rotatable_bonds>  (390) 
4

>  <r_i_docking_score>  (390) 
-3.27891

>  <r_i_glide_ligand_efficiency>  (390) 
-0.149041

>  <r_i_glide_ligand_efficiency_sa>  (390) 
-0.41762

>  <r_i_glide_ligand_efficiency_ln>  (390) 
-0.801486

>  <r_i_glide_gscore>  (390) 
-3.27891

>  <r_i_glide_lipo>  (390) 
-0.429886

>  <r_i_glide_hbond>  (390) 
-0.16

>  <r_i_glide_metal>  (390) 
-0

>  <r_i_glide_rewards>  (390) 
-1.23792

>  <r_i_glide_evdw>  (390) 
-27.2424

>  <r_i_glide_ecoul>  (390) 
-2.90408

>  <r_i_glide_erotb>  (390) 
0.367739

>  <r_i_glide_esite>  (390) 
-0.0211135

>  <r_i_glide_emodel>  (390) 
-35.922

>  <r_i_glide_energy>  (390) 
-30.1464

>  <r_i_glide_einternal>  (390) 
1.12282

>  <r_i_glide_intrahb_reward>  (390) 
-0

>  <i_i_glide_confnum>  (390) 
2

>  <i_i_glide_posenum>  (390) 
10

>  <r_i_glide_eff_state_penalty>  (390) 
0

>  <ligand_id>  (390) 
103

>  <original_smiles>  (390) 
c1nc2sc3c(c2c(=NCCN2CCOCC2)[nH]1)CCCC3

>  <smiles>  (390) 
[H]c1nc(N([H])C([H])([H])C([H])([H])N2C([H])([H])C([H])([H])OC([H])([H])C2([H])[H])c2c3c(sc2n1)C([H])([H])C([H])([H])C([H])([H])C3([H])[H]

$$$$
103:1:1
     RDKit          3D

 44 47  0  0  1  0  0  0  0  0999 V2000
    1.7129   -3.2618    3.5481 C   0  0  0  0  0  0  0  0  0  0  0  0
    2.4056   -4.2315    2.9596 N   0  0  0  0  0  0  0  0  0  0  0  0
    3.0306   -3.7910    1.8334 C   0  0  0  0  0  0  0  0  0  0  0  0
    4.0159   -4.8642    0.8533 S   0  0  0  0  0  0  0  0  0  0  0  0
    4.3702   -3.5576   -0.2307 C   0  0  0  0  0  0  0  0  0  0  0  0
    3.7810   -2.3556    0.0941 C   0  0  0  0  0  0  0  0  0  0  0  0
    2.9872   -2.4550    1.3066 C   0  0  0  0  0  0  0  0  0  0  0  0
    2.1921   -1.5411    2.0705 C   0  0  0  0  0  0  0  0  0  0  0  0
    2.0608   -0.1700    1.7398 N   0  0  0  0  0  0  0  0  0  0  0  0
    1.0134    0.7290    2.2474 C   0  0  0  0  0  0  0  0  0  0  0  0
    0.7532    0.6901    3.7711 C   0  0  0  0  0  0  0  0  0  0  0  0
   -0.2950    1.5612    4.2782 N   0  0  0  0  0  0  0  0  0  0  0  0
   -0.1067    1.8242    5.7029 C   0  0  0  0  0  0  0  0  0  0  0  0
   -0.4192    0.6071    6.6062 C   0  0  0  0  0  0  0  0  0  0  0  0
   -1.7503    0.1432    6.3752 O   0  0  0  0  0  0  0  0  0  0  0  0
   -1.9569   -0.2158    5.0108 C   0  0  0  0  0  0  0  0  0  0  0  0
   -1.6362    0.9902    4.0816 C   0  0  0  0  0  0  0  0  0  0  0  0
    1.5715   -2.0046    3.1701 N   0  0  0  0  0  0  0  0  0  0  0  0
    3.9445   -1.1322   -0.7620 C   0  0  0  0  0  0  0  0  0  0  0  0
    5.0825   -1.2589   -1.7942 C   0  0  0  0  0  0  0  0  0  0  0  0
    5.1491   -2.6474   -2.4539 C   0  0  0  0  0  0  0  0  0  0  0  0
    5.2462   -3.7762   -1.4141 C   0  0  0  0  0  0  0  0  0  0  0  0
    1.1838   -3.5081    4.4533 H   0  0  0  0  0  0  0  0  0  0  0  0
    1.3571    1.7425    2.0310 H   0  0  0  0  0  0  0  0  0  0  0  0
    0.0933    0.6152    1.6714 H   0  0  0  0  0  0  0  0  0  0  0  0
    0.4368   -0.2876    4.0786 H   0  0  0  0  0  0  0  0  0  0  0  0
    1.6967    0.8643    4.2879 H   0  0  0  0  0  0  0  0  0  0  0  0
    0.9268    2.1378    5.8719 H   0  0  0  0  0  0  0  0  0  0  0  0
   -0.7368    2.6661    6.0011 H   0  0  0  0  0  0  0  0  0  0  0  0
    0.2911   -0.2083    6.4437 H   0  0  0  0  0  0  0  0  0  0  0  0
   -0.3202    0.8921    7.6526 H   0  0  0  0  0  0  0  0  0  0  0  0
   -1.3636   -1.1031    4.7810 H   0  0  0  0  0  0  0  0  0  0  0  0
   -2.9846   -0.5374    4.8800 H   0  0  0  0  0  0  0  0  0  0  0  0
   -2.3815    1.7663    4.2642 H   0  0  0  0  0  0  0  0  0  0  0  0
   -1.7633    0.6896    3.0415 H   0  0  0  0  0  0  0  0  0  0  0  0
    3.0199   -0.9533   -1.3116 H   0  0  0  0  0  0  0  0  0  0  0  0
    4.1246   -0.2397   -0.1585 H   0  0  0  0  0  0  0  0  0  0  0  0
    4.9967   -0.4752   -2.5534 H   0  0  0  0  0  0  0  0  0  0  0  0
    6.0263   -1.0937   -1.2775 H   0  0  0  0  0  0  0  0  0  0  0  0
    4.2430   -2.7942   -3.0392 H   0  0  0  0  0  0  0  0  0  0  0  0
    5.9871   -2.7249   -3.1435 H   0  0  0  0  0  0  0  0  0  0  0  0
    6.2728   -3.8587   -1.0602 H   0  0  0  0  0  0  0  0  0  0  0  0
    5.0034   -4.7339   -1.8741 H   0  0  0  0  0  0  0  0  0  0  0  0
    2.3402    0.0561    0.7951 H   0  0  0  0  0  0  0  0  0  0  0  0
  1 18  2  0
  1  2  1  0
  1 23  1  0
  2  3  2  0
  3  7  1  0
  3  4  1  0
  4  5  1  0
  5 22  1  0
  5  6  2  0
  6  7  1  0
  6 19  1  0
  7  8  2  0
  8  9  1  0
  8 18  1  0
  9 10  1  0
  9 44  1  0
 10 11  1  0
 10 24  1  0
 10 25  1  0
 11 12  1  0
 11 26  1  0
 11 27  1  0
 12 17  1  0
 12 13  1  0
 13 14  1  0
 13 28  1  0
 13 29  1  0
 14 15  1  0
 14 30  1  0
 14 31  1  0
 15 16  1  0
 16 17  1  0
 16 32  1  0
 16 33  1  0
 17 34  1  0
 17 35  1  0
 19 20  1  0
 19 36  1  0
 19 37  1  0
 20 21  1  0
 20 38  1  0
 20 39  1  0
 21 22  1  0
 21 40  1  0
 21 41  1  0
 22 42  1  0
 22 43  1  0
M  END
>  <i_m_ct_stereo_status>  (391) 
1

>  <s_m_source_file>  (391) 
/var/tmp/pbs.5076255.sched01/tmp7onimy_i/150cvk1qxg3.sdf

>  <i_m_source_file_index>  (391) 
30

>  <i_lp_mmshare_version>  (391) 
48012

>  <i_f3d_flags>  (391) 
0

>  <s_epik_input>  (391) 
W0NIMl0xW0NIMl1bQ0gyXVtDSDJdYyhzMiljMWMoYzIzKS9jKFtuSF1bY0hdbjMpPU4vW0NIMl1bQ0gyXU40W0NIMl1bQ0gyXU9bQ0gyXVtDSDJdNA==

>  <s_epik_cmdline>  (391) 
J2VwaWtfcHl0aG9uJywgJy1waHQnLCAnMi4wJywgJy1waCcsICc3LjAnLCAnLXRuJywgJzgnLCAnLW1hJywgJzIwMCcsICctaW1hZScsICc8aW5maWxlLm1hZT4nLCAnLW9tYWUnLCAnPG91dGZpbGUubWFlPic=

>  <r_epik_Ionization_Penalty>  (391) 
0.837246

>  <r_epik_Ionization_Penalty_Charging>  (391) 
0

>  <r_epik_Ionization_Penalty_Neutral>  (391) 
0.837246

>  <r_epik_State_Penalty>  (391) 
0.871365

>  <r_epik_Charging_Adjusted_Penalty>  (391) 
0.871365

>  <i_epik_Tot_Q>  (391) 
0

>  <i_epik_Tot_abs_Q>  (391) 
0

>  <s_lp_Force_Field>  (391) 
OPLS3e

>  <r_lp_Energy>  (391) 
31.3624

>  <b_lp_Chiralities_Consistent>  (391) 
1

>  <s_lp_Variant>  (391) 
103:0-2

>  <s_i_glide_gridfile>  (391) 
pfpi4k_grid

>  <i_i_glide_lignum>  (391) 
30

>  <i_i_glide_rotatable_bonds>  (391) 
4

>  <r_i_docking_score>  (391) 
-3.05132

>  <r_i_glide_ligand_efficiency>  (391) 
-0.138697

>  <r_i_glide_ligand_efficiency_sa>  (391) 
-0.388633

>  <r_i_glide_ligand_efficiency_ln>  (391) 
-0.745855

>  <r_i_glide_gscore>  (391) 
-3.05132

>  <r_i_glide_lipo>  (391) 
-0.224711

>  <r_i_glide_hbond>  (391) 
-0.16

>  <r_i_glide_metal>  (391) 
-0

>  <r_i_glide_rewards>  (391) 
-1.26917

>  <r_i_glide_evdw>  (391) 
-23.3171

>  <r_i_glide_ecoul>  (391) 
-3.52557

>  <r_i_glide_erotb>  (391) 
0.367739

>  <r_i_glide_esite>  (391) 
-0.0704886

>  <r_i_glide_emodel>  (391) 
-28.5083

>  <r_i_glide_energy>  (391) 
-26.8427

>  <r_i_glide_einternal>  (391) 
3.01557

>  <r_i_glide_intrahb_reward>  (391) 
-0

>  <i_i_glide_confnum>  (391) 
1

>  <i_i_glide_posenum>  (391) 
13

>  <r_i_glide_eff_state_penalty>  (391) 
0

>  <ligand_id>  (391) 
103

>  <original_smiles>  (391) 
c1nc2sc3c(c2c(=NCCN2CCOCC2)[nH]1)CCCC3

>  <smiles>  (391) 
[H]c1nc(N([H])C([H])([H])C([H])([H])N2C([H])([H])C([H])([H])OC([H])([H])C2([H])[H])c2c3c(sc2n1)C([H])([H])C([H])([H])C([H])([H])C3([H])[H]

$$$$
103:1:2
     RDKit          3D

 44 47  0  0  1  0  0  0  0  0999 V2000
    2.9293   -4.4883    3.4007 C   0  0  0  0  0  0  0  0  0  0  0  0
    3.5866   -5.2408    2.5288 N   0  0  0  0  0  0  0  0  0  0  0  0
    3.8533   -4.5710    1.3732 C   0  0  0  0  0  0  0  0  0  0  0  0
    4.7532   -5.3134    0.0670 S   0  0  0  0  0  0  0  0  0  0  0  0
    4.6004   -3.8588   -0.8800 C   0  0  0  0  0  0  0  0  0  0  0  0
    3.9069   -2.8378   -0.2591 C   0  0  0  0  0  0  0  0  0  0  0  0
    3.4581   -3.2303    1.0621 C   0  0  0  0  0  0  0  0  0  0  0  0
    2.7257   -2.5761    2.0929 C   0  0  0  0  0  0  0  0  0  0  0  0
    2.2080   -1.2779    1.9417 N   0  0  0  0  0  0  0  0  0  0  0  0
    1.7498   -0.5171    3.0937 C   0  0  0  0  0  0  0  0  0  0  0  0
    1.1318    0.8434    2.7092 C   0  0  0  0  0  0  0  0  0  0  0  0
    0.8688    1.7437    3.8443 N   0  0  0  0  0  0  0  0  0  0  0  0
   -0.0831    1.1992    4.8081 C   0  0  0  0  0  0  0  0  0  0  0  0
   -1.5239    1.1755    4.2673 C   0  0  0  0  0  0  0  0  0  0  0  0
   -1.9086    2.4993    3.9061 O   0  0  0  0  0  0  0  0  0  0  0  0
   -1.0495    3.0575    2.9144 C   0  0  0  0  0  0  0  0  0  0  0  0
    0.4041    3.0703    3.4265 C   0  0  0  0  0  0  0  0  0  0  0  0
    2.5021   -3.2326    3.2594 N   0  0  0  0  0  0  0  0  0  0  0  0
    3.6563   -1.5170   -0.9362 C   0  0  0  0  0  0  0  0  0  0  0  0
    4.5186   -1.2951   -2.1932 C   0  0  0  0  0  0  0  0  0  0  0  0
    4.6390   -2.5579   -3.0494 C   0  0  0  0  0  0  0  0  0  0  0  0
    5.1786   -3.7564   -2.2544 C   0  0  0  0  0  0  0  0  0  0  0  0
    2.6789   -4.9605    4.3373 H   0  0  0  0  0  0  0  0  0  0  0  0
    1.0053   -1.1212    3.6107 H   0  0  0  0  0  0  0  0  0  0  0  0
    2.5727   -0.3550    3.7925 H   0  0  0  0  0  0  0  0  0  0  0  0
    1.8094    1.3539    2.0252 H   0  0  0  0  0  0  0  0  0  0  0  0
    0.2217    0.6646    2.1345 H   0  0  0  0  0  0  0  0  0  0  0  0
    0.2188    0.1997    5.1145 H   0  0  0  0  0  0  0  0  0  0  0  0
   -0.0529    1.8058    5.7158 H   0  0  0  0  0  0  0  0  0  0  0  0
   -1.6178    0.5008    3.4141 H   0  0  0  0  0  0  0  0  0  0  0  0
   -2.1911    0.7966    5.0365 H   0  0  0  0  0  0  0  0  0  0  0  0
   -1.1168    2.4737    2.0000 H   0  0  0  0  0  0  0  0  0  0  0  0
   -1.3852    4.0663    2.6779 H   0  0  0  0  0  0  0  0  0  0  0  0
    0.4496    3.7399    4.2854 H   0  0  0  0  0  0  0  0  0  0  0  0
    1.0765    3.4966    2.6786 H   0  0  0  0  0  0  0  0  0  0  0  0
    2.6181   -1.4876   -1.2555 H   0  0  0  0  0  0  0  0  0  0  0  0
    3.8195   -0.6801   -0.2483 H   0  0  0  0  0  0  0  0  0  0  0  0
    4.1196   -0.4625   -2.7745 H   0  0  0  0  0  0  0  0  0  0  0  0
    5.5245   -1.0014   -1.8881 H   0  0  0  0  0  0  0  0  0  0  0  0
    3.6589   -2.8071   -3.4472 H   0  0  0  0  0  0  0  0  0  0  0  0
    5.2870   -2.3772   -3.9064 H   0  0  0  0  0  0  0  0  0  0  0  0
    6.2623   -3.6745   -2.1716 H   0  0  0  0  0  0  0  0  0  0  0  0
    4.9939   -4.6752   -2.8089 H   0  0  0  0  0  0  0  0  0  0  0  0
    2.0286   -0.9146    1.0089 H   0  0  0  0  0  0  0  0  0  0  0  0
  1 18  2  0
  1  2  1  0
  1 23  1  0
  2  3  2  0
  3  7  1  0
  3  4  1  0
  4  5  1  0
  5 22  1  0
  5  6  2  0
  6  7  1  0
  6 19  1  0
  7  8  2  0
  8  9  1  0
  8 18  1  0
  9 10  1  0
  9 44  1  0
 10 11  1  0
 10 24  1  0
 10 25  1  0
 11 12  1  0
 11 26  1  0
 11 27  1  0
 12 17  1  0
 12 13  1  0
 13 14  1  0
 13 28  1  0
 13 29  1  0
 14 15  1  0
 14 30  1  0
 14 31  1  0
 15 16  1  0
 16 17  1  0
 16 32  1  0
 16 33  1  0
 17 34  1  0
 17 35  1  0
 19 20  1  0
 19 36  1  0
 19 37  1  0
 20 21  1  0
 20 38  1  0
 20 39  1  0
 21 22  1  0
 21 40  1  0
 21 41  1  0
 22 42  1  0
 22 43  1  0
M  END
>  <i_m_ct_stereo_status>  (392) 
1

>  <s_m_source_file>  (392) 
/var/tmp/pbs.5076255.sched01/tmp7onimy_i/150cvk1qxg3.sdf

>  <i_m_source_file_index>  (392) 
30

>  <i_lp_mmshare_version>  (392) 
48012

>  <i_f3d_flags>  (392) 
0

>  <s_epik_input>  (392) 
W0NIMl0xW0NIMl1bQ0gyXVtDSDJdYyhzMiljMWMoYzIzKS9jKFtuSF1bY0hdbjMpPU4vW0NIMl1bQ0gyXU40W0NIMl1bQ0gyXU9bQ0gyXVtDSDJdNA==

>  <s_epik_cmdline>  (392) 
J2VwaWtfcHl0aG9uJywgJy1waHQnLCAnMi4wJywgJy1waCcsICc3LjAnLCAnLXRuJywgJzgnLCAnLW1hJywgJzIwMCcsICctaW1hZScsICc8aW5maWxlLm1hZT4nLCAnLW9tYWUnLCAnPG91dGZpbGUubWFlPic=

>  <r_epik_Ionization_Penalty>  (392) 
0.837246

>  <r_epik_Ionization_Penalty_Charging>  (392) 
0

>  <r_epik_Ionization_Penalty_Neutral>  (392) 
0.837246

>  <r_epik_State_Penalty>  (392) 
0.871365

>  <r_epik_Charging_Adjusted_Penalty>  (392) 
0.871365

>  <i_epik_Tot_Q>  (392) 
0

>  <i_epik_Tot_abs_Q>  (392) 
0

>  <s_lp_Force_Field>  (392) 
OPLS3e

>  <r_lp_Energy>  (392) 
31.3624

>  <b_lp_Chiralities_Consistent>  (392) 
1

>  <s_lp_Variant>  (392) 
103:0-2

>  <s_i_glide_gridfile>  (392) 
pfpi4k_grid

>  <i_i_glide_lignum>  (392) 
30

>  <i_i_glide_rotatable_bonds>  (392) 
4

>  <r_i_docking_score>  (392) 
-2.61761

>  <r_i_glide_ligand_efficiency>  (392) 
-0.118982

>  <r_i_glide_ligand_efficiency_sa>  (392) 
-0.333393

>  <r_i_glide_ligand_efficiency_ln>  (392) 
-0.63984

>  <r_i_glide_gscore>  (392) 
-2.61761

>  <r_i_glide_lipo>  (392) 
-0.186914

>  <r_i_glide_hbond>  (392) 
-0.0784309

>  <r_i_glide_metal>  (392) 
-0

>  <r_i_glide_rewards>  (392) 
-1.23792

>  <r_i_glide_evdw>  (392) 
-22.3092

>  <r_i_glide_ecoul>  (392) 
-2.08652

>  <r_i_glide_erotb>  (392) 
0.367739

>  <r_i_glide_esite>  (392) 
-0.0536489

>  <r_i_glide_emodel>  (392) 
-28.0029

>  <r_i_glide_energy>  (392) 
-24.3957

>  <r_i_glide_einternal>  (392) 
2.21787

>  <r_i_glide_intrahb_reward>  (392) 
-0

>  <i_i_glide_confnum>  (392) 
2

>  <i_i_glide_posenum>  (392) 
20

>  <r_i_glide_eff_state_penalty>  (392) 
0

>  <ligand_id>  (392) 
103

>  <original_smiles>  (392) 
c1nc2sc3c(c2c(=NCCN2CCOCC2)[nH]1)CCCC3

>  <smiles>  (392) 
[H]c1nc(N([H])C([H])([H])C([H])([H])N2C([H])([H])C([H])([H])OC([H])([H])C2([H])[H])c2c3c(sc2n1)C([H])([H])C([H])([H])C([H])([H])C3([H])[H]

$$$$
104:0:0
     RDKit          3D

 97104  0  0  1  0  0  0  0  0999 V2000
    5.4543   -3.8367    5.7993 C   0  0  0  0  0  0  0  0  0  0  0  0
    5.7478   -5.1250    6.0423 C   0  0  0  0  0  0  0  0  0  0  0  0
    7.1679   -5.6328    5.8710 C   0  0  1  0  0  0  0  0  0  0  0  0
    7.8160   -5.5940    7.1310 O   0  0  0  0  0  0  0  0  0  0  0  0
    7.2862   -7.0748    5.2918 C   0  0  1  0  0  0  0  0  0  0  0  0
    6.4329   -7.9326    6.0213 O   0  0  0  0  0  0  0  0  0  0  0  0
    5.0425   -7.6202    6.0652 C   0  0  1  0  0  0  0  0  0  0  0  0
    4.7401   -6.1762    6.5351 C   0  0  2  0  0  0  0  0  0  0  0  0
    3.2491   -5.7836    6.4529 C   0  0  0  0  0  0  0  0  0  0  0  0
    2.6848   -5.4418    5.0438 C   0  0  2  0  0  0  0  0  0  0  0  0
    1.3683   -4.6117    5.2139 C   0  0  1  0  0  0  0  0  0  0  0  0
    1.0726   -3.7056    4.0039 C   0  0  0  0  0  0  0  0  0  0  0  0
    0.1512   -5.4893    5.5915 C   0  0  0  0  0  0  0  0  0  0  0  0
   -0.0432   -6.6455    4.6033 C   0  0  0  0  0  0  0  0  0  0  0  0
    1.2533   -7.4750    4.5394 C   0  0  2  0  0  0  0  0  0  0  0  0
    2.4659   -6.6362    4.0592 C   0  0  2  0  0  0  0  0  0  0  0  0
    3.5884   -7.6816    3.7112 C   0  0  2  0  0  0  0  0  0  0  0  0
    2.6328   -8.7379    3.0317 C   0  0  0  0  0  0  0  0  0  0  0  0
    1.2375   -8.7658    3.6988 C   0  0  0  0  0  0  0  0  0  0  0  0
    1.0506  -10.0173    4.5876 C   0  0  0  0  0  0  0  0  0  0  0  0
    0.1316   -8.7925    2.6190 C   0  0  0  0  0  0  0  0  0  0  0  0
    4.1697   -8.3617    5.0029 C   0  0  1  0  0  0  0  0  0  0  0  0
    4.8665   -9.5550    4.6407 O   0  0  0  0  0  0  0  0  0  0  0  0
    5.8341   -9.5042    3.6719 C   0  0  0  0  0  0  0  0  0  0  0  0
    6.4225  -10.5180    3.3027 O   0  0  0  0  0  0  0  0  0  0  0  0
    6.1295   -8.1047    3.0836 C   0  0  2  0  0  0  0  0  0  0  0  0
    7.3645   -7.3880    3.7360 C   0  0  2  0  0  0  0  0  0  0  0  0
    8.6047   -8.3128    3.5534 C   0  0  0  0  0  0  0  0  0  0  0  0
    7.7216   -6.1529    2.8556 C   0  0  0  0  0  0  0  0  0  0  0  0
    6.5604   -5.4185    2.1600 C   0  0  0  0  0  0  0  0  0  0  0  0
    5.1481   -5.7751    2.6929 C   0  0  1  0  0  0  0  0  0  0  0  0
    4.0724   -5.0164    2.0400 O   0  0  0  0  0  0  0  0  0  0  0  0
    4.3188   -4.2422    0.8693 C   0  0  2  0  0  0  0  0  0  0  0  0
    5.0547   -3.0677    1.1617 O   0  0  0  0  0  0  0  0  0  0  0  0
    5.4498   -2.2527    0.0327 C   0  0  1  0  0  0  0  0  0  0  0  0
    6.5003   -3.0343   -0.8340 C   0  0  0  0  0  0  0  0  0  0  0  0
    7.0568   -2.2757   -1.9136 O   0  0  0  0  0  0  0  0  0  0  0  0
    4.1549   -1.7725   -0.6756 C   0  0  1  0  0  0  0  0  0  0  0  0
    4.4251   -0.9107   -1.7966 O   0  0  0  0  0  0  0  0  0  0  0  0
    3.2607   -2.9698   -1.0687 C   0  0  1  0  0  0  0  0  0  0  0  0
    3.9209   -3.7277   -2.0799 O   0  0  0  0  0  0  0  0  0  0  0  0
    2.9940   -3.8545    0.1678 C   0  0  1  0  0  0  0  0  0  0  0  0
    2.2581   -5.0165   -0.1878 O   0  0  0  0  0  0  0  0  0  0  0  0
    4.8140   -7.3030    2.7143 C   0  0  2  0  0  0  0  0  0  0  0  0
    4.5633   -7.6911    1.2191 C   0  0  0  0  0  0  0  0  0  0  0  0
    4.4651   -3.4218    5.9316 H   0  0  0  0  0  0  0  0  0  0  0  0
    6.2133   -3.1552    5.4514 H   0  0  0  0  0  0  0  0  0  0  0  0
    7.7169   -4.9159    5.2802 H   0  0  0  0  0  0  0  0  0  0  0  0
    7.4142   -6.2450    7.6876 H   0  0  0  0  0  0  0  0  0  0  0  0
    8.2661   -7.3805    5.6736 H   0  0  0  0  0  0  0  0  0  0  0  0
    4.7656   -8.1852    6.9504 H   0  0  0  0  0  0  0  0  0  0  0  0
    4.9626   -6.1844    7.6058 H   0  0  0  0  0  0  0  0  0  0  0  0
    2.6526   -6.5545    6.9367 H   0  0  0  0  0  0  0  0  0  0  0  0
    3.1330   -4.9160    7.1048 H   0  0  0  0  0  0  0  0  0  0  0  0
    3.3640   -4.7489    4.5703 H   0  0  0  0  0  0  0  0  0  0  0  0
    1.5005   -3.9176    6.0463 H   0  0  0  0  0  0  0  0  0  0  0  0
    0.9291   -4.2797    3.0898 H   0  0  0  0  0  0  0  0  0  0  0  0
    1.8959   -3.0113    3.8338 H   0  0  0  0  0  0  0  0  0  0  0  0
    0.1750   -3.1131    4.1756 H   0  0  0  0  0  0  0  0  0  0  0  0
    0.2949   -5.9070    6.5869 H   0  0  0  0  0  0  0  0  0  0  0  0
   -0.7531   -4.8861    5.6590 H   0  0  0  0  0  0  0  0  0  0  0  0
   -0.8760   -7.2732    4.9241 H   0  0  0  0  0  0  0  0  0  0  0  0
   -0.3036   -6.2580    3.6179 H   0  0  0  0  0  0  0  0  0  0  0  0
    1.4382   -7.7846    5.5699 H   0  0  0  0  0  0  0  0  0  0  0  0
    2.1715   -6.2007    3.1105 H   0  0  0  0  0  0  0  0  0  0  0  0
    2.4217   -8.4561    2.0036 H   0  0  0  0  0  0  0  0  0  0  0  0
    3.0639   -9.7388    2.9543 H   0  0  0  0  0  0  0  0  0  0  0  0
    1.0630  -10.9285    3.9911 H   0  0  0  0  0  0  0  0  0  0  0  0
    0.0945   -9.9812    5.1072 H   0  0  0  0  0  0  0  0  0  0  0  0
    1.8241  -10.1234    5.3440 H   0  0  0  0  0  0  0  0  0  0  0  0
    0.2387   -9.6888    2.0138 H   0  0  0  0  0  0  0  0  0  0  0  0
    0.1754   -7.9322    1.9516 H   0  0  0  0  0  0  0  0  0  0  0  0
   -0.8624   -8.8317    3.0587 H   0  0  0  0  0  0  0  0  0  0  0  0
    3.3148   -8.6978    5.5707 H   0  0  0  0  0  0  0  0  0  0  0  0
    6.5370   -8.4128    2.1364 H   0  0  0  0  0  0  0  0  0  0  0  0
    8.6847   -8.6300    2.5177 H   0  0  0  0  0  0  0  0  0  0  0  0
    8.5552   -9.2010    4.1759 H   0  0  0  0  0  0  0  0  0  0  0  0
    9.5275   -7.7851    3.7968 H   0  0  0  0  0  0  0  0  0  0  0  0
    8.3618   -5.4557    3.3977 H   0  0  0  0  0  0  0  0  0  0  0  0
    8.3838   -6.4766    2.0288 H   0  0  0  0  0  0  0  0  0  0  0  0
    6.7471   -4.3562    2.2555 H   0  0  0  0  0  0  0  0  0  0  0  0
    6.6436   -5.6521    1.1064 H   0  0  0  0  0  0  0  0  0  0  0  0
    5.1619   -5.4587    3.7256 H   0  0  0  0  0  0  0  0  0  0  0  0
    4.9157   -4.8694    0.1967 H   0  0  0  0  0  0  0  0  0  0  0  0
    5.9370   -1.3793    0.4427 H   0  0  0  0  0  0  0  0  0  0  0  0
    7.3349   -3.3627   -0.1797 H   0  0  0  0  0  0  0  0  0  0  0  0
    6.0255   -3.9244   -1.2714 H   0  0  0  0  0  0  0  0  0  0  0  0
    7.3645   -2.8953   -2.5953 H   0  0  0  0  0  0  0  0  0  0  0  0
    3.5898   -1.1743    0.0433 H   0  0  0  0  0  0  0  0  0  0  0  0
    3.5861   -0.6282   -2.1860 H   0  0  0  0  0  0  0  0  0  0  0  0
    2.2917   -2.5937   -1.4321 H   0  0  0  0  0  0  0  0  0  0  0  0
    3.3582   -4.4461   -2.3648 H   0  0  0  0  0  0  0  0  0  0  0  0
    2.3909   -3.2950    0.8858 H   0  0  0  0  0  0  0  0  0  0  0  0
    2.7449   -5.4881   -0.8899 H   0  0  0  0  0  0  0  0  0  0  0  0
    5.3961   -7.4166    0.5662 H   0  0  0  0  0  0  0  0  0  0  0  0
    3.6865   -7.2056    0.7905 H   0  0  0  0  0  0  0  0  0  0  0  0
    4.4464   -8.7652    1.0838 H   0  0  0  0  0  0  0  0  0  0  0  0
  1  2  2  0
  1 46  1  0
  1 47  1  0
  2  8  1  0
  2  3  1  0
  3  4  1  0
  3  5  1  0
  3 48  1  6
  4 49  1  0
  5 27  1  0
  5  6  1  0
  5 50  1  1
  6  7  1  0
  7 22  1  0
  7  8  1  0
  7 51  1  1
  8  9  1  0
  8 52  1  1
  9 10  1  0
  9 53  1  0
  9 54  1  0
 10 16  1  0
 10 11  1  0
 10 55  1  6
 11 12  1  0
 11 13  1  0
 11 56  1  1
 12 57  1  0
 12 58  1  0
 12 59  1  0
 13 14  1  0
 13 60  1  0
 13 61  1  0
 14 15  1  0
 14 62  1  0
 14 63  1  0
 15 19  1  0
 15 16  1  0
 15 64  1  1
 16 17  1  0
 16 65  1  6
 17 44  1  0
 17 18  1  6
 17 22  1  0
 18 19  1  0
 18 66  1  0
 18 67  1  0
 19 20  1  0
 19 21  1  0
 20 68  1  0
 20 69  1  0
 20 70  1  0
 21 71  1  0
 21 72  1  0
 21 73  1  0
 22 23  1  0
 22 74  1  1
 23 24  1  0
 24 25  2  0
 24 26  1  0
 26 44  1  0
 26 27  1  0
 26 75  1  6
 27 28  1  1
 27 29  1  0
 28 76  1  0
 28 77  1  0
 28 78  1  0
 29 30  1  0
 29 79  1  0
 29 80  1  0
 30 31  1  0
 30 81  1  0
 30 82  1  0
 31 32  1  0
 31 44  1  0
 31 83  1  1
 32 33  1  0
 33 42  1  0
 33 34  1  0
 33 84  1  6
 34 35  1  0
 35 36  1  0
 35 38  1  0
 35 85  1  1
 36 37  1  0
 36 86  1  0
 36 87  1  0
 37 88  1  0
 38 39  1  0
 38 40  1  0
 38 89  1  1
 39 90  1  0
 40 41  1  0
 40 42  1  0
 40 91  1  6
 41 92  1  0
 42 43  1  0
 42 93  1  1
 43 94  1  0
 44 45  1  6
 45 95  1  0
 45 96  1  0
 45 97  1  0
M  END
>  <i_m_ct_stereo_status>  (393) 
1

>  <s_m_source_file>  (393) 
/var/tmp/pbs.5076255.sched01/tmp7onimy_i/150cvk1qxg3.sdf

>  <i_m_source_file_index>  (393) 
31

>  <i_lp_mmshare_version>  (393) 
48012

>  <i_f3d_flags>  (393) 
0

>  <s_epik_input>  (393) 
W09IXVtDQEBIXTFbQ0BIXShbT0hdKVtDQEhdKFtPSF0pW0NASF0oW0NIMl1bT0hdKU9bQ0BIXTFPW0NAQEhdKFtDQF0yM1tDSDNdKVtDSDJdW0NIMl1bQ0BAXShbQ0gzXSkoW0NASF0oTzQpW0NASF0oW09IXSlDNT1bQ0gyXSlbQ0BIXTNDKD1PKU9bQ0BIXTZbQ0hdNFtDQEBIXTVbQ0gyXVtDQEBIXShbQ0BIXTdbQ0BAXTI2OClbQ0BASF0oW0NIM10pW0NIMl1bQ0gyXVtDQEhdN0MoW0NIMl04KShbQ0gzXSlbQ0gzXQ==

>  <s_epik_cmdline>  (393) 
J2VwaWtfcHl0aG9uJywgJy1waHQnLCAnMi4wJywgJy1waCcsICc3LjAnLCAnLXRuJywgJzgnLCAnLW1hJywgJzIwMCcsICctaW1hZScsICc8aW5maWxlLm1hZT4nLCAnLW9tYWUnLCAnPG91dGZpbGUubWFlPic=

>  <r_lp_tautomer_probability>  (393) 
1

>  <r_epik_Ionization_Penalty>  (393) 
2.86832e-06

>  <r_epik_Ionization_Penalty_Charging>  (393) 
0

>  <r_epik_Ionization_Penalty_Neutral>  (393) 
2.86832e-06

>  <r_epik_State_Penalty>  (393) 
-0

>  <r_epik_Charging_Adjusted_Penalty>  (393) 
0

>  <i_epik_Tot_Q>  (393) 
0

>  <i_epik_Tot_abs_Q>  (393) 
0

>  <s_epik_Chemistry_Notes>  (393) 
This compound has an ester and may undergo hydrolysis at high or low pH. This compound contains an acetal/aminal-like group ( X-CH(R)-Y where X, Y are N, S, or O) that may be acid/base labile, releasing an aldehyde.

>  <s_lp_Force_Field>  (393) 
OPLS3e

>  <r_lp_Energy>  (393) 
145.976

>  <b_lp_Chiralities_Consistent>  (393) 
1

>  <s_lp_Variant>  (393) 
104:0-1

>  <s_i_glide_gridfile>  (393) 
pfpi4k_grid

>  <i_i_glide_lignum>  (393) 
31

>  <i_i_glide_rotatable_bonds>  (393) 
8

>  <r_i_docking_score>  (393) 
-3.78023

>  <r_i_glide_ligand_efficiency>  (393) 
-0.0840051

>  <r_i_glide_ligand_efficiency_sa>  (393) 
-0.298797

>  <r_i_glide_ligand_efficiency_ln>  (393) 
-0.786456

>  <r_i_glide_gscore>  (393) 
-3.78023

>  <r_i_glide_lipo>  (393) 
-0.200782

>  <r_i_glide_hbond>  (393) 
0

>  <r_i_glide_metal>  (393) 
-0

>  <r_i_glide_rewards>  (393) 
-0.0357035

>  <r_i_glide_evdw>  (393) 
-24.6255

>  <r_i_glide_ecoul>  (393) 
-15.5288

>  <r_i_glide_erotb>  (393) 
0.0181956

>  <r_i_glide_esite>  (393) 
-0.00133848

>  <r_i_glide_emodel>  (393) 
-47.2297

>  <r_i_glide_energy>  (393) 
-40.1543

>  <r_i_glide_einternal>  (393) 
3.72531

>  <r_i_glide_intrahb_reward>  (393) 
-0

>  <i_i_glide_confnum>  (393) 
4

>  <i_i_glide_posenum>  (393) 
11

>  <r_i_glide_eff_state_penalty>  (393) 
0

>  <ligand_id>  (393) 
104

>  <original_smiles>  (393) 
C=C1C(O)C2OC3C1CC1C(C)CCC4C1C1(CC4(C)C)C3OC(=O)C3C2(C)CCC(OC2OC(CO)C(O)C(O)C2O)C31C

>  <smiles>  (393) 
[H]OC([H])([H])C1([H])OC([H])(OC2([H])C([H])([H])C([H])([H])C3(C([H])([H])[H])C4([H])OC5([H])C6([H])OC(=O)C3([H])C2(C([H])([H])[H])C62C([H])([H])C(C([H])([H])[H])(C([H])([H])[H])C3([H])C([H])([H])C([H])([H])C([H])(C([H])([H])[H])C([H])(C([H])([H])C5([H])C(=C([H])[H])C4([H])O[H])C32[H])C([H])(O[H])C([H])(O[H])C1([H])O[H]

$$$$
104:0:1
     RDKit          3D

 97104  0  0  1  0  0  0  0  0999 V2000
    5.8462   -3.7871    5.7662 C   0  0  0  0  0  0  0  0  0  0  0  0
    6.0453   -5.1195    5.7675 C   0  0  0  0  0  0  0  0  0  0  0  0
    7.4049   -5.7173    5.4563 C   0  0  1  0  0  0  0  0  0  0  0  0
    8.0985   -5.9389    6.6596 O   0  0  0  0  0  0  0  0  0  0  0  0
    7.3773   -7.0378    4.6398 C   0  0  1  0  0  0  0  0  0  0  0  0
    6.4709   -7.9368    5.2463 O   0  0  0  0  0  0  0  0  0  0  0  0
    5.1199   -7.5121    5.4066 C   0  0  1  0  0  0  0  0  0  0  0  0
    4.9650   -6.1408    6.1212 C   0  0  2  0  0  0  0  0  0  0  0  0
    3.5244   -5.6058    6.1749 C   0  0  0  0  0  0  0  0  0  0  0  0
    2.9491   -4.9854    4.8724 C   0  0  2  0  0  0  0  0  0  0  0  0
    1.7231   -4.0782    5.2344 C   0  0  1  0  0  0  0  0  0  0  0  0
    1.4740   -2.9636    4.2044 C   0  0  0  0  0  0  0  0  0  0  0  0
    0.4447   -4.8973    5.5359 C   0  0  0  0  0  0  0  0  0  0  0  0
    0.1189   -5.8679    4.4022 C   0  0  0  0  0  0  0  0  0  0  0  0
    1.3192   -6.7853    4.1386 C   0  0  2  0  0  0  0  0  0  0  0  0
    2.5872   -5.9875    3.7250 C   0  0  2  0  0  0  0  0  0  0  0  0
    3.5847   -7.0601    3.1532 C   0  0  2  0  0  0  0  0  0  0  0  0
    2.5115   -7.8889    2.3651 C   0  0  0  0  0  0  0  0  0  0  0  0
    1.1465   -7.8936    3.0916 C   0  0  0  0  0  0  0  0  0  0  0  0
    0.8653   -9.2552    3.7647 C   0  0  0  0  0  0  0  0  0  0  0  0
    0.0059   -7.6205    2.0778 C   0  0  0  0  0  0  0  0  0  0  0  0
    4.1375   -7.9941    4.2904 C   0  0  1  0  0  0  0  0  0  0  0  0
    4.7158   -9.1743    3.7070 O   0  0  0  0  0  0  0  0  0  0  0  0
    5.6618   -9.0353    2.7247 C   0  0  0  0  0  0  0  0  0  0  0  0
    6.1410  -10.0040    2.1448 O   0  0  0  0  0  0  0  0  0  0  0  0
    6.0445   -7.5913    2.3733 C   0  0  2  0  0  0  0  0  0  0  0  0
    7.3584   -7.0732    3.0597 C   0  0  2  0  0  0  0  0  0  0  0  0
    8.4841   -8.0727    2.6766 C   0  0  0  0  0  0  0  0  0  0  0  0
    7.8030   -5.7433    2.3502 C   0  0  0  0  0  0  0  0  0  0  0  0
    6.6863   -4.8091    1.8434 C   0  0  0  0  0  0  0  0  0  0  0  0
    5.2666   -5.1590    2.3647 C   0  0  1  0  0  0  0  0  0  0  0  0
    4.2202   -4.2570    1.8975 O   0  0  0  0  0  0  0  0  0  0  0  0
    4.3131   -3.5841    0.6267 C   0  0  2  0  0  0  0  0  0  0  0  0
    4.9717   -2.3269    0.7513 O   0  0  0  0  0  0  0  0  0  0  0  0
    5.1642   -1.6034   -0.4630 C   0  0  1  0  0  0  0  0  0  0  0  0
    6.2555   -2.2988   -1.3251 C   0  0  0  0  0  0  0  0  0  0  0  0
    7.5425   -2.2505   -0.7245 O   0  0  0  0  0  0  0  0  0  0  0  0
    3.8070   -1.3571   -1.1599 C   0  0  1  0  0  0  0  0  0  0  0  0
    3.9400   -0.6648   -2.3953 O   0  0  0  0  0  0  0  0  0  0  0  0
    3.0319   -2.6642   -1.3634 C   0  0  1  0  0  0  0  0  0  0  0  0
    3.7287   -3.4418   -2.3215 O   0  0  0  0  0  0  0  0  0  0  0  0
    2.9123   -3.3807   -0.0045 C   0  0  1  0  0  0  0  0  0  0  0  0
    2.2524   -4.6139   -0.1640 O   0  0  0  0  0  0  0  0  0  0  0  0
    4.8210   -6.6397    2.1836 C   0  0  2  0  0  0  0  0  0  0  0  0
    4.5016   -6.8195    0.6765 C   0  0  0  0  0  0  0  0  0  0  0  0
    4.9032   -3.3231    6.0081 H   0  0  0  0  0  0  0  0  0  0  0  0
    6.6449   -3.1132    5.5195 H   0  0  0  0  0  0  0  0  0  0  0  0
    8.0244   -5.0047    4.9454 H   0  0  0  0  0  0  0  0  0  0  0  0
    7.6388   -6.6259    7.1461 H   0  0  0  0  0  0  0  0  0  0  0  0
    8.3428   -7.4893    4.9222 H   0  0  0  0  0  0  0  0  0  0  0  0
    4.8245   -8.1729    6.2167 H   0  0  0  0  0  0  0  0  0  0  0  0
    5.2241   -6.3412    7.1601 H   0  0  0  0  0  0  0  0  0  0  0  0
    2.8661   -6.3898    6.5548 H   0  0  0  0  0  0  0  0  0  0  0  0
    3.5131   -4.8513    6.9634 H   0  0  0  0  0  0  0  0  0  0  0  0
    3.6745   -4.2795    4.4793 H   0  0  0  0  0  0  0  0  0  0  0  0
    1.9523   -3.5451    6.1601 H   0  0  0  0  0  0  0  0  0  0  0  0
    1.2370   -3.3621    3.2158 H   0  0  0  0  0  0  0  0  0  0  0  0
    2.3527   -2.3242    4.1024 H   0  0  0  0  0  0  0  0  0  0  0  0
    0.6451   -2.3305    4.5195 H   0  0  0  0  0  0  0  0  0  0  0  0
    0.5767   -5.4664    6.4522 H   0  0  0  0  0  0  0  0  0  0  0  0
   -0.3991   -4.2295    5.7081 H   0  0  0  0  0  0  0  0  0  0  0  0
   -0.7636   -6.4585    4.6548 H   0  0  0  0  0  0  0  0  0  0  0  0
   -0.1122   -5.3054    3.5051 H   0  0  0  0  0  0  0  0  0  0  0  0
    1.5145   -7.2799    5.0917 H   0  0  0  0  0  0  0  0  0  0  0  0
    2.2924   -5.3836    2.8765 H   0  0  0  0  0  0  0  0  0  0  0  0
    2.2964   -7.4221    1.4131 H   0  0  0  0  0  0  0  0  0  0  0  0
    2.8446   -8.8945    2.1110 H   0  0  0  0  0  0  0  0  0  0  0  0
    0.7721  -10.0491    3.0262 H   0  0  0  0  0  0  0  0  0  0  0  0
   -0.0645   -9.2204    4.3316 H   0  0  0  0  0  0  0  0  0  0  0  0
    1.6512   -9.5523    4.4560 H   0  0  0  0  0  0  0  0  0  0  0  0
    0.0052   -8.3809    1.3031 H   0  0  0  0  0  0  0  0  0  0  0  0
    0.1104   -6.6602    1.5719 H   0  0  0  0  0  0  0  0  0  0  0  0
   -0.9703   -7.6597    2.5565 H   0  0  0  0  0  0  0  0  0  0  0  0
    3.2697   -8.3339    4.8586 H   0  0  0  0  0  0  0  0  0  0  0  0
    6.4350   -7.7739    1.3831 H   0  0  0  0  0  0  0  0  0  0  0  0
    8.5111   -8.2233    1.5950 H   0  0  0  0  0  0  0  0  0  0  0  0
    8.3670   -9.0494    3.1630 H   0  0  0  0  0  0  0  0  0  0  0  0
    9.4505   -7.6561    2.9843 H   0  0  0  0  0  0  0  0  0  0  0  0
    8.5294   -5.2043    2.9596 H   0  0  0  0  0  0  0  0  0  0  0  0
    8.4135   -6.0031    1.4608 H   0  0  0  0  0  0  0  0  0  0  0  0
    6.9256   -3.7786    2.0857 H   0  0  0  0  0  0  0  0  0  0  0  0
    6.7183   -4.8642    0.7664 H   0  0  0  0  0  0  0  0  0  0  0  0
    5.3631   -5.0401    3.4403 H   0  0  0  0  0  0  0  0  0  0  0  0
    4.9037   -4.2033   -0.0469 H   0  0  0  0  0  0  0  0  0  0  0  0
    5.5426   -0.6234   -0.1784 H   0  0  0  0  0  0  0  0  0  0  0  0
    6.0184   -3.3647   -1.4806 H   0  0  0  0  0  0  0  0  0  0  0  0
    6.3450   -1.8181   -2.2950 H   0  0  0  0  0  0  0  0  0  0  0  0
    7.5178   -2.7068    0.1192 H   0  0  0  0  0  0  0  0  0  0  0  0
    3.2163   -0.7234   -0.4969 H   0  0  0  0  0  0  0  0  0  0  0  0
    3.0718   -0.4226   -2.7335 H   0  0  0  0  0  0  0  0  0  0  0  0
    2.0524   -2.4303   -1.7723 H   0  0  0  0  0  0  0  0  0  0  0  0
    3.2872   -4.3068   -2.4516 H   0  0  0  0  0  0  0  0  0  0  0  0
    2.2865   -2.7463    0.6327 H   0  0  0  0  0  0  0  0  0  0  0  0
    2.7543   -5.1536   -0.8260 H   0  0  0  0  0  0  0  0  0  0  0  0
    5.3341   -6.5130    0.0512 H   0  0  0  0  0  0  0  0  0  0  0  0
    3.6509   -6.2549    0.3560 H   0  0  0  0  0  0  0  0  0  0  0  0
    4.3821   -7.8688    0.4076 H   0  0  0  0  0  0  0  0  0  0  0  0
  1  2  2  0
  1 46  1  0
  1 47  1  0
  2  8  1  0
  2  3  1  0
  3  4  1  0
  3  5  1  0
  3 48  1  6
  4 49  1  0
  5 27  1  0
  5  6  1  0
  5 50  1  1
  6  7  1  0
  7 22  1  0
  7  8  1  0
  7 51  1  1
  8  9  1  0
  8 52  1  1
  9 10  1  0
  9 53  1  0
  9 54  1  0
 10 16  1  0
 10 11  1  0
 10 55  1  6
 11 12  1  0
 11 13  1  0
 11 56  1  1
 12 57  1  0
 12 58  1  0
 12 59  1  0
 13 14  1  0
 13 60  1  0
 13 61  1  0
 14 15  1  0
 14 62  1  0
 14 63  1  0
 15 19  1  0
 15 16  1  0
 15 64  1  1
 16 17  1  0
 16 65  1  6
 17 44  1  0
 17 18  1  6
 17 22  1  0
 18 19  1  0
 18 66  1  0
 18 67  1  0
 19 20  1  0
 19 21  1  0
 20 68  1  0
 20 69  1  0
 20 70  1  0
 21 71  1  0
 21 72  1  0
 21 73  1  0
 22 23  1  0
 22 74  1  1
 23 24  1  0
 24 25  2  0
 24 26  1  0
 26 44  1  0
 26 27  1  0
 26 75  1  6
 27 28  1  6
 27 29  1  0
 28 76  1  0
 28 77  1  0
 28 78  1  0
 29 30  1  0
 29 79  1  0
 29 80  1  0
 30 31  1  0
 30 81  1  0
 30 82  1  0
 31 32  1  0
 31 44  1  0
 31 83  1  1
 32 33  1  0
 33 42  1  0
 33 34  1  0
 33 84  1  6
 34 35  1  0
 35 36  1  0
 35 38  1  0
 35 85  1  1
 36 37  1  0
 36 86  1  0
 36 87  1  0
 37 88  1  0
 38 39  1  0
 38 40  1  0
 38 89  1  1
 39 90  1  0
 40 41  1  0
 40 42  1  0
 40 91  1  6
 41 92  1  0
 42 43  1  0
 42 93  1  1
 43 94  1  0
 44 45  1  6
 45 95  1  0
 45 96  1  0
 45 97  1  0
M  END
>  <i_m_ct_stereo_status>  (394) 
1

>  <s_m_source_file>  (394) 
/var/tmp/pbs.5076255.sched01/tmp7onimy_i/150cvk1qxg3.sdf

>  <i_m_source_file_index>  (394) 
31

>  <i_lp_mmshare_version>  (394) 
48012

>  <i_f3d_flags>  (394) 
0

>  <s_epik_input>  (394) 
W09IXVtDQEBIXTFbQ0BIXShbT0hdKVtDQEhdKFtPSF0pW0NASF0oW0NIMl1bT0hdKU9bQ0BIXTFPW0NAQEhdKFtDQF0yM1tDSDNdKVtDSDJdW0NIMl1bQ0BAXShbQ0gzXSkoW0NASF0oTzQpW0NASF0oW09IXSlDNT1bQ0gyXSlbQ0BIXTNDKD1PKU9bQ0BIXTZbQ0hdNFtDQEBIXTVbQ0gyXVtDQEBIXShbQ0BIXTdbQ0BAXTI2OClbQ0BASF0oW0NIM10pW0NIMl1bQ0gyXVtDQEhdN0MoW0NIMl04KShbQ0gzXSlbQ0gzXQ==

>  <s_epik_cmdline>  (394) 
J2VwaWtfcHl0aG9uJywgJy1waHQnLCAnMi4wJywgJy1waCcsICc3LjAnLCAnLXRuJywgJzgnLCAnLW1hJywgJzIwMCcsICctaW1hZScsICc8aW5maWxlLm1hZT4nLCAnLW9tYWUnLCAnPG91dGZpbGUubWFlPic=

>  <r_lp_tautomer_probability>  (394) 
1

>  <r_epik_Ionization_Penalty>  (394) 
2.86832e-06

>  <r_epik_Ionization_Penalty_Charging>  (394) 
0

>  <r_epik_Ionization_Penalty_Neutral>  (394) 
2.86832e-06

>  <r_epik_State_Penalty>  (394) 
-0

>  <r_epik_Charging_Adjusted_Penalty>  (394) 
0

>  <i_epik_Tot_Q>  (394) 
0

>  <i_epik_Tot_abs_Q>  (394) 
0

>  <s_epik_Chemistry_Notes>  (394) 
This compound has an ester and may undergo hydrolysis at high or low pH. This compound contains an acetal/aminal-like group ( X-CH(R)-Y where X, Y are N, S, or O) that may be acid/base labile, releasing an aldehyde.

>  <s_lp_Force_Field>  (394) 
OPLS3e

>  <r_lp_Energy>  (394) 
145.976

>  <b_lp_Chiralities_Consistent>  (394) 
1

>  <s_lp_Variant>  (394) 
104:0-1

>  <s_i_glide_gridfile>  (394) 
pfpi4k_grid

>  <i_i_glide_lignum>  (394) 
31

>  <i_i_glide_rotatable_bonds>  (394) 
8

>  <r_i_docking_score>  (394) 
-3.43554

>  <r_i_glide_ligand_efficiency>  (394) 
-0.0763454

>  <r_i_glide_ligand_efficiency_sa>  (394) 
-0.271553

>  <r_i_glide_ligand_efficiency_ln>  (394) 
-0.714746

>  <r_i_glide_gscore>  (394) 
-3.43554

>  <r_i_glide_lipo>  (394) 
-0.282407

>  <r_i_glide_hbond>  (394) 
0

>  <r_i_glide_metal>  (394) 
-0

>  <r_i_glide_rewards>  (394) 
-0.0315129

>  <r_i_glide_evdw>  (394) 
-27.7935

>  <r_i_glide_ecoul>  (394) 
-11.6322

>  <r_i_glide_erotb>  (394) 
0.0181956

>  <r_i_glide_esite>  (394) 
-0.00531542

>  <r_i_glide_emodel>  (394) 
-43.8588

>  <r_i_glide_energy>  (394) 
-39.4257

>  <r_i_glide_einternal>  (394) 
4.92451

>  <r_i_glide_intrahb_reward>  (394) 
-0

>  <i_i_glide_confnum>  (394) 
4

>  <i_i_glide_posenum>  (394) 
32

>  <r_i_glide_eff_state_penalty>  (394) 
0

>  <ligand_id>  (394) 
104

>  <original_smiles>  (394) 
C=C1C(O)C2OC3C1CC1C(C)CCC4C1C1(CC4(C)C)C3OC(=O)C3C2(C)CCC(OC2OC(CO)C(O)C(O)C2O)C31C

>  <smiles>  (394) 
[H]OC([H])([H])C1([H])OC([H])(OC2([H])C([H])([H])C([H])([H])C3(C([H])([H])[H])C4([H])OC5([H])C6([H])OC(=O)C3([H])C2(C([H])([H])[H])C62C([H])([H])C(C([H])([H])[H])(C([H])([H])[H])C3([H])C([H])([H])C([H])([H])C([H])(C([H])([H])[H])C([H])(C([H])([H])C5([H])C(=C([H])[H])C4([H])O[H])C32[H])C([H])(O[H])C([H])(O[H])C1([H])O[H]

$$$$
104:0:2
     RDKit          3D

 97104  0  0  1  0  0  0  0  0999 V2000
    5.6438   -3.7987    5.6682 C   0  0  0  0  0  0  0  0  0  0  0  0
    5.8138   -5.1174    5.8046 C   0  0  0  0  0  0  0  0  0  0  0  0
    7.1605   -5.7507    5.5149 C   0  0  1  0  0  0  0  0  0  0  0  0
    7.8798   -5.8747    6.7215 O   0  0  0  0  0  0  0  0  0  0  0  0
    7.1130   -7.1425    4.8346 C   0  0  1  0  0  0  0  0  0  0  0  0
    6.2126   -7.9729    5.5304 O   0  0  0  0  0  0  0  0  0  0  0  0
    4.8664   -7.5259    5.6855 C   0  0  1  0  0  0  0  0  0  0  0  0
    4.7350   -6.1008    6.2681 C   0  0  2  0  0  0  0  0  0  0  0  0
    3.2951   -5.5562    6.3010 C   0  0  0  0  0  0  0  0  0  0  0  0
    2.6962   -5.0534    4.9563 C   0  0  2  0  0  0  0  0  0  0  0  0
    1.4789   -4.1153    5.2592 C   0  0  1  0  0  0  0  0  0  0  0  0
    1.2161   -3.0992    4.1291 C   0  0  0  0  0  0  0  0  0  0  0  0
    0.2054   -4.8973    5.6561 C   0  0  0  0  0  0  0  0  0  0  0  0
   -0.1506   -5.9622    4.6199 C   0  0  0  0  0  0  0  0  0  0  0  0
    1.0383   -6.9074    4.4198 C   0  0  2  0  0  0  0  0  0  0  0  0
    2.2992   -6.1569    3.9156 C   0  0  2  0  0  0  0  0  0  0  0  0
    3.2924   -7.2738    3.4240 C   0  0  2  0  0  0  0  0  0  0  0  0
    2.1995   -8.1766    2.7363 C   0  0  0  0  0  0  0  0  0  0  0  0
    0.8446   -8.1117    3.4836 C   0  0  0  0  0  0  0  0  0  0  0  0
    0.5743   -9.4014    4.2888 C   0  0  0  0  0  0  0  0  0  0  0  0
   -0.3120   -7.9448    2.4660 C   0  0  0  0  0  0  0  0  0  0  0  0
    3.8596   -8.1022    4.6353 C   0  0  1  0  0  0  0  0  0  0  0  0
    4.4184   -9.3256    4.1482 O   0  0  0  0  0  0  0  0  0  0  0  0
    5.3401   -9.3096    3.1406 C   0  0  0  0  0  0  0  0  0  0  0  0
    5.8159  -10.3121    2.6530 O   0  0  0  0  0  0  0  0  0  0  0  0
    5.7352   -7.8975    2.6420 C   0  0  2  0  0  0  0  0  0  0  0  0
    7.0625   -7.3350    3.2620 C   0  0  2  0  0  0  0  0  0  0  0  0
    8.1901   -8.3670    2.9454 C   0  0  0  0  0  0  0  0  0  0  0  0
    7.5072   -6.0811    2.4388 C   0  0  0  0  0  0  0  0  0  0  0  0
    6.3952   -5.1910    1.8685 C   0  0  0  0  0  0  0  0  0  0  0  0
    4.9872   -5.4594    2.4579 C   0  0  1  0  0  0  0  0  0  0  0  0
    3.9398   -4.5883    1.9118 O   0  0  0  0  0  0  0  0  0  0  0  0
    4.1484   -3.8428    0.7115 C   0  0  2  0  0  0  0  0  0  0  0  0
    4.8872   -2.6552    0.9329 O   0  0  0  0  0  0  0  0  0  0  0  0
    5.2172   -1.8618   -0.2203 C   0  0  1  0  0  0  0  0  0  0  0  0
    6.2678   -2.5987   -1.1021 C   0  0  0  0  0  0  0  0  0  0  0  0
    7.5649   -2.6456   -0.5263 O   0  0  0  0  0  0  0  0  0  0  0  0
    3.9108   -1.4671   -0.9437 C   0  0  1  0  0  0  0  0  0  0  0  0
    4.1753   -0.6882   -2.1141 O   0  0  0  0  0  0  0  0  0  0  0  0
    3.0547   -2.7020   -1.2744 C   0  0  1  0  0  0  0  0  0  0  0  0
    3.6993   -3.4725   -2.2814 O   0  0  0  0  0  0  0  0  0  0  0  0
    2.8107   -3.5078    0.0158 C   0  0  1  0  0  0  0  0  0  0  0  0
    2.0895   -4.6897   -0.2660 O   0  0  0  0  0  0  0  0  0  0  0  0
    4.5088   -6.9482    2.3973 C   0  0  2  0  0  0  0  0  0  0  0  0
    4.1480   -7.2269    0.9060 C   0  0  0  0  0  0  0  0  0  0  0  0
    4.7127   -3.2937    5.8838 H   0  0  0  0  0  0  0  0  0  0  0  0
    6.4516   -3.1704    5.3315 H   0  0  0  0  0  0  0  0  0  0  0  0
    7.7511   -5.0578    4.9310 H   0  0  0  0  0  0  0  0  0  0  0  0
    7.4600   -6.5430    7.2435 H   0  0  0  0  0  0  0  0  0  0  0  0
    8.0773   -7.5766    5.1322 H   0  0  0  0  0  0  0  0  0  0  0  0
    4.5814   -8.1167    6.5519 H   0  0  0  0  0  0  0  0  0  0  0  0
    5.0092   -6.2053    7.3173 H   0  0  0  0  0  0  0  0  0  0  0  0
    2.6433   -6.2960    6.7614 H   0  0  0  0  0  0  0  0  0  0  0  0
    3.2998   -4.7321    7.0128 H   0  0  0  0  0  0  0  0  0  0  0  0
    3.4182   -4.3950    4.4877 H   0  0  0  0  0  0  0  0  0  0  0  0
    1.7316   -3.4967    6.1216 H   0  0  0  0  0  0  0  0  0  0  0  0
    0.9638   -3.5858    3.1877 H   0  0  0  0  0  0  0  0  0  0  0  0
    2.0953   -2.4764    3.9525 H   0  0  0  0  0  0  0  0  0  0  0  0
    0.3959   -2.4357    4.3956 H   0  0  0  0  0  0  0  0  0  0  0  0
    0.3544   -5.3763    6.6218 H   0  0  0  0  0  0  0  0  0  0  0  0
   -0.6220   -4.2043    5.7871 H   0  0  0  0  0  0  0  0  0  0  0  0
   -1.0271   -6.5191    4.9436 H   0  0  0  0  0  0  0  0  0  0  0  0
   -0.3863   -5.4772    3.6791 H   0  0  0  0  0  0  0  0  0  0  0  0
    1.2548   -7.3136    5.4070 H   0  0  0  0  0  0  0  0  0  0  0  0
    1.9989   -5.6308    3.0161 H   0  0  0  0  0  0  0  0  0  0  0  0
    1.9639   -7.8028    1.7452 H   0  0  0  0  0  0  0  0  0  0  0  0
    2.5225   -9.2065    2.5707 H   0  0  0  0  0  0  0  0  0  0  0  0
    0.4612  -10.2634    3.6308 H   0  0  0  0  0  0  0  0  0  0  0  0
   -0.3451   -9.3082    4.8656 H   0  0  0  0  0  0  0  0  0  0  0  0
    1.3712   -9.6376    4.9899 H   0  0  0  0  0  0  0  0  0  0  0  0
   -0.3357   -8.7881    1.7750 H   0  0  0  0  0  0  0  0  0  0  0  0
   -0.2137   -7.0413    1.8640 H   0  0  0  0  0  0  0  0  0  0  0  0
   -1.2800   -7.9222    2.9635 H   0  0  0  0  0  0  0  0  0  0  0  0
    3.0052   -8.3930    5.2410 H   0  0  0  0  0  0  0  0  0  0  0  0
    6.0681   -8.1656    1.6497 H   0  0  0  0  0  0  0  0  0  0  0  0
    8.1827   -8.6104    1.8823 H   0  0  0  0  0  0  0  0  0  0  0  0
    8.0780   -9.2954    3.5130 H   0  0  0  0  0  0  0  0  0  0  0  0
    9.1825   -7.9564    3.1629 H   0  0  0  0  0  0  0  0  0  0  0  0
    8.2310   -5.4816    2.9866 H   0  0  0  0  0  0  0  0  0  0  0  0
    8.1023   -6.4144    1.5646 H   0  0  0  0  0  0  0  0  0  0  0  0
    6.6617   -4.1554    2.0092 H   0  0  0  0  0  0  0  0  0  0  0  0
    6.4052   -5.3649    0.8058 H   0  0  0  0  0  0  0  0  0  0  0  0
    5.0837   -5.2418    3.5146 H   0  0  0  0  0  0  0  0  0  0  0  0
    4.7272   -4.4712    0.0370 H   0  0  0  0  0  0  0  0  0  0  0  0
    5.6517   -0.9458    0.1541 H   0  0  0  0  0  0  0  0  0  0  0  0
    5.9710   -3.6179   -1.3392 H   0  0  0  0  0  0  0  0  0  0  0  0
    6.3868   -2.0675   -2.0413 H   0  0  0  0  0  0  0  0  0  0  0  0
    8.1258   -3.2467   -1.0519 H   0  0  0  0  0  0  0  0  0  0  0  0
    3.3309   -0.8442   -0.2633 H   0  0  0  0  0  0  0  0  0  0  0  0
    3.3438   -0.3280   -2.4640 H   0  0  0  0  0  0  0  0  0  0  0  0
    2.1143   -2.3632   -1.6963 H   0  0  0  0  0  0  0  0  0  0  0  0
    3.2099   -4.3029   -2.4572 H   0  0  0  0  0  0  0  0  0  0  0  0
    2.2024   -2.9042    0.6944 H   0  0  0  0  0  0  0  0  0  0  0  0
    2.6165   -5.2233   -0.9046 H   0  0  0  0  0  0  0  0  0  0  0  0
    4.9580   -6.9678    0.2220 H   0  0  0  0  0  0  0  0  0  0  0  0
    3.2882   -6.6570    0.5733 H   0  0  0  0  0  0  0  0  0  0  0  0
    3.9360   -8.2790    0.7145 H   0  0  0  0  0  0  0  0  0  0  0  0
  1  2  2  0
  1 46  1  0
  1 47  1  0
  2  8  1  0
  2  3  1  0
  3  4  1  0
  3  5  1  0
  3 48  1  6
  4 49  1  0
  5 27  1  0
  5  6  1  0
  5 50  1  1
  6  7  1  0
  7 22  1  0
  7  8  1  0
  7 51  1  1
  8  9  1  0
  8 52  1  1
  9 10  1  0
  9 53  1  0
  9 54  1  0
 10 16  1  0
 10 11  1  0
 10 55  1  6
 11 12  1  0
 11 13  1  0
 11 56  1  1
 12 57  1  0
 12 58  1  0
 12 59  1  0
 13 14  1  0
 13 60  1  0
 13 61  1  0
 14 15  1  0
 14 62  1  0
 14 63  1  0
 15 19  1  0
 15 16  1  0
 15 64  1  1
 16 17  1  0
 16 65  1  6
 17 44  1  0
 17 18  1  6
 17 22  1  0
 18 19  1  0
 18 66  1  0
 18 67  1  0
 19 20  1  0
 19 21  1  0
 20 68  1  0
 20 69  1  0
 20 70  1  0
 21 71  1  0
 21 72  1  0
 21 73  1  0
 22 23  1  0
 22 74  1  1
 23 24  1  0
 24 25  2  0
 24 26  1  0
 26 44  1  0
 26 27  1  0
 26 75  1  6
 27 28  1  1
 27 29  1  0
 28 76  1  0
 28 77  1  0
 28 78  1  0
 29 30  1  0
 29 79  1  0
 29 80  1  0
 30 31  1  0
 30 81  1  0
 30 82  1  0
 31 32  1  0
 31 44  1  0
 31 83  1  1
 32 33  1  0
 33 42  1  0
 33 34  1  0
 33 84  1  6
 34 35  1  0
 35 36  1  0
 35 38  1  0
 35 85  1  1
 36 37  1  0
 36 86  1  0
 36 87  1  0
 37 88  1  0
 38 39  1  0
 38 40  1  0
 38 89  1  1
 39 90  1  0
 40 41  1  0
 40 42  1  0
 40 91  1  6
 41 92  1  0
 42 43  1  0
 42 93  1  1
 43 94  1  0
 44 45  1  6
 45 95  1  0
 45 96  1  0
 45 97  1  0
M  END
>  <i_m_ct_stereo_status>  (395) 
1

>  <s_m_source_file>  (395) 
/var/tmp/pbs.5076255.sched01/tmp7onimy_i/150cvk1qxg3.sdf

>  <i_m_source_file_index>  (395) 
31

>  <i_lp_mmshare_version>  (395) 
48012

>  <i_f3d_flags>  (395) 
0

>  <s_epik_input>  (395) 
W09IXVtDQEBIXTFbQ0BIXShbT0hdKVtDQEhdKFtPSF0pW0NASF0oW0NIMl1bT0hdKU9bQ0BIXTFPW0NAQEhdKFtDQF0yM1tDSDNdKVtDSDJdW0NIMl1bQ0BAXShbQ0gzXSkoW0NASF0oTzQpW0NASF0oW09IXSlDNT1bQ0gyXSlbQ0BIXTNDKD1PKU9bQ0BIXTZbQ0hdNFtDQEBIXTVbQ0gyXVtDQEBIXShbQ0BIXTdbQ0BAXTI2OClbQ0BASF0oW0NIM10pW0NIMl1bQ0gyXVtDQEhdN0MoW0NIMl04KShbQ0gzXSlbQ0gzXQ==

>  <s_epik_cmdline>  (395) 
J2VwaWtfcHl0aG9uJywgJy1waHQnLCAnMi4wJywgJy1waCcsICc3LjAnLCAnLXRuJywgJzgnLCAnLW1hJywgJzIwMCcsICctaW1hZScsICc8aW5maWxlLm1hZT4nLCAnLW9tYWUnLCAnPG91dGZpbGUubWFlPic=

>  <r_lp_tautomer_probability>  (395) 
1

>  <r_epik_Ionization_Penalty>  (395) 
2.86832e-06

>  <r_epik_Ionization_Penalty_Charging>  (395) 
0

>  <r_epik_Ionization_Penalty_Neutral>  (395) 
2.86832e-06

>  <r_epik_State_Penalty>  (395) 
-0

>  <r_epik_Charging_Adjusted_Penalty>  (395) 
0

>  <i_epik_Tot_Q>  (395) 
0

>  <i_epik_Tot_abs_Q>  (395) 
0

>  <s_epik_Chemistry_Notes>  (395) 
This compound has an ester and may undergo hydrolysis at high or low pH. This compound contains an acetal/aminal-like group ( X-CH(R)-Y where X, Y are N, S, or O) that may be acid/base labile, releasing an aldehyde.

>  <s_lp_Force_Field>  (395) 
OPLS3e

>  <r_lp_Energy>  (395) 
145.976

>  <b_lp_Chiralities_Consistent>  (395) 
1

>  <s_lp_Variant>  (395) 
104:0-1

>  <s_i_glide_gridfile>  (395) 
pfpi4k_grid

>  <i_i_glide_lignum>  (395) 
31

>  <i_i_glide_rotatable_bonds>  (395) 
8

>  <r_i_docking_score>  (395) 
-3.25757

>  <r_i_glide_ligand_efficiency>  (395) 
-0.0723905

>  <r_i_glide_ligand_efficiency_sa>  (395) 
-0.257485

>  <r_i_glide_ligand_efficiency_ln>  (395) 
-0.67772

>  <r_i_glide_gscore>  (395) 
-3.25757

>  <r_i_glide_lipo>  (395) 
-0.258415

>  <r_i_glide_hbond>  (395) 
0

>  <r_i_glide_metal>  (395) 
-0

>  <r_i_glide_rewards>  (395) 
-0.0291249

>  <r_i_glide_evdw>  (395) 
-27.634

>  <r_i_glide_ecoul>  (395) 
-10.6743

>  <r_i_glide_erotb>  (395) 
0.0181956

>  <r_i_glide_esite>  (395) 
-0.00538698

>  <r_i_glide_emodel>  (395) 
-43.6772

>  <r_i_glide_energy>  (395) 
-38.3083

>  <r_i_glide_einternal>  (395) 
4.90574

>  <r_i_glide_intrahb_reward>  (395) 
-0

>  <i_i_glide_confnum>  (395) 
4

>  <i_i_glide_posenum>  (395) 
1

>  <r_i_glide_eff_state_penalty>  (395) 
0

>  <ligand_id>  (395) 
104

>  <original_smiles>  (395) 
C=C1C(O)C2OC3C1CC1C(C)CCC4C1C1(CC4(C)C)C3OC(=O)C3C2(C)CCC(OC2OC(CO)C(O)C(O)C2O)C31C

>  <smiles>  (395) 
[H]OC([H])([H])C1([H])OC([H])(OC2([H])C([H])([H])C([H])([H])C3(C([H])([H])[H])C4([H])OC5([H])C6([H])OC(=O)C3([H])C2(C([H])([H])[H])C62C([H])([H])C(C([H])([H])[H])(C([H])([H])[H])C3([H])C([H])([H])C([H])([H])C([H])(C([H])([H])[H])C([H])(C([H])([H])C5([H])C(=C([H])[H])C4([H])O[H])C32[H])C([H])(O[H])C([H])(O[H])C1([H])O[H]

$$$$
105:0:0
     RDKit          3D

 57 62  0  0  1  0  0  0  0  0999 V2000
    1.1207   -6.5157    0.9443 O   0  0  0  0  0  0  0  0  0  0  0  0
    1.9600   -6.2241    1.8044 C   0  0  0  0  0  0  0  0  0  0  0  0
    1.8895   -6.9735    3.1697 C   0  0  2  0  0  0  0  0  0  0  0  0
    3.4147   -7.7576    3.6312 C   0  0  0  0  0  0  0  0  0  0  0  0
    3.7188   -9.4717    3.4863 C   0  0  1  0  0  0  0  0  0  0  0  0
    4.8184   -9.7302    2.5601 N   0  0  0  0  0  0  0  0  0  0  0  0
    5.7442  -10.6900    2.6053 C   0  0  0  0  0  0  0  0  0  0  0  0
    6.6143  -10.5769    1.6074 N   0  0  0  0  0  0  0  0  0  0  0  0
    6.1720   -9.4557    0.9191 N   0  0  0  0  0  0  0  0  0  0  0  0
    5.1021   -8.9682    1.4711 N   0  0  0  0  0  0  0  0  0  0  0  0
    2.7923  -10.9321    3.6251 C   0  0  0  0  0  0  0  0  0  0  0  0
    1.0299  -10.8531    3.6676 C   0  0  1  0  0  0  0  0  0  0  0  0
    1.0104  -10.4085    5.0615 C   0  0  0  0  0  0  0  0  0  0  0  0
    1.6604   -9.0836    4.6532 C   0  0  2  0  0  0  0  0  0  0  0  0
    0.5136   -8.0745    4.7500 C   0  0  0  0  0  0  0  0  0  0  0  0
    0.4518   -7.9368    3.2950 C   0  0  2  0  0  0  0  0  0  0  0  0
    0.0831   -9.5968    2.8820 C   0  0  0  0  0  0  0  0  0  0  0  0
    2.5614   -9.2269    2.9942 C   0  0  0  0  0  0  0  0  0  0  0  0
    2.8875   -5.2484    1.5944 N   0  0  0  0  0  0  0  0  0  0  0  0
    3.0058   -4.5621    0.2931 C   0  0  0  0  0  0  0  0  0  0  0  0
    2.9399   -3.0334    0.4715 C   0  0  0  0  0  0  0  0  0  0  0  0
    4.0330   -2.5646    1.4586 C   0  0  0  0  0  0  0  0  0  0  0  0
    3.8969   -3.3049    2.7952 C   0  0  0  0  0  0  0  0  0  0  0  0
    3.9179   -4.8191    2.5687 C   0  0  0  0  0  0  0  0  0  0  0  0
    3.8900   -1.2061    1.6854 O   0  0  0  0  0  0  0  0  0  0  0  0
    4.7767   -0.5571    0.7931 C   0  0  0  0  0  0  0  0  0  0  0  0
    5.5196   -1.6838    0.0714 C   0  0  0  0  0  0  0  0  0  0  0  0
    5.2981   -2.7841    0.9274 O   0  0  0  0  0  0  0  0  0  0  0  0
    1.7559   -6.1165    3.8316 H   0  0  0  0  0  0  0  0  0  0  0  0
    4.2126   -7.2814    3.0684 H   0  0  0  0  0  0  0  0  0  0  0  0
    3.6606   -7.4349    4.6518 H   0  0  0  0  0  0  0  0  0  0  0  0
    5.7877  -11.4580    3.3571 H   0  0  0  0  0  0  0  0  0  0  0  0
    3.0403  -11.5810    2.7779 H   0  0  0  0  0  0  0  0  0  0  0  0
    3.1940  -11.5230    4.4584 H   0  0  0  0  0  0  0  0  0  0  0  0
    0.5912  -11.8451    3.5447 H   0  0  0  0  0  0  0  0  0  0  0  0
    0.0028  -10.3899    5.4859 H   0  0  0  0  0  0  0  0  0  0  0  0
    1.6214  -11.0251    5.7235 H   0  0  0  0  0  0  0  0  0  0  0  0
    2.3128   -8.8726    5.5113 H   0  0  0  0  0  0  0  0  0  0  0  0
   -0.4357   -8.4312    5.1603 H   0  0  0  0  0  0  0  0  0  0  0  0
    0.7682   -7.1769    5.3159 H   0  0  0  0  0  0  0  0  0  0  0  0
   -0.4098   -7.3219    3.0174 H   0  0  0  0  0  0  0  0  0  0  0  0
    0.1236   -9.7139    1.8004 H   0  0  0  0  0  0  0  0  0  0  0  0
   -0.9644   -9.7813    3.1411 H   0  0  0  0  0  0  0  0  0  0  0  0
    2.5230   -8.7073    2.0124 H   0  0  0  0  0  0  0  0  0  0  0  0
    2.2563   -9.7739    2.0569 H   0  0  0  0  0  0  0  0  0  0  0  0
    3.9448   -4.8694   -0.1701 H   0  0  0  0  0  0  0  0  0  0  0  0
    2.2239   -4.8372   -0.4215 H   0  0  0  0  0  0  0  0  0  0  0  0
    3.0216   -2.5292   -0.4878 H   0  0  0  0  0  0  0  0  0  0  0  0
    1.9713   -2.7401    0.8752 H   0  0  0  0  0  0  0  0  0  0  0  0
    4.6891   -3.0042    3.4778 H   0  0  0  0  0  0  0  0  0  0  0  0
    2.9526   -3.0220    3.2610 H   0  0  0  0  0  0  0  0  0  0  0  0
    3.7824   -5.2218    3.5717 H   0  0  0  0  0  0  0  0  0  0  0  0
    4.9043   -5.1412    2.2231 H   0  0  0  0  0  0  0  0  0  0  0  0
    4.2197    0.0771    0.1050 H   0  0  0  0  0  0  0  0  0  0  0  0
    5.4668    0.0674    1.3591 H   0  0  0  0  0  0  0  0  0  0  0  0
    5.0737   -1.8928   -0.9007 H   0  0  0  0  0  0  0  0  0  0  0  0
    6.5752   -1.4699   -0.0958 H   0  0  0  0  0  0  0  0  0  0  0  0
  1  2  2  0
  2  3  1  0
  2 19  1  0
  3 16  1  0
  3  4  1  0
  3 29  1  1
  4  5  1  0
  4 30  1  0
  4 31  1  0
  5 18  1  0
  5  6  1  6
  5 11  1  0
  6 10  1  0
  6  7  1  0
  7  8  2  0
  7 32  1  0
  8  9  1  0
  9 10  2  0
 11 12  1  0
 11 33  1  0
 11 34  1  0
 12 17  1  0
 12 13  1  0
 12 35  1  1
 13 14  1  0
 13 36  1  0
 13 37  1  0
 14 15  1  0
 14 18  1  0
 14 38  1  1
 15 16  1  0
 15 39  1  0
 15 40  1  0
 16 17  1  0
 16 41  1  1
 17 42  1  0
 17 43  1  0
 18 44  1  0
 18 45  1  0
 19 24  1  0
 19 20  1  0
 20 21  1  0
 20 46  1  0
 20 47  1  0
 21 22  1  0
 21 48  1  0
 21 49  1  0
 22 28  1  0
 22 23  1  0
 22 25  1  0
 23 24  1  0
 23 50  1  0
 23 51  1  0
 24 52  1  0
 24 53  1  0
 25 26  1  0
 26 27  1  0
 26 54  1  0
 26 55  1  0
 27 28  1  0
 27 56  1  0
 27 57  1  0
M  END
>  <i_m_ct_stereo_status>  (396) 
1

>  <s_m_source_file>  (396) 
/var/tmp/pbs.5076255.sched01/tmp7onimy_i/150cvk1qxg3.sdf

>  <i_m_source_file_index>  (396) 
32

>  <i_lp_mmshare_version>  (396) 
48012

>  <i_f3d_flags>  (396) 
0

>  <s_epik_input>  (396) 
TzFbQ0gyXVtDSDJdT0MxMltDSDJdW0NIMl1OKFtDSDJdW0NIMl0yKUMoPU8pW0NASF0oW0NIMl1bQ0BdMzRuNVtjSF1ubm41KVtDQEBIXTZbQ0gyXVtDQEhdKFtDSDJdNClbQ0gyXVtDQEhdKFtDSDJdMylbQ0gyXTY=

>  <s_epik_cmdline>  (396) 
J2VwaWtfcHl0aG9uJywgJy1waHQnLCAnMi4wJywgJy1waCcsICc3LjAnLCAnLXRuJywgJzgnLCAnLW1hJywgJzIwMCcsICctaW1hZScsICc8aW5maWxlLm1hZT4nLCAnLW9tYWUnLCAnPG91dGZpbGUubWFlPic=

>  <r_lp_tautomer_probability>  (396) 
1

>  <r_epik_Ionization_Penalty>  (396) 
2.94336e-08

>  <r_epik_Ionization_Penalty_Charging>  (396) 
0

>  <r_epik_Ionization_Penalty_Neutral>  (396) 
2.94336e-08

>  <r_epik_State_Penalty>  (396) 
-0

>  <r_epik_Charging_Adjusted_Penalty>  (396) 
0

>  <i_epik_Tot_Q>  (396) 
0

>  <i_epik_Tot_abs_Q>  (396) 
0

>  <s_lp_Force_Field>  (396) 
OPLS3e

>  <r_lp_Energy>  (396) 
518.329

>  <b_lp_Chiralities_Consistent>  (396) 
1

>  <s_lp_Variant>  (396) 
105:0-1

>  <s_i_glide_gridfile>  (396) 
pfpi4k_grid

>  <i_i_glide_lignum>  (396) 
32

>  <i_i_glide_rotatable_bonds>  (396) 
3

>  <r_i_docking_score>  (396) 
-3.35601

>  <r_i_glide_ligand_efficiency>  (396) 
-0.119857

>  <r_i_glide_ligand_efficiency_sa>  (396) 
-0.363958

>  <r_i_glide_ligand_efficiency_ln>  (396) 
-0.774665

>  <r_i_glide_gscore>  (396) 
-3.35601

>  <r_i_glide_lipo>  (396) 
-0.279854

>  <r_i_glide_hbond>  (396) 
-0.0818144

>  <r_i_glide_metal>  (396) 
-0

>  <r_i_glide_rewards>  (396) 
-0.767209

>  <r_i_glide_evdw>  (396) 
-32.8885

>  <r_i_glide_ecoul>  (396) 
-5.04541

>  <r_i_glide_erotb>  (396) 
0.389125

>  <r_i_glide_esite>  (396) 
-0.215018

>  <r_i_glide_emodel>  (396) 
-44.7065

>  <r_i_glide_energy>  (396) 
-37.9339

>  <r_i_glide_einternal>  (396) 
1.45964

>  <r_i_glide_intrahb_reward>  (396) 
-0

>  <i_i_glide_confnum>  (396) 
3

>  <i_i_glide_posenum>  (396) 
31

>  <r_i_glide_eff_state_penalty>  (396) 
0

>  <ligand_id>  (396) 
105

>  <original_smiles>  (396) 
O=C(C1CC2(n3cnnn3)CC3CC(CC1C3)C2)N1CCC2(CC1)OCCO2

>  <smiles>  (396) 
[H]c1nnnn1C12C([H])([H])C([H])(C(=O)N3C([H])([H])C([H])([H])C4(OC([H])([H])C([H])([H])O4)C([H])([H])C3([H])[H])C3([H])C([H])([H])C([H])(C([H])([H])C([H])(C3([H])[H])C1([H])[H])C2([H])[H]

$$$$
105:0:1
     RDKit          3D

 57 62  0  0  1  0  0  0  0  0999 V2000
    3.8499    0.7683    3.7980 O   0  0  0  0  0  0  0  0  0  0  0  0
    3.1694    0.0313    3.1027 C   0  0  0  0  0  0  0  0  0  0  0  0
    1.6124    0.1537    3.2220 C   0  0  2  0  0  0  0  0  0  0  0  0
    0.9967    1.7150    2.7028 C   0  0  0  0  0  0  0  0  0  0  0  0
    0.4509    2.9814    3.7853 C   0  0  1  0  0  0  0  0  0  0  0  0
    1.3626    4.1138    3.6589 N   0  0  0  0  0  0  0  0  0  0  0  0
    2.6561    4.2101    3.3414 C   0  0  0  0  0  0  0  0  0  0  0  0
    3.0752    5.4614    3.3461 N   0  0  0  0  0  0  0  0  0  0  0  0
    1.9362    6.1688    3.6912 N   0  0  0  0  0  0  0  0  0  0  0  0
    0.9112    5.3814    3.8762 N   0  0  0  0  0  0  0  0  0  0  0  0
   -0.3206    3.0518    5.3570 C   0  0  0  0  0  0  0  0  0  0  0  0
   -0.4380    1.5858    6.3511 C   0  0  1  0  0  0  0  0  0  0  0  0
   -1.5460    1.0447    5.5576 C   0  0  0  0  0  0  0  0  0  0  0  0
   -0.6187    0.8923    4.3500 C   0  0  2  0  0  0  0  0  0  0  0  0
   -0.3628   -0.6078    4.3009 C   0  0  0  0  0  0  0  0  0  0  0  0
    1.0313   -0.4582    4.7302 C   0  0  2  0  0  0  0  0  0  0  0  0
    0.7306    0.2687    6.2873 C   0  0  0  0  0  0  0  0  0  0  0  0
    0.8764    2.0065    4.4867 C   0  0  0  0  0  0  0  0  0  0  0  0
    3.7612   -0.8715    2.2572 N   0  0  0  0  0  0  0  0  0  0  0  0
    3.0770   -1.8357    1.3714 C   0  0  0  0  0  0  0  0  0  0  0  0
    3.5450   -1.6402   -0.0744 C   0  0  0  0  0  0  0  0  0  0  0  0
    5.0698   -1.8430   -0.1674 C   0  0  0  0  0  0  0  0  0  0  0  0
    5.8035   -0.8857    0.7935 C   0  0  0  0  0  0  0  0  0  0  0  0
    5.2418   -1.0311    2.2268 C   0  0  0  0  0  0  0  0  0  0  0  0
    5.4940   -1.6007   -1.4670 O   0  0  0  0  0  0  0  0  0  0  0  0
    5.4702   -2.8604   -2.1254 C   0  0  0  0  0  0  0  0  0  0  0  0
    5.1068   -3.8798   -1.0388 C   0  0  0  0  0  0  0  0  0  0  0  0
    5.3918   -3.1585    0.1433 O   0  0  0  0  0  0  0  0  0  0  0  0
    1.2054   -0.4588    2.4278 H   0  0  0  0  0  0  0  0  0  0  0  0
    1.7508    2.1143    2.0265 H   0  0  0  0  0  0  0  0  0  0  0  0
    0.1980    1.5324    1.9784 H   0  0  0  0  0  0  0  0  0  0  0  0
    3.3117    3.3685    3.0972 H   0  0  0  0  0  0  0  0  0  0  0  0
    0.2287    3.7742    5.9768 H   0  0  0  0  0  0  0  0  0  0  0  0
   -1.2916    3.5571    5.2551 H   0  0  0  0  0  0  0  0  0  0  0  0
   -0.7368    1.8212    7.3772 H   0  0  0  0  0  0  0  0  0  0  0  0
   -1.9864    0.1420    5.9911 H   0  0  0  0  0  0  0  0  0  0  0  0
   -2.3501    1.7624    5.3937 H   0  0  0  0  0  0  0  0  0  0  0  0
   -1.2664    1.1258    3.4971 H   0  0  0  0  0  0  0  0  0  0  0  0
   -0.9347   -1.2478    4.9734 H   0  0  0  0  0  0  0  0  0  0  0  0
   -0.5319   -1.0334    3.3200 H   0  0  0  0  0  0  0  0  0  0  0  0
    1.4777   -1.4343    4.8954 H   0  0  0  0  0  0  0  0  0  0  0  0
    1.6785    0.5706    6.7385 H   0  0  0  0  0  0  0  0  0  0  0  0
    0.3578   -0.5195    6.9470 H   0  0  0  0  0  0  0  0  0  0  0  0
    1.9746    1.8764    4.5284 H   0  0  0  0  0  0  0  0  0  0  0  0
    1.5225    2.2406    5.3802 H   0  0  0  0  0  0  0  0  0  0  0  0
    3.2988   -2.8429    1.7491 H   0  0  0  0  0  0  0  0  0  0  0  0
    1.9837   -1.7579    1.2540 H   0  0  0  0  0  0  0  0  0  0  0  0
    2.9957   -2.2929   -0.7501 H   0  0  0  0  0  0  0  0  0  0  0  0
    3.3156   -0.6368   -0.4133 H   0  0  0  0  0  0  0  0  0  0  0  0
    6.8827   -1.0675    0.7591 H   0  0  0  0  0  0  0  0  0  0  0  0
    5.6475    0.1362    0.4505 H   0  0  0  0  0  0  0  0  0  0  0  0
    5.7801   -0.3193    2.8537 H   0  0  0  0  0  0  0  0  0  0  0  0
    5.5186   -2.0059    2.6342 H   0  0  0  0  0  0  0  0  0  0  0  0
    4.7520   -2.8672   -2.9459 H   0  0  0  0  0  0  0  0  0  0  0  0
    6.4597   -3.0636   -2.5316 H   0  0  0  0  0  0  0  0  0  0  0  0
    4.0507   -4.1515   -1.0755 H   0  0  0  0  0  0  0  0  0  0  0  0
    5.6556   -4.8157   -1.1094 H   0  0  0  0  0  0  0  0  0  0  0  0
  1  2  2  0
  2  3  1  0
  2 19  1  0
  3 16  1  0
  3  4  1  0
  3 29  1  6
  4  5  1  0
  4 30  1  0
  4 31  1  0
  5 18  1  0
  5  6  1  6
  5 11  1  0
  6 10  1  0
  6  7  1  0
  7  8  2  0
  7 32  1  0
  8  9  1  0
  9 10  2  0
 11 12  1  0
 11 33  1  0
 11 34  1  0
 12 17  1  0
 12 13  1  0
 12 35  1  1
 13 14  1  0
 13 36  1  0
 13 37  1  0
 14 15  1  0
 14 18  1  0
 14 38  1  6
 15 16  1  0
 15 39  1  0
 15 40  1  0
 16 17  1  0
 16 41  1  1
 17 42  1  0
 17 43  1  0
 18 44  1  0
 18 45  1  0
 19 24  1  0
 19 20  1  0
 20 21  1  0
 20 46  1  0
 20 47  1  0
 21 22  1  0
 21 48  1  0
 21 49  1  0
 22 28  1  0
 22 23  1  0
 22 25  1  0
 23 24  1  0
 23 50  1  0
 23 51  1  0
 24 52  1  0
 24 53  1  0
 25 26  1  0
 26 27  1  0
 26 54  1  0
 26 55  1  0
 27 28  1  0
 27 56  1  0
 27 57  1  0
M  END
>  <i_m_ct_stereo_status>  (397) 
1

>  <s_m_source_file>  (397) 
/var/tmp/pbs.5076255.sched01/tmp7onimy_i/150cvk1qxg3.sdf

>  <i_m_source_file_index>  (397) 
32

>  <i_lp_mmshare_version>  (397) 
48012

>  <i_f3d_flags>  (397) 
0

>  <s_epik_input>  (397) 
TzFbQ0gyXVtDSDJdT0MxMltDSDJdW0NIMl1OKFtDSDJdW0NIMl0yKUMoPU8pW0NASF0oW0NIMl1bQ0BdMzRuNVtjSF1ubm41KVtDQEBIXTZbQ0gyXVtDQEhdKFtDSDJdNClbQ0gyXVtDQEhdKFtDSDJdMylbQ0gyXTY=

>  <s_epik_cmdline>  (397) 
J2VwaWtfcHl0aG9uJywgJy1waHQnLCAnMi4wJywgJy1waCcsICc3LjAnLCAnLXRuJywgJzgnLCAnLW1hJywgJzIwMCcsICctaW1hZScsICc8aW5maWxlLm1hZT4nLCAnLW9tYWUnLCAnPG91dGZpbGUubWFlPic=

>  <r_lp_tautomer_probability>  (397) 
1

>  <r_epik_Ionization_Penalty>  (397) 
2.94336e-08

>  <r_epik_Ionization_Penalty_Charging>  (397) 
0

>  <r_epik_Ionization_Penalty_Neutral>  (397) 
2.94336e-08

>  <r_epik_State_Penalty>  (397) 
-0

>  <r_epik_Charging_Adjusted_Penalty>  (397) 
0

>  <i_epik_Tot_Q>  (397) 
0

>  <i_epik_Tot_abs_Q>  (397) 
0

>  <s_lp_Force_Field>  (397) 
OPLS3e

>  <r_lp_Energy>  (397) 
518.329

>  <b_lp_Chiralities_Consistent>  (397) 
1

>  <s_lp_Variant>  (397) 
105:0-1

>  <s_i_glide_gridfile>  (397) 
pfpi4k_grid

>  <i_i_glide_lignum>  (397) 
32

>  <i_i_glide_rotatable_bonds>  (397) 
3

>  <r_i_docking_score>  (397) 
-3.06156

>  <r_i_glide_ligand_efficiency>  (397) 
-0.109341

>  <r_i_glide_ligand_efficiency_sa>  (397) 
-0.332025

>  <r_i_glide_ligand_efficiency_ln>  (397) 
-0.706698

>  <r_i_glide_gscore>  (397) 
-3.06156

>  <r_i_glide_lipo>  (397) 
-0.353007

>  <r_i_glide_hbond>  (397) 
0

>  <r_i_glide_metal>  (397) 
-0

>  <r_i_glide_rewards>  (397) 
-0.786918

>  <r_i_glide_evdw>  (397) 
-33.3915

>  <r_i_glide_ecoul>  (397) 
-2.94761

>  <r_i_glide_erotb>  (397) 
0.389125

>  <r_i_glide_esite>  (397) 
-0.199042

>  <r_i_glide_emodel>  (397) 
-41.972

>  <r_i_glide_energy>  (397) 
-36.3391

>  <r_i_glide_einternal>  (397) 
2.16287

>  <r_i_glide_intrahb_reward>  (397) 
-0

>  <i_i_glide_confnum>  (397) 
5

>  <i_i_glide_posenum>  (397) 
3

>  <r_i_glide_eff_state_penalty>  (397) 
0

>  <ligand_id>  (397) 
105

>  <original_smiles>  (397) 
O=C(C1CC2(n3cnnn3)CC3CC(CC1C3)C2)N1CCC2(CC1)OCCO2

>  <smiles>  (397) 
[H]c1nnnn1C12C([H])([H])C([H])(C(=O)N3C([H])([H])C([H])([H])C4(OC([H])([H])C([H])([H])O4)C([H])([H])C3([H])[H])C3([H])C([H])([H])C([H])(C([H])([H])C([H])(C3([H])[H])C1([H])[H])C2([H])[H]

$$$$
105:0:2
     RDKit          3D

 57 62  0  0  1  0  0  0  0  0999 V2000
    1.6735   -5.7253    0.4739 O   0  0  0  0  0  0  0  0  0  0  0  0
    2.5154   -5.8832    1.3621 C   0  0  0  0  0  0  0  0  0  0  0  0
    3.7799   -4.9749    1.3451 C   0  0  2  0  0  0  0  0  0  0  0  0
    3.7356   -3.7486    2.6181 C   0  0  0  0  0  0  0  0  0  0  0  0
    3.3499   -2.0524    2.3336 C   0  0  1  0  0  0  0  0  0  0  0  0
    2.1384   -1.6465    3.0490 N   0  0  0  0  0  0  0  0  0  0  0  0
    1.7745   -0.4286    3.4809 C   0  0  0  0  0  0  0  0  0  0  0  0
    0.6179   -0.4656    4.1248 N   0  0  0  0  0  0  0  0  0  0  0  0
    0.2633   -1.7995    4.0813 N   0  0  0  0  0  0  0  0  0  0  0  0
    1.1550   -2.4922    3.4347 N   0  0  0  0  0  0  0  0  0  0  0  0
    3.5908   -0.9046    1.0421 C   0  0  0  0  0  0  0  0  0  0  0  0
    4.1060   -1.4681   -0.5483 C   0  0  1  0  0  0  0  0  0  0  0  0
    5.4950   -1.6485   -0.1191 C   0  0  0  0  0  0  0  0  0  0  0  0
    5.0545   -2.7820    0.8159 C   0  0  2  0  0  0  0  0  0  0  0  0
    5.5492   -4.0359    0.1000 C   0  0  0  0  0  0  0  0  0  0  0  0
    4.1833   -4.4399   -0.2425 C   0  0  2  0  0  0  0  0  0  0  0  0
    3.7182   -3.0550   -1.1977 C   0  0  0  0  0  0  0  0  0  0  0  0
    3.2108   -2.6840    1.2321 C   0  0  0  0  0  0  0  0  0  0  0  0
    2.3474   -6.8245    2.3323 N   0  0  0  0  0  0  0  0  0  0  0  0
    1.1341   -7.6682    2.3736 C   0  0  0  0  0  0  0  0  0  0  0  0
    1.4998   -9.1632    2.4079 C   0  0  0  0  0  0  0  0  0  0  0  0
    2.4279   -9.4445    3.6107 C   0  0  0  0  0  0  0  0  0  0  0  0
    3.6714   -8.5345    3.5563 C   0  0  0  0  0  0  0  0  0  0  0  0
    3.2444   -7.0524    3.4898 C   0  0  0  0  0  0  0  0  0  0  0  0
    2.8294  -10.7692    3.5682 O   0  0  0  0  0  0  0  0  0  0  0  0
    1.9434  -11.4890    4.4119 C   0  0  0  0  0  0  0  0  0  0  0  0
    1.0214  -10.4322    5.0220 C   0  0  0  0  0  0  0  0  0  0  0  0
    1.7479   -9.2380    4.8059 O   0  0  0  0  0  0  0  0  0  0  0  0
    4.5523   -5.6969    1.5970 H   0  0  0  0  0  0  0  0  0  0  0  0
    3.0562   -4.1396    3.3747 H   0  0  0  0  0  0  0  0  0  0  0  0
    4.6791   -3.7983    3.1707 H   0  0  0  0  0  0  0  0  0  0  0  0
    2.3615    0.4654    3.3391 H   0  0  0  0  0  0  0  0  0  0  0  0
    2.6523   -0.3718    0.8591 H   0  0  0  0  0  0  0  0  0  0  0  0
    4.2195   -0.0855    1.4060 H   0  0  0  0  0  0  0  0  0  0  0  0
    4.0057   -0.6841   -1.2975 H   0  0  0  0  0  0  0  0  0  0  0  0
    6.1624   -1.8843   -0.9530 H   0  0  0  0  0  0  0  0  0  0  0  0
    5.9176   -0.7812    0.3939 H   0  0  0  0  0  0  0  0  0  0  0  0
    5.7142   -2.6495    1.6817 H   0  0  0  0  0  0  0  0  0  0  0  0
    6.1590   -3.9036   -0.7952 H   0  0  0  0  0  0  0  0  0  0  0  0
    6.1239   -4.7027    0.7431 H   0  0  0  0  0  0  0  0  0  0  0  0
    4.2120   -5.3160   -0.8914 H   0  0  0  0  0  0  0  0  0  0  0  0
    2.6568   -3.1199   -1.4445 H   0  0  0  0  0  0  0  0  0  0  0  0
    4.2239   -3.1434   -2.1621 H   0  0  0  0  0  0  0  0  0  0  0  0
    2.3284   -3.3536    1.1519 H   0  0  0  0  0  0  0  0  0  0  0  0
    2.3420   -2.4132    0.5667 H   0  0  0  0  0  0  0  0  0  0  0  0
    0.5499   -7.3881    3.2518 H   0  0  0  0  0  0  0  0  0  0  0  0
    0.4643   -7.5366    1.5190 H   0  0  0  0  0  0  0  0  0  0  0  0
    0.6044   -9.7837    2.4371 H   0  0  0  0  0  0  0  0  0  0  0  0
    2.0205   -9.4473    1.4920 H   0  0  0  0  0  0  0  0  0  0  0  0
    4.3093   -8.7269    4.4173 H   0  0  0  0  0  0  0  0  0  0  0  0
    4.2517   -8.8007    2.6706 H   0  0  0  0  0  0  0  0  0  0  0  0
    4.1594   -6.4581    3.4894 H   0  0  0  0  0  0  0  0  0  0  0  0
    2.7288   -6.7708    4.4116 H   0  0  0  0  0  0  0  0  0  0  0  0
    1.3890  -12.2319    3.8391 H   0  0  0  0  0  0  0  0  0  0  0  0
    2.5119  -12.0097    5.1832 H   0  0  0  0  0  0  0  0  0  0  0  0
    0.0769  -10.3768    4.4839 H   0  0  0  0  0  0  0  0  0  0  0  0
    0.7802  -10.6218    6.0687 H   0  0  0  0  0  0  0  0  0  0  0  0
  1  2  2  0
  2  3  1  0
  2 19  1  0
  3 16  1  0
  3  4  1  0
  3 29  1  1
  4  5  1  0
  4 30  1  0
  4 31  1  0
  5 18  1  0
  5  6  1  1
  5 11  1  0
  6 10  1  0
  6  7  1  0
  7  8  2  0
  7 32  1  0
  8  9  1  0
  9 10  2  0
 11 12  1  0
 11 33  1  0
 11 34  1  0
 12 17  1  0
 12 13  1  0
 12 35  1  6
 13 14  1  0
 13 36  1  0
 13 37  1  0
 14 15  1  0
 14 18  1  0
 14 38  1  1
 15 16  1  0
 15 39  1  0
 15 40  1  0
 16 17  1  0
 16 41  1  6
 17 42  1  0
 17 43  1  0
 18 44  1  0
 18 45  1  0
 19 24  1  0
 19 20  1  0
 20 21  1  0
 20 46  1  0
 20 47  1  0
 21 22  1  0
 21 48  1  0
 21 49  1  0
 22 28  1  0
 22 23  1  0
 22 25  1  0
 23 24  1  0
 23 50  1  0
 23 51  1  0
 24 52  1  0
 24 53  1  0
 25 26  1  0
 26 27  1  0
 26 54  1  0
 26 55  1  0
 27 28  1  0
 27 56  1  0
 27 57  1  0
M  END
>  <i_m_ct_stereo_status>  (398) 
1

>  <s_m_source_file>  (398) 
/var/tmp/pbs.5076255.sched01/tmp7onimy_i/150cvk1qxg3.sdf

>  <i_m_source_file_index>  (398) 
32

>  <i_lp_mmshare_version>  (398) 
48012

>  <i_f3d_flags>  (398) 
0

>  <s_epik_input>  (398) 
TzFbQ0gyXVtDSDJdT0MxMltDSDJdW0NIMl1OKFtDSDJdW0NIMl0yKUMoPU8pW0NASF0oW0NIMl1bQ0BdMzRuNVtjSF1ubm41KVtDQEBIXTZbQ0gyXVtDQEhdKFtDSDJdNClbQ0gyXVtDQEhdKFtDSDJdMylbQ0gyXTY=

>  <s_epik_cmdline>  (398) 
J2VwaWtfcHl0aG9uJywgJy1waHQnLCAnMi4wJywgJy1waCcsICc3LjAnLCAnLXRuJywgJzgnLCAnLW1hJywgJzIwMCcsICctaW1hZScsICc8aW5maWxlLm1hZT4nLCAnLW9tYWUnLCAnPG91dGZpbGUubWFlPic=

>  <r_lp_tautomer_probability>  (398) 
1

>  <r_epik_Ionization_Penalty>  (398) 
2.94336e-08

>  <r_epik_Ionization_Penalty_Charging>  (398) 
0

>  <r_epik_Ionization_Penalty_Neutral>  (398) 
2.94336e-08

>  <r_epik_State_Penalty>  (398) 
-0

>  <r_epik_Charging_Adjusted_Penalty>  (398) 
0

>  <i_epik_Tot_Q>  (398) 
0

>  <i_epik_Tot_abs_Q>  (398) 
0

>  <s_lp_Force_Field>  (398) 
OPLS3e

>  <r_lp_Energy>  (398) 
518.329

>  <b_lp_Chiralities_Consistent>  (398) 
1

>  <s_lp_Variant>  (398) 
105:0-1

>  <s_i_glide_gridfile>  (398) 
pfpi4k_grid

>  <i_i_glide_lignum>  (398) 
32

>  <i_i_glide_rotatable_bonds>  (398) 
3

>  <r_i_docking_score>  (398) 
-2.55494

>  <r_i_glide_ligand_efficiency>  (398) 
-0.091248

>  <r_i_glide_ligand_efficiency_sa>  (398) 
-0.277083

>  <r_i_glide_ligand_efficiency_ln>  (398) 
-0.589756

>  <r_i_glide_gscore>  (398) 
-2.55494

>  <r_i_glide_lipo>  (398) 
-0.157403

>  <r_i_glide_hbond>  (398) 
-0.123579

>  <r_i_glide_metal>  (398) 
-0

>  <r_i_glide_rewards>  (398) 
-0.767209

>  <r_i_glide_evdw>  (398) 
-30.7633

>  <r_i_glide_ecoul>  (398) 
-2.03354

>  <r_i_glide_erotb>  (398) 
0.389125

>  <r_i_glide_esite>  (398) 
-0.0526798

>  <r_i_glide_emodel>  (398) 
-38.0659

>  <r_i_glide_energy>  (398) 
-32.7969

>  <r_i_glide_einternal>  (398) 
0.927672

>  <r_i_glide_intrahb_reward>  (398) 
-0

>  <i_i_glide_confnum>  (398) 
4

>  <i_i_glide_posenum>  (398) 
10

>  <r_i_glide_eff_state_penalty>  (398) 
0

>  <ligand_id>  (398) 
105

>  <original_smiles>  (398) 
O=C(C1CC2(n3cnnn3)CC3CC(CC1C3)C2)N1CCC2(CC1)OCCO2

>  <smiles>  (398) 
[H]c1nnnn1C12C([H])([H])C([H])(C(=O)N3C([H])([H])C([H])([H])C4(OC([H])([H])C([H])([H])O4)C([H])([H])C3([H])[H])C3([H])C([H])([H])C([H])(C([H])([H])C([H])(C3([H])[H])C1([H])[H])C2([H])[H]

$$$$
106:0:0
     RDKit          3D

 17 18  0  0  1  0  0  0  0  0999 V2000
   -6.2815   -8.5750   -6.7958 C   0  0  0  0  0  0  0  0  0  0  0  0
   -6.8579   -7.4479   -6.2732 C   0  0  0  0  0  0  0  0  0  0  0  0
   -6.0369   -7.0190   -5.2546 N   0  0  0  0  0  0  0  0  0  0  0  0
   -6.2463   -5.8784   -4.3465 C   0  0  0  0  0  0  0  0  0  0  0  0
   -7.2540   -4.8417   -4.8120 C   0  0  0  0  0  0  0  0  0  0  0  0
   -5.7796   -4.5362   -4.8659 C   0  0  0  0  0  0  0  0  0  0  0  0
   -5.0005   -7.8677   -5.1241 C   0  0  0  0  0  0  0  0  0  0  0  0
   -5.1483   -8.8080   -6.0614 N   0  0  0  0  0  0  0  0  0  0  0  0
   -6.6073   -9.2135   -7.6018 H   0  0  0  0  0  0  0  0  0  0  0  0
   -7.7777   -6.9491   -6.5553 H   0  0  0  0  0  0  0  0  0  0  0  0
   -6.1770   -6.1485   -3.2955 H   0  0  0  0  0  0  0  0  0  0  0  0
   -7.7508   -4.9364   -5.7750 H   0  0  0  0  0  0  0  0  0  0  0  0
   -7.8417   -4.3331   -4.0480 H   0  0  0  0  0  0  0  0  0  0  0  0
   -5.4070   -3.8032   -4.1503 H   0  0  0  0  0  0  0  0  0  0  0  0
   -5.3198   -4.4797   -5.8488 H   0  0  0  0  0  0  0  0  0  0  0  0
   -4.2027   -7.8378   -4.3972 H   0  0  0  0  0  0  0  0  0  0  0  0
   -4.5225   -9.5960   -6.1880 H   0  0  0  0  0  0  0  0  0  0  0  0
  1  8  1  0
  1  2  2  0
  1  9  1  0
  2  3  1  0
  2 10  1  0
  3  4  1  0
  3  7  1  0
  4  6  1  0
  4  5  1  0
  4 11  1  0
  5  6  1  0
  5 12  1  0
  5 13  1  0
  6 14  1  0
  6 15  1  0
  7  8  2  0
  7 16  1  0
  8 17  1  0
M  CHG  1   8   1
M  END
>  <i_m_ct_stereo_status>  (399) 
1

>  <s_m_source_file>  (399) 
/var/tmp/pbs.5076255.sched01/tmp7onimy_i/150cvk1qxg3.sdf

>  <i_m_source_file_index>  (399) 
33

>  <i_lp_mmshare_version>  (399) 
48012

>  <i_f3d_flags>  (399) 
0

>  <s_epik_input>  (399) 
W2NIXTFuW2NIXVtjSF1uMVtDSF0yW0NIMl1bQ0gyXTI=

>  <s_epik_cmdline>  (399) 
J2VwaWtfcHl0aG9uJywgJy1waHQnLCAnMi4wJywgJy1waCcsICc3LjAnLCAnLXRuJywgJzgnLCAnLW1hJywgJzIwMCcsICctaW1hZScsICc8aW5maWxlLm1hZT4nLCAnLW9tYWUnLCAnPG91dGZpbGUubWFlPic=

>  <r_lp_tautomer_probability>  (399) 
1

>  <r_epik_Ionization_Penalty>  (399) 
0.241157

>  <r_epik_Ionization_Penalty_Charging>  (399) 
0

>  <r_epik_Ionization_Penalty_Neutral>  (399) 
0.241157

>  <r_epik_State_Penalty>  (399) 
0.232147

>  <r_epik_Charging_Adjusted_Penalty>  (399) 
0.232147

>  <i_epik_Tot_Q>  (399) 
1

>  <i_epik_Tot_abs_Q>  (399) 
1

>  <s_lp_Force_Field>  (399) 
OPLS3e

>  <r_lp_Energy>  (399) 
9.58302

>  <b_lp_Chiralities_Consistent>  (399) 
1

>  <s_lp_Variant>  (399) 
106:0-1

>  <s_i_glide_gridfile>  (399) 
pfpi4k_grid

>  <i_i_glide_lignum>  (399) 
33

>  <i_i_glide_rotatable_bonds>  (399) 
1

>  <r_i_docking_score>  (399) 
-4.47799

>  <r_i_glide_ligand_efficiency>  (399) 
-0.559748

>  <r_i_glide_ligand_efficiency_sa>  (399) 
-1.1195

>  <r_i_glide_ligand_efficiency_ln>  (399) 
-1.45416

>  <r_i_glide_gscore>  (399) 
-4.47799

>  <r_i_glide_lipo>  (399) 
-1.44166

>  <r_i_glide_hbond>  (399) 
0

>  <r_i_glide_metal>  (399) 
-0

>  <r_i_glide_rewards>  (399) 
-3.09836

>  <r_i_glide_evdw>  (399) 
-16.8575

>  <r_i_glide_ecoul>  (399) 
-1.12209

>  <r_i_glide_erotb>  (399) 
1.07322

>  <r_i_glide_esite>  (399) 
0

>  <r_i_glide_emodel>  (399) 
-24.1813

>  <r_i_glide_energy>  (399) 
-17.9796

>  <r_i_glide_einternal>  (399) 
1.12153

>  <r_i_glide_intrahb_reward>  (399) 
-0

>  <i_i_glide_confnum>  (399) 
5

>  <i_i_glide_posenum>  (399) 
18

>  <r_i_glide_eff_state_penalty>  (399) 
0

>  <ligand_id>  (399) 
106

>  <original_smiles>  (399) 
c1cn(C2CC2)cn1

>  <smiles>  (399) 
[H]c1c([H])[n+]([H])c([H])n1C1([H])C([H])([H])C1([H])[H]

$$$$
106:0:1
     RDKit          3D

 17 18  0  0  1  0  0  0  0  0999 V2000
  -10.4157   -3.8178   -6.7111 C   0  0  0  0  0  0  0  0  0  0  0  0
   -9.2581   -3.5077   -6.0550 C   0  0  0  0  0  0  0  0  0  0  0  0
   -8.3898   -4.5471   -6.2611 N   0  0  0  0  0  0  0  0  0  0  0  0
   -7.0078   -4.6418   -5.7770 C   0  0  0  0  0  0  0  0  0  0  0  0
   -6.6220   -5.9284   -5.0874 C   0  0  0  0  0  0  0  0  0  0  0  0
   -6.8767   -4.6783   -4.2753 C   0  0  0  0  0  0  0  0  0  0  0  0
   -8.9528   -5.4515   -7.0764 C   0  0  0  0  0  0  0  0  0  0  0  0
  -10.1950   -5.0173   -7.3344 N   0  0  0  0  0  0  0  0  0  0  0  0
  -11.3465   -3.2720   -6.7660 H   0  0  0  0  0  0  0  0  0  0  0  0
   -9.0096   -2.6488   -5.4633 H   0  0  0  0  0  0  0  0  0  0  0  0
   -6.3084   -4.0475   -6.3563 H   0  0  0  0  0  0  0  0  0  0  0  0
   -7.3589   -6.7279   -5.0273 H   0  0  0  0  0  0  0  0  0  0  0  0
   -5.5886   -6.2566   -5.1925 H   0  0  0  0  0  0  0  0  0  0  0  0
   -6.0128   -4.1753   -3.8428 H   0  0  0  0  0  0  0  0  0  0  0  0
   -7.7802   -4.6530   -3.6662 H   0  0  0  0  0  0  0  0  0  0  0  0
   -8.5049   -6.3611   -7.4393 H   0  0  0  0  0  0  0  0  0  0  0  0
  -10.8806   -5.5144   -7.8921 H   0  0  0  0  0  0  0  0  0  0  0  0
  1  8  1  0
  1  2  2  0
  1  9  1  0
  2  3  1  0
  2 10  1  0
  3  4  1  0
  3  7  1  0
  4  6  1  0
  4  5  1  0
  4 11  1  0
  5  6  1  0
  5 12  1  0
  5 13  1  0
  6 14  1  0
  6 15  1  0
  7  8  2  0
  7 16  1  0
  8 17  1  0
M  CHG  1   8   1
M  END
>  <i_m_ct_stereo_status>  (400) 
1

>  <s_m_source_file>  (400) 
/var/tmp/pbs.5076255.sched01/tmp7onimy_i/150cvk1qxg3.sdf

>  <i_m_source_file_index>  (400) 
33

>  <i_lp_mmshare_version>  (400) 
48012

>  <i_f3d_flags>  (400) 
0

>  <s_epik_input>  (400) 
W2NIXTFuW2NIXVtjSF1uMVtDSF0yW0NIMl1bQ0gyXTI=

>  <s_epik_cmdline>  (400) 
J2VwaWtfcHl0aG9uJywgJy1waHQnLCAnMi4wJywgJy1waCcsICc3LjAnLCAnLXRuJywgJzgnLCAnLW1hJywgJzIwMCcsICctaW1hZScsICc8aW5maWxlLm1hZT4nLCAnLW9tYWUnLCAnPG91dGZpbGUubWFlPic=

>  <r_lp_tautomer_probability>  (400) 
1

>  <r_epik_Ionization_Penalty>  (400) 
0.241157

>  <r_epik_Ionization_Penalty_Charging>  (400) 
0

>  <r_epik_Ionization_Penalty_Neutral>  (400) 
0.241157

>  <r_epik_State_Penalty>  (400) 
0.232147

>  <r_epik_Charging_Adjusted_Penalty>  (400) 
0.232147

>  <i_epik_Tot_Q>  (400) 
1

>  <i_epik_Tot_abs_Q>  (400) 
1

>  <s_lp_Force_Field>  (400) 
OPLS3e

>  <r_lp_Energy>  (400) 
9.58302

>  <b_lp_Chiralities_Consistent>  (400) 
1

>  <s_lp_Variant>  (400) 
106:0-1

>  <s_i_glide_gridfile>  (400) 
pfpi4k_grid

>  <i_i_glide_lignum>  (400) 
33

>  <i_i_glide_rotatable_bonds>  (400) 
1

>  <r_i_docking_score>  (400) 
-4.08514

>  <r_i_glide_ligand_efficiency>  (400) 
-0.510642

>  <r_i_glide_ligand_efficiency_sa>  (400) 
-1.02128

>  <r_i_glide_ligand_efficiency_ln>  (400) 
-1.32658

>  <r_i_glide_gscore>  (400) 
-4.08514

>  <r_i_glide_lipo>  (400) 
-1.31963

>  <r_i_glide_hbond>  (400) 
0

>  <r_i_glide_metal>  (400) 
-0

>  <r_i_glide_rewards>  (400) 
-2.97974

>  <r_i_glide_evdw>  (400) 
-16.7247

>  <r_i_glide_ecoul>  (400) 
-0.151726

>  <r_i_glide_erotb>  (400) 
1.07322

>  <r_i_glide_esite>  (400) 
0

>  <r_i_glide_emodel>  (400) 
-23.0232

>  <r_i_glide_energy>  (400) 
-16.8764

>  <r_i_glide_einternal>  (400) 
0.238416

>  <r_i_glide_intrahb_reward>  (400) 
-0

>  <i_i_glide_confnum>  (400) 
4

>  <i_i_glide_posenum>  (400) 
4

>  <r_i_glide_eff_state_penalty>  (400) 
0

>  <ligand_id>  (400) 
106

>  <original_smiles>  (400) 
c1cn(C2CC2)cn1

>  <smiles>  (400) 
[H]c1c([H])[n+]([H])c([H])n1C1([H])C([H])([H])C1([H])[H]

$$$$
106:0:2
     RDKit          3D

 17 18  0  0  1  0  0  0  0  0999 V2000
    4.2009   -2.9335   -1.6874 C   0  0  0  0  0  0  0  0  0  0  0  0
    4.3770   -1.6030   -1.9736 C   0  0  0  0  0  0  0  0  0  0  0  0
    3.6154   -1.3375   -3.0875 N   0  0  0  0  0  0  0  0  0  0  0  0
    3.4863   -0.0127   -3.7060 C   0  0  0  0  0  0  0  0  0  0  0  0
    2.3792    0.2006   -4.7191 C   0  0  0  0  0  0  0  0  0  0  0  0
    3.7957    0.0412   -5.1674 C   0  0  0  0  0  0  0  0  0  0  0  0
    2.9847   -2.4594   -3.4766 C   0  0  0  0  0  0  0  0  0  0  0  0
    3.3429   -3.4295   -2.6307 N   0  0  0  0  0  0  0  0  0  0  0  0
    4.6070   -3.5395   -0.8897 H   0  0  0  0  0  0  0  0  0  0  0  0
    4.9527   -0.8465   -1.4623 H   0  0  0  0  0  0  0  0  0  0  0  0
    3.8463    0.7870   -3.0659 H   0  0  0  0  0  0  0  0  0  0  0  0
    1.7104   -0.6023   -5.0088 H   0  0  0  0  0  0  0  0  0  0  0  0
    1.9431    1.1970   -4.7823 H   0  0  0  0  0  0  0  0  0  0  0  0
    4.2729    0.9393   -5.5621 H   0  0  0  0  0  0  0  0  0  0  0  0
    4.0408   -0.8941   -5.6687 H   0  0  0  0  0  0  0  0  0  0  0  0
    2.2975   -2.5842   -4.2929 H   0  0  0  0  0  0  0  0  0  0  0  0
    3.0175   -4.3986   -2.6840 H   0  0  0  0  0  0  0  0  0  0  0  0
  1  8  1  0
  1  2  2  0
  1  9  1  0
  2  3  1  0
  2 10  1  0
  3  4  1  0
  3  7  1  0
  4  6  1  0
  4  5  1  0
  4 11  1  0
  5  6  1  0
  5 12  1  0
  5 13  1  0
  6 14  1  0
  6 15  1  0
  7  8  2  0
  7 16  1  0
  8 17  1  0
M  CHG  1   8   1
M  END
>  <i_m_ct_stereo_status>  (401) 
1

>  <s_m_source_file>  (401) 
/var/tmp/pbs.5076255.sched01/tmp7onimy_i/150cvk1qxg3.sdf

>  <i_m_source_file_index>  (401) 
33

>  <i_lp_mmshare_version>  (401) 
48012

>  <i_f3d_flags>  (401) 
0

>  <s_epik_input>  (401) 
W2NIXTFuW2NIXVtjSF1uMVtDSF0yW0NIMl1bQ0gyXTI=

>  <s_epik_cmdline>  (401) 
J2VwaWtfcHl0aG9uJywgJy1waHQnLCAnMi4wJywgJy1waCcsICc3LjAnLCAnLXRuJywgJzgnLCAnLW1hJywgJzIwMCcsICctaW1hZScsICc8aW5maWxlLm1hZT4nLCAnLW9tYWUnLCAnPG91dGZpbGUubWFlPic=

>  <r_lp_tautomer_probability>  (401) 
1

>  <r_epik_Ionization_Penalty>  (401) 
0.241157

>  <r_epik_Ionization_Penalty_Charging>  (401) 
0

>  <r_epik_Ionization_Penalty_Neutral>  (401) 
0.241157

>  <r_epik_State_Penalty>  (401) 
0.232147

>  <r_epik_Charging_Adjusted_Penalty>  (401) 
0.232147

>  <i_epik_Tot_Q>  (401) 
1

>  <i_epik_Tot_abs_Q>  (401) 
1

>  <s_lp_Force_Field>  (401) 
OPLS3e

>  <r_lp_Energy>  (401) 
9.58302

>  <b_lp_Chiralities_Consistent>  (401) 
1

>  <s_lp_Variant>  (401) 
106:0-1

>  <s_i_glide_gridfile>  (401) 
pfpi4k_grid

>  <i_i_glide_lignum>  (401) 
33

>  <i_i_glide_rotatable_bonds>  (401) 
1

>  <r_i_docking_score>  (401) 
-3.25888

>  <r_i_glide_ligand_efficiency>  (401) 
-0.40736

>  <r_i_glide_ligand_efficiency_sa>  (401) 
-0.81472

>  <r_i_glide_ligand_efficiency_ln>  (401) 
-1.05827

>  <r_i_glide_gscore>  (401) 
-3.25888

>  <r_i_glide_lipo>  (401) 
-0.212166

>  <r_i_glide_hbond>  (401) 
0

>  <r_i_glide_metal>  (401) 
-0

>  <r_i_glide_rewards>  (401) 
-2.54366

>  <r_i_glide_evdw>  (401) 
-12.4625

>  <r_i_glide_ecoul>  (401) 
-6.09127

>  <r_i_glide_erotb>  (401) 
1.07322

>  <r_i_glide_esite>  (401) 
-0.0394669

>  <r_i_glide_emodel>  (401) 
-22.9444

>  <r_i_glide_energy>  (401) 
-18.5538

>  <r_i_glide_einternal>  (401) 
1.14933

>  <r_i_glide_intrahb_reward>  (401) 
-0

>  <i_i_glide_confnum>  (401) 
4

>  <i_i_glide_posenum>  (401) 
32

>  <r_i_glide_eff_state_penalty>  (401) 
0

>  <ligand_id>  (401) 
106

>  <original_smiles>  (401) 
c1cn(C2CC2)cn1

>  <smiles>  (401) 
[H]c1c([H])[n+]([H])c([H])n1C1([H])C([H])([H])C1([H])[H]

$$$$
106:1:0
     RDKit          3D

 16 17  0  0  1  0  0  0  0  0999 V2000
   -6.2491   -5.7334   -5.0730 C   0  0  0  0  0  0  0  0  0  0  0  0
   -6.9770   -6.7360   -5.6748 C   0  0  0  0  0  0  0  0  0  0  0  0
   -6.1489   -7.8565   -5.7105 N   0  0  0  0  0  0  0  0  0  0  0  0
   -6.5140   -9.1761   -6.2041 C   0  0  0  0  0  0  0  0  0  0  0  0
   -5.3678  -10.1023   -6.5714 C   0  0  0  0  0  0  0  0  0  0  0  0
   -6.1696   -9.4145   -7.6573 C   0  0  0  0  0  0  0  0  0  0  0  0
   -5.0032   -7.4741   -5.1199 C   0  0  0  0  0  0  0  0  0  0  0  0
   -4.9941   -6.2124   -4.7200 N   0  0  0  0  0  0  0  0  0  0  0  0
   -6.5332   -4.7127   -4.8506 H   0  0  0  0  0  0  0  0  0  0  0  0
   -7.9931   -6.7455   -6.0470 H   0  0  0  0  0  0  0  0  0  0  0  0
   -7.4382   -9.5526   -5.7717 H   0  0  0  0  0  0  0  0  0  0  0  0
   -4.3374   -9.7774   -6.4389 H   0  0  0  0  0  0  0  0  0  0  0  0
   -5.5232  -11.1693   -6.4114 H   0  0  0  0  0  0  0  0  0  0  0  0
   -6.8400  -10.0374   -8.2486 H   0  0  0  0  0  0  0  0  0  0  0  0
   -5.6805   -8.6132   -8.2091 H   0  0  0  0  0  0  0  0  0  0  0  0
   -4.1510   -8.1221   -4.9568 H   0  0  0  0  0  0  0  0  0  0  0  0
  1  8  1  0
  1  2  2  0
  1  9  1  0
  2  3  1  0
  2 10  1  0
  3  4  1  0
  3  7  1  0
  4  6  1  0
  4  5  1  0
  4 11  1  0
  5  6  1  0
  5 12  1  0
  5 13  1  0
  6 14  1  0
  6 15  1  0
  7  8  2  0
  7 16  1  0
M  END
>  <i_m_ct_stereo_status>  (402) 
1

>  <s_m_source_file>  (402) 
/var/tmp/pbs.5076255.sched01/tmp7onimy_i/150cvk1qxg3.sdf

>  <i_m_source_file_index>  (402) 
34

>  <i_lp_mmshare_version>  (402) 
48012

>  <i_f3d_flags>  (402) 
0

>  <s_epik_input>  (402) 
W2NIXTFuW2NIXVtjSF1uMVtDSF0yW0NIMl1bQ0gyXTI=

>  <s_epik_cmdline>  (402) 
J2VwaWtfcHl0aG9uJywgJy1waHQnLCAnMi4wJywgJy1waCcsICc3LjAnLCAnLXRuJywgJzgnLCAnLW1hJywgJzIwMCcsICctaW1hZScsICc8aW5maWxlLm1hZT4nLCAnLW9tYWUnLCAnPG91dGZpbGUubWFlPic=

>  <r_lp_tautomer_probability>  (402) 
1

>  <r_epik_Ionization_Penalty>  (402) 
0.649067

>  <r_epik_Ionization_Penalty_Charging>  (402) 
0.649067

>  <r_epik_Ionization_Penalty_Neutral>  (402) 
1.81024e-13

>  <r_epik_State_Penalty>  (402) 
0.667421

>  <r_epik_Charging_Adjusted_Penalty>  (402) 
1.31649

>  <i_epik_Tot_Q>  (402) 
0

>  <i_epik_Tot_abs_Q>  (402) 
0

>  <s_lp_Force_Field>  (402) 
OPLS3e

>  <r_lp_Energy>  (402) 
0.902829

>  <b_lp_Chiralities_Consistent>  (402) 
1

>  <s_lp_Variant>  (402) 
106:0-2

>  <s_i_glide_gridfile>  (402) 
pfpi4k_grid

>  <i_i_glide_lignum>  (402) 
34

>  <i_i_glide_rotatable_bonds>  (402) 
1

>  <r_i_docking_score>  (402) 
-5.47016

>  <r_i_glide_ligand_efficiency>  (402) 
-0.68377

>  <r_i_glide_ligand_efficiency_sa>  (402) 
-1.36754

>  <r_i_glide_ligand_efficiency_ln>  (402) 
-1.77635

>  <r_i_glide_gscore>  (402) 
-5.47016

>  <r_i_glide_lipo>  (402) 
-1.13877

>  <r_i_glide_hbond>  (402) 
-0.32

>  <r_i_glide_metal>  (402) 
-0

>  <r_i_glide_rewards>  (402) 
-3.83601

>  <r_i_glide_evdw>  (402) 
-16.0004

>  <r_i_glide_ecoul>  (402) 
-3.09217

>  <r_i_glide_erotb>  (402) 
1.08847

>  <r_i_glide_esite>  (402) 
0

>  <r_i_glide_emodel>  (402) 
-25.9064

>  <r_i_glide_energy>  (402) 
-19.0926

>  <r_i_glide_einternal>  (402) 
0.630288

>  <r_i_glide_intrahb_reward>  (402) 
-0

>  <i_i_glide_confnum>  (402) 
4

>  <i_i_glide_posenum>  (402) 
20

>  <r_i_glide_eff_state_penalty>  (402) 
0

>  <ligand_id>  (402) 
106

>  <original_smiles>  (402) 
c1cn(C2CC2)cn1

>  <smiles>  (402) 
[H]c1nc([H])n(C2([H])C([H])([H])C2([H])[H])c1[H]

$$$$
106:1:1
     RDKit          3D

 16 17  0  0  1  0  0  0  0  0999 V2000
   -6.2493   -5.3205   -4.8600 C   0  0  0  0  0  0  0  0  0  0  0  0
   -7.0919   -6.2164   -5.4831 C   0  0  0  0  0  0  0  0  0  0  0  0
   -6.3355   -7.3516   -5.7534 N   0  0  0  0  0  0  0  0  0  0  0  0
   -6.7992   -8.5909   -6.3448 C   0  0  0  0  0  0  0  0  0  0  0  0
   -5.9043   -9.1626   -7.4279 C   0  0  0  0  0  0  0  0  0  0  0  0
   -7.2000   -8.4758   -7.7992 C   0  0  0  0  0  0  0  0  0  0  0  0
   -5.1109   -7.0960   -5.2696 C   0  0  0  0  0  0  0  0  0  0  0  0
   -4.9863   -5.8932   -4.7242 N   0  0  0  0  0  0  0  0  0  0  0  0
   -6.4594   -4.3225   -4.4911 H   0  0  0  0  0  0  0  0  0  0  0  0
   -8.1452   -6.1505   -5.7280 H   0  0  0  0  0  0  0  0  0  0  0  0
   -7.3435   -9.2290   -5.6475 H   0  0  0  0  0  0  0  0  0  0  0  0
   -4.9818   -8.6377   -7.6696 H   0  0  0  0  0  0  0  0  0  0  0  0
   -5.8562  -10.2478   -7.5105 H   0  0  0  0  0  0  0  0  0  0  0  0
   -8.0179   -9.1031   -8.1455 H   0  0  0  0  0  0  0  0  0  0  0  0
   -7.1236   -7.5033   -8.2837 H   0  0  0  0  0  0  0  0  0  0  0  0
   -4.2849   -7.7961   -5.3064 H   0  0  0  0  0  0  0  0  0  0  0  0
  1  8  1  0
  1  2  2  0
  1  9  1  0
  2  3  1  0
  2 10  1  0
  3  4  1  0
  3  7  1  0
  4  6  1  0
  4  5  1  0
  4 11  1  0
  5  6  1  0
  5 12  1  0
  5 13  1  0
  6 14  1  0
  6 15  1  0
  7  8  2  0
  7 16  1  0
M  END
>  <i_m_ct_stereo_status>  (403) 
1

>  <s_m_source_file>  (403) 
/var/tmp/pbs.5076255.sched01/tmp7onimy_i/150cvk1qxg3.sdf

>  <i_m_source_file_index>  (403) 
34

>  <i_lp_mmshare_version>  (403) 
48012

>  <i_f3d_flags>  (403) 
0

>  <s_epik_input>  (403) 
W2NIXTFuW2NIXVtjSF1uMVtDSF0yW0NIMl1bQ0gyXTI=

>  <s_epik_cmdline>  (403) 
J2VwaWtfcHl0aG9uJywgJy1waHQnLCAnMi4wJywgJy1waCcsICc3LjAnLCAnLXRuJywgJzgnLCAnLW1hJywgJzIwMCcsICctaW1hZScsICc8aW5maWxlLm1hZT4nLCAnLW9tYWUnLCAnPG91dGZpbGUubWFlPic=

>  <r_lp_tautomer_probability>  (403) 
1

>  <r_epik_Ionization_Penalty>  (403) 
0.649067

>  <r_epik_Ionization_Penalty_Charging>  (403) 
0.649067

>  <r_epik_Ionization_Penalty_Neutral>  (403) 
1.81024e-13

>  <r_epik_State_Penalty>  (403) 
0.667421

>  <r_epik_Charging_Adjusted_Penalty>  (403) 
1.31649

>  <i_epik_Tot_Q>  (403) 
0

>  <i_epik_Tot_abs_Q>  (403) 
0

>  <s_lp_Force_Field>  (403) 
OPLS3e

>  <r_lp_Energy>  (403) 
0.902829

>  <b_lp_Chiralities_Consistent>  (403) 
1

>  <s_lp_Variant>  (403) 
106:0-2

>  <s_i_glide_gridfile>  (403) 
pfpi4k_grid

>  <i_i_glide_lignum>  (403) 
34

>  <i_i_glide_rotatable_bonds>  (403) 
1

>  <r_i_docking_score>  (403) 
-5.46434

>  <r_i_glide_ligand_efficiency>  (403) 
-0.683042

>  <r_i_glide_ligand_efficiency_sa>  (403) 
-1.36608

>  <r_i_glide_ligand_efficiency_ln>  (403) 
-1.77446

>  <r_i_glide_gscore>  (403) 
-5.46434

>  <r_i_glide_lipo>  (403) 
-1.21441

>  <r_i_glide_hbond>  (403) 
-0.32

>  <r_i_glide_metal>  (403) 
-0

>  <r_i_glide_rewards>  (403) 
-3.7983

>  <r_i_glide_evdw>  (403) 
-15.6178

>  <r_i_glide_ecoul>  (403) 
-2.92802

>  <r_i_glide_erotb>  (403) 
1.08847

>  <r_i_glide_esite>  (403) 
0

>  <r_i_glide_emodel>  (403) 
-25.6928

>  <r_i_glide_energy>  (403) 
-18.5458

>  <r_i_glide_einternal>  (403) 
0.0590169

>  <r_i_glide_intrahb_reward>  (403) 
-0

>  <i_i_glide_confnum>  (403) 
4

>  <i_i_glide_posenum>  (403) 
25

>  <r_i_glide_eff_state_penalty>  (403) 
0

>  <ligand_id>  (403) 
106

>  <original_smiles>  (403) 
c1cn(C2CC2)cn1

>  <smiles>  (403) 
[H]c1nc([H])n(C2([H])C([H])([H])C2([H])[H])c1[H]

$$$$
106:1:2
     RDKit          3D

 16 17  0  0  1  0  0  0  0  0999 V2000
   -8.8475   -4.6266   -6.9348 C   0  0  0  0  0  0  0  0  0  0  0  0
   -8.1885   -5.8321   -6.8611 C   0  0  0  0  0  0  0  0  0  0  0  0
   -7.4465   -5.8142   -5.6828 N   0  0  0  0  0  0  0  0  0  0  0  0
   -6.6411   -6.8883   -5.1333 C   0  0  0  0  0  0  0  0  0  0  0  0
   -5.1554   -6.6258   -5.1317 C   0  0  0  0  0  0  0  0  0  0  0  0
   -5.7526   -7.5965   -6.1299 C   0  0  0  0  0  0  0  0  0  0  0  0
   -7.7256   -4.6354   -5.1064 C   0  0  0  0  0  0  0  0  0  0  0  0
   -8.5592   -3.8692   -5.8019 N   0  0  0  0  0  0  0  0  0  0  0  0
   -9.5160   -4.2538   -7.6986 H   0  0  0  0  0  0  0  0  0  0  0  0
   -8.1958   -6.6805   -7.5303 H   0  0  0  0  0  0  0  0  0  0  0  0
   -7.1231   -7.4322   -4.3259 H   0  0  0  0  0  0  0  0  0  0  0  0
   -4.8075   -5.6660   -5.5145 H   0  0  0  0  0  0  0  0  0  0  0  0
   -4.5694   -7.0512   -4.3203 H   0  0  0  0  0  0  0  0  0  0  0  0
   -5.5716   -8.6575   -5.9684 H   0  0  0  0  0  0  0  0  0  0  0  0
   -5.7893   -7.2909   -7.1730 H   0  0  0  0  0  0  0  0  0  0  0  0
   -7.3224   -4.3295   -4.1509 H   0  0  0  0  0  0  0  0  0  0  0  0
  1  8  1  0
  1  2  2  0
  1  9  1  0
  2  3  1  0
  2 10  1  0
  3  4  1  0
  3  7  1  0
  4  6  1  0
  4  5  1  0
  4 11  1  0
  5  6  1  0
  5 12  1  0
  5 13  1  0
  6 14  1  0
  6 15  1  0
  7  8  2  0
  7 16  1  0
M  END
>  <i_m_ct_stereo_status>  (404) 
1

>  <s_m_source_file>  (404) 
/var/tmp/pbs.5076255.sched01/tmp7onimy_i/150cvk1qxg3.sdf

>  <i_m_source_file_index>  (404) 
34

>  <i_lp_mmshare_version>  (404) 
48012

>  <i_f3d_flags>  (404) 
0

>  <s_epik_input>  (404) 
W2NIXTFuW2NIXVtjSF1uMVtDSF0yW0NIMl1bQ0gyXTI=

>  <s_epik_cmdline>  (404) 
J2VwaWtfcHl0aG9uJywgJy1waHQnLCAnMi4wJywgJy1waCcsICc3LjAnLCAnLXRuJywgJzgnLCAnLW1hJywgJzIwMCcsICctaW1hZScsICc8aW5maWxlLm1hZT4nLCAnLW9tYWUnLCAnPG91dGZpbGUubWFlPic=

>  <r_lp_tautomer_probability>  (404) 
1

>  <r_epik_Ionization_Penalty>  (404) 
0.649067

>  <r_epik_Ionization_Penalty_Charging>  (404) 
0.649067

>  <r_epik_Ionization_Penalty_Neutral>  (404) 
1.81024e-13

>  <r_epik_State_Penalty>  (404) 
0.667421

>  <r_epik_Charging_Adjusted_Penalty>  (404) 
1.31649

>  <i_epik_Tot_Q>  (404) 
0

>  <i_epik_Tot_abs_Q>  (404) 
0

>  <s_lp_Force_Field>  (404) 
OPLS3e

>  <r_lp_Energy>  (404) 
0.902829

>  <b_lp_Chiralities_Consistent>  (404) 
1

>  <s_lp_Variant>  (404) 
106:0-2

>  <s_i_glide_gridfile>  (404) 
pfpi4k_grid

>  <i_i_glide_lignum>  (404) 
34

>  <i_i_glide_rotatable_bonds>  (404) 
1

>  <r_i_docking_score>  (404) 
-4.04474

>  <r_i_glide_ligand_efficiency>  (404) 
-0.505593

>  <r_i_glide_ligand_efficiency_sa>  (404) 
-1.01119

>  <r_i_glide_ligand_efficiency_ln>  (404) 
-1.31347

>  <r_i_glide_gscore>  (404) 
-4.04474

>  <r_i_glide_lipo>  (404) 
-1.13078

>  <r_i_glide_hbond>  (404) 
0

>  <r_i_glide_metal>  (404) 
-0

>  <r_i_glide_rewards>  (404) 
-3.11307

>  <r_i_glide_evdw>  (404) 
-17.1331

>  <r_i_glide_ecoul>  (404) 
-0.218073

>  <r_i_glide_erotb>  (404) 
1.08847

>  <r_i_glide_esite>  (404) 
0

>  <r_i_glide_emodel>  (404) 
-22.5545

>  <r_i_glide_energy>  (404) 
-17.3512

>  <r_i_glide_einternal>  (404) 
0.172804

>  <r_i_glide_intrahb_reward>  (404) 
-0

>  <i_i_glide_confnum>  (404) 
4

>  <i_i_glide_posenum>  (404) 
3

>  <r_i_glide_eff_state_penalty>  (404) 
0

>  <ligand_id>  (404) 
106

>  <original_smiles>  (404) 
c1cn(C2CC2)cn1

>  <smiles>  (404) 
[H]c1nc([H])n(C2([H])C([H])([H])C2([H])[H])c1[H]

$$$$
108:0:0
     RDKit          3D

 85 91  0  0  1  0  0  0  0  0999 V2000
    0.9412   -9.1960    3.1065 C   0  0  0  0  0  0  0  0  0  0  0  0
    2.4246   -8.8088    2.9957 C   0  0  2  0  0  0  0  0  0  0  0  0
    2.8992   -8.0847    4.2696 C   0  0  0  0  0  0  0  0  0  0  0  0
    4.2307   -7.3125    4.1319 C   0  0  0  0  0  0  0  0  0  0  0  0
    4.3217   -6.2996    2.9569 C   0  0  2  0  0  0  0  0  0  0  0  0
    3.8707   -4.8356    3.3139 C   0  0  2  0  0  0  0  0  0  0  0  0
    2.4424   -4.7726    3.8639 C   0  0  0  0  0  0  0  0  0  0  0  0
    2.0464   -3.3661    4.2932 C   0  0  0  0  0  0  0  0  0  0  0  0
    2.1536   -2.2703    3.1914 C   0  0  1  0  0  0  0  0  0  0  0  0
    1.6315   -0.8264    3.6794 C   0  0  2  0  0  0  0  0  0  0  0  0
    0.3853   -1.0624    4.6029 C   0  0  0  0  0  0  0  0  0  0  0  0
    1.0732   -0.0404    2.4620 C   0  0  0  0  0  0  0  0  0  0  0  0
    0.3265    1.2607    2.8101 C   0  0  0  0  0  0  0  0  0  0  0  0
    0.9702    2.0773    3.9607 C   0  0  2  0  0  0  0  0  0  0  0  0
    0.7402    3.5960    3.6899 C   0  0  1  0  0  0  0  0  0  0  0  0
   -0.7602    3.9775    3.6885 C   0  0  0  0  0  0  0  0  0  0  0  0
    1.5356    4.5177    4.6256 C   0  0  0  0  0  0  0  0  0  0  0  0
    1.0684    5.5720    5.0644 O   0  0  0  0  0  0  0  0  0  0  0  0
    2.9455    4.0607    5.0096 C   0  0  0  0  0  0  0  0  0  0  0  0
    3.8630    4.8632    5.1701 O   0  0  0  0  0  0  0  0  0  0  0  0
    3.1403    2.5653    5.2349 C   0  0  0  0  0  0  0  0  0  0  0  0
    2.4612    1.6698    4.1647 C   0  0  1  0  0  0  0  0  0  0  0  0
    2.7311    0.1038    4.3901 C   0  0  1  0  0  0  0  0  0  0  0  0
    2.8011   -0.1994    5.9166 C   0  0  0  0  0  0  0  0  0  0  0  0
    4.1620   -0.1673    3.8219 C   0  0  0  0  0  0  0  0  0  0  0  0
    4.5351   -1.6258    3.4892 C   0  0  0  0  0  0  0  0  0  0  0  0
    3.5712   -2.3249    2.4891 C   0  0  2  0  0  0  0  0  0  0  0  0
    3.5452   -1.5309    1.1399 C   0  0  0  0  0  0  0  0  0  0  0  0
    4.0562   -3.8244    2.1344 C   0  0  1  0  0  0  0  0  0  0  0  0
    5.5764   -3.8095    1.7574 C   0  0  0  0  0  0  0  0  0  0  0  0
    3.2446   -4.4131    0.9384 C   0  0  0  0  0  0  0  0  0  0  0  0
    3.6567   -5.8332    0.5334 C   0  0  0  0  0  0  0  0  0  0  0  0
    3.7131   -6.8537    1.6606 C   0  0  1  0  0  0  0  0  0  0  0  0
    4.1328   -8.2158    1.1816 C   0  0  0  0  0  0  0  0  0  0  0  0
    2.7315   -8.0286    1.7264 C   0  0  1  0  0  0  0  0  0  0  0  0
    0.3049   -8.3172    3.2105 H   0  0  0  0  0  0  0  0  0  0  0  0
    0.7817   -9.8249    3.9850 H   0  0  0  0  0  0  0  0  0  0  0  0
    0.6069   -9.7563    2.2344 H   0  0  0  0  0  0  0  0  0  0  0  0
    2.9843   -9.7424    2.9236 H   0  0  0  0  0  0  0  0  0  0  0  0
    2.1030   -7.4416    4.6299 H   0  0  0  0  0  0  0  0  0  0  0  0
    3.0197   -8.8331    5.0547 H   0  0  0  0  0  0  0  0  0  0  0  0
    4.4414   -6.8034    5.0724 H   0  0  0  0  0  0  0  0  0  0  0  0
    5.0295   -8.0473    4.0282 H   0  0  0  0  0  0  0  0  0  0  0  0
    5.3955   -6.2311    2.7791 H   0  0  0  0  0  0  0  0  0  0  0  0
    4.5209   -4.5117    4.1277 H   0  0  0  0  0  0  0  0  0  0  0  0
    1.7172   -5.1828    3.1573 H   0  0  0  0  0  0  0  0  0  0  0  0
    2.3764   -5.3760    4.7629 H   0  0  0  0  0  0  0  0  0  0  0  0
    1.0208   -3.4817    4.6368 H   0  0  0  0  0  0  0  0  0  0  0  0
    2.6429   -3.1106    5.1645 H   0  0  0  0  0  0  0  0  0  0  0  0
    1.4333   -2.6024    2.4458 H   0  0  0  0  0  0  0  0  0  0  0  0
   -0.1076   -0.1551    4.9370 H   0  0  0  0  0  0  0  0  0  0  0  0
    0.6215   -1.5861    5.5293 H   0  0  0  0  0  0  0  0  0  0  0  0
   -0.3746   -1.6463    4.0811 H   0  0  0  0  0  0  0  0  0  0  0  0
    1.8776    0.2639    1.8054 H   0  0  0  0  0  0  0  0  0  0  0  0
    0.4206   -0.6668    1.8546 H   0  0  0  0  0  0  0  0  0  0  0  0
    0.2760    1.8628    1.8995 H   0  0  0  0  0  0  0  0  0  0  0  0
   -0.7099    1.0383    3.0651 H   0  0  0  0  0  0  0  0  0  0  0  0
    0.4534    1.8590    4.8933 H   0  0  0  0  0  0  0  0  0  0  0  0
    1.1308    3.8168    2.6954 H   0  0  0  0  0  0  0  0  0  0  0  0
   -0.8981    5.0248    3.4125 H   0  0  0  0  0  0  0  0  0  0  0  0
   -1.2137    3.8259    4.6717 H   0  0  0  0  0  0  0  0  0  0  0  0
   -1.3271    3.3946    2.9615 H   0  0  0  0  0  0  0  0  0  0  0  0
    4.2104    2.3671    5.2885 H   0  0  0  0  0  0  0  0  0  0  0  0
    2.7208    2.3606    6.2198 H   0  0  0  0  0  0  0  0  0  0  0  0
    2.9287    1.9567    3.2201 H   0  0  0  0  0  0  0  0  0  0  0  0
    3.6553    0.2739    6.3992 H   0  0  0  0  0  0  0  0  0  0  0  0
    2.9101   -1.2581    6.1268 H   0  0  0  0  0  0  0  0  0  0  0  0
    1.9156    0.1506    6.4458 H   0  0  0  0  0  0  0  0  0  0  0  0
    4.3501    0.4401    2.9421 H   0  0  0  0  0  0  0  0  0  0  0  0
    4.9064    0.2038    4.5275 H   0  0  0  0  0  0  0  0  0  0  0  0
    5.5492   -1.5997    3.0960 H   0  0  0  0  0  0  0  0  0  0  0  0
    4.6030   -2.1927    4.4161 H   0  0  0  0  0  0  0  0  0  0  0  0
    4.3059   -1.8385    0.4293 H   0  0  0  0  0  0  0  0  0  0  0  0
    3.7088   -0.4646    1.2229 H   0  0  0  0  0  0  0  0  0  0  0  0
    2.5965   -1.6663    0.6247 H   0  0  0  0  0  0  0  0  0  0  0  0
    5.8543   -3.0444    1.0388 H   0  0  0  0  0  0  0  0  0  0  0  0
    5.9260   -4.7397    1.3195 H   0  0  0  0  0  0  0  0  0  0  0  0
    6.2000   -3.6623    2.6364 H   0  0  0  0  0  0  0  0  0  0  0  0
    2.1810   -4.4094    1.1629 H   0  0  0  0  0  0  0  0  0  0  0  0
    3.3378   -3.8062    0.0408 H   0  0  0  0  0  0  0  0  0  0  0  0
    2.9488   -6.1883   -0.2129 H   0  0  0  0  0  0  0  0  0  0  0  0
    4.6179   -5.8153    0.0185 H   0  0  0  0  0  0  0  0  0  0  0  0
    4.2233   -8.3697    0.1091 H   0  0  0  0  0  0  0  0  0  0  0  0
    4.8481   -8.7791    1.7770 H   0  0  0  0  0  0  0  0  0  0  0  0
    1.9216   -8.0171    0.9977 H   0  0  0  0  0  0  0  0  0  0  0  0
  1  2  1  0
  1 36  1  0
  1 37  1  0
  1 38  1  0
  2 35  1  0
  2  3  1  0
  2 39  1  6
  3  4  1  0
  3 40  1  0
  3 41  1  0
  4  5  1  0
  4 42  1  0
  4 43  1  0
  5 33  1  0
  5  6  1  0
  5 44  1  6
  6 29  1  0
  6  7  1  0
  6 45  1  1
  7  8  1  0
  7 46  1  0
  7 47  1  0
  8  9  1  0
  8 48  1  0
  8 49  1  0
  9 27  1  0
  9 10  1  0
  9 50  1  6
 10 23  1  0
 10 11  1  1
 10 12  1  0
 11 51  1  0
 11 52  1  0
 11 53  1  0
 12 13  1  0
 12 54  1  0
 12 55  1  0
 13 14  1  0
 13 56  1  0
 13 57  1  0
 14 22  1  0
 14 15  1  0
 14 58  1  1
 15 16  1  0
 15 17  1  0
 15 59  1  6
 16 60  1  0
 16 61  1  0
 16 62  1  0
 17 18  2  0
 17 19  1  0
 19 20  2  0
 19 21  1  0
 21 22  1  0
 21 63  1  0
 21 64  1  0
 22 23  1  0
 22 65  1  6
 23 24  1  1
 23 25  1  0
 24 66  1  0
 24 67  1  0
 24 68  1  0
 25 26  1  0
 25 69  1  0
 25 70  1  0
 26 27  1  0
 26 71  1  0
 26 72  1  0
 27 28  1  6
 27 29  1  0
 28 73  1  0
 28 74  1  0
 28 75  1  0
 29 30  1  6
 29 31  1  0
 30 76  1  0
 30 77  1  0
 30 78  1  0
 31 32  1  0
 31 79  1  0
 31 80  1  0
 33 32  1  6
 32 81  1  0
 32 82  1  0
 33 35  1  0
 33 34  1  0
 34 35  1  0
 34 83  1  0
 34 84  1  0
 35 85  1  6
M  END
>  <i_m_ct_stereo_status>  (405) 
1

>  <s_m_source_file>  (405) 
/var/tmp/pbs.5076255.sched01/tmp7onimy_i/150cvk1qxg3.sdf

>  <i_m_source_file_index>  (405) 
36

>  <i_lp_mmshare_version>  (405) 
48012

>  <i_f3d_flags>  (405) 
0

>  <s_epik_input>  (405) 
W0NIMl0xW0NASF0yW0NASF0oW0NIM10pW0NIMl1bQ0gyXVtDQEBIXShbQ0BAXTEyMylbQ0BIXTRbQ0BAXShbQ0gzXSkoW0NIMl1bQ0gyXTMpW0NAQF01KFtDSDNdKVtDQEBIXShbQ0gyXVtDSDJdNClbQ0BAXTYoW0NIM10pW0NAQF0oW0NIM10pKFtDSDJdW0NIMl01KVtDQEhdN1tDQEhdKFtDSDJdW0NIMl02KVtDQEBIXShbQ0gzXSlDKD1PKUMoPU8pW0NIMl03

>  <s_epik_cmdline>  (405) 
J2VwaWtfcHl0aG9uJywgJy1waHQnLCAnMi4wJywgJy1waCcsICc3LjAnLCAnLXRuJywgJzgnLCAnLW1hJywgJzIwMCcsICctaW1hZScsICc8aW5maWxlLm1hZT4nLCAnLW9tYWUnLCAnPG91dGZpbGUubWFlPic=

>  <r_lp_tautomer_probability>  (405) 
1

>  <r_epik_Ionization_Penalty>  (405) 
0

>  <r_epik_Ionization_Penalty_Charging>  (405) 
0

>  <r_epik_Ionization_Penalty_Neutral>  (405) 
0

>  <r_epik_State_Penalty>  (405) 
-0

>  <r_epik_Charging_Adjusted_Penalty>  (405) 
0

>  <i_epik_Tot_Q>  (405) 
0

>  <i_epik_Tot_abs_Q>  (405) 
0

>  <s_lp_Force_Field>  (405) 
OPLS3e

>  <r_lp_Energy>  (405) 
115.786

>  <b_lp_Chiralities_Consistent>  (405) 
1

>  <s_lp_Variant>  (405) 
108:0-1

>  <s_i_glide_gridfile>  (405) 
pfpi4k_grid

>  <i_i_glide_lignum>  (405) 
36

>  <i_i_glide_rotatable_bonds>  (405) 
0

>  <r_i_docking_score>  (405) 
-2.17424

>  <r_i_glide_ligand_efficiency>  (405) 
-0.0621211

>  <r_i_glide_ligand_efficiency_sa>  (405) 
-0.203202

>  <r_i_glide_ligand_efficiency_ln>  (405) 
-0.477294

>  <r_i_glide_gscore>  (405) 
-2.17424

>  <r_i_glide_lipo>  (405) 
-0.17257

>  <r_i_glide_hbond>  (405) 
0

>  <r_i_glide_metal>  (405) 
-0

>  <r_i_glide_rewards>  (405) 
-0.144894

>  <r_i_glide_evdw>  (405) 
-31.6263

>  <r_i_glide_ecoul>  (405) 
-1.69113

>  <r_i_glide_erotb>  (405) 
0

>  <r_i_glide_esite>  (405) 
-0.0217919

>  <r_i_glide_emodel>  (405) 
-37.7069

>  <r_i_glide_energy>  (405) 
-33.3174

>  <r_i_glide_einternal>  (405) 
0

>  <r_i_glide_intrahb_reward>  (405) 
-0

>  <i_i_glide_confnum>  (405) 
1

>  <i_i_glide_posenum>  (405) 
1

>  <r_i_glide_eff_state_penalty>  (405) 
0

>  <ligand_id>  (405) 
108

>  <original_smiles>  (405) 
CC1CCC2C3CCC4C5(C)CCC6C(C)C(=O)C(=O)CC6C5(C)CCC4(C)C3(C)CCC23CC13

>  <smiles>  (405) 
[H]C([H])([H])C1([H])C(=O)C(=O)C([H])([H])C2([H])C1([H])C([H])([H])C([H])([H])C1(C([H])([H])[H])C3([H])C([H])([H])C([H])([H])C4([H])C5([H])C([H])([H])C([H])([H])C([H])(C([H])([H])[H])C6([H])C([H])([H])C65C([H])([H])C([H])([H])C4(C([H])([H])[H])C3(C([H])([H])[H])C([H])([H])C([H])([H])C21C([H])([H])[H]

$$$$
108:0:1
     RDKit          3D

 85 91  0  0  1  0  0  0  0  0999 V2000
   -0.1724    1.5219    1.7679 C   0  0  0  0  0  0  0  0  0  0  0  0
    0.4145    1.5890    3.1739 C   0  0  2  0  0  0  0  0  0  0  0  0
    1.8440    1.0218    3.1879 C   0  0  0  0  0  0  0  0  0  0  0  0
    2.3874    0.6571    4.5853 C   0  0  0  0  0  0  0  0  0  0  0  0
    1.4950   -0.2777    5.4460 C   0  0  2  0  0  0  0  0  0  0  0  0
    1.7914   -1.8118    5.2721 C   0  0  2  0  0  0  0  0  0  0  0  0
    1.6714   -2.2791    3.8187 C   0  0  0  0  0  0  0  0  0  0  0  0
    2.0518   -3.7427    3.6481 C   0  0  0  0  0  0  0  0  0  0  0  0
    1.2430   -4.7534    4.5124 C   0  0  1  0  0  0  0  0  0  0  0  0
    1.6237   -6.2903    4.2147 C   0  0  2  0  0  0  0  0  0  0  0  0
    1.8840   -6.4244    2.6743 C   0  0  0  0  0  0  0  0  0  0  0  0
    0.3855   -7.1895    4.4832 C   0  0  0  0  0  0  0  0  0  0  0  0
    0.5316   -8.6526    4.0213 C   0  0  0  0  0  0  0  0  0  0  0  0
    1.9350   -9.2653    4.2704 C   0  0  2  0  0  0  0  0  0  0  0  0
    1.7765  -10.7826    4.5903 C   0  0  1  0  0  0  0  0  0  0  0  0
    1.1682  -11.5523    3.4012 C   0  0  0  0  0  0  0  0  0  0  0  0
    3.0799  -11.4454    5.0731 C   0  0  0  0  0  0  0  0  0  0  0  0
    3.4265  -12.5757    4.7284 O   0  0  0  0  0  0  0  0  0  0  0  0
    3.9733  -10.6135    5.9948 C   0  0  0  0  0  0  0  0  0  0  0  0
    4.6264  -11.1243    6.9026 O   0  0  0  0  0  0  0  0  0  0  0  0
    4.0743   -9.1297    5.6746 C   0  0  0  0  0  0  0  0  0  0  0  0
    2.7164   -8.4547    5.3457 C   0  0  1  0  0  0  0  0  0  0  0  0
    2.8464   -6.8792    5.0751 C   0  0  1  0  0  0  0  0  0  0  0  0
    4.2058   -6.5827    4.3724 C   0  0  0  0  0  0  0  0  0  0  0  0
    2.9266   -6.2124    6.4861 C   0  0  0  0  0  0  0  0  0  0  0  0
    2.6161   -4.7057    6.5821 C   0  0  0  0  0  0  0  0  0  0  0  0
    1.2218   -4.2973    6.0275 C   0  0  2  0  0  0  0  0  0  0  0  0
    0.0977   -5.0550    6.8104 C   0  0  0  0  0  0  0  0  0  0  0  0
    0.9374   -2.7190    6.2187 C   0  0  1  0  0  0  0  0  0  0  0  0
    1.2639   -2.3025    7.6933 C   0  0  0  0  0  0  0  0  0  0  0  0
   -0.5524   -2.3724    5.9047 C   0  0  0  0  0  0  0  0  0  0  0  0
   -0.9056   -0.8903    6.0721 C   0  0  0  0  0  0  0  0  0  0  0  0
    0.0068    0.0904    5.3613 C   0  0  1  0  0  0  0  0  0  0  0  0
   -0.4057    1.5179    5.5942 C   0  0  0  0  0  0  0  0  0  0  0  0
   -0.4995    0.9427    4.2001 C   0  0  1  0  0  0  0  0  0  0  0  0
   -0.2383    0.5005    1.3943 H   0  0  0  0  0  0  0  0  0  0  0  0
    0.4614    2.0852    1.0838 H   0  0  0  0  0  0  0  0  0  0  0  0
   -1.1638    1.9681    1.7313 H   0  0  0  0  0  0  0  0  0  0  0  0
    0.4798    2.6470    3.4381 H   0  0  0  0  0  0  0  0  0  0  0  0
    1.8952    0.1777    2.5058 H   0  0  0  0  0  0  0  0  0  0  0  0
    2.5054    1.7671    2.7454 H   0  0  0  0  0  0  0  0  0  0  0  0
    3.3793    0.2203    4.4725 H   0  0  0  0  0  0  0  0  0  0  0  0
    2.5516    1.5900    5.1270 H   0  0  0  0  0  0  0  0  0  0  0  0
    1.8059   -0.0397    6.4628 H   0  0  0  0  0  0  0  0  0  0  0  0
    2.8387   -1.9460    5.5469 H   0  0  0  0  0  0  0  0  0  0  0  0
    0.6775   -2.0841    3.4083 H   0  0  0  0  0  0  0  0  0  0  0  0
    2.3746   -1.7267    3.2045 H   0  0  0  0  0  0  0  0  0  0  0  0
    1.9022   -3.9237    2.5857 H   0  0  0  0  0  0  0  0  0  0  0  0
    3.1191   -3.8278    3.8336 H   0  0  0  0  0  0  0  0  0  0  0  0
    0.2254   -4.6286    4.1465 H   0  0  0  0  0  0  0  0  0  0  0  0
    2.0794   -7.4373    2.3355 H   0  0  0  0  0  0  0  0  0  0  0  0
    2.7521   -5.8640    2.3275 H   0  0  0  0  0  0  0  0  0  0  0  0
    1.0208   -6.0764    2.1063 H   0  0  0  0  0  0  0  0  0  0  0  0
    0.1878   -7.2510    5.5439 H   0  0  0  0  0  0  0  0  0  0  0  0
   -0.5116   -6.7640    4.0306 H   0  0  0  0  0  0  0  0  0  0  0  0
   -0.2305   -9.2409    4.5393 H   0  0  0  0  0  0  0  0  0  0  0  0
    0.2902   -8.7358    2.9630 H   0  0  0  0  0  0  0  0  0  0  0  0
    2.5181   -9.2147    3.3509 H   0  0  0  0  0  0  0  0  0  0  0  0
    1.0822  -10.8857    5.4248 H   0  0  0  0  0  0  0  0  0  0  0  0
    0.9651  -12.5891    3.6674 H   0  0  0  0  0  0  0  0  0  0  0  0
    1.8523  -11.5531    2.5492 H   0  0  0  0  0  0  0  0  0  0  0  0
    0.2179  -11.1372    3.0708 H   0  0  0  0  0  0  0  0  0  0  0  0
    4.5627   -8.6402    6.5166 H   0  0  0  0  0  0  0  0  0  0  0  0
    4.7470   -9.0648    4.8193 H   0  0  0  0  0  0  0  0  0  0  0  0
    2.1092   -8.5922    6.2433 H   0  0  0  0  0  0  0  0  0  0  0  0
    5.0632   -6.8015    5.0078 H   0  0  0  0  0  0  0  0  0  0  0  0
    4.3162   -5.5383    4.1009 H   0  0  0  0  0  0  0  0  0  0  0  0
    4.3376   -7.1731    3.4662 H   0  0  0  0  0  0  0  0  0  0  0  0
    2.2974   -6.7365    7.1996 H   0  0  0  0  0  0  0  0  0  0  0  0
    3.9248   -6.3635    6.8978 H   0  0  0  0  0  0  0  0  0  0  0  0
    2.7095   -4.4424    7.6341 H   0  0  0  0  0  0  0  0  0  0  0  0
    3.4070   -4.1521    6.0796 H   0  0  0  0  0  0  0  0  0  0  0  0
   -0.2426   -4.5406    7.7040 H   0  0  0  0  0  0  0  0  0  0  0  0
    0.3752   -6.0304    7.1875 H   0  0  0  0  0  0  0  0  0  0  0  0
   -0.7872   -5.1920    6.1915 H   0  0  0  0  0  0  0  0  0  0  0  0
    0.8359   -2.9530    8.4503 H   0  0  0  0  0  0  0  0  0  0  0  0
    0.9169   -1.3072    7.9542 H   0  0  0  0  0  0  0  0  0  0  0  0
    2.3386   -2.2779    7.8689 H   0  0  0  0  0  0  0  0  0  0  0  0
   -0.8101   -2.6771    4.8921 H   0  0  0  0  0  0  0  0  0  0  0  0
   -1.2405   -2.9233    6.5410 H   0  0  0  0  0  0  0  0  0  0  0  0
   -1.9192   -0.7378    5.7071 H   0  0  0  0  0  0  0  0  0  0  0  0
   -0.9269   -0.6231    7.1284 H   0  0  0  0  0  0  0  0  0  0  0  0
   -1.3448    1.7000    6.1107 H   0  0  0  0  0  0  0  0  0  0  0  0
    0.3695    2.2550    5.7958 H   0  0  0  0  0  0  0  0  0  0  0  0
   -1.5000    0.7125    3.8348 H   0  0  0  0  0  0  0  0  0  0  0  0
  1  2  1  0
  1 36  1  0
  1 37  1  0
  1 38  1  0
  2 35  1  0
  2  3  1  0
  2 39  1  1
  3  4  1  0
  3 40  1  0
  3 41  1  0
  4  5  1  0
  4 42  1  0
  4 43  1  0
  5 33  1  0
  5  6  1  0
  5 44  1  1
  6 29  1  0
  6  7  1  0
  6 45  1  1
  7  8  1  0
  7 46  1  0
  7 47  1  0
  8  9  1  0
  8 48  1  0
  8 49  1  0
  9 27  1  0
  9 10  1  0
  9 50  1  6
 10 23  1  0
 10 11  1  6
 10 12  1  0
 11 51  1  0
 11 52  1  0
 11 53  1  0
 12 13  1  0
 12 54  1  0
 12 55  1  0
 13 14  1  0
 13 56  1  0
 13 57  1  0
 14 22  1  0
 14 15  1  0
 14 58  1  6
 15 16  1  0
 15 17  1  0
 15 59  1  1
 16 60  1  0
 16 61  1  0
 16 62  1  0
 17 18  2  0
 17 19  1  0
 19 20  2  0
 19 21  1  0
 21 22  1  0
 21 63  1  0
 21 64  1  0
 22 23  1  0
 22 65  1  1
 23 24  1  6
 23 25  1  0
 24 66  1  0
 24 67  1  0
 24 68  1  0
 25 26  1  0
 25 69  1  0
 25 70  1  0
 26 27  1  0
 26 71  1  0
 26 72  1  0
 27 28  1  1
 27 29  1  0
 28 73  1  0
 28 74  1  0
 28 75  1  0
 29 30  1  1
 29 31  1  0
 30 76  1  0
 30 77  1  0
 30 78  1  0
 31 32  1  0
 31 79  1  0
 31 80  1  0
 33 32  1  1
 32 81  1  0
 32 82  1  0
 33 35  1  0
 33 34  1  0
 34 35  1  0
 34 83  1  0
 34 84  1  0
 35 85  1  6
M  END
>  <i_m_ct_stereo_status>  (406) 
1

>  <s_m_source_file>  (406) 
/var/tmp/pbs.5076255.sched01/tmp7onimy_i/150cvk1qxg3.sdf

>  <i_m_source_file_index>  (406) 
36

>  <i_lp_mmshare_version>  (406) 
48012

>  <i_f3d_flags>  (406) 
0

>  <s_epik_input>  (406) 
W0NIMl0xW0NASF0yW0NASF0oW0NIM10pW0NIMl1bQ0gyXVtDQEBIXShbQ0BAXTEyMylbQ0BIXTRbQ0BAXShbQ0gzXSkoW0NIMl1bQ0gyXTMpW0NAQF01KFtDSDNdKVtDQEBIXShbQ0gyXVtDSDJdNClbQ0BAXTYoW0NIM10pW0NAQF0oW0NIM10pKFtDSDJdW0NIMl01KVtDQEhdN1tDQEhdKFtDSDJdW0NIMl02KVtDQEBIXShbQ0gzXSlDKD1PKUMoPU8pW0NIMl03

>  <s_epik_cmdline>  (406) 
J2VwaWtfcHl0aG9uJywgJy1waHQnLCAnMi4wJywgJy1waCcsICc3LjAnLCAnLXRuJywgJzgnLCAnLW1hJywgJzIwMCcsICctaW1hZScsICc8aW5maWxlLm1hZT4nLCAnLW9tYWUnLCAnPG91dGZpbGUubWFlPic=

>  <r_lp_tautomer_probability>  (406) 
1

>  <r_epik_Ionization_Penalty>  (406) 
0

>  <r_epik_Ionization_Penalty_Charging>  (406) 
0

>  <r_epik_Ionization_Penalty_Neutral>  (406) 
0

>  <r_epik_State_Penalty>  (406) 
-0

>  <r_epik_Charging_Adjusted_Penalty>  (406) 
0

>  <i_epik_Tot_Q>  (406) 
0

>  <i_epik_Tot_abs_Q>  (406) 
0

>  <s_lp_Force_Field>  (406) 
OPLS3e

>  <r_lp_Energy>  (406) 
115.786

>  <b_lp_Chiralities_Consistent>  (406) 
1

>  <s_lp_Variant>  (406) 
108:0-1

>  <s_i_glide_gridfile>  (406) 
pfpi4k_grid

>  <i_i_glide_lignum>  (406) 
36

>  <i_i_glide_rotatable_bonds>  (406) 
0

>  <r_i_docking_score>  (406) 
-1.74996

>  <r_i_glide_ligand_efficiency>  (406) 
-0.0499989

>  <r_i_glide_ligand_efficiency_sa>  (406) 
-0.16355

>  <r_i_glide_ligand_efficiency_ln>  (406) 
-0.384155

>  <r_i_glide_gscore>  (406) 
-1.74996

>  <r_i_glide_lipo>  (406) 
-0.19246

>  <r_i_glide_hbond>  (406) 
0

>  <r_i_glide_metal>  (406) 
-0

>  <r_i_glide_rewards>  (406) 
-0.144894

>  <r_i_glide_evdw>  (406) 
-26.8629

>  <r_i_glide_ecoul>  (406) 
0.181123

>  <r_i_glide_erotb>  (406) 
0

>  <r_i_glide_esite>  (406) 
-0.0966292

>  <r_i_glide_emodel>  (406) 
-30.1285

>  <r_i_glide_energy>  (406) 
-26.6818

>  <r_i_glide_einternal>  (406) 
0

>  <r_i_glide_intrahb_reward>  (406) 
-0

>  <i_i_glide_confnum>  (406) 
1

>  <i_i_glide_posenum>  (406) 
2

>  <r_i_glide_eff_state_penalty>  (406) 
0

>  <ligand_id>  (406) 
108

>  <original_smiles>  (406) 
CC1CCC2C3CCC4C5(C)CCC6C(C)C(=O)C(=O)CC6C5(C)CCC4(C)C3(C)CCC23CC13

>  <smiles>  (406) 
[H]C([H])([H])C1([H])C(=O)C(=O)C([H])([H])C2([H])C1([H])C([H])([H])C([H])([H])C1(C([H])([H])[H])C3([H])C([H])([H])C([H])([H])C4([H])C5([H])C([H])([H])C([H])([H])C([H])(C([H])([H])[H])C6([H])C([H])([H])C65C([H])([H])C([H])([H])C4(C([H])([H])[H])C3(C([H])([H])[H])C([H])([H])C([H])([H])C21C([H])([H])[H]

$$$$
110:0:0
     RDKit          3D

 37 40  0  0  1  0  0  0  0  0999 V2000
    0.6671  -10.0174    6.0561 N   0  0  0  0  0  0  0  0  0  0  0  0
    0.4220   -8.6652    6.2110 C   0  0  0  0  0  0  0  0  0  0  0  0
    0.6197   -7.9862    7.3323 N   0  0  0  0  0  0  0  0  0  0  0  0
    0.2376   -6.7456    6.9023 C   0  0  0  0  0  0  0  0  0  0  0  0
    0.2732   -5.5903    7.8182 C   0  0  0  0  0  0  0  0  0  0  0  0
    1.1807   -5.5501    8.9026 C   0  0  0  0  0  0  0  0  0  0  0  0
    1.1949   -4.4302    9.7540 C   0  0  0  0  0  0  0  0  0  0  0  0
    0.2953   -3.3852    9.4977 C   0  0  0  0  0  0  0  0  0  0  0  0
   -0.5863   -3.3982    8.4764 N   0  0  0  0  0  0  0  0  0  0  0  0
   -0.5859   -4.4787    7.6613 C   0  0  0  0  0  0  0  0  0  0  0  0
   -0.1763   -6.6377    5.6403 N   0  0  0  0  0  0  0  0  0  0  0  0
   -0.0626   -7.9200    5.1989 N   0  0  0  0  0  0  0  0  0  0  0  0
   -0.4222   -8.2816    3.8389 C   0  0  0  0  0  0  0  0  0  0  0  0
    0.7761   -8.2764    2.9526 C   0  0  0  0  0  0  0  0  0  0  0  0
    1.6719   -9.2649    2.6716 C   0  0  0  0  0  0  0  0  0  0  0  0
    2.5662   -8.6584    1.8138 N   0  0  0  0  0  0  0  0  0  0  0  0
    3.7779   -9.2175    1.2102 C   0  0  0  0  0  0  0  0  0  0  0  0
    5.0206   -8.3736    1.3570 C   0  0  0  0  0  0  0  0  0  0  0  0
    5.1585   -7.0115    1.2464 C   0  0  0  0  0  0  0  0  0  0  0  0
    6.4569   -6.5382    1.4547 N   0  0  0  0  0  0  0  0  0  0  0  0
    7.3079   -7.5314    1.6928 C   0  0  0  0  0  0  0  0  0  0  0  0
    6.5660   -9.1238    1.6810 S   0  0  0  0  0  0  0  0  0  0  0  0
    2.1633   -7.3976    1.5200 N   0  0  0  0  0  0  0  0  0  0  0  0
    1.1098   -7.1457    2.2219 N   0  0  0  0  0  0  0  0  0  0  0  0
    0.4036  -10.5140    5.2157 H   0  0  0  0  0  0  0  0  0  0  0  0
    0.9970  -10.5967    6.8300 H   0  0  0  0  0  0  0  0  0  0  0  0
    1.8640   -6.3695    9.0714 H   0  0  0  0  0  0  0  0  0  0  0  0
    1.8853   -4.3731   10.5800 H   0  0  0  0  0  0  0  0  0  0  0  0
    0.2779   -2.5072   10.1251 H   0  0  0  0  0  0  0  0  0  0  0  0
   -1.3131   -4.4516    6.8633 H   0  0  0  0  0  0  0  0  0  0  0  0
   -1.1532   -7.5642    3.4697 H   0  0  0  0  0  0  0  0  0  0  0  0
   -0.9087   -9.2548    3.8256 H   0  0  0  0  0  0  0  0  0  0  0  0
    1.7453  -10.2887    2.9990 H   0  0  0  0  0  0  0  0  0  0  0  0
    3.9557  -10.1916    1.6635 H   0  0  0  0  0  0  0  0  0  0  0  0
    3.5796   -9.4183    0.1584 H   0  0  0  0  0  0  0  0  0  0  0  0
    4.3919   -6.2827    1.0338 H   0  0  0  0  0  0  0  0  0  0  0  0
    8.3522   -7.3103    1.8681 H   0  0  0  0  0  0  0  0  0  0  0  0
  1  2  1  0
  1 26  1  0
  1 25  1  0
  2 12  1  0
  2  3  2  0
  3  4  1  0
  4  5  1  0
  4 11  2  0
  5 10  1  0
  5  6  2  0
  6  7  1  0
  6 27  1  0
  7  8  2  0
  7 28  1  0
  8  9  1  0
  8 29  1  0
  9 10  2  0
 10 30  1  0
 11 12  1  0
 12 13  1  0
 13 14  1  0
 13 31  1  0
 13 32  1  0
 14 24  1  0
 14 15  2  0
 15 16  1  0
 15 33  1  0
 16 17  1  0
 16 23  1  0
 17 18  1  0
 17 34  1  0
 17 35  1  0
 18 22  1  0
 18 19  2  0
 19 20  1  0
 19 36  1  0
 20 21  2  0
 21 22  1  0
 21 37  1  0
 23 24  2  0
M  END
>  <i_m_ct_stereo_status>  (407) 
1

>  <s_m_source_file>  (407) 
/var/tmp/pbs.5076255.sched01/tmp7onimy_i/150cvk1qxg3.sdf

>  <i_m_source_file_index>  (407) 
38

>  <i_lp_mmshare_version>  (407) 
48012

>  <i_f3d_flags>  (407) 
0

>  <s_epik_input>  (407) 
W2NIXTFuW2NIXVtjSF1bY0hdYzEtYyhbbkhdL2MyPU5cW0hdKW5uMltDSDJdYzNbY0hdbihubjMpW0NIMl1jNFtjSF1uW2NIXXM0

>  <s_epik_cmdline>  (407) 
J2VwaWtfcHl0aG9uJywgJy1waHQnLCAnMi4wJywgJy1waCcsICc3LjAnLCAnLXRuJywgJzgnLCAnLW1hJywgJzIwMCcsICctaW1hZScsICc8aW5maWxlLm1hZT4nLCAnLW9tYWUnLCAnPG91dGZpbGUubWFlPic=

>  <r_lp_tautomer_probability>  (407) 
1

>  <r_epik_Ionization_Penalty>  (407) 
0.000550246

>  <r_epik_Ionization_Penalty_Charging>  (407) 
0

>  <r_epik_Ionization_Penalty_Neutral>  (407) 
0.000550246

>  <r_epik_State_Penalty>  (407) 
-0

>  <r_epik_Charging_Adjusted_Penalty>  (407) 
0

>  <i_epik_Tot_Q>  (407) 
0

>  <i_epik_Tot_abs_Q>  (407) 
0

>  <s_lp_Force_Field>  (407) 
OPLS3e

>  <r_lp_Energy>  (407) 
19.1433

>  <b_lp_Chiralities_Consistent>  (407) 
1

>  <s_lp_Variant>  (407) 
110:0-1

>  <s_i_glide_gridfile>  (407) 
pfpi4k_grid

>  <i_i_glide_lignum>  (407) 
38

>  <i_i_glide_rotatable_bonds>  (407) 
5

>  <r_i_docking_score>  (407) 
-3.37677

>  <r_i_glide_ligand_efficiency>  (407) 
-0.140699

>  <r_i_glide_ligand_efficiency_sa>  (407) 
-0.405845

>  <r_i_glide_ligand_efficiency_ln>  (407) 
-0.808215

>  <r_i_glide_gscore>  (407) 
-3.37677

>  <r_i_glide_lipo>  (407) 
-0.267433

>  <r_i_glide_hbond>  (407) 
-0.285071

>  <r_i_glide_metal>  (407) 
-0

>  <r_i_glide_rewards>  (407) 
-1.09514

>  <r_i_glide_evdw>  (407) 
-26.0347

>  <r_i_glide_ecoul>  (407) 
-6.66643

>  <r_i_glide_erotb>  (407) 
0.821507

>  <r_i_glide_esite>  (407) 
-0.248926

>  <r_i_glide_emodel>  (407) 
-40.1511

>  <r_i_glide_energy>  (407) 
-32.7012

>  <r_i_glide_einternal>  (407) 
1.46595

>  <r_i_glide_intrahb_reward>  (407) 
-0

>  <i_i_glide_confnum>  (407) 
1

>  <i_i_glide_posenum>  (407) 
29

>  <r_i_glide_eff_state_penalty>  (407) 
0

>  <ligand_id>  (407) 
110

>  <original_smiles>  (407) 
N=c1[nH]c(-c2cccnc2)nn1Cc1cn(Cc2cncs2)nn1

>  <smiles>  (407) 
[H]c1nc([H])c(C([H])([H])n2nnc(C([H])([H])n3nc(-c4c([H])nc([H])c([H])c4[H])nc3N([H])[H])c2[H])s1

$$$$
110:0:1
     RDKit          3D

 37 40  0  0  1  0  0  0  0  0999 V2000
    0.6209   -9.8498    6.1257 N   0  0  0  0  0  0  0  0  0  0  0  0
    0.4055   -8.4865    6.2606 C   0  0  0  0  0  0  0  0  0  0  0  0
    0.7076   -7.7704    7.3378 N   0  0  0  0  0  0  0  0  0  0  0  0
    0.3177   -6.5344    6.9016 C   0  0  0  0  0  0  0  0  0  0  0  0
    0.4706   -5.3419    7.7640 C   0  0  0  0  0  0  0  0  0  0  0  0
    1.4106   -5.3237    8.8179 C   0  0  0  0  0  0  0  0  0  0  0  0
    1.5345   -4.1724    9.6203 C   0  0  0  0  0  0  0  0  0  0  0  0
    0.7048   -3.0726    9.3451 C   0  0  0  0  0  0  0  0  0  0  0  0
   -0.2072   -3.0639    8.3529 N   0  0  0  0  0  0  0  0  0  0  0  0
   -0.3073   -4.1734    7.5823 C   0  0  0  0  0  0  0  0  0  0  0  0
   -0.2012   -6.4579    5.6771 N   0  0  0  0  0  0  0  0  0  0  0  0
   -0.1593   -7.7591    5.2763 N   0  0  0  0  0  0  0  0  0  0  0  0
   -0.6613   -8.1465    3.9710 C   0  0  0  0  0  0  0  0  0  0  0  0
    0.4528   -8.2433    2.9846 C   0  0  0  0  0  0  0  0  0  0  0  0
    1.4134   -9.1989    2.8306 C   0  0  0  0  0  0  0  0  0  0  0  0
    2.1820   -8.7218    1.7866 N   0  0  0  0  0  0  0  0  0  0  0  0
    3.3788   -9.3242    1.1945 C   0  0  0  0  0  0  0  0  0  0  0  0
    4.6241   -8.4826    1.2829 C   0  0  0  0  0  0  0  0  0  0  0  0
    5.8765   -8.8932    1.6832 C   0  0  0  0  0  0  0  0  0  0  0  0
    6.8325   -7.8677    1.6836 N   0  0  0  0  0  0  0  0  0  0  0  0
    6.3197   -6.7027    1.2814 C   0  0  0  0  0  0  0  0  0  0  0  0
    4.6364   -6.7962    0.8166 S   0  0  0  0  0  0  0  0  0  0  0  0
    1.6559   -7.5718    1.2912 N   0  0  0  0  0  0  0  0  0  0  0  0
    0.6360   -7.2618    2.0187 N   0  0  0  0  0  0  0  0  0  0  0  0
    0.2612  -10.3696    5.3368 H   0  0  0  0  0  0  0  0  0  0  0  0
    1.0015  -10.4215    6.8810 H   0  0  0  0  0  0  0  0  0  0  0  0
    2.0379   -6.1833    9.0093 H   0  0  0  0  0  0  0  0  0  0  0  0
    2.2508   -4.1358   10.4239 H   0  0  0  0  0  0  0  0  0  0  0  0
    0.7752   -2.1729    9.9369 H   0  0  0  0  0  0  0  0  0  0  0  0
   -1.0514   -4.1212    6.8013 H   0  0  0  0  0  0  0  0  0  0  0  0
   -1.3863   -7.4077    3.6365 H   0  0  0  0  0  0  0  0  0  0  0  0
   -1.1938   -9.0923    4.0436 H   0  0  0  0  0  0  0  0  0  0  0  0
    1.6091  -10.1201    3.3578 H   0  0  0  0  0  0  0  0  0  0  0  0
    3.5548  -10.2752    1.6989 H   0  0  0  0  0  0  0  0  0  0  0  0
    3.1753   -9.5819    0.1555 H   0  0  0  0  0  0  0  0  0  0  0  0
    6.1717   -9.8863    2.0002 H   0  0  0  0  0  0  0  0  0  0  0  0
    6.9222   -5.8054    1.2274 H   0  0  0  0  0  0  0  0  0  0  0  0
  1  2  1  0
  1 26  1  0
  1 25  1  0
  2 12  1  0
  2  3  2  0
  3  4  1  0
  4  5  1  0
  4 11  2  0
  5 10  1  0
  5  6  2  0
  6  7  1  0
  6 27  1  0
  7  8  2  0
  7 28  1  0
  8  9  1  0
  8 29  1  0
  9 10  2  0
 10 30  1  0
 11 12  1  0
 12 13  1  0
 13 14  1  0
 13 31  1  0
 13 32  1  0
 14 24  1  0
 14 15  2  0
 15 16  1  0
 15 33  1  0
 16 17  1  0
 16 23  1  0
 17 18  1  0
 17 34  1  0
 17 35  1  0
 18 22  1  0
 18 19  2  0
 19 20  1  0
 19 36  1  0
 20 21  2  0
 21 22  1  0
 21 37  1  0
 23 24  2  0
M  END
>  <i_m_ct_stereo_status>  (408) 
1

>  <s_m_source_file>  (408) 
/var/tmp/pbs.5076255.sched01/tmp7onimy_i/150cvk1qxg3.sdf

>  <i_m_source_file_index>  (408) 
38

>  <i_lp_mmshare_version>  (408) 
48012

>  <i_f3d_flags>  (408) 
0

>  <s_epik_input>  (408) 
W2NIXTFuW2NIXVtjSF1bY0hdYzEtYyhbbkhdL2MyPU5cW0hdKW5uMltDSDJdYzNbY0hdbihubjMpW0NIMl1jNFtjSF1uW2NIXXM0

>  <s_epik_cmdline>  (408) 
J2VwaWtfcHl0aG9uJywgJy1waHQnLCAnMi4wJywgJy1waCcsICc3LjAnLCAnLXRuJywgJzgnLCAnLW1hJywgJzIwMCcsICctaW1hZScsICc8aW5maWxlLm1hZT4nLCAnLW9tYWUnLCAnPG91dGZpbGUubWFlPic=

>  <r_lp_tautomer_probability>  (408) 
1

>  <r_epik_Ionization_Penalty>  (408) 
0.000550246

>  <r_epik_Ionization_Penalty_Charging>  (408) 
0

>  <r_epik_Ionization_Penalty_Neutral>  (408) 
0.000550246

>  <r_epik_State_Penalty>  (408) 
-0

>  <r_epik_Charging_Adjusted_Penalty>  (408) 
0

>  <i_epik_Tot_Q>  (408) 
0

>  <i_epik_Tot_abs_Q>  (408) 
0

>  <s_lp_Force_Field>  (408) 
OPLS3e

>  <r_lp_Energy>  (408) 
19.1433

>  <b_lp_Chiralities_Consistent>  (408) 
1

>  <s_lp_Variant>  (408) 
110:0-1

>  <s_i_glide_gridfile>  (408) 
pfpi4k_grid

>  <i_i_glide_lignum>  (408) 
38

>  <i_i_glide_rotatable_bonds>  (408) 
5

>  <r_i_docking_score>  (408) 
-3.25718

>  <r_i_glide_ligand_efficiency>  (408) 
-0.135716

>  <r_i_glide_ligand_efficiency_sa>  (408) 
-0.391472

>  <r_i_glide_ligand_efficiency_ln>  (408) 
-0.779592

>  <r_i_glide_gscore>  (408) 
-3.25718

>  <r_i_glide_lipo>  (408) 
-0.266138

>  <r_i_glide_hbond>  (408) 
-0.240541

>  <r_i_glide_metal>  (408) 
-0

>  <r_i_glide_rewards>  (408) 
-1.09514

>  <r_i_glide_evdw>  (408) 
-26.6991

>  <r_i_glide_ecoul>  (408) 
-5.89161

>  <r_i_glide_erotb>  (408) 
0.821507

>  <r_i_glide_esite>  (408) 
-0.25817

>  <r_i_glide_emodel>  (408) 
-39.6414

>  <r_i_glide_energy>  (408) 
-32.5907

>  <r_i_glide_einternal>  (408) 
1.37455

>  <r_i_glide_intrahb_reward>  (408) 
-0

>  <i_i_glide_confnum>  (408) 
4

>  <i_i_glide_posenum>  (408) 
20

>  <r_i_glide_eff_state_penalty>  (408) 
0

>  <ligand_id>  (408) 
110

>  <original_smiles>  (408) 
N=c1[nH]c(-c2cccnc2)nn1Cc1cn(Cc2cncs2)nn1

>  <smiles>  (408) 
[H]c1nc([H])c(C([H])([H])n2nnc(C([H])([H])n3nc(-c4c([H])nc([H])c([H])c4[H])nc3N([H])[H])c2[H])s1

$$$$
110:0:2
     RDKit          3D

 37 40  0  0  1  0  0  0  0  0999 V2000
    3.2567   -9.4325    1.6533 N   0  0  0  0  0  0  0  0  0  0  0  0
    3.7210   -8.1487    1.4205 C   0  0  0  0  0  0  0  0  0  0  0  0
    5.0011   -7.8224    1.3028 N   0  0  0  0  0  0  0  0  0  0  0  0
    4.8652   -6.4784    1.0880 C   0  0  0  0  0  0  0  0  0  0  0  0
    6.0426   -5.6053    0.9034 C   0  0  0  0  0  0  0  0  0  0  0  0
    7.3355   -6.0420    1.2662 C   0  0  0  0  0  0  0  0  0  0  0  0
    8.4359   -5.1901    1.0700 C   0  0  0  0  0  0  0  0  0  0  0  0
    8.2112   -3.9197    0.5115 C   0  0  0  0  0  0  0  0  0  0  0  0
    6.9892   -3.4775    0.1605 N   0  0  0  0  0  0  0  0  0  0  0  0
    5.9366   -4.3021    0.3571 C   0  0  0  0  0  0  0  0  0  0  0  0
    3.6260   -5.9912    1.0660 N   0  0  0  0  0  0  0  0  0  0  0  0
    2.8806   -7.1084    1.2846 N   0  0  0  0  0  0  0  0  0  0  0  0
    1.4284   -7.0267    1.3152 C   0  0  0  0  0  0  0  0  0  0  0  0
    0.9017   -6.7454    2.6922 C   0  0  0  0  0  0  0  0  0  0  0  0
    1.5464   -6.2768    3.8000 C   0  0  0  0  0  0  0  0  0  0  0  0
    0.5646   -6.2505    4.7684 N   0  0  0  0  0  0  0  0  0  0  0  0
    0.6835   -5.8790    6.1695 C   0  0  0  0  0  0  0  0  0  0  0  0
    0.6110   -7.0448    7.1063 C   0  0  0  0  0  0  0  0  0  0  0  0
    0.2517   -7.0159    8.4319 C   0  0  0  0  0  0  0  0  0  0  0  0
    0.2398   -8.2753    9.0381 N   0  0  0  0  0  0  0  0  0  0  0  0
    0.6339   -9.2344    8.1977 C   0  0  0  0  0  0  0  0  0  0  0  0
    1.0088   -8.6681    6.5895 S   0  0  0  0  0  0  0  0  0  0  0  0
   -0.6272   -6.6546    4.2666 N   0  0  0  0  0  0  0  0  0  0  0  0
   -0.4411   -6.9411    3.0148 N   0  0  0  0  0  0  0  0  0  0  0  0
    2.2752   -9.6656    1.6892 H   0  0  0  0  0  0  0  0  0  0  0  0
    3.9001  -10.2187    1.6531 H   0  0  0  0  0  0  0  0  0  0  0  0
    7.4887   -7.0238    1.6922 H   0  0  0  0  0  0  0  0  0  0  0  0
    9.4179   -5.5207    1.3582 H   0  0  0  0  0  0  0  0  0  0  0  0
    9.0299   -3.2347    0.3547 H   0  0  0  0  0  0  0  0  0  0  0  0
    4.9791   -3.9046    0.0518 H   0  0  0  0  0  0  0  0  0  0  0  0
    1.0118   -7.9553    0.9220 H   0  0  0  0  0  0  0  0  0  0  0  0
    1.1178   -6.2465    0.6271 H   0  0  0  0  0  0  0  0  0  0  0  0
    2.5736   -6.0006    3.9672 H   0  0  0  0  0  0  0  0  0  0  0  0
    1.6367   -5.3699    6.3036 H   0  0  0  0  0  0  0  0  0  0  0  0
   -0.0987   -5.1537    6.4043 H   0  0  0  0  0  0  0  0  0  0  0  0
   -0.0282   -6.1542    9.0219 H   0  0  0  0  0  0  0  0  0  0  0  0
    0.7045  -10.2636    8.5108 H   0  0  0  0  0  0  0  0  0  0  0  0
  1  2  1  0
  1 26  1  0
  1 25  1  0
  2 12  1  0
  2  3  2  0
  3  4  1  0
  4  5  1  0
  4 11  2  0
  5 10  1  0
  5  6  2  0
  6  7  1  0
  6 27  1  0
  7  8  2  0
  7 28  1  0
  8  9  1  0
  8 29  1  0
  9 10  2  0
 10 30  1  0
 11 12  1  0
 12 13  1  0
 13 14  1  0
 13 31  1  0
 13 32  1  0
 14 24  1  0
 14 15  2  0
 15 16  1  0
 15 33  1  0
 16 17  1  0
 16 23  1  0
 17 18  1  0
 17 34  1  0
 17 35  1  0
 18 22  1  0
 18 19  2  0
 19 20  1  0
 19 36  1  0
 20 21  2  0
 21 22  1  0
 21 37  1  0
 23 24  2  0
M  END
>  <i_m_ct_stereo_status>  (409) 
1

>  <s_m_source_file>  (409) 
/var/tmp/pbs.5076255.sched01/tmp7onimy_i/150cvk1qxg3.sdf

>  <i_m_source_file_index>  (409) 
38

>  <i_lp_mmshare_version>  (409) 
48012

>  <i_f3d_flags>  (409) 
0

>  <s_epik_input>  (409) 
W2NIXTFuW2NIXVtjSF1bY0hdYzEtYyhbbkhdL2MyPU5cW0hdKW5uMltDSDJdYzNbY0hdbihubjMpW0NIMl1jNFtjSF1uW2NIXXM0

>  <s_epik_cmdline>  (409) 
J2VwaWtfcHl0aG9uJywgJy1waHQnLCAnMi4wJywgJy1waCcsICc3LjAnLCAnLXRuJywgJzgnLCAnLW1hJywgJzIwMCcsICctaW1hZScsICc8aW5maWxlLm1hZT4nLCAnLW9tYWUnLCAnPG91dGZpbGUubWFlPic=

>  <r_lp_tautomer_probability>  (409) 
1

>  <r_epik_Ionization_Penalty>  (409) 
0.000550246

>  <r_epik_Ionization_Penalty_Charging>  (409) 
0

>  <r_epik_Ionization_Penalty_Neutral>  (409) 
0.000550246

>  <r_epik_State_Penalty>  (409) 
-0

>  <r_epik_Charging_Adjusted_Penalty>  (409) 
0

>  <i_epik_Tot_Q>  (409) 
0

>  <i_epik_Tot_abs_Q>  (409) 
0

>  <s_lp_Force_Field>  (409) 
OPLS3e

>  <r_lp_Energy>  (409) 
19.1433

>  <b_lp_Chiralities_Consistent>  (409) 
1

>  <s_lp_Variant>  (409) 
110:0-1

>  <s_i_glide_gridfile>  (409) 
pfpi4k_grid

>  <i_i_glide_lignum>  (409) 
38

>  <i_i_glide_rotatable_bonds>  (409) 
5

>  <r_i_docking_score>  (409) 
-3.1217

>  <r_i_glide_ligand_efficiency>  (409) 
-0.130071

>  <r_i_glide_ligand_efficiency_sa>  (409) 
-0.375189

>  <r_i_glide_ligand_efficiency_ln>  (409) 
-0.747166

>  <r_i_glide_gscore>  (409) 
-3.1217

>  <r_i_glide_lipo>  (409) 
-0.438688

>  <r_i_glide_hbond>  (409) 
-0.0268974

>  <r_i_glide_metal>  (409) 
-0

>  <r_i_glide_rewards>  (409) 
-1.27433

>  <r_i_glide_evdw>  (409) 
-28.8421

>  <r_i_glide_ecoul>  (409) 
-3.57918

>  <r_i_glide_erotb>  (409) 
0.821507

>  <r_i_glide_esite>  (409) 
-0.224311

>  <r_i_glide_emodel>  (409) 
-39.6113

>  <r_i_glide_energy>  (409) 
-32.4213

>  <r_i_glide_einternal>  (409) 
1.31275

>  <r_i_glide_intrahb_reward>  (409) 
-0

>  <i_i_glide_confnum>  (409) 
3

>  <i_i_glide_posenum>  (409) 
3

>  <r_i_glide_eff_state_penalty>  (409) 
0

>  <ligand_id>  (409) 
110

>  <original_smiles>  (409) 
N=c1[nH]c(-c2cccnc2)nn1Cc1cn(Cc2cncs2)nn1

>  <smiles>  (409) 
[H]c1nc([H])c(C([H])([H])n2nnc(C([H])([H])n3nc(-c4c([H])nc([H])c([H])c4[H])nc3N([H])[H])c2[H])s1

$$$$
111:0:0
     RDKit          3D

 56 60  0  0  1  0  0  0  0  0999 V2000
    4.5910   -1.4607   -3.0511 C   0  0  0  0  0  0  0  0  0  0  0  0
    4.1611   -1.8945   -1.9857 C   0  0  0  0  0  0  0  0  0  0  0  0
    3.5960   -2.4415   -0.7348 C   0  0  1  0  0  0  0  0  0  0  0  0
    3.0151   -1.3863    0.0169 O   0  0  0  0  0  0  0  0  0  0  0  0
    2.4799   -3.5012   -0.9913 C   0  0  0  0  0  0  0  0  0  0  0  0
    2.5958   -4.5491    0.1304 C   0  0  0  0  0  0  0  0  0  0  0  0
    3.6118   -3.9378    1.0981 C   0  0  1  0  0  0  0  0  0  0  0  0
    4.2902   -4.8209    2.1028 C   0  0  0  0  0  0  0  0  0  0  0  0
    4.9865   -4.3484    3.1431 C   0  0  0  0  0  0  0  0  0  0  0  0
    5.6169   -5.4597    3.9460 C   0  0  0  0  0  0  0  0  0  0  0  0
    5.0630   -6.7413    3.2901 C   0  0  1  0  0  0  0  0  0  0  0  0
    6.1817   -7.7727    3.1305 C   0  0  0  0  0  0  0  0  0  0  0  0
    3.7056   -7.2910    3.8190 C   0  0  1  0  0  0  0  0  0  0  0  0
    3.0108   -6.6617    5.0237 C   0  0  0  0  0  0  0  0  0  0  0  0
    3.0730   -7.0738    2.4396 C   0  0  0  0  0  0  0  0  0  0  0  0
    4.3296   -6.3363    1.9977 C   0  0  1  0  0  0  0  0  0  0  0  0
    5.1003   -2.9217    3.4560 C   0  0  0  0  0  0  0  0  0  0  0  0
    5.3047   -1.9796    2.4801 C   0  0  0  0  0  0  0  0  0  0  0  0
    5.4367   -0.5007    2.8334 C   0  0  0  0  0  0  0  0  0  0  0  0
    4.6891   -0.1005    4.1043 C   0  0  0  0  0  0  0  0  0  0  0  0
    5.0584   -1.0475    5.2304 C   0  0  0  0  0  0  0  0  0  0  0  0
    5.3853   -0.6266    6.3253 O   0  0  0  0  0  0  0  0  0  0  0  0
    4.9861   -2.5505    4.9373 C   0  0  0  0  0  0  0  0  0  0  0  0
    5.5973   -2.2728    1.0030 C   0  0  0  0  0  0  0  0  0  0  0  0
    4.6065   -3.1822    0.2000 C   0  0  2  0  0  0  0  0  0  0  0  0
    5.4867   -4.1694   -0.6258 C   0  0  0  0  0  0  0  0  0  0  0  0
    4.8922   -1.0734   -3.9938 H   0  0  0  0  0  0  0  0  0  0  0  0
    2.1192   -1.2164   -0.3177 H   0  0  0  0  0  0  0  0  0  0  0  0
    1.4689   -3.1115   -1.0532 H   0  0  0  0  0  0  0  0  0  0  0  0
    2.6348   -3.9743   -1.9613 H   0  0  0  0  0  0  0  0  0  0  0  0
    1.6558   -4.7281    0.6335 H   0  0  0  0  0  0  0  0  0  0  0  0
    2.9187   -5.5036   -0.2846 H   0  0  0  0  0  0  0  0  0  0  0  0
    3.0521   -3.2050    1.6918 H   0  0  0  0  0  0  0  0  0  0  0  0
    6.7020   -5.3944    3.8803 H   0  0  0  0  0  0  0  0  0  0  0  0
    5.3480   -5.3825    5.0005 H   0  0  0  0  0  0  0  0  0  0  0  0
    5.8278   -8.6672    2.6179 H   0  0  0  0  0  0  0  0  0  0  0  0
    6.5892   -8.0908    4.0914 H   0  0  0  0  0  0  0  0  0  0  0  0
    7.0042   -7.3780    2.5381 H   0  0  0  0  0  0  0  0  0  0  0  0
    3.8129   -8.3663    3.9616 H   0  0  0  0  0  0  0  0  0  0  0  0
    2.8534   -5.5950    4.8633 H   0  0  0  0  0  0  0  0  0  0  0  0
    3.5940   -6.7840    5.9379 H   0  0  0  0  0  0  0  0  0  0  0  0
    2.0366   -7.1144    5.2024 H   0  0  0  0  0  0  0  0  0  0  0  0
    2.9289   -8.0146    1.8965 H   0  0  0  0  0  0  0  0  0  0  0  0
    2.1718   -6.4618    2.4762 H   0  0  0  0  0  0  0  0  0  0  0  0
    4.7872   -6.7157    1.0921 H   0  0  0  0  0  0  0  0  0  0  0  0
    6.5002   -0.2664    2.9385 H   0  0  0  0  0  0  0  0  0  0  0  0
    5.0501    0.1144    2.0165 H   0  0  0  0  0  0  0  0  0  0  0  0
    4.8931    0.9331    4.3941 H   0  0  0  0  0  0  0  0  0  0  0  0
    3.6169   -0.1795    3.9506 H   0  0  0  0  0  0  0  0  0  0  0  0
    4.0517   -2.9329    5.3479 H   0  0  0  0  0  0  0  0  0  0  0  0
    5.7990   -3.0310    5.4833 H   0  0  0  0  0  0  0  0  0  0  0  0
    5.7399   -1.3378    0.4590 H   0  0  0  0  0  0  0  0  0  0  0  0
    6.5880   -2.7276    1.0059 H   0  0  0  0  0  0  0  0  0  0  0  0
    6.0761   -4.8153    0.0224 H   0  0  0  0  0  0  0  0  0  0  0  0
    6.1978   -3.6407   -1.2630 H   0  0  0  0  0  0  0  0  0  0  0  0
    4.9021   -4.8180   -1.2814 H   0  0  0  0  0  0  0  0  0  0  0  0
  1  2  3  0
  1 27  1  0
  3  2  1  6
  3 25  1  0
  3  4  1  0
  3  5  1  0
  4 28  1  0
  5  6  1  0
  5 29  1  0
  5 30  1  0
  6  7  1  0
  6 31  1  0
  6 32  1  0
  7 25  1  0
  7  8  1  0
  7 33  1  1
  8 16  1  0
  8  9  2  0
  9 10  1  0
  9 17  1  0
 10 11  1  0
 10 34  1  0
 10 35  1  0
 11 16  1  0
 11 12  1  6
 11 13  1  0
 12 36  1  0
 12 37  1  0
 12 38  1  0
 13 14  1  0
 13 15  1  0
 13 39  1  1
 14 40  1  0
 14 41  1  0
 14 42  1  0
 15 16  1  0
 15 43  1  0
 15 44  1  0
 16 45  1  6
 17 23  1  0
 17 18  2  0
 18 19  1  0
 18 24  1  0
 19 20  1  0
 19 46  1  0
 19 47  1  0
 20 21  1  0
 20 48  1  0
 20 49  1  0
 21 22  2  0
 21 23  1  0
 23 50  1  0
 23 51  1  0
 24 25  1  0
 24 52  1  0
 24 53  1  0
 25 26  1  6
 26 54  1  0
 26 55  1  0
 26 56  1  0
M  END
>  <i_m_ct_stereo_status>  (410) 
1

>  <s_m_source_file>  (410) 
/var/tmp/pbs.5076255.sched01/tmp7onimy_i/150cvk1qxg3.sdf

>  <i_m_source_file_index>  (410) 
39

>  <i_lp_mmshare_version>  (410) 
48012

>  <i_f3d_flags>  (410) 
0

>  <s_epik_input>  (410) 
W0NIXSNDW0NAQF0xKFtPSF0pW0NIMl1bQ0gyXVtDQEBIXTJbQ0BdMShbQ0gzXSlbQ0gyXUMoW0NIMl1bQ0gyXUMoPU8pW0NIMl0zKT1DM0MoW0NIMl00KT1DMltDQEBIXShbQ0BAXTQ1W0NIM10pW0NIMl1bQ0BASF01W0NIM10=

>  <s_epik_cmdline>  (410) 
J2VwaWtfcHl0aG9uJywgJy1waHQnLCAnMi4wJywgJy1waCcsICc3LjAnLCAnLXRuJywgJzgnLCAnLW1hJywgJzIwMCcsICctaW1hZScsICc8aW5maWxlLm1hZT4nLCAnLW9tYWUnLCAnPG91dGZpbGUubWFlPic=

>  <r_lp_tautomer_probability>  (410) 
1

>  <r_epik_Ionization_Penalty>  (410) 
8.11881e-07

>  <r_epik_Ionization_Penalty_Charging>  (410) 
0

>  <r_epik_Ionization_Penalty_Neutral>  (410) 
8.11881e-07

>  <r_epik_State_Penalty>  (410) 
-0

>  <r_epik_Charging_Adjusted_Penalty>  (410) 
0

>  <i_epik_Tot_Q>  (410) 
0

>  <i_epik_Tot_abs_Q>  (410) 
0

>  <s_lp_Force_Field>  (410) 
OPLS3e

>  <r_lp_Energy>  (410) 
47.1991

>  <b_lp_Chiralities_Consistent>  (410) 
1

>  <s_lp_Variant>  (410) 
111:0-1

>  <s_i_glide_gridfile>  (410) 
pfpi4k_grid

>  <i_i_glide_lignum>  (410) 
39

>  <i_i_glide_rotatable_bonds>  (410) 
2

>  <r_i_docking_score>  (410) 
-3.12123

>  <r_i_glide_ligand_efficiency>  (410) 
-0.120047

>  <r_i_glide_ligand_efficiency_sa>  (410) 
-0.35564

>  <r_i_glide_ligand_efficiency_ln>  (410) 
-0.733011

>  <r_i_glide_gscore>  (410) 
-3.12123

>  <r_i_glide_lipo>  (410) 
-0.537543

>  <r_i_glide_hbond>  (410) 
-0.14438

>  <r_i_glide_metal>  (410) 
-0

>  <r_i_glide_rewards>  (410) 
-1.06745

>  <r_i_glide_evdw>  (410) 
-13.6598

>  <r_i_glide_ecoul>  (410) 
-5.62688

>  <r_i_glide_erotb>  (410) 
0.155166

>  <r_i_glide_esite>  (410) 
0

>  <r_i_glide_emodel>  (410) 
-22.6246

>  <r_i_glide_energy>  (410) 
-19.2867

>  <r_i_glide_einternal>  (410) 
1.49938

>  <r_i_glide_intrahb_reward>  (410) 
-0

>  <i_i_glide_confnum>  (410) 
2

>  <i_i_glide_posenum>  (410) 
1

>  <r_i_glide_eff_state_penalty>  (410) 
0

>  <ligand_id>  (410) 
111

>  <original_smiles>  (410) 
C#CC1(O)CCC2C3=C(CC4(C)C(C)CC34)C3=C(CCC(=O)C3)CC21C

>  <smiles>  (410) 
[H]C#CC1(O[H])C([H])([H])C([H])([H])C2([H])C3=C(C4=C(C([H])([H])C([H])([H])C(=O)C4([H])[H])C([H])([H])C12C([H])([H])[H])C([H])([H])C1(C([H])([H])[H])C3([H])C([H])([H])C1([H])C([H])([H])[H]

$$$$
111:0:1
     RDKit          3D

 56 60  0  0  1  0  0  0  0  0999 V2000
    4.2820   -0.6633   -2.0319 C   0  0  0  0  0  0  0  0  0  0  0  0
    3.9556   -1.5050   -1.2093 C   0  0  0  0  0  0  0  0  0  0  0  0
    3.5577   -2.5266   -0.2158 C   0  0  1  0  0  0  0  0  0  0  0  0
    2.6146   -1.9559    0.6819 O   0  0  0  0  0  0  0  0  0  0  0  0
    2.8304   -3.7323   -0.8728 C   0  0  0  0  0  0  0  0  0  0  0  0
    3.2172   -4.9921   -0.0672 C   0  0  0  0  0  0  0  0  0  0  0  0
    3.9957   -4.4385    1.1256 C   0  0  1  0  0  0  0  0  0  0  0  0
    4.9024   -5.3498    1.9196 C   0  0  0  0  0  0  0  0  0  0  0  0
    5.4004   -5.0196    3.1167 C   0  0  0  0  0  0  0  0  0  0  0  0
    6.3270   -6.0964    3.6439 C   0  0  0  0  0  0  0  0  0  0  0  0
    6.2158   -7.2271    2.5986 C   0  0  1  0  0  0  0  0  0  0  0  0
    7.6030   -7.7898    2.2809 C   0  0  0  0  0  0  0  0  0  0  0  0
    5.0911   -8.2854    2.8006 C   0  0  1  0  0  0  0  0  0  0  0  0
    4.2092   -8.2646    4.0478 C   0  0  0  0  0  0  0  0  0  0  0  0
    4.4460   -7.8530    1.4809 C   0  0  0  0  0  0  0  0  0  0  0  0
    5.4145   -6.6760    1.4040 C   0  0  1  0  0  0  0  0  0  0  0  0
    5.0730   -3.7796    3.8239 C   0  0  0  0  0  0  0  0  0  0  0  0
    4.9912   -2.5768    3.1818 C   0  0  0  0  0  0  0  0  0  0  0  0
    4.6412   -1.2963    3.9366 C   0  0  0  0  0  0  0  0  0  0  0  0
    3.7850   -1.5441    5.1841 C   0  0  0  0  0  0  0  0  0  0  0  0
    4.4135   -2.6246    6.0369 C   0  0  0  0  0  0  0  0  0  0  0  0
    4.5699   -2.4754    7.2481 O   0  0  0  0  0  0  0  0  0  0  0  0
    4.8133   -3.9177    5.3331 C   0  0  0  0  0  0  0  0  0  0  0  0
    5.3751   -2.3233    1.7134 C   0  0  0  0  0  0  0  0  0  0  0  0
    4.7259   -3.1958    0.5872 C   0  0  2  0  0  0  0  0  0  0  0  0
    5.8906   -3.5973   -0.3755 C   0  0  0  0  0  0  0  0  0  0  0  0
    4.5382    0.1016   -2.7288 H   0  0  0  0  0  0  0  0  0  0  0  0
    1.9756   -1.4625    0.1613 H   0  0  0  0  0  0  0  0  0  0  0  0
    1.7488   -3.5921   -0.9040 H   0  0  0  0  0  0  0  0  0  0  0  0
    3.1423   -3.8614   -1.9106 H   0  0  0  0  0  0  0  0  0  0  0  0
    2.3481   -5.5712    0.2416 H   0  0  0  0  0  0  0  0  0  0  0  0
    3.8478   -5.6392   -0.6759 H   0  0  0  0  0  0  0  0  0  0  0  0
    3.2337   -4.1140    1.8387 H   0  0  0  0  0  0  0  0  0  0  0  0
    7.3407   -5.6955    3.7187 H   0  0  0  0  0  0  0  0  0  0  0  0
    6.0335   -6.4165    4.6428 H   0  0  0  0  0  0  0  0  0  0  0  0
    7.5488   -8.5521    1.5038 H   0  0  0  0  0  0  0  0  0  0  0  0
    8.0694   -8.2471    3.1539 H   0  0  0  0  0  0  0  0  0  0  0  0
    8.2760   -7.0151    1.9154 H   0  0  0  0  0  0  0  0  0  0  0  0
    5.5167   -9.2823    2.6624 H   0  0  0  0  0  0  0  0  0  0  0  0
    3.7279   -7.2952    4.1764 H   0  0  0  0  0  0  0  0  0  0  0  0
    4.7799   -8.4764    4.9503 H   0  0  0  0  0  0  0  0  0  0  0  0
    3.4172   -9.0112    3.9863 H   0  0  0  0  0  0  0  0  0  0  0  0
    4.5973   -8.5833    0.6832 H   0  0  0  0  0  0  0  0  0  0  0  0
    3.3950   -7.5738    1.5757 H   0  0  0  0  0  0  0  0  0  0  0  0
    5.9845   -6.6155    0.4764 H   0  0  0  0  0  0  0  0  0  0  0  0
    5.5699   -0.7982    4.2200 H   0  0  0  0  0  0  0  0  0  0  0  0
    4.0993   -0.6087    3.2864 H   0  0  0  0  0  0  0  0  0  0  0  0
    3.6517   -0.6303    5.7635 H   0  0  0  0  0  0  0  0  0  0  0  0
    2.7910   -1.8835    4.8920 H   0  0  0  0  0  0  0  0  0  0  0  0
    4.0375   -4.6610    5.5067 H   0  0  0  0  0  0  0  0  0  0  0  0
    5.7218   -4.2919    5.8068 H   0  0  0  0  0  0  0  0  0  0  0  0
    5.2348   -1.2703    1.4707 H   0  0  0  0  0  0  0  0  0  0  0  0
    6.4575   -2.4483    1.7015 H   0  0  0  0  0  0  0  0  0  0  0  0
    6.6426   -4.2076    0.1280 H   0  0  0  0  0  0  0  0  0  0  0  0
    6.4160   -2.7205   -0.7590 H   0  0  0  0  0  0  0  0  0  0  0  0
    5.5481   -4.1612   -1.2442 H   0  0  0  0  0  0  0  0  0  0  0  0
  1  2  3  0
  1 27  1  0
  3  2  1  6
  3 25  1  0
  3  4  1  0
  3  5  1  0
  4 28  1  0
  5  6  1  0
  5 29  1  0
  5 30  1  0
  6  7  1  0
  6 31  1  0
  6 32  1  0
  7 25  1  0
  7  8  1  0
  7 33  1  1
  8 16  1  0
  8  9  2  0
  9 10  1  0
  9 17  1  0
 10 11  1  0
 10 34  1  0
 10 35  1  0
 11 16  1  0
 11 12  1  6
 11 13  1  0
 12 36  1  0
 12 37  1  0
 12 38  1  0
 13 14  1  0
 13 15  1  0
 13 39  1  6
 14 40  1  0
 14 41  1  0
 14 42  1  0
 15 16  1  0
 15 43  1  0
 15 44  1  0
 16 45  1  6
 17 23  1  0
 17 18  2  0
 18 19  1  0
 18 24  1  0
 19 20  1  0
 19 46  1  0
 19 47  1  0
 20 21  1  0
 20 48  1  0
 20 49  1  0
 21 22  2  0
 21 23  1  0
 23 50  1  0
 23 51  1  0
 24 25  1  0
 24 52  1  0
 24 53  1  0
 25 26  1  6
 26 54  1  0
 26 55  1  0
 26 56  1  0
M  END
>  <i_m_ct_stereo_status>  (411) 
1

>  <s_m_source_file>  (411) 
/var/tmp/pbs.5076255.sched01/tmp7onimy_i/150cvk1qxg3.sdf

>  <i_m_source_file_index>  (411) 
39

>  <i_lp_mmshare_version>  (411) 
48012

>  <i_f3d_flags>  (411) 
0

>  <s_epik_input>  (411) 
W0NIXSNDW0NAQF0xKFtPSF0pW0NIMl1bQ0gyXVtDQEBIXTJbQ0BdMShbQ0gzXSlbQ0gyXUMoW0NIMl1bQ0gyXUMoPU8pW0NIMl0zKT1DM0MoW0NIMl00KT1DMltDQEBIXShbQ0BAXTQ1W0NIM10pW0NIMl1bQ0BASF01W0NIM10=

>  <s_epik_cmdline>  (411) 
J2VwaWtfcHl0aG9uJywgJy1waHQnLCAnMi4wJywgJy1waCcsICc3LjAnLCAnLXRuJywgJzgnLCAnLW1hJywgJzIwMCcsICctaW1hZScsICc8aW5maWxlLm1hZT4nLCAnLW9tYWUnLCAnPG91dGZpbGUubWFlPic=

>  <r_lp_tautomer_probability>  (411) 
1

>  <r_epik_Ionization_Penalty>  (411) 
8.11881e-07

>  <r_epik_Ionization_Penalty_Charging>  (411) 
0

>  <r_epik_Ionization_Penalty_Neutral>  (411) 
8.11881e-07

>  <r_epik_State_Penalty>  (411) 
-0

>  <r_epik_Charging_Adjusted_Penalty>  (411) 
0

>  <i_epik_Tot_Q>  (411) 
0

>  <i_epik_Tot_abs_Q>  (411) 
0

>  <s_lp_Force_Field>  (411) 
OPLS3e

>  <r_lp_Energy>  (411) 
47.1991

>  <b_lp_Chiralities_Consistent>  (411) 
1

>  <s_lp_Variant>  (411) 
111:0-1

>  <s_i_glide_gridfile>  (411) 
pfpi4k_grid

>  <i_i_glide_lignum>  (411) 
39

>  <i_i_glide_rotatable_bonds>  (411) 
2

>  <r_i_docking_score>  (411) 
-2.942

>  <r_i_glide_ligand_efficiency>  (411) 
-0.113154

>  <r_i_glide_ligand_efficiency_sa>  (411) 
-0.335218

>  <r_i_glide_ligand_efficiency_ln>  (411) 
-0.690919

>  <r_i_glide_gscore>  (411) 
-2.942

>  <r_i_glide_lipo>  (411) 
-0.463091

>  <r_i_glide_hbond>  (411) 
-0.16

>  <r_i_glide_metal>  (411) 
-0

>  <r_i_glide_rewards>  (411) 
-1.02315

>  <r_i_glide_evdw>  (411) 
-16.0077

>  <r_i_glide_ecoul>  (411) 
-4.33692

>  <r_i_glide_erotb>  (411) 
0.155166

>  <r_i_glide_esite>  (411) 
0

>  <r_i_glide_emodel>  (411) 
-23.4413

>  <r_i_glide_energy>  (411) 
-20.3447

>  <r_i_glide_einternal>  (411) 
1.90008

>  <r_i_glide_intrahb_reward>  (411) 
-0

>  <i_i_glide_confnum>  (411) 
2

>  <i_i_glide_posenum>  (411) 
30

>  <r_i_glide_eff_state_penalty>  (411) 
0

>  <ligand_id>  (411) 
111

>  <original_smiles>  (411) 
C#CC1(O)CCC2C3=C(CC4(C)C(C)CC34)C3=C(CCC(=O)C3)CC21C

>  <smiles>  (411) 
[H]C#CC1(O[H])C([H])([H])C([H])([H])C2([H])C3=C(C4=C(C([H])([H])C([H])([H])C(=O)C4([H])[H])C([H])([H])C12C([H])([H])[H])C([H])([H])C1(C([H])([H])[H])C3([H])C([H])([H])C1([H])C([H])([H])[H]

$$$$
111:0:2
     RDKit          3D

 56 60  0  0  1  0  0  0  0  0999 V2000
    4.2153   -0.2882   -3.2445 C   0  0  0  0  0  0  0  0  0  0  0  0
    4.3693   -0.6857   -2.1023 C   0  0  0  0  0  0  0  0  0  0  0  0
    4.5694   -1.1471   -0.7034 C   0  0  1  0  0  0  0  0  0  0  0  0
    5.8371   -0.7150   -0.2450 O   0  0  0  0  0  0  0  0  0  0  0  0
    3.5623   -0.5283    0.2982 C   0  0  0  0  0  0  0  0  0  0  0  0
    3.2113   -1.5947    1.3432 C   0  0  0  0  0  0  0  0  0  0  0  0
    4.2263   -2.7033    1.0587 C   0  0  1  0  0  0  0  0  0  0  0  0
    3.9791   -4.0906    1.5957 C   0  0  0  0  0  0  0  0  0  0  0  0
    4.9225   -5.0362    1.6184 C   0  0  0  0  0  0  0  0  0  0  0  0
    4.3899   -6.3422    2.1593 C   0  0  0  0  0  0  0  0  0  0  0  0
    2.9440   -5.9990    2.5782 C   0  0  1  0  0  0  0  0  0  0  0  0
    2.0002   -7.1132    2.1233 C   0  0  0  0  0  0  0  0  0  0  0  0
    2.7234   -5.4644    4.0231 C   0  0  1  0  0  0  0  0  0  0  0  0
    3.8707   -5.3975    5.0316 C   0  0  0  0  0  0  0  0  0  0  0  0
    2.1927   -4.1433    3.4591 C   0  0  0  0  0  0  0  0  0  0  0  0
    2.6288   -4.5810    2.0674 C   0  0  1  0  0  0  0  0  0  0  0  0
    6.3054   -4.8090    1.1974 C   0  0  0  0  0  0  0  0  0  0  0  0
    6.6317   -4.0891    0.0795 C   0  0  0  0  0  0  0  0  0  0  0  0
    8.0958   -3.8429   -0.3289 C   0  0  0  0  0  0  0  0  0  0  0  0
    9.0482   -3.8994    0.8346 C   0  0  0  0  0  0  0  0  0  0  0  0
    8.8080   -5.1223    1.6884 C   0  0  0  0  0  0  0  0  0  0  0  0
    9.7317   -5.7461    2.1734 O   0  0  0  0  0  0  0  0  0  0  0  0
    7.3649   -5.4288    2.1043 C   0  0  0  0  0  0  0  0  0  0  0  0
    5.6275   -3.5665   -0.9510 C   0  0  0  0  0  0  0  0  0  0  0  0
    4.4267   -2.6864   -0.4681 C   0  0  2  0  0  0  0  0  0  0  0  0
    3.1706   -3.2291   -1.2164 C   0  0  0  0  0  0  0  0  0  0  0  0
    4.0735    0.0742   -4.2401 H   0  0  0  0  0  0  0  0  0  0  0  0
    5.7453    0.2050   -0.0336 H   0  0  0  0  0  0  0  0  0  0  0  0
    3.9118    0.4018    0.7502 H   0  0  0  0  0  0  0  0  0  0  0  0
    2.6454   -0.2791   -0.2142 H   0  0  0  0  0  0  0  0  0  0  0  0
    3.2902   -1.2094    2.3570 H   0  0  0  0  0  0  0  0  0  0  0  0
    2.1812   -1.9284    1.2004 H   0  0  0  0  0  0  0  0  0  0  0  0
    5.1512   -2.3666    1.5353 H   0  0  0  0  0  0  0  0  0  0  0  0
    4.4399   -7.0984    1.3735 H   0  0  0  0  0  0  0  0  0  0  0  0
    4.9955   -6.6960    2.9953 H   0  0  0  0  0  0  0  0  0  0  0  0
    0.9656   -6.8740    2.3583 H   0  0  0  0  0  0  0  0  0  0  0  0
    2.2299   -8.0663    2.5998 H   0  0  0  0  0  0  0  0  0  0  0  0
    2.0538   -7.2616    1.0469 H   0  0  0  0  0  0  0  0  0  0  0  0
    1.8740   -5.9996    4.4453 H   0  0  0  0  0  0  0  0  0  0  0  0
    4.7006   -4.8185    4.6321 H   0  0  0  0  0  0  0  0  0  0  0  0
    4.2401   -6.3880    5.2885 H   0  0  0  0  0  0  0  0  0  0  0  0
    3.5551   -4.9216    5.9578 H   0  0  0  0  0  0  0  0  0  0  0  0
    1.1054   -4.0572    3.5490 H   0  0  0  0  0  0  0  0  0  0  0  0
    2.7218   -3.2701    3.8435 H   0  0  0  0  0  0  0  0  0  0  0  0
    1.8471   -4.5546    1.3128 H   0  0  0  0  0  0  0  0  0  0  0  0
    8.4766   -4.5836   -1.0281 H   0  0  0  0  0  0  0  0  0  0  0  0
    8.1966   -2.8702   -0.8112 H   0  0  0  0  0  0  0  0  0  0  0  0
   10.0789   -3.7750    0.5371 H   0  0  0  0  0  0  0  0  0  0  0  0
    8.8592   -3.0788    1.4797 H   0  0  0  0  0  0  0  0  0  0  0  0
    7.2424   -5.0761    3.1290 H   0  0  0  0  0  0  0  0  0  0  0  0
    7.2564   -6.5160    2.1265 H   0  0  0  0  0  0  0  0  0  0  0  0
    6.1553   -3.0447   -1.7471 H   0  0  0  0  0  0  0  0  0  0  0  0
    5.2497   -4.4721   -1.4268 H   0  0  0  0  0  0  0  0  0  0  0  0
    2.9540   -4.2594   -0.9414 H   0  0  0  0  0  0  0  0  0  0  0  0
    3.3095   -3.2324   -2.3003 H   0  0  0  0  0  0  0  0  0  0  0  0
    2.2705   -2.6489   -1.0199 H   0  0  0  0  0  0  0  0  0  0  0  0
  1  2  3  0
  1 27  1  0
  3  2  1  6
  3 25  1  0
  3  4  1  0
  3  5  1  0
  4 28  1  0
  5  6  1  0
  5 29  1  0
  5 30  1  0
  6  7  1  0
  6 31  1  0
  6 32  1  0
  7 25  1  0
  7  8  1  0
  7 33  1  1
  8 16  1  0
  8  9  2  0
  9 10  1  0
  9 17  1  0
 10 11  1  0
 10 34  1  0
 10 35  1  0
 11 16  1  0
 11 12  1  6
 11 13  1  0
 12 36  1  0
 12 37  1  0
 12 38  1  0
 13 14  1  0
 13 15  1  0
 13 39  1  1
 14 40  1  0
 14 41  1  0
 14 42  1  0
 15 16  1  0
 15 43  1  0
 15 44  1  0
 16 45  1  6
 17 23  1  0
 17 18  2  0
 18 19  1  0
 18 24  1  0
 19 20  1  0
 19 46  1  0
 19 47  1  0
 20 21  1  0
 20 48  1  0
 20 49  1  0
 21 22  2  0
 21 23  1  0
 23 50  1  0
 23 51  1  0
 24 25  1  0
 24 52  1  0
 24 53  1  0
 25 26  1  6
 26 54  1  0
 26 55  1  0
 26 56  1  0
M  END
>  <i_m_ct_stereo_status>  (412) 
1

>  <s_m_source_file>  (412) 
/var/tmp/pbs.5076255.sched01/tmp7onimy_i/150cvk1qxg3.sdf

>  <i_m_source_file_index>  (412) 
39

>  <i_lp_mmshare_version>  (412) 
48012

>  <i_f3d_flags>  (412) 
0

>  <s_epik_input>  (412) 
W0NIXSNDW0NAQF0xKFtPSF0pW0NIMl1bQ0gyXVtDQEBIXTJbQ0BdMShbQ0gzXSlbQ0gyXUMoW0NIMl1bQ0gyXUMoPU8pW0NIMl0zKT1DM0MoW0NIMl00KT1DMltDQEBIXShbQ0BAXTQ1W0NIM10pW0NIMl1bQ0BASF01W0NIM10=

>  <s_epik_cmdline>  (412) 
J2VwaWtfcHl0aG9uJywgJy1waHQnLCAnMi4wJywgJy1waCcsICc3LjAnLCAnLXRuJywgJzgnLCAnLW1hJywgJzIwMCcsICctaW1hZScsICc8aW5maWxlLm1hZT4nLCAnLW9tYWUnLCAnPG91dGZpbGUubWFlPic=

>  <r_lp_tautomer_probability>  (412) 
1

>  <r_epik_Ionization_Penalty>  (412) 
8.11881e-07

>  <r_epik_Ionization_Penalty_Charging>  (412) 
0

>  <r_epik_Ionization_Penalty_Neutral>  (412) 
8.11881e-07

>  <r_epik_State_Penalty>  (412) 
-0

>  <r_epik_Charging_Adjusted_Penalty>  (412) 
0

>  <i_epik_Tot_Q>  (412) 
0

>  <i_epik_Tot_abs_Q>  (412) 
0

>  <s_lp_Force_Field>  (412) 
OPLS3e

>  <r_lp_Energy>  (412) 
47.1991

>  <b_lp_Chiralities_Consistent>  (412) 
1

>  <s_lp_Variant>  (412) 
111:0-1

>  <s_i_glide_gridfile>  (412) 
pfpi4k_grid

>  <i_i_glide_lignum>  (412) 
39

>  <i_i_glide_rotatable_bonds>  (412) 
2

>  <r_i_docking_score>  (412) 
-2.77066

>  <r_i_glide_ligand_efficiency>  (412) 
-0.106564

>  <r_i_glide_ligand_efficiency_sa>  (412) 
-0.315695

>  <r_i_glide_ligand_efficiency_ln>  (412) 
-0.65068

>  <r_i_glide_gscore>  (412) 
-2.77066

>  <r_i_glide_lipo>  (412) 
-0.769869

>  <r_i_glide_hbond>  (412) 
-0.259418

>  <r_i_glide_metal>  (412) 
-0

>  <r_i_glide_rewards>  (412) 
-1.01936

>  <r_i_glide_evdw>  (412) 
-14.1574

>  <r_i_glide_ecoul>  (412) 
-0.971957

>  <r_i_glide_erotb>  (412) 
0.155166

>  <r_i_glide_esite>  (412) 
-0.0235134

>  <r_i_glide_emodel>  (412) 
-18.0208

>  <r_i_glide_energy>  (412) 
-15.1294

>  <r_i_glide_einternal>  (412) 
1.63132

>  <r_i_glide_intrahb_reward>  (412) 
-0

>  <i_i_glide_confnum>  (412) 
2

>  <i_i_glide_posenum>  (412) 
27

>  <r_i_glide_eff_state_penalty>  (412) 
0

>  <ligand_id>  (412) 
111

>  <original_smiles>  (412) 
C#CC1(O)CCC2C3=C(CC4(C)C(C)CC34)C3=C(CCC(=O)C3)CC21C

>  <smiles>  (412) 
[H]C#CC1(O[H])C([H])([H])C([H])([H])C2([H])C3=C(C4=C(C([H])([H])C([H])([H])C(=O)C4([H])[H])C([H])([H])C12C([H])([H])[H])C([H])([H])C1(C([H])([H])[H])C3([H])C([H])([H])C1([H])C([H])([H])[H]

$$$$
112:0:0
     RDKit          3D

 73 78  0  0  1  0  0  0  0  0999 V2000
   -0.0155    0.5959    6.2789 C   0  0  0  0  0  0  0  0  0  0  0  0
    0.6022    0.3343    4.8863 C   0  0  0  0  0  0  0  0  0  0  0  0
   -0.3040   -0.7621    4.2589 C   0  0  0  0  0  0  0  0  0  0  0  0
    0.5349    1.6454    4.0624 C   0  0  0  0  0  0  0  0  0  0  0  0
    1.6426    1.7971    3.0195 C   0  0  0  0  0  0  0  0  0  0  0  0
    2.2190    0.4639    2.5244 C   0  0  0  0  0  0  0  0  0  0  0  0
    2.8942   -0.3941    3.6490 C   0  0  2  0  0  0  0  0  0  0  0  0
    3.1706   -1.8759    3.2788 C   0  0  0  0  0  0  0  0  0  0  0  0
    3.5409   -2.7816    4.2165 C   0  0  0  0  0  0  0  0  0  0  0  0
    3.9313   -2.4954    5.6544 C   0  0  0  0  0  0  0  0  0  0  0  0
    4.7914   -1.3576    5.8079 O   0  0  0  0  0  0  0  0  0  0  0  0
    4.4545   -0.0145    5.4865 C   0  0  2  0  0  0  0  0  0  0  0  0
    5.4392    0.8756    6.0062 O   0  0  0  0  0  0  0  0  0  0  0  0
    3.0482    0.3601    6.0302 C   0  0  1  0  0  0  0  0  0  0  0  0
    2.8857    1.7630    6.1284 O   0  0  0  0  0  0  0  0  0  0  0  0
    2.0608   -0.2435    4.9814 C   0  0  1  0  0  0  0  0  0  0  0  0
    4.2949    0.1852    3.9609 C   0  0  1  0  0  0  0  0  0  0  0  0
    5.5569   -0.2934    3.1821 C   0  0  0  0  0  0  0  0  0  0  0  0
    5.4345   -0.6532    1.6634 C   0  0  0  0  0  0  0  0  0  0  0  0
    4.8613   -2.0648    1.3316 C   0  0  1  0  0  0  0  0  0  0  0  0
    5.7932   -3.1238    2.0055 C   0  0  0  0  0  0  0  0  0  0  0  0
    3.3898   -2.1829    1.7974 C   0  0  1  0  0  0  0  0  0  0  0  0
    2.9369   -3.5131    1.1971 C   0  0  0  0  0  0  0  0  0  0  0  0
    3.6327   -3.5566   -0.1940 C   0  0  1  0  0  0  0  0  0  0  0  0
    2.6143   -3.4504   -1.3568 C   0  0  0  0  0  0  0  0  0  0  0  0
    3.2487   -2.9975   -2.6741 C   0  0  1  0  0  0  0  0  0  0  0  0
    2.2702   -2.9496   -3.6865 O   0  0  0  0  0  0  0  0  0  0  0  0
    3.9056   -1.6093   -2.5392 C   0  0  0  0  0  0  0  0  0  0  0  0
    4.2454   -1.2317   -1.0749 C   0  0  0  0  0  0  0  0  0  0  0  0
    4.7247   -2.4305   -0.1943 C   0  0  1  0  0  0  0  0  0  0  0  0
    6.0478   -2.9427   -0.8238 C   0  0  0  0  0  0  0  0  0  0  0  0
   -1.0671    0.8726    6.1915 H   0  0  0  0  0  0  0  0  0  0  0  0
    0.4705    1.4317    6.7896 H   0  0  0  0  0  0  0  0  0  0  0  0
    0.0523   -0.2746    6.9418 H   0  0  0  0  0  0  0  0  0  0  0  0
    0.0463   -1.0973    3.2906 H   0  0  0  0  0  0  0  0  0  0  0  0
   -1.3260   -0.4118    4.1273 H   0  0  0  0  0  0  0  0  0  0  0  0
   -0.3575   -1.6559    4.8889 H   0  0  0  0  0  0  0  0  0  0  0  0
   -0.4205    1.6790    3.5478 H   0  0  0  0  0  0  0  0  0  0  0  0
    0.5325    2.5117    4.7207 H   0  0  0  0  0  0  0  0  0  0  0  0
    1.2595    2.3706    2.1719 H   0  0  0  0  0  0  0  0  0  0  0  0
    2.4341    2.4116    3.4388 H   0  0  0  0  0  0  0  0  0  0  0  0
    1.4268   -0.0813    2.0318 H   0  0  0  0  0  0  0  0  0  0  0  0
    2.9329    0.7036    1.7469 H   0  0  0  0  0  0  0  0  0  0  0  0
    3.7794   -3.7859    3.9007 H   0  0  0  0  0  0  0  0  0  0  0  0
    3.1076   -2.5347    6.3615 H   0  0  0  0  0  0  0  0  0  0  0  0
    4.5625   -3.3370    5.9517 H   0  0  0  0  0  0  0  0  0  0  0  0
    6.2681    0.6114    5.6252 H   0  0  0  0  0  0  0  0  0  0  0  0
    2.8982   -0.0404    7.0354 H   0  0  0  0  0  0  0  0  0  0  0  0
    3.0567    2.1405    5.2689 H   0  0  0  0  0  0  0  0  0  0  0  0
    1.8373   -1.2305    5.3653 H   0  0  0  0  0  0  0  0  0  0  0  0
    4.2478    1.2650    3.8209 H   0  0  0  0  0  0  0  0  0  0  0  0
    6.2711    0.5286    3.2784 H   0  0  0  0  0  0  0  0  0  0  0  0
    6.0584   -1.0978    3.7162 H   0  0  0  0  0  0  0  0  0  0  0  0
    4.8924    0.1358    1.1506 H   0  0  0  0  0  0  0  0  0  0  0  0
    6.4359   -0.6184    1.2420 H   0  0  0  0  0  0  0  0  0  0  0  0
    5.5184   -4.1503    1.7626 H   0  0  0  0  0  0  0  0  0  0  0  0
    5.8132   -3.0765    3.0906 H   0  0  0  0  0  0  0  0  0  0  0  0
    6.8278   -2.9909    1.6916 H   0  0  0  0  0  0  0  0  0  0  0  0
    2.8019   -1.4830    1.2276 H   0  0  0  0  0  0  0  0  0  0  0  0
    3.2419   -4.3669    1.8036 H   0  0  0  0  0  0  0  0  0  0  0  0
    1.8506   -3.5457    1.1231 H   0  0  0  0  0  0  0  0  0  0  0  0
    4.1150   -4.5319   -0.2838 H   0  0  0  0  0  0  0  0  0  0  0  0
    2.1198   -4.4057   -1.4934 H   0  0  0  0  0  0  0  0  0  0  0  0
    1.8200   -2.7569   -1.0882 H   0  0  0  0  0  0  0  0  0  0  0  0
    3.9977   -3.7300   -2.9750 H   0  0  0  0  0  0  0  0  0  0  0  0
    1.7130   -3.7219   -3.6292 H   0  0  0  0  0  0  0  0  0  0  0  0
    4.8047   -1.5700   -3.1571 H   0  0  0  0  0  0  0  0  0  0  0  0
    3.2446   -0.8319   -2.9350 H   0  0  0  0  0  0  0  0  0  0  0  0
    4.9830   -0.4305   -1.0792 H   0  0  0  0  0  0  0  0  0  0  0  0
    3.3444   -0.7879   -0.6586 H   0  0  0  0  0  0  0  0  0  0  0  0
    5.9461   -3.1600   -1.8909 H   0  0  0  0  0  0  0  0  0  0  0  0
    6.3910   -3.8814   -0.3859 H   0  0  0  0  0  0  0  0  0  0  0  0
    6.8487   -2.2103   -0.7223 H   0  0  0  0  0  0  0  0  0  0  0  0
  1  2  1  0
  1 32  1  0
  1 33  1  0
  1 34  1  0
  2 16  1  0
  2  3  1  0
  2  4  1  0
  3 35  1  0
  3 36  1  0
  3 37  1  0
  4  5  1  0
  4 38  1  0
  4 39  1  0
  5  6  1  0
  5 40  1  0
  5 41  1  0
  7  6  1  6
  6 42  1  0
  6 43  1  0
  7 16  1  0
  7 17  1  0
  7  8  1  0
  8 22  1  0
  8  9  2  0
  9 10  1  0
  9 44  1  0
 10 11  1  0
 10 45  1  0
 10 46  1  0
 11 12  1  0
 12 13  1  1
 12 14  1  0
 12 17  1  0
 13 47  1  0
 14 15  1  0
 14 16  1  0
 14 48  1  1
 15 49  1  0
 16 50  1  1
 17 18  1  0
 17 51  1  1
 18 19  1  0
 18 52  1  0
 18 53  1  0
 19 20  1  0
 19 54  1  0
 19 55  1  0
 20 30  1  0
 20 21  1  1
 20 22  1  0
 21 56  1  0
 21 57  1  0
 21 58  1  0
 22 23  1  0
 22 59  1  6
 23 24  1  0
 23 60  1  0
 23 61  1  0
 24 30  1  0
 24 25  1  0
 24 62  1  6
 25 26  1  0
 25 63  1  0
 25 64  1  0
 26 27  1  0
 26 28  1  0
 26 65  1  6
 27 66  1  0
 28 29  1  0
 28 67  1  0
 28 68  1  0
 29 30  1  0
 29 69  1  0
 29 70  1  0
 30 31  1  6
 31 71  1  0
 31 72  1  0
 31 73  1  0
M  END
>  <i_m_ct_stereo_status>  (413) 
1

>  <s_m_source_file>  (413) 
/var/tmp/pbs.5076255.sched01/tmp7onimy_i/150cvk1qxg3.sdf

>  <i_m_source_file_index>  (413) 
40

>  <i_lp_mmshare_version>  (413) 
48012

>  <i_f3d_flags>  (413) 
0

>  <s_epik_input>  (413) 
W0NIMl0xW0NIMl1bQ0gyXUMoW0NIM10pKFtDSDNdKVtDQEBIXTJbQ0BIXShbT0hdKVtDQEBdKFtPSF0pKE9bQ0gyXVtDSF0zKVtDQEhdNFtDSDJdW0NIMl1bQ0BAXShbQ0gzXSkoW0NAQEhdNUM9M1tDQEBdMTI0KVtDQEBdNihbQ0gzXSlbQ0BASF0oW0NIMl01KVtDSDJdW0NAQEhdKFtPSF0pW0NIMl1bQ0gyXTY=

>  <s_epik_cmdline>  (413) 
J2VwaWtfcHl0aG9uJywgJy1waHQnLCAnMi4wJywgJy1waCcsICc3LjAnLCAnLXRuJywgJzgnLCAnLW1hJywgJzIwMCcsICctaW1hZScsICc8aW5maWxlLm1hZT4nLCAnLW9tYWUnLCAnPG91dGZpbGUubWFlPic=

>  <r_lp_tautomer_probability>  (413) 
1

>  <r_epik_Ionization_Penalty>  (413) 
2.78593e-06

>  <r_epik_Ionization_Penalty_Charging>  (413) 
0

>  <r_epik_Ionization_Penalty_Neutral>  (413) 
2.78593e-06

>  <r_epik_State_Penalty>  (413) 
-0

>  <r_epik_Charging_Adjusted_Penalty>  (413) 
0

>  <i_epik_Tot_Q>  (413) 
0

>  <i_epik_Tot_abs_Q>  (413) 
0

>  <s_lp_Force_Field>  (413) 
OPLS3e

>  <r_lp_Energy>  (413) 
105.172

>  <b_lp_Chiralities_Consistent>  (413) 
1

>  <s_lp_Variant>  (413) 
112:0-1

>  <s_i_glide_gridfile>  (413) 
pfpi4k_grid

>  <i_i_glide_lignum>  (413) 
40

>  <i_i_glide_rotatable_bonds>  (413) 
3

>  <r_i_docking_score>  (413) 
-3.27153

>  <r_i_glide_ligand_efficiency>  (413) 
-0.105533

>  <r_i_glide_ligand_efficiency_sa>  (413) 
-0.33152

>  <r_i_glide_ligand_efficiency_ln>  (413) 
-0.73783

>  <r_i_glide_gscore>  (413) 
-3.27153

>  <r_i_glide_lipo>  (413) 
-0.444521

>  <r_i_glide_hbond>  (413) 
-0.262267

>  <r_i_glide_metal>  (413) 
-0

>  <r_i_glide_rewards>  (413) 
-0.48964

>  <r_i_glide_evdw>  (413) 
-30.2896

>  <r_i_glide_ecoul>  (413) 
-3.73747

>  <r_i_glide_erotb>  (413) 
0

>  <r_i_glide_esite>  (413) 
0

>  <r_i_glide_emodel>  (413) 
-40.1896

>  <r_i_glide_energy>  (413) 
-34.027

>  <r_i_glide_einternal>  (413) 
0.638553

>  <r_i_glide_intrahb_reward>  (413) 
-0

>  <i_i_glide_confnum>  (413) 
2

>  <i_i_glide_posenum>  (413) 
22

>  <r_i_glide_eff_state_penalty>  (413) 
0

>  <ligand_id>  (413) 
112

>  <original_smiles>  (413) 
CC1(C)CCCC23C4=CCOC(O)(C(O)C12)C3CCC1(C)C4CC2CC(O)CCC21C

>  <smiles>  (413) 
[H]OC1([H])C([H])([H])C([H])([H])C2(C([H])([H])[H])C([H])(C1([H])[H])C([H])([H])C1([H])C3=C([H])C([H])([H])OC4(O[H])C([H])(O[H])C5([H])C3(C([H])([H])C([H])([H])C([H])([H])C5(C([H])([H])[H])C([H])([H])[H])C4([H])C([H])([H])C([H])([H])C12C([H])([H])[H]

$$$$
112:0:1
     RDKit          3D

 73 78  0  0  1  0  0  0  0  0999 V2000
    0.0171    0.9071    6.1314 C   0  0  0  0  0  0  0  0  0  0  0  0
    0.6649    0.5959    4.7628 C   0  0  0  0  0  0  0  0  0  0  0  0
   -0.2720   -0.4633    4.1191 C   0  0  0  0  0  0  0  0  0  0  0  0
    0.6851    1.8985    3.9199 C   0  0  0  0  0  0  0  0  0  0  0  0
    1.8311    1.9862    2.9115 C   0  0  0  0  0  0  0  0  0  0  0  0
    2.3571    0.6189    2.4541 C   0  0  0  0  0  0  0  0  0  0  0  0
    2.9600   -0.2526    3.6106 C   0  0  2  0  0  0  0  0  0  0  0  0
    3.1795   -1.7517    3.2700 C   0  0  0  0  0  0  0  0  0  0  0  0
    3.4788   -2.6579    4.2291 C   0  0  0  0  0  0  0  0  0  0  0  0
    3.8397   -2.3641    5.6748 C   0  0  0  0  0  0  0  0  0  0  0  0
    4.7398   -1.2623    5.8537 O   0  0  0  0  0  0  0  0  0  0  0  0
    4.4653    0.0872    5.5014 C   0  0  2  0  0  0  0  0  0  0  0  0
    5.4658    0.9389    6.0448 O   0  0  0  0  0  0  0  0  0  0  0  0
    3.0607    0.5232    5.9884 C   0  0  1  0  0  0  0  0  0  0  0  0
    2.9685    1.9347    6.0703 O   0  0  0  0  0  0  0  0  0  0  0  0
    2.0881   -0.0483    4.9092 C   0  0  1  0  0  0  0  0  0  0  0  0
    4.3754    0.2692    3.9666 C   0  0  1  0  0  0  0  0  0  0  0  0
    5.6351   -0.2810    3.2255 C   0  0  0  0  0  0  0  0  0  0  0  0
    5.5439   -0.6600    1.7085 C   0  0  0  0  0  0  0  0  0  0  0  0
    4.9180   -2.0454    1.3762 C   0  0  1  0  0  0  0  0  0  0  0  0
    5.7797   -3.1368    2.0896 C   0  0  0  0  0  0  0  0  0  0  0  0
    3.4283   -2.0928    1.7978 C   0  0  1  0  0  0  0  0  0  0  0  0
    2.9374   -3.4077    1.2039 C   0  0  0  0  0  0  0  0  0  0  0  0
    3.6667   -3.5017   -0.1631 C   0  0  1  0  0  0  0  0  0  0  0  0
    2.6885   -3.3757   -1.3555 C   0  0  0  0  0  0  0  0  0  0  0  0
    3.3927   -2.9693   -2.6558 C   0  0  1  0  0  0  0  0  0  0  0  0
    2.4650   -2.8963   -3.7115 O   0  0  0  0  0  0  0  0  0  0  0  0
    4.0994   -1.6088   -2.5228 C   0  0  0  0  0  0  0  0  0  0  0  0
    4.4129   -1.2227   -1.0567 C   0  0  0  0  0  0  0  0  0  0  0  0
    4.8113   -2.4295   -0.1485 C   0  0  1  0  0  0  0  0  0  0  0  0
    6.1319   -3.0078   -0.7262 C   0  0  0  0  0  0  0  0  0  0  0  0
   -1.0187    1.2268    6.0044 H   0  0  0  0  0  0  0  0  0  0  0  0
    0.5237    1.7274    6.6473 H   0  0  0  0  0  0  0  0  0  0  0  0
    0.0238    0.0411    6.8034 H   0  0  0  0  0  0  0  0  0  0  0  0
    0.0943   -0.8313    3.1684 H   0  0  0  0  0  0  0  0  0  0  0  0
   -1.2734   -0.0699    3.9534 H   0  0  0  0  0  0  0  0  0  0  0  0
   -0.3828   -1.3418    4.7611 H   0  0  0  0  0  0  0  0  0  0  0  0
   -0.2491    1.9673    3.3713 H   0  0  0  0  0  0  0  0  0  0  0  0
    0.6935    2.7779    4.5631 H   0  0  0  0  0  0  0  0  0  0  0  0
    1.4934    2.5575    2.0441 H   0  0  0  0  0  0  0  0  0  0  0  0
    2.6404    2.5705    3.3394 H   0  0  0  0  0  0  0  0  0  0  0  0
    1.5560    0.1016    1.9413 H   0  0  0  0  0  0  0  0  0  0  0  0
    3.1038    0.8131    1.6942 H   0  0  0  0  0  0  0  0  0  0  0  0
    3.6839   -3.6739    3.9385 H   0  0  0  0  0  0  0  0  0  0  0  0
    2.9934   -2.3512    6.3531 H   0  0  0  0  0  0  0  0  0  0  0  0
    4.4120   -3.2313    6.0074 H   0  0  0  0  0  0  0  0  0  0  0  0
    5.2947    0.9910    6.9800 H   0  0  0  0  0  0  0  0  0  0  0  0
    2.8715    0.1316    6.9893 H   0  0  0  0  0  0  0  0  0  0  0  0
    3.0110    2.2804    5.1826 H   0  0  0  0  0  0  0  0  0  0  0  0
    1.8066   -1.0196    5.2951 H   0  0  0  0  0  0  0  0  0  0  0  0
    4.3843    1.3468    3.8024 H   0  0  0  0  0  0  0  0  0  0  0  0
    6.3870    0.5085    3.3092 H   0  0  0  0  0  0  0  0  0  0  0  0
    6.0832   -1.0941    3.7905 H   0  0  0  0  0  0  0  0  0  0  0  0
    5.0503    0.1492    1.1682 H   0  0  0  0  0  0  0  0  0  0  0  0
    6.5607   -0.6604    1.3194 H   0  0  0  0  0  0  0  0  0  0  0  0
    5.4624   -4.1525    1.8560 H   0  0  0  0  0  0  0  0  0  0  0  0
    5.7727   -3.0691    3.1737 H   0  0  0  0  0  0  0  0  0  0  0  0
    6.8260   -3.0547    1.8004 H   0  0  0  0  0  0  0  0  0  0  0  0
    2.8924   -1.3732    1.2006 H   0  0  0  0  0  0  0  0  0  0  0  0
    3.1816   -4.2612    1.8345 H   0  0  0  0  0  0  0  0  0  0  0  0
    1.8442   -3.3836    1.0944 H   0  0  0  0  0  0  0  0  0  0  0  0
    4.1116   -4.4984   -0.2222 H   0  0  0  0  0  0  0  0  0  0  0  0
    2.1693   -4.3084   -1.4809 H   0  0  0  0  0  0  0  0  0  0  0  0
    1.9121   -2.6652   -1.1344 H   0  0  0  0  0  0  0  0  0  0  0  0
    4.1195   -3.7397   -2.9177 H   0  0  0  0  0  0  0  0  0  0  0  0
    1.9114   -3.6712   -3.6931 H   0  0  0  0  0  0  0  0  0  0  0  0
    5.0109   -1.6198   -3.1215 H   0  0  0  0  0  0  0  0  0  0  0  0
    3.4809   -0.8132   -2.9480 H   0  0  0  0  0  0  0  0  0  0  0  0
    5.1872   -0.4591   -1.0503 H   0  0  0  0  0  0  0  0  0  0  0  0
    3.5210   -0.7312   -0.6745 H   0  0  0  0  0  0  0  0  0  0  0  0
    6.0516   -3.2350   -1.7911 H   0  0  0  0  0  0  0  0  0  0  0  0
    6.4166   -3.9539   -0.2624 H   0  0  0  0  0  0  0  0  0  0  0  0
    6.9590   -2.3066   -0.6054 H   0  0  0  0  0  0  0  0  0  0  0  0
  1  2  1  0
  1 32  1  0
  1 33  1  0
  1 34  1  0
  2 16  1  0
  2  3  1  0
  2  4  1  0
  3 35  1  0
  3 36  1  0
  3 37  1  0
  4  5  1  0
  4 38  1  0
  4 39  1  0
  5  6  1  0
  5 40  1  0
  5 41  1  0
  7  6  1  6
  6 42  1  0
  6 43  1  0
  7 16  1  0
  7 17  1  0
  7  8  1  0
  8 22  1  0
  8  9  2  0
  9 10  1  0
  9 44  1  0
 10 11  1  0
 10 45  1  0
 10 46  1  0
 11 12  1  0
 12 13  1  1
 12 14  1  0
 12 17  1  0
 13 47  1  0
 14 15  1  0
 14 16  1  0
 14 48  1  1
 15 49  1  0
 16 50  1  1
 17 18  1  0
 17 51  1  1
 18 19  1  0
 18 52  1  0
 18 53  1  0
 19 20  1  0
 19 54  1  0
 19 55  1  0
 20 30  1  0
 20 21  1  1
 20 22  1  0
 21 56  1  0
 21 57  1  0
 21 58  1  0
 22 23  1  0
 22 59  1  6
 23 24  1  0
 23 60  1  0
 23 61  1  0
 24 30  1  0
 24 25  1  0
 24 62  1  1
 25 26  1  0
 25 63  1  0
 25 64  1  0
 26 27  1  0
 26 28  1  0
 26 65  1  6
 27 66  1  0
 28 29  1  0
 28 67  1  0
 28 68  1  0
 29 30  1  0
 29 69  1  0
 29 70  1  0
 30 31  1  6
 31 71  1  0
 31 72  1  0
 31 73  1  0
M  END
>  <i_m_ct_stereo_status>  (414) 
1

>  <s_m_source_file>  (414) 
/var/tmp/pbs.5076255.sched01/tmp7onimy_i/150cvk1qxg3.sdf

>  <i_m_source_file_index>  (414) 
40

>  <i_lp_mmshare_version>  (414) 
48012

>  <i_f3d_flags>  (414) 
0

>  <s_epik_input>  (414) 
W0NIMl0xW0NIMl1bQ0gyXUMoW0NIM10pKFtDSDNdKVtDQEBIXTJbQ0BIXShbT0hdKVtDQEBdKFtPSF0pKE9bQ0gyXVtDSF0zKVtDQEhdNFtDSDJdW0NIMl1bQ0BAXShbQ0gzXSkoW0NAQEhdNUM9M1tDQEBdMTI0KVtDQEBdNihbQ0gzXSlbQ0BASF0oW0NIMl01KVtDSDJdW0NAQEhdKFtPSF0pW0NIMl1bQ0gyXTY=

>  <s_epik_cmdline>  (414) 
J2VwaWtfcHl0aG9uJywgJy1waHQnLCAnMi4wJywgJy1waCcsICc3LjAnLCAnLXRuJywgJzgnLCAnLW1hJywgJzIwMCcsICctaW1hZScsICc8aW5maWxlLm1hZT4nLCAnLW9tYWUnLCAnPG91dGZpbGUubWFlPic=

>  <r_lp_tautomer_probability>  (414) 
1

>  <r_epik_Ionization_Penalty>  (414) 
2.78593e-06

>  <r_epik_Ionization_Penalty_Charging>  (414) 
0

>  <r_epik_Ionization_Penalty_Neutral>  (414) 
2.78593e-06

>  <r_epik_State_Penalty>  (414) 
-0

>  <r_epik_Charging_Adjusted_Penalty>  (414) 
0

>  <i_epik_Tot_Q>  (414) 
0

>  <i_epik_Tot_abs_Q>  (414) 
0

>  <s_lp_Force_Field>  (414) 
OPLS3e

>  <r_lp_Energy>  (414) 
105.172

>  <b_lp_Chiralities_Consistent>  (414) 
1

>  <s_lp_Variant>  (414) 
112:0-1

>  <s_i_glide_gridfile>  (414) 
pfpi4k_grid

>  <i_i_glide_lignum>  (414) 
40

>  <i_i_glide_rotatable_bonds>  (414) 
3

>  <r_i_docking_score>  (414) 
-3.12411

>  <r_i_glide_ligand_efficiency>  (414) 
-0.100778

>  <r_i_glide_ligand_efficiency_sa>  (414) 
-0.316582

>  <r_i_glide_ligand_efficiency_ln>  (414) 
-0.704584

>  <r_i_glide_gscore>  (414) 
-3.12411

>  <r_i_glide_lipo>  (414) 
-0.47501

>  <r_i_glide_hbond>  (414) 
-0.109681

>  <r_i_glide_metal>  (414) 
-0

>  <r_i_glide_rewards>  (414) 
-0.490538

>  <r_i_glide_evdw>  (414) 
-30.2762

>  <r_i_glide_ecoul>  (414) 
-3.56717

>  <r_i_glide_erotb>  (414) 
0

>  <r_i_glide_esite>  (414) 
0

>  <r_i_glide_emodel>  (414) 
-39.5488

>  <r_i_glide_energy>  (414) 
-33.8434

>  <r_i_glide_einternal>  (414) 
0.808216

>  <r_i_glide_intrahb_reward>  (414) 
-0

>  <i_i_glide_confnum>  (414) 
2

>  <i_i_glide_posenum>  (414) 
6

>  <r_i_glide_eff_state_penalty>  (414) 
0

>  <ligand_id>  (414) 
112

>  <original_smiles>  (414) 
CC1(C)CCCC23C4=CCOC(O)(C(O)C12)C3CCC1(C)C4CC2CC(O)CCC21C

>  <smiles>  (414) 
[H]OC1([H])C([H])([H])C([H])([H])C2(C([H])([H])[H])C([H])(C1([H])[H])C([H])([H])C1([H])C3=C([H])C([H])([H])OC4(O[H])C([H])(O[H])C5([H])C3(C([H])([H])C([H])([H])C([H])([H])C5(C([H])([H])[H])C([H])([H])[H])C4([H])C([H])([H])C([H])([H])C12C([H])([H])[H]

$$$$
112:0:2
     RDKit          3D

 73 78  0  0  1  0  0  0  0  0999 V2000
   -0.3461    1.6358    5.4397 C   0  0  0  0  0  0  0  0  0  0  0  0
    0.4807    1.1834    4.2144 C   0  0  0  0  0  0  0  0  0  0  0  0
   -0.4516    0.2103    3.4413 C   0  0  0  0  0  0  0  0  0  0  0  0
    0.7798    2.4326    3.3465 C   0  0  0  0  0  0  0  0  0  0  0  0
    2.0839    2.3612    2.5535 C   0  0  0  0  0  0  0  0  0  0  0  0
    2.5221    0.9272    2.2240 C   0  0  0  0  0  0  0  0  0  0  0  0
    2.8314    0.0451    3.4846 C   0  0  2  0  0  0  0  0  0  0  0  0
    2.9245   -1.4816    3.2234 C   0  0  0  0  0  0  0  0  0  0  0  0
    2.9430   -2.3744    4.2396 C   0  0  0  0  0  0  0  0  0  0  0  0
    3.1008   -2.0555    5.7208 C   0  0  0  0  0  0  0  0  0  0  0  0
    4.0838   -1.0466    6.0221 O   0  0  0  0  0  0  0  0  0  0  0  0
    4.0313    0.3006    5.5851 C   0  0  2  0  0  0  0  0  0  0  0  0
    5.0284    1.0411    6.2597 O   0  0  0  0  0  0  0  0  0  0  0  0
    2.6392    0.9295    5.8230 C   0  0  1  0  0  0  0  0  0  0  0  0
    2.7355    2.3462    5.8375 O   0  0  0  0  0  0  0  0  0  0  0  0
    1.7903    0.4119    4.6187 C   0  0  1  0  0  0  0  0  0  0  0  0
    4.2209    0.4271    4.0580 C   0  0  1  0  0  0  0  0  0  0  0  0
    5.5235   -0.2797    3.5554 C   0  0  0  0  0  0  0  0  0  0  0  0
    5.6252   -0.7134    2.0573 C   0  0  0  0  0  0  0  0  0  0  0  0
    4.9041   -2.0416    1.6617 C   0  0  1  0  0  0  0  0  0  0  0  0
    5.4847   -3.1897    2.5429 C   0  0  0  0  0  0  0  0  0  0  0  0
    3.3718   -1.9132    1.8186 C   0  0  1  0  0  0  0  0  0  0  0  0
    2.8411   -3.1914    1.1829 C   0  0  0  0  0  0  0  0  0  0  0  0
    3.7694   -3.4253   -0.0335 C   0  0  1  0  0  0  0  0  0  0  0  0
    3.0240   -3.2562   -1.3800 C   0  0  0  0  0  0  0  0  0  0  0  0
    3.9694   -2.9739   -2.5542 C   0  0  1  0  0  0  0  0  0  0  0  0
    3.2472   -2.8448   -3.7615 O   0  0  0  0  0  0  0  0  0  0  0  0
    4.8000   -1.6985   -2.3244 C   0  0  0  0  0  0  0  0  0  0  0  0
    4.9001   -1.2782   -0.8447 C   0  0  0  0  0  0  0  0  0  0  0  0
    5.0134   -2.4799    0.1460 C   0  0  1  0  0  0  0  0  0  0  0  0
    6.3391   -3.2258   -0.1850 C   0  0  0  0  0  0  0  0  0  0  0  0
   -1.3046    2.0557    5.1242 H   0  0  0  0  0  0  0  0  0  0  0  0
    0.1631    2.4176    6.0047 H   0  0  0  0  0  0  0  0  0  0  0  0
   -0.5537    0.8080    6.1211 H   0  0  0  0  0  0  0  0  0  0  0  0
    0.0187   -0.2346    2.5681 H   0  0  0  0  0  0  0  0  0  0  0  0
   -1.3621    0.7021    3.0949 H   0  0  0  0  0  0  0  0  0  0  0  0
   -0.7687   -0.6216    4.0721 H   0  0  0  0  0  0  0  0  0  0  0  0
   -0.0373    2.5875    2.6433 H   0  0  0  0  0  0  0  0  0  0  0  0
    0.7925    3.3398    3.9559 H   0  0  0  0  0  0  0  0  0  0  0  0
    1.9496    2.9324    1.6364 H   0  0  0  0  0  0  0  0  0  0  0  0
    2.8706    2.8730    3.0995 H   0  0  0  0  0  0  0  0  0  0  0  0
    1.7601    0.4744    1.5954 H   0  0  0  0  0  0  0  0  0  0  0  0
    3.3974    1.0019    1.5893 H   0  0  0  0  0  0  0  0  0  0  0  0
    3.0803   -3.4161    4.0090 H   0  0  0  0  0  0  0  0  0  0  0  0
    2.1544   -1.9257    6.2425 H   0  0  0  0  0  0  0  0  0  0  0  0
    3.5043   -2.9666    6.1618 H   0  0  0  0  0  0  0  0  0  0  0  0
    4.8506    1.9600    6.0890 H   0  0  0  0  0  0  0  0  0  0  0  0
    2.2311    0.6112    6.7842 H   0  0  0  0  0  0  0  0  0  0  0  0
    2.9507    2.6340    4.9589 H   0  0  0  0  0  0  0  0  0  0  0  0
    1.3347   -0.5050    4.9717 H   0  0  0  0  0  0  0  0  0  0  0  0
    4.3682    1.4923    3.8795 H   0  0  0  0  0  0  0  0  0  0  0  0
    6.3299    0.4339    3.7293 H   0  0  0  0  0  0  0  0  0  0  0  0
    5.7855   -1.1028    4.2185 H   0  0  0  0  0  0  0  0  0  0  0  0
    5.3211    0.1163    1.4221 H   0  0  0  0  0  0  0  0  0  0  0  0
    6.6834   -0.8484    1.8400 H   0  0  0  0  0  0  0  0  0  0  0  0
    5.0975   -4.1741    2.2816 H   0  0  0  0  0  0  0  0  0  0  0  0
    5.3226   -3.0678    3.6095 H   0  0  0  0  0  0  0  0  0  0  0  0
    6.5652   -3.2363    2.4233 H   0  0  0  0  0  0  0  0  0  0  0  0
    3.0240   -1.1630    1.1236 H   0  0  0  0  0  0  0  0  0  0  0  0
    2.8781   -4.0354    1.8667 H   0  0  0  0  0  0  0  0  0  0  0  0
    1.8118   -3.0388    0.8759 H   0  0  0  0  0  0  0  0  0  0  0  0
    4.1120   -4.4627    0.0079 H   0  0  0  0  0  0  0  0  0  0  0  0
    2.4551   -4.1598   -1.5764 H   0  0  0  0  0  0  0  0  0  0  0  0
    2.2914   -2.4559   -1.3217 H   0  0  0  0  0  0  0  0  0  0  0  0
    4.6365   -3.8270   -2.6789 H   0  0  0  0  0  0  0  0  0  0  0  0
    2.6006   -3.5393   -3.8005 H   0  0  0  0  0  0  0  0  0  0  0  0
    5.7975   -1.8687   -2.7219 H   0  0  0  0  0  0  0  0  0  0  0  0
    4.3781   -0.8619   -2.8850 H   0  0  0  0  0  0  0  0  0  0  0  0
    5.7475   -0.6085   -0.7253 H   0  0  0  0  0  0  0  0  0  0  0  0
    4.0199   -0.6734   -0.6304 H   0  0  0  0  0  0  0  0  0  0  0  0
    6.4052   -3.4899   -1.2386 H   0  0  0  0  0  0  0  0  0  0  0  0
    6.4276   -4.1735    0.3475 H   0  0  0  0  0  0  0  0  0  0  0  0
    7.2070   -2.6115    0.0565 H   0  0  0  0  0  0  0  0  0  0  0  0
  1  2  1  0
  1 32  1  0
  1 33  1  0
  1 34  1  0
  2 16  1  0
  2  3  1  0
  2  4  1  0
  3 35  1  0
  3 36  1  0
  3 37  1  0
  4  5  1  0
  4 38  1  0
  4 39  1  0
  5  6  1  0
  5 40  1  0
  5 41  1  0
  7  6  1  6
  6 42  1  0
  6 43  1  0
  7 16  1  0
  7 17  1  0
  7  8  1  0
  8 22  1  0
  8  9  2  0
  9 10  1  0
  9 44  1  0
 10 11  1  0
 10 45  1  0
 10 46  1  0
 11 12  1  0
 12 13  1  1
 12 14  1  0
 12 17  1  0
 13 47  1  0
 14 15  1  0
 14 16  1  0
 14 48  1  1
 15 49  1  0
 16 50  1  1
 17 18  1  0
 17 51  1  1
 18 19  1  0
 18 52  1  0
 18 53  1  0
 19 20  1  0
 19 54  1  0
 19 55  1  0
 20 30  1  0
 20 21  1  1
 20 22  1  0
 21 56  1  0
 21 57  1  0
 21 58  1  0
 22 23  1  0
 22 59  1  6
 23 24  1  0
 23 60  1  0
 23 61  1  0
 24 30  1  0
 24 25  1  0
 24 62  1  1
 25 26  1  0
 25 63  1  0
 25 64  1  0
 26 27  1  0
 26 28  1  0
 26 65  1  6
 27 66  1  0
 28 29  1  0
 28 67  1  0
 28 68  1  0
 29 30  1  0
 29 69  1  0
 29 70  1  0
 30 31  1  1
 31 71  1  0
 31 72  1  0
 31 73  1  0
M  END
>  <i_m_ct_stereo_status>  (415) 
1

>  <s_m_source_file>  (415) 
/var/tmp/pbs.5076255.sched01/tmp7onimy_i/150cvk1qxg3.sdf

>  <i_m_source_file_index>  (415) 
40

>  <i_lp_mmshare_version>  (415) 
48012

>  <i_f3d_flags>  (415) 
0

>  <s_epik_input>  (415) 
W0NIMl0xW0NIMl1bQ0gyXUMoW0NIM10pKFtDSDNdKVtDQEBIXTJbQ0BIXShbT0hdKVtDQEBdKFtPSF0pKE9bQ0gyXVtDSF0zKVtDQEhdNFtDSDJdW0NIMl1bQ0BAXShbQ0gzXSkoW0NAQEhdNUM9M1tDQEBdMTI0KVtDQEBdNihbQ0gzXSlbQ0BASF0oW0NIMl01KVtDSDJdW0NAQEhdKFtPSF0pW0NIMl1bQ0gyXTY=

>  <s_epik_cmdline>  (415) 
J2VwaWtfcHl0aG9uJywgJy1waHQnLCAnMi4wJywgJy1waCcsICc3LjAnLCAnLXRuJywgJzgnLCAnLW1hJywgJzIwMCcsICctaW1hZScsICc8aW5maWxlLm1hZT4nLCAnLW9tYWUnLCAnPG91dGZpbGUubWFlPic=

>  <r_lp_tautomer_probability>  (415) 
1

>  <r_epik_Ionization_Penalty>  (415) 
2.78593e-06

>  <r_epik_Ionization_Penalty_Charging>  (415) 
0

>  <r_epik_Ionization_Penalty_Neutral>  (415) 
2.78593e-06

>  <r_epik_State_Penalty>  (415) 
-0

>  <r_epik_Charging_Adjusted_Penalty>  (415) 
0

>  <i_epik_Tot_Q>  (415) 
0

>  <i_epik_Tot_abs_Q>  (415) 
0

>  <s_lp_Force_Field>  (415) 
OPLS3e

>  <r_lp_Energy>  (415) 
105.172

>  <b_lp_Chiralities_Consistent>  (415) 
1

>  <s_lp_Variant>  (415) 
112:0-1

>  <s_i_glide_gridfile>  (415) 
pfpi4k_grid

>  <i_i_glide_lignum>  (415) 
40

>  <i_i_glide_rotatable_bonds>  (415) 
3

>  <r_i_docking_score>  (415) 
-3.06139

>  <r_i_glide_ligand_efficiency>  (415) 
-0.0987544

>  <r_i_glide_ligand_efficiency_sa>  (415) 
-0.310225

>  <r_i_glide_ligand_efficiency_ln>  (415) 
-0.690436

>  <r_i_glide_gscore>  (415) 
-3.06139

>  <r_i_glide_lipo>  (415) 
-0.502609

>  <r_i_glide_hbond>  (415) 
0

>  <r_i_glide_metal>  (415) 
-0

>  <r_i_glide_rewards>  (415) 
-0.473046

>  <r_i_glide_evdw>  (415) 
-30.8057

>  <r_i_glide_ecoul>  (415) 
-3.6363

>  <r_i_glide_erotb>  (415) 
0

>  <r_i_glide_esite>  (415) 
0

>  <r_i_glide_emodel>  (415) 
-39.3322

>  <r_i_glide_energy>  (415) 
-34.442

>  <r_i_glide_einternal>  (415) 
2.19434

>  <r_i_glide_intrahb_reward>  (415) 
-0

>  <i_i_glide_confnum>  (415) 
2

>  <i_i_glide_posenum>  (415) 
23

>  <r_i_glide_eff_state_penalty>  (415) 
0

>  <ligand_id>  (415) 
112

>  <original_smiles>  (415) 
CC1(C)CCCC23C4=CCOC(O)(C(O)C12)C3CCC1(C)C4CC2CC(O)CCC21C

>  <smiles>  (415) 
[H]OC1([H])C([H])([H])C([H])([H])C2(C([H])([H])[H])C([H])(C1([H])[H])C([H])([H])C1([H])C3=C([H])C([H])([H])OC4(O[H])C([H])(O[H])C5([H])C3(C([H])([H])C([H])([H])C([H])([H])C5(C([H])([H])[H])C([H])([H])[H])C4([H])C([H])([H])C([H])([H])C12C([H])([H])[H]

$$$$
113:0:0
     RDKit          3D

 87 92  0  0  1  0  0  0  0  0999 V2000
    1.8511    8.9412    6.8783 C   0  0  0  0  0  0  0  0  0  0  0  0
    1.4031    7.7059    7.1552 C   0  0  0  0  0  0  0  0  0  0  0  0
    0.8132    7.4085    8.5251 C   0  0  2  0  0  0  0  0  0  0  0  0
    1.8815    7.3179    9.6106 C   0  0  0  0  0  0  0  0  0  0  0  0
    3.3059    7.1024    9.0997 C   0  0  0  0  0  0  0  0  0  0  0  0
    3.7772    5.7687    8.4241 C   0  0  2  0  0  0  0  0  0  0  0  0
    5.3314    6.0226    8.3931 C   0  0  1  0  0  0  0  0  0  0  0  0
    6.2119    4.9525    9.0810 C   0  0  0  0  0  0  0  0  0  0  0  0
    5.6729    6.3812    6.9405 C   0  0  0  0  0  0  0  0  0  0  0  0
    4.3399    6.3179    6.1694 C   0  0  1  0  0  0  0  0  0  0  0  0
    4.6325    6.0276    4.8222 O   0  0  0  0  0  0  0  0  0  0  0  0
    3.4046    5.3039    6.9181 C   0  0  1  0  0  0  0  0  0  0  0  0
    4.1200    3.9406    6.7973 C   0  0  0  0  0  0  0  0  0  0  0  0
    1.8500    5.1472    6.2917 C   0  0  1  0  0  0  0  0  0  0  0  0
    1.3223    6.6643    6.0564 C   0  0  1  0  0  0  0  0  0  0  0  0
    0.0263    6.8834    5.5519 O   0  0  0  0  0  0  0  0  0  0  0  0
    1.8600    4.3750    4.8556 C   0  0  2  0  0  0  0  0  0  0  0  0
    0.8932    4.8843    3.7447 C   0  0  0  0  0  0  0  0  0  0  0  0
   -0.5907    4.4915    3.9703 C   0  0  1  0  0  0  0  0  0  0  0  0
   -1.3614    5.0342    2.9030 O   0  0  0  0  0  0  0  0  0  0  0  0
   -0.8263    2.9758    4.2395 C   0  0  0  0  0  0  0  0  0  0  0  0
   -2.3225    2.8365    4.6473 C   0  0  0  0  0  0  0  0  0  0  0  0
   -0.7888    2.2560    2.8415 C   0  0  0  0  0  0  0  0  0  0  0  0
    0.2646    2.3386    5.2917 C   0  0  1  0  0  0  0  0  0  0  0  0
    0.0807    0.7861    5.0923 C   0  0  0  0  0  0  0  0  0  0  0  0
    1.6389    2.8177    4.7918 C   0  0  2  0  0  0  0  0  0  0  0  0
    2.7483    1.9347    4.8000 O   0  0  0  0  0  0  0  0  0  0  0  0
    3.1002    0.9930    5.7075 C   0  0  0  0  0  0  0  0  0  0  0  0
    3.8949    0.1009    5.4160 O   0  0  0  0  0  0  0  0  0  0  0  0
    2.6220    1.1184    7.1838 C   0  0  0  0  0  0  0  0  0  0  0  0
    3.3928    0.6155    8.0027 O   0  0  0  0  0  0  0  0  0  0  0  0
    1.2707    1.7039    7.7231 C   0  0  1  0  0  0  0  0  0  0  0  0
    0.4962    0.4963    8.3647 C   0  0  0  0  0  0  0  0  0  0  0  0
    1.6522    2.3538    8.9198 O   0  0  0  0  0  0  0  0  0  0  0  0
    0.3484    2.7431    6.8628 C   0  0  2  0  0  0  0  0  0  0  0  0
   -1.1075    2.5827    7.4307 C   0  0  0  0  0  0  0  0  0  0  0  0
    0.7186    4.3272    7.0996 C   0  0  1  0  0  0  0  0  0  0  0  0
    0.4748    4.8665    8.5352 C   0  0  0  0  0  0  0  0  0  0  0  0
   -0.1800    6.2495    8.6137 C   0  0  0  0  0  0  0  0  0  0  0  0
    2.2126    9.1996    5.8945 H   0  0  0  0  0  0  0  0  0  0  0  0
    1.8603    9.7164    7.6306 H   0  0  0  0  0  0  0  0  0  0  0  0
    0.2160    8.2898    8.7549 H   0  0  0  0  0  0  0  0  0  0  0  0
    1.8804    8.2742   10.1338 H   0  0  0  0  0  0  0  0  0  0  0  0
    1.6282    6.5951   10.3858 H   0  0  0  0  0  0  0  0  0  0  0  0
    3.6373    7.9646    8.5196 H   0  0  0  0  0  0  0  0  0  0  0  0
    3.8696    7.1928   10.0298 H   0  0  0  0  0  0  0  0  0  0  0  0
    3.5640    4.9613    9.1236 H   0  0  0  0  0  0  0  0  0  0  0  0
    5.6182    6.9188    8.9431 H   0  0  0  0  0  0  0  0  0  0  0  0
    6.0056    3.9282    8.7787 H   0  0  0  0  0  0  0  0  0  0  0  0
    6.0606    4.9782   10.1607 H   0  0  0  0  0  0  0  0  0  0  0  0
    7.2717    5.1393    8.9017 H   0  0  0  0  0  0  0  0  0  0  0  0
    6.0990    7.3802    6.8637 H   0  0  0  0  0  0  0  0  0  0  0  0
    6.4241    5.7053    6.5335 H   0  0  0  0  0  0  0  0  0  0  0  0
    3.9239    7.3226    6.1978 H   0  0  0  0  0  0  0  0  0  0  0  0
    3.8350    6.0900    4.3151 H   0  0  0  0  0  0  0  0  0  0  0  0
    4.0492    3.5102    5.8190 H   0  0  0  0  0  0  0  0  0  0  0  0
    3.7926    3.2802    7.5868 H   0  0  0  0  0  0  0  0  0  0  0  0
    5.1995    3.9515    6.8769 H   0  0  0  0  0  0  0  0  0  0  0  0
    1.9409    7.0545    5.2499 H   0  0  0  0  0  0  0  0  0  0  0  0
    0.1311    7.1238    4.6390 H   0  0  0  0  0  0  0  0  0  0  0  0
    2.8205    4.5343    4.3856 H   0  0  0  0  0  0  0  0  0  0  0  0
    1.0147    5.9445    3.5285 H   0  0  0  0  0  0  0  0  0  0  0  0
    1.2172    4.4459    2.7998 H   0  0  0  0  0  0  0  0  0  0  0  0
   -1.0245    4.9801    4.8255 H   0  0  0  0  0  0  0  0  0  0  0  0
   -0.8841    4.8455    2.0913 H   0  0  0  0  0  0  0  0  0  0  0  0
   -2.5703    1.8488    5.0280 H   0  0  0  0  0  0  0  0  0  0  0  0
   -2.9827    2.9926    3.7902 H   0  0  0  0  0  0  0  0  0  0  0  0
   -2.6435    3.5789    5.3757 H   0  0  0  0  0  0  0  0  0  0  0  0
   -1.1436    1.2261    2.8759 H   0  0  0  0  0  0  0  0  0  0  0  0
    0.1881    2.2598    2.3610 H   0  0  0  0  0  0  0  0  0  0  0  0
   -1.4519    2.7268    2.1175 H   0  0  0  0  0  0  0  0  0  0  0  0
    0.6291    0.1377    5.7572 H   0  0  0  0  0  0  0  0  0  0  0  0
    0.4406    0.4593    4.1167 H   0  0  0  0  0  0  0  0  0  0  0  0
   -0.9546    0.4608    5.1884 H   0  0  0  0  0  0  0  0  0  0  0  0
    1.5561    2.6580    3.7279 H   0  0  0  0  0  0  0  0  0  0  0  0
   -0.1616   -0.0361    7.6809 H   0  0  0  0  0  0  0  0  0  0  0  0
   -0.1255    0.7916    9.2127 H   0  0  0  0  0  0  0  0  0  0  0  0
    1.1696   -0.2503    8.7872 H   0  0  0  0  0  0  0  0  0  0  0  0
    0.8773    2.6715    9.3584 H   0  0  0  0  0  0  0  0  0  0  0  0
   -1.1538    2.4977    8.5135 H   0  0  0  0  0  0  0  0  0  0  0  0
   -1.6120    1.6984    7.0470 H   0  0  0  0  0  0  0  0  0  0  0  0
   -1.7376    3.4432    7.2221 H   0  0  0  0  0  0  0  0  0  0  0  0
   -0.1691    4.7251    6.6384 H   0  0  0  0  0  0  0  0  0  0  0  0
   -0.2030    4.2337    9.0906 H   0  0  0  0  0  0  0  0  0  0  0  0
    1.3827    4.8223    9.1181 H   0  0  0  0  0  0  0  0  0  0  0  0
   -0.6642    6.3233    9.5885 H   0  0  0  0  0  0  0  0  0  0  0  0
   -0.9972    6.3573    7.9009 H   0  0  0  0  0  0  0  0  0  0  0  0
  1  2  2  0
  1 40  1  0
  1 41  1  0
  2 15  1  0
  2  3  1  0
  3 39  1  0
  3  4  1  0
  3 42  1  1
  4  5  1  0
  4 43  1  0
  4 44  1  0
  5  6  1  0
  5 45  1  0
  5 46  1  0
  6 12  1  0
  6  7  1  0
  6 47  1  1
  7  8  1  0
  7  9  1  0
  7 48  1  1
  8 49  1  0
  8 50  1  0
  8 51  1  0
  9 10  1  0
  9 52  1  0
  9 53  1  0
 10 11  1  0
 10 12  1  0
 10 54  1  6
 11 55  1  0
 12 13  1  1
 14 12  1  1
 13 56  1  0
 13 57  1  0
 13 58  1  0
 14 37  1  0
 14 15  1  0
 14 17  1  0
 15 16  1  0
 15 59  1  6
 16 60  1  0
 17 26  1  0
 17 18  1  0
 17 61  1  6
 18 19  1  0
 18 62  1  0
 18 63  1  0
 19 20  1  0
 19 21  1  0
 19 64  1  1
 20 65  1  0
 21 22  1  0
 21 23  1  0
 21 24  1  0
 22 66  1  0
 22 67  1  0
 22 68  1  0
 23 69  1  0
 23 70  1  0
 23 71  1  0
 24 35  1  0
 24 25  1  1
 24 26  1  0
 25 72  1  0
 25 73  1  0
 25 74  1  0
 26 27  1  0
 26 75  1  6
 27 28  1  0
 28 29  2  0
 28 30  1  0
 30 31  2  0
 30 32  1  0
 32 33  1  0
 32 34  1  1
 32 35  1  0
 33 76  1  0
 33 77  1  0
 33 78  1  0
 34 79  1  0
 35 36  1  1
 35 37  1  0
 36 80  1  0
 36 81  1  0
 36 82  1  0
 37 38  1  0
 37 83  1  6
 38 39  1  0
 38 84  1  0
 38 85  1  0
 39 86  1  0
 39 87  1  0
M  END
>  <i_m_ct_stereo_status>  (416) 
1

>  <s_m_source_file>  (416) 
/var/tmp/pbs.5076255.sched01/tmp7onimy_i/150cvk1qxg3.sdf

>  <i_m_source_file_index>  (416) 
41

>  <i_lp_mmshare_version>  (416) 
48012

>  <i_f3d_flags>  (416) 
0

>  <s_epik_input>  (416) 
W09IXVtDQEBIXTFbQ0gyXVtDQEhdKFtDSDNdKVtDQEhdKFtDQF0xKFtDQEBdMjM0KVtDSDNdKVtDSDJdW0NIMl1bQ0BASF0oQyg9W0NIMl0pW0NAQEhdMltPSF0pW0NIMl1bQ0gyXVtDQEBIXTRbQ0BAXTUoW0NIM10pQzYoW0NIM10pW0NAQEhdKFtDQEhdM1tDSDJdW0NAQEhdKFtPSF0pQzYoW0NIM10pW0NIM10pT0MoPU8pQyg9TylbQ0BAXTUoW0NIM10pW09IXQ==

>  <s_epik_cmdline>  (416) 
J2VwaWtfcHl0aG9uJywgJy1waHQnLCAnMi4wJywgJy1waCcsICc3LjAnLCAnLXRuJywgJzgnLCAnLW1hJywgJzIwMCcsICctaW1hZScsICc8aW5maWxlLm1hZT4nLCAnLW9tYWUnLCAnPG91dGZpbGUubWFlPic=

>  <r_lp_tautomer_probability>  (416) 
1

>  <r_epik_Ionization_Penalty>  (416) 
7.53082e-06

>  <r_epik_Ionization_Penalty_Charging>  (416) 
0

>  <r_epik_Ionization_Penalty_Neutral>  (416) 
7.53082e-06

>  <r_epik_State_Penalty>  (416) 
-0

>  <r_epik_Charging_Adjusted_Penalty>  (416) 
0

>  <i_epik_Tot_Q>  (416) 
0

>  <i_epik_Tot_abs_Q>  (416) 
0

>  <s_epik_Chemistry_Notes>  (416) 
This compound has an ester and may undergo hydrolysis at high or low pH.

>  <s_lp_Force_Field>  (416) 
OPLS3e

>  <r_lp_Energy>  (416) 
236.625

>  <b_lp_Chiralities_Consistent>  (416) 
1

>  <s_lp_Variant>  (416) 
113:0-1

>  <s_i_glide_gridfile>  (416) 
pfpi4k_grid

>  <i_i_glide_lignum>  (416) 
41

>  <i_i_glide_rotatable_bonds>  (416) 
4

>  <r_i_docking_score>  (416) 
-2.84479

>  <r_i_glide_ligand_efficiency>  (416) 
-0.0729434

>  <r_i_glide_ligand_efficiency_sa>  (416) 
-0.247367

>  <r_i_glide_ligand_efficiency_ln>  (416) 
-0.610004

>  <r_i_glide_gscore>  (416) 
-2.84479

>  <r_i_glide_lipo>  (416) 
-0.0351898

>  <r_i_glide_hbond>  (416) 
-0.36775

>  <r_i_glide_metal>  (416) 
-0

>  <r_i_glide_rewards>  (416) 
0

>  <r_i_glide_evdw>  (416) 
-22.4769

>  <r_i_glide_ecoul>  (416) 
-8.78672

>  <r_i_glide_erotb>  (416) 
0

>  <r_i_glide_esite>  (416) 
0

>  <r_i_glide_emodel>  (416) 
-36.4802

>  <r_i_glide_energy>  (416) 
-31.2636

>  <r_i_glide_einternal>  (416) 
1.52647

>  <r_i_glide_intrahb_reward>  (416) 
-0

>  <i_i_glide_confnum>  (416) 
2

>  <i_i_glide_posenum>  (416) 
30

>  <r_i_glide_eff_state_penalty>  (416) 
0

>  <ligand_id>  (416) 
113

>  <original_smiles>  (416) 
C=C1C2CCC3C(C)CC(O)C3(C)C3(C1O)C1CC(O)C(C)(C)C4(C)C1OC(=O)C(=O)C(C)(O)C4(C)C3CC2

>  <smiles>  (416) 
[H]OC1([H])C(=C([H])[H])C2([H])C([H])([H])C([H])([H])C3([H])C([H])(C([H])([H])[H])C([H])([H])C([H])(O[H])C3(C([H])([H])[H])C13C1([H])C([H])([H])C([H])(O[H])C(C([H])([H])[H])(C([H])([H])[H])C4(C([H])([H])[H])C1([H])OC(=O)C(=O)C(O[H])(C([H])([H])[H])C4(C([H])([H])[H])C3([H])C([H])([H])C2([H])[H]

$$$$
113:0:1
     RDKit          3D

 87 92  0  0  1  0  0  0  0  0999 V2000
    1.6986    8.8744    7.1548 C   0  0  0  0  0  0  0  0  0  0  0  0
    1.4890    7.5594    7.3701 C   0  0  0  0  0  0  0  0  0  0  0  0
    1.1363    7.0738    8.7695 C   0  0  2  0  0  0  0  0  0  0  0  0
    2.3438    7.0776    9.7043 C   0  0  0  0  0  0  0  0  0  0  0  0
    3.7013    7.1305    9.0046 C   0  0  0  0  0  0  0  0  0  0  0  0
    4.2728    5.9389    8.1594 C   0  0  2  0  0  0  0  0  0  0  0  0
    5.7513    6.4403    7.9592 C   0  0  1  0  0  0  0  0  0  0  0  0
    6.8697    5.4836    8.4361 C   0  0  0  0  0  0  0  0  0  0  0  0
    5.8351    6.9505    6.5145 C   0  0  0  0  0  0  0  0  0  0  0  0
    4.4376    6.7247    5.9067 C   0  0  1  0  0  0  0  0  0  0  0  0
    4.5918    6.5660    4.5134 O   0  0  0  0  0  0  0  0  0  0  0  0
    3.7750    5.5266    6.6752 C   0  0  1  0  0  0  0  0  0  0  0  0
    4.6641    4.3087    6.3457 C   0  0  0  0  0  0  0  0  0  0  0  0
    2.1918    5.1715    6.2335 C   0  0  1  0  0  0  0  0  0  0  0  0
    1.4176    6.6007    6.1958 C   0  0  1  0  0  0  0  0  0  0  0  0
    0.0354    6.6130    5.9230 O   0  0  0  0  0  0  0  0  0  0  0  0
    2.1241    4.5095    4.7455 C   0  0  2  0  0  0  0  0  0  0  0  0
    0.9490    4.9314    3.8168 C   0  0  0  0  0  0  0  0  0  0  0  0
   -0.4119    4.2876    4.1865 C   0  0  1  0  0  0  0  0  0  0  0  0
   -1.3793    4.7734    3.2700 O   0  0  0  0  0  0  0  0  0  0  0  0
   -0.3833    2.7376    4.3358 C   0  0  0  0  0  0  0  0  0  0  0  0
   -1.7726    2.3254    4.9138 C   0  0  0  0  0  0  0  0  0  0  0  0
   -0.4302    2.1399    2.8798 C   0  0  0  0  0  0  0  0  0  0  0  0
    0.9240    2.2146    5.1850 C   0  0  1  0  0  0  0  0  0  0  0  0
    0.9498    0.6711    4.8733 C   0  0  0  0  0  0  0  0  0  0  0  0
    2.1312    2.9435    4.5668 C   0  0  2  0  0  0  0  0  0  0  0  0
    3.3533    2.2499    4.3619 O   0  0  0  0  0  0  0  0  0  0  0  0
    3.9606    1.3138    5.1289 C   0  0  0  0  0  0  0  0  0  0  0  0
    4.8303    0.5758    4.6618 O   0  0  0  0  0  0  0  0  0  0  0  0
    3.6754    1.2722    6.6548 C   0  0  0  0  0  0  0  0  0  0  0  0
    4.6265    0.8694    7.3359 O   0  0  0  0  0  0  0  0  0  0  0  0
    2.3354    1.5826    7.4014 C   0  0  1  0  0  0  0  0  0  0  0  0
    1.8499    0.2251    8.0252 C   0  0  0  0  0  0  0  0  0  0  0  0
    2.7445    2.1914    8.6089 O   0  0  0  0  0  0  0  0  0  0  0  0
    1.1595    2.5173    6.7615 C   0  0  2  0  0  0  0  0  0  0  0  0
   -0.1621    2.0859    7.4906 C   0  0  0  0  0  0  0  0  0  0  0  0
    1.3191    4.1204    7.0959 C   0  0  1  0  0  0  0  0  0  0  0  0
    1.1911    4.5149    8.5927 C   0  0  0  0  0  0  0  0  0  0  0  0
    0.3511    5.7641    8.8775 C   0  0  0  0  0  0  0  0  0  0  0  0
    1.8767    9.2605    6.1645 H   0  0  0  0  0  0  0  0  0  0  0  0
    1.6881    9.5860    7.9667 H   0  0  0  0  0  0  0  0  0  0  0  0
    0.4498    7.8297    9.1554 H   0  0  0  0  0  0  0  0  0  0  0  0
    2.2716    7.9817   10.3087 H   0  0  0  0  0  0  0  0  0  0  0  0
    2.3099    6.2706   10.4355 H   0  0  0  0  0  0  0  0  0  0  0  0
    3.8165    8.0726    8.4671 H   0  0  0  0  0  0  0  0  0  0  0  0
    4.3649    7.2466    9.8640 H   0  0  0  0  0  0  0  0  0  0  0  0
    4.2823    5.0627    8.8071 H   0  0  0  0  0  0  0  0  0  0  0  0
    5.9650    7.3319    8.5457 H   0  0  0  0  0  0  0  0  0  0  0  0
    6.7859    4.4626    8.0694 H   0  0  0  0  0  0  0  0  0  0  0  0
    6.8651    5.4109    9.5243 H   0  0  0  0  0  0  0  0  0  0  0  0
    7.8530    5.8541    8.1432 H   0  0  0  0  0  0  0  0  0  0  0  0
    6.0942    8.0089    6.4783 H   0  0  0  0  0  0  0  0  0  0  0  0
    6.6166    6.4341    5.9583 H   0  0  0  0  0  0  0  0  0  0  0  0
    3.8840    7.6463    6.0699 H   0  0  0  0  0  0  0  0  0  0  0  0
    3.7336    6.5488    4.1135 H   0  0  0  0  0  0  0  0  0  0  0  0
    4.5266    3.9430    5.3484 H   0  0  0  0  0  0  0  0  0  0  0  0
    4.5559    3.5504    7.1059 H   0  0  0  0  0  0  0  0  0  0  0  0
    5.7285    4.4904    6.2903 H   0  0  0  0  0  0  0  0  0  0  0  0
    1.8446    7.1420    5.3515 H   0  0  0  0  0  0  0  0  0  0  0  0
   -0.3886    6.1065    6.5999 H   0  0  0  0  0  0  0  0  0  0  0  0
    2.9739    4.8535    4.1753 H   0  0  0  0  0  0  0  0  0  0  0  0
    0.8707    6.0098    3.6953 H   0  0  0  0  0  0  0  0  0  0  0  0
    1.1998    4.6268    2.8012 H   0  0  0  0  0  0  0  0  0  0  0  0
   -0.8038    4.6427    5.1223 H   0  0  0  0  0  0  0  0  0  0  0  0
   -1.0407    4.6022    2.3948 H   0  0  0  0  0  0  0  0  0  0  0  0
   -1.8220    1.2864    5.2344 H   0  0  0  0  0  0  0  0  0  0  0  0
   -2.5595    2.4382    4.1636 H   0  0  0  0  0  0  0  0  0  0  0  0
   -2.0999    2.9561    5.7390 H   0  0  0  0  0  0  0  0  0  0  0  0
   -0.6143    1.0656    2.8681 H   0  0  0  0  0  0  0  0  0  0  0  0
    0.4636    2.3296    2.2888 H   0  0  0  0  0  0  0  0  0  0  0  0
   -1.2527    2.5420    2.2891 H   0  0  0  0  0  0  0  0  0  0  0  0
    1.6755    0.0756    5.4044 H   0  0  0  0  0  0  0  0  0  0  0  0
    1.2178    0.4755    3.8347 H   0  0  0  0  0  0  0  0  0  0  0  0
    0.0001    0.1769    5.0693 H   0  0  0  0  0  0  0  0  0  0  0  0
    1.9314    2.8496    3.5103 H   0  0  0  0  0  0  0  0  0  0  0  0
    1.1886   -0.3591    7.3879 H   0  0  0  0  0  0  0  0  0  0  0  0
    1.3169    0.3633    8.9697 H   0  0  0  0  0  0  0  0  0  0  0  0
    2.6829   -0.4269    8.2938 H   0  0  0  0  0  0  0  0  0  0  0  0
    3.1429    3.0220    8.3943 H   0  0  0  0  0  0  0  0  0  0  0  0
   -0.0404    1.9212    8.5594 H   0  0  0  0  0  0  0  0  0  0  0  0
   -0.5714    1.1569    7.0986 H   0  0  0  0  0  0  0  0  0  0  0  0
   -0.9414    2.8437    7.4425 H   0  0  0  0  0  0  0  0  0  0  0  0
    0.3268    4.3923    6.7853 H   0  0  0  0  0  0  0  0  0  0  0  0
    0.7061    3.7398    9.1703 H   0  0  0  0  0  0  0  0  0  0  0  0
    2.1638    4.5816    9.0572 H   0  0  0  0  0  0  0  0  0  0  0  0
    0.0054    5.6890    9.9093 H   0  0  0  0  0  0  0  0  0  0  0  0
   -0.5711    5.7833    8.2963 H   0  0  0  0  0  0  0  0  0  0  0  0
  1  2  2  0
  1 40  1  0
  1 41  1  0
  2 15  1  0
  2  3  1  0
  3 39  1  0
  3  4  1  0
  3 42  1  1
  4  5  1  0
  4 43  1  0
  4 44  1  0
  5  6  1  0
  5 45  1  0
  5 46  1  0
  6 12  1  0
  6  7  1  0
  6 47  1  1
  7  8  1  0
  7  9  1  0
  7 48  1  1
  8 49  1  0
  8 50  1  0
  8 51  1  0
  9 10  1  0
  9 52  1  0
  9 53  1  0
 10 11  1  0
 10 12  1  0
 10 54  1  6
 11 55  1  0
 12 13  1  6
 14 12  1  1
 13 56  1  0
 13 57  1  0
 13 58  1  0
 14 37  1  0
 14 15  1  0
 14 17  1  0
 15 16  1  0
 15 59  1  6
 16 60  1  0
 17 26  1  0
 17 18  1  0
 17 61  1  6
 18 19  1  0
 18 62  1  0
 18 63  1  0
 19 20  1  0
 19 21  1  0
 19 64  1  1
 20 65  1  0
 21 22  1  0
 21 23  1  0
 21 24  1  0
 22 66  1  0
 22 67  1  0
 22 68  1  0
 23 69  1  0
 23 70  1  0
 23 71  1  0
 24 35  1  0
 24 25  1  1
 24 26  1  0
 25 72  1  0
 25 73  1  0
 25 74  1  0
 26 27  1  0
 26 75  1  6
 27 28  1  0
 28 29  2  0
 28 30  1  0
 30 31  2  0
 30 32  1  0
 32 33  1  0
 32 34  1  1
 32 35  1  0
 33 76  1  0
 33 77  1  0
 33 78  1  0
 34 79  1  0
 35 36  1  1
 35 37  1  0
 36 80  1  0
 36 81  1  0
 36 82  1  0
 37 38  1  0
 37 83  1  6
 38 39  1  0
 38 84  1  0
 38 85  1  0
 39 86  1  0
 39 87  1  0
M  END
>  <i_m_ct_stereo_status>  (417) 
1

>  <s_m_source_file>  (417) 
/var/tmp/pbs.5076255.sched01/tmp7onimy_i/150cvk1qxg3.sdf

>  <i_m_source_file_index>  (417) 
41

>  <i_lp_mmshare_version>  (417) 
48012

>  <i_f3d_flags>  (417) 
0

>  <s_epik_input>  (417) 
W09IXVtDQEBIXTFbQ0gyXVtDQEhdKFtDSDNdKVtDQEhdKFtDQF0xKFtDQEBdMjM0KVtDSDNdKVtDSDJdW0NIMl1bQ0BASF0oQyg9W0NIMl0pW0NAQEhdMltPSF0pW0NIMl1bQ0gyXVtDQEBIXTRbQ0BAXTUoW0NIM10pQzYoW0NIM10pW0NAQEhdKFtDQEhdM1tDSDJdW0NAQEhdKFtPSF0pQzYoW0NIM10pW0NIM10pT0MoPU8pQyg9TylbQ0BAXTUoW0NIM10pW09IXQ==

>  <s_epik_cmdline>  (417) 
J2VwaWtfcHl0aG9uJywgJy1waHQnLCAnMi4wJywgJy1waCcsICc3LjAnLCAnLXRuJywgJzgnLCAnLW1hJywgJzIwMCcsICctaW1hZScsICc8aW5maWxlLm1hZT4nLCAnLW9tYWUnLCAnPG91dGZpbGUubWFlPic=

>  <r_lp_tautomer_probability>  (417) 
1

>  <r_epik_Ionization_Penalty>  (417) 
7.53082e-06

>  <r_epik_Ionization_Penalty_Charging>  (417) 
0

>  <r_epik_Ionization_Penalty_Neutral>  (417) 
7.53082e-06

>  <r_epik_State_Penalty>  (417) 
-0

>  <r_epik_Charging_Adjusted_Penalty>  (417) 
0

>  <i_epik_Tot_Q>  (417) 
0

>  <i_epik_Tot_abs_Q>  (417) 
0

>  <s_epik_Chemistry_Notes>  (417) 
This compound has an ester and may undergo hydrolysis at high or low pH.

>  <s_lp_Force_Field>  (417) 
OPLS3e

>  <r_lp_Energy>  (417) 
236.625

>  <b_lp_Chiralities_Consistent>  (417) 
1

>  <s_lp_Variant>  (417) 
113:0-1

>  <s_i_glide_gridfile>  (417) 
pfpi4k_grid

>  <i_i_glide_lignum>  (417) 
41

>  <i_i_glide_rotatable_bonds>  (417) 
4

>  <r_i_docking_score>  (417) 
-2.57213

>  <r_i_glide_ligand_efficiency>  (417) 
-0.065952

>  <r_i_glide_ligand_efficiency_sa>  (417) 
-0.223657

>  <r_i_glide_ligand_efficiency_ln>  (417) 
-0.551537

>  <r_i_glide_gscore>  (417) 
-2.57213

>  <r_i_glide_lipo>  (417) 
-0.0275689

>  <r_i_glide_hbond>  (417) 
-0.32

>  <r_i_glide_metal>  (417) 
-0

>  <r_i_glide_rewards>  (417) 
0

>  <r_i_glide_evdw>  (417) 
-24.8328

>  <r_i_glide_ecoul>  (417) 
-6.53861

>  <r_i_glide_erotb>  (417) 
0

>  <r_i_glide_esite>  (417) 
-0.0021279

>  <r_i_glide_emodel>  (417) 
-35.8649

>  <r_i_glide_energy>  (417) 
-31.3714

>  <r_i_glide_einternal>  (417) 
1.99309

>  <r_i_glide_intrahb_reward>  (417) 
-0

>  <i_i_glide_confnum>  (417) 
1

>  <i_i_glide_posenum>  (417) 
33

>  <r_i_glide_eff_state_penalty>  (417) 
0

>  <ligand_id>  (417) 
113

>  <original_smiles>  (417) 
C=C1C2CCC3C(C)CC(O)C3(C)C3(C1O)C1CC(O)C(C)(C)C4(C)C1OC(=O)C(=O)C(C)(O)C4(C)C3CC2

>  <smiles>  (417) 
[H]OC1([H])C(=C([H])[H])C2([H])C([H])([H])C([H])([H])C3([H])C([H])(C([H])([H])[H])C([H])([H])C([H])(O[H])C3(C([H])([H])[H])C13C1([H])C([H])([H])C([H])(O[H])C(C([H])([H])[H])(C([H])([H])[H])C4(C([H])([H])[H])C1([H])OC(=O)C(=O)C(O[H])(C([H])([H])[H])C4(C([H])([H])[H])C3([H])C([H])([H])C2([H])[H]

$$$$
113:0:2
     RDKit          3D

 87 92  0  0  1  0  0  0  0  0999 V2000
    0.0865    5.7697    3.2705 C   0  0  0  0  0  0  0  0  0  0  0  0
    0.6921    5.2579    4.3492 C   0  0  0  0  0  0  0  0  0  0  0  0
    2.1324    5.6408    4.6483 C   0  0  2  0  0  0  0  0  0  0  0  0
    3.1191    4.9435    3.7151 C   0  0  0  0  0  0  0  0  0  0  0  0
    2.5656    3.7333    2.9696 C   0  0  0  0  0  0  0  0  0  0  0  0
    2.1746    2.3896    3.6792 C   0  0  2  0  0  0  0  0  0  0  0  0
    1.9559    1.4681    2.4206 C   0  0  1  0  0  0  0  0  0  0  0  0
    2.7983    0.1719    2.3679 C   0  0  0  0  0  0  0  0  0  0  0  0
    0.4392    1.3226    2.2507 C   0  0  0  0  0  0  0  0  0  0  0  0
   -0.1839    2.1350    3.4007 C   0  0  1  0  0  0  0  0  0  0  0  0
   -1.4447    1.5794    3.7032 O   0  0  0  0  0  0  0  0  0  0  0  0
    0.8529    2.1640    4.5826 C   0  0  1  0  0  0  0  0  0  0  0  0
    0.9906    0.6920    5.0239 C   0  0  0  0  0  0  0  0  0  0  0  0
    0.4093    3.0780    5.9270 C   0  0  1  0  0  0  0  0  0  0  0  0
   -0.1337    4.4744    5.3323 C   0  0  1  0  0  0  0  0  0  0  0  0
   -0.5323    5.4989    6.2112 O   0  0  0  0  0  0  0  0  0  0  0  0
   -0.8103    2.3849    6.7496 C   0  0  2  0  0  0  0  0  0  0  0  0
   -1.9227    3.3028    7.3378 C   0  0  0  0  0  0  0  0  0  0  0  0
   -1.4840    4.1012    8.5883 C   0  0  1  0  0  0  0  0  0  0  0  0
   -2.5950    4.8758    9.0002 O   0  0  0  0  0  0  0  0  0  0  0  0
   -0.8587    3.2406    9.7199 C   0  0  0  0  0  0  0  0  0  0  0  0
   -0.3084    4.2334   10.7890 C   0  0  0  0  0  0  0  0  0  0  0  0
   -2.0627    2.5683   10.4669 C   0  0  0  0  0  0  0  0  0  0  0  0
    0.2165    2.1331    9.1559 C   0  0  1  0  0  0  0  0  0  0  0  0
    0.3944    1.1530   10.3781 C   0  0  0  0  0  0  0  0  0  0  0  0
   -0.4897    1.4510    7.9715 C   0  0  2  0  0  0  0  0  0  0  0  0
   -0.3668    0.0557    7.7707 O   0  0  0  0  0  0  0  0  0  0  0  0
    0.6908   -0.7569    7.9758 C   0  0  0  0  0  0  0  0  0  0  0  0
    0.5256   -1.9683    8.1086 O   0  0  0  0  0  0  0  0  0  0  0  0
    2.1350   -0.1791    7.8975 C   0  0  0  0  0  0  0  0  0  0  0  0
    2.9810   -0.9844    7.4952 O   0  0  0  0  0  0  0  0  0  0  0  0
    2.6342    1.2349    8.3446 C   0  0  1  0  0  0  0  0  0  0  0  0
    3.5988    1.0004    9.5622 C   0  0  0  0  0  0  0  0  0  0  0  0
    3.6257    1.5676    7.3938 O   0  0  0  0  0  0  0  0  0  0  0  0
    1.6401    2.5208    8.4811 C   0  0  2  0  0  0  0  0  0  0  0  0
    2.3460    3.4960    9.4859 C   0  0  0  0  0  0  0  0  0  0  0  0
    1.4759    3.3897    7.0963 C   0  0  1  0  0  0  0  0  0  0  0  0
    2.7605    4.0994    6.5881 C   0  0  0  0  0  0  0  0  0  0  0  0
    2.5786    5.5415    6.1057 C   0  0  0  0  0  0  0  0  0  0  0  0
   -0.9447    5.5792    3.0309 H   0  0  0  0  0  0  0  0  0  0  0  0
    0.6427    6.3942    2.5866 H   0  0  0  0  0  0  0  0  0  0  0  0
    2.1964    6.7054    4.4117 H   0  0  0  0  0  0  0  0  0  0  0  0
    3.4032    5.6652    2.9485 H   0  0  0  0  0  0  0  0  0  0  0  0
    4.0571    4.6999    4.2106 H   0  0  0  0  0  0  0  0  0  0  0  0
    1.7966    4.0454    2.2659 H   0  0  0  0  0  0  0  0  0  0  0  0
    3.4054    3.5022    2.3158 H   0  0  0  0  0  0  0  0  0  0  0  0
    3.0579    2.0470    4.2182 H   0  0  0  0  0  0  0  0  0  0  0  0
    2.2457    1.9604    1.4944 H   0  0  0  0  0  0  0  0  0  0  0  0
    2.7601   -0.4393    3.2681 H   0  0  0  0  0  0  0  0  0  0  0  0
    3.8499    0.4158    2.2155 H   0  0  0  0  0  0  0  0  0  0  0  0
    2.4896   -0.4575    1.5313 H   0  0  0  0  0  0  0  0  0  0  0  0
    0.1096    1.7108    1.2852 H   0  0  0  0  0  0  0  0  0  0  0  0
    0.1421    0.2745    2.2665 H   0  0  0  0  0  0  0  0  0  0  0  0
   -0.3540    3.1319    3.0010 H   0  0  0  0  0  0  0  0  0  0  0  0
   -1.9791    1.6034    2.9221 H   0  0  0  0  0  0  0  0  0  0  0  0
    0.1429    0.3397    5.5739 H   0  0  0  0  0  0  0  0  0  0  0  0
    1.9335    0.5419    5.5284 H   0  0  0  0  0  0  0  0  0  0  0  0
    0.9750   -0.0511    4.2385 H   0  0  0  0  0  0  0  0  0  0  0  0
   -1.0561    4.2222    4.8080 H   0  0  0  0  0  0  0  0  0  0  0  0
    0.2247    5.7563    6.7157 H   0  0  0  0  0  0  0  0  0  0  0  0
   -1.3817    1.7790    6.0627 H   0  0  0  0  0  0  0  0  0  0  0  0
   -2.3739    3.9434    6.5860 H   0  0  0  0  0  0  0  0  0  0  0  0
   -2.7767    2.6865    7.6240 H   0  0  0  0  0  0  0  0  0  0  0  0
   -0.7480    4.8601    8.3838 H   0  0  0  0  0  0  0  0  0  0  0  0
   -2.3501    5.3446    9.7848 H   0  0  0  0  0  0  0  0  0  0  0  0
    0.3107    3.7577   11.5489 H   0  0  0  0  0  0  0  0  0  0  0  0
   -1.1196    4.7147   11.3397 H   0  0  0  0  0  0  0  0  0  0  0  0
    0.2541    5.0613   10.3581 H   0  0  0  0  0  0  0  0  0  0  0  0
   -1.7433    2.0790   11.3797 H   0  0  0  0  0  0  0  0  0  0  0  0
   -2.6140    1.8448    9.8736 H   0  0  0  0  0  0  0  0  0  0  0  0
   -2.8145    3.2788   10.8118 H   0  0  0  0  0  0  0  0  0  0  0  0
    1.1433    0.3829   10.2855 H   0  0  0  0  0  0  0  0  0  0  0  0
   -0.5059    0.5674   10.5655 H   0  0  0  0  0  0  0  0  0  0  0  0
    0.6502    1.6647   11.3037 H   0  0  0  0  0  0  0  0  0  0  0  0
   -1.4761    1.2789    8.3729 H   0  0  0  0  0  0  0  0  0  0  0  0
    3.1149    1.0245   10.5377 H   0  0  0  0  0  0  0  0  0  0  0  0
    4.4041    1.7375    9.6065 H   0  0  0  0  0  0  0  0  0  0  0  0
    4.1239    0.0465    9.4951 H   0  0  0  0  0  0  0  0  0  0  0  0
    3.1993    1.6733    6.5572 H   0  0  0  0  0  0  0  0  0  0  0  0
    3.4194    3.5798    9.3326 H   0  0  0  0  0  0  0  0  0  0  0  0
    2.2250    3.1868   10.5233 H   0  0  0  0  0  0  0  0  0  0  0  0
    1.9988    4.5239    9.3988 H   0  0  0  0  0  0  0  0  0  0  0  0
    1.0106    4.2413    7.5587 H   0  0  0  0  0  0  0  0  0  0  0  0
    3.5053    4.1826    7.3677 H   0  0  0  0  0  0  0  0  0  0  0  0
    3.2610    3.4952    5.8448 H   0  0  0  0  0  0  0  0  0  0  0  0
    3.5490    6.0341    6.1738 H   0  0  0  0  0  0  0  0  0  0  0  0
    1.9373    6.1228    6.7691 H   0  0  0  0  0  0  0  0  0  0  0  0
  1  2  2  0
  1 40  1  0
  1 41  1  0
  2 15  1  0
  2  3  1  0
  3 39  1  0
  3  4  1  0
  3 42  1  6
  4  5  1  0
  4 43  1  0
  4 44  1  0
  5  6  1  0
  5 45  1  0
  5 46  1  0
  6 12  1  0
  6  7  1  0
  6 47  1  1
  7  8  1  0
  7  9  1  0
  7 48  1  6
  8 49  1  0
  8 50  1  0
  8 51  1  0
  9 10  1  0
  9 52  1  0
  9 53  1  0
 10 11  1  0
 10 12  1  0
 10 54  1  6
 11 55  1  0
 12 13  1  1
 14 12  1  6
 13 56  1  0
 13 57  1  0
 13 58  1  0
 14 37  1  0
 14 15  1  0
 14 17  1  0
 15 16  1  0
 15 59  1  6
 16 60  1  0
 17 26  1  0
 17 18  1  0
 17 61  1  6
 18 19  1  0
 18 62  1  0
 18 63  1  0
 19 20  1  0
 19 21  1  0
 19 64  1  6
 20 65  1  0
 21 22  1  0
 21 23  1  0
 21 24  1  0
 22 66  1  0
 22 67  1  0
 22 68  1  0
 23 69  1  0
 23 70  1  0
 23 71  1  0
 24 35  1  0
 24 25  1  1
 24 26  1  0
 25 72  1  0
 25 73  1  0
 25 74  1  0
 26 27  1  0
 26 75  1  1
 27 28  1  0
 28 29  2  0
 28 30  1  0
 30 31  2  0
 30 32  1  0
 32 33  1  0
 32 34  1  6
 32 35  1  0
 33 76  1  0
 33 77  1  0
 33 78  1  0
 34 79  1  0
 35 36  1  1
 35 37  1  0
 36 80  1  0
 36 81  1  0
 36 82  1  0
 37 38  1  0
 37 83  1  1
 38 39  1  0
 38 84  1  0
 38 85  1  0
 39 86  1  0
 39 87  1  0
M  END
>  <i_m_ct_stereo_status>  (418) 
1

>  <s_m_source_file>  (418) 
/var/tmp/pbs.5076255.sched01/tmp7onimy_i/150cvk1qxg3.sdf

>  <i_m_source_file_index>  (418) 
41

>  <i_lp_mmshare_version>  (418) 
48012

>  <i_f3d_flags>  (418) 
0

>  <s_epik_input>  (418) 
W09IXVtDQEBIXTFbQ0gyXVtDQEhdKFtDSDNdKVtDQEhdKFtDQF0xKFtDQEBdMjM0KVtDSDNdKVtDSDJdW0NIMl1bQ0BASF0oQyg9W0NIMl0pW0NAQEhdMltPSF0pW0NIMl1bQ0gyXVtDQEBIXTRbQ0BAXTUoW0NIM10pQzYoW0NIM10pW0NAQEhdKFtDQEhdM1tDSDJdW0NAQEhdKFtPSF0pQzYoW0NIM10pW0NIM10pT0MoPU8pQyg9TylbQ0BAXTUoW0NIM10pW09IXQ==

>  <s_epik_cmdline>  (418) 
J2VwaWtfcHl0aG9uJywgJy1waHQnLCAnMi4wJywgJy1waCcsICc3LjAnLCAnLXRuJywgJzgnLCAnLW1hJywgJzIwMCcsICctaW1hZScsICc8aW5maWxlLm1hZT4nLCAnLW9tYWUnLCAnPG91dGZpbGUubWFlPic=

>  <r_lp_tautomer_probability>  (418) 
1

>  <r_epik_Ionization_Penalty>  (418) 
7.53082e-06

>  <r_epik_Ionization_Penalty_Charging>  (418) 
0

>  <r_epik_Ionization_Penalty_Neutral>  (418) 
7.53082e-06

>  <r_epik_State_Penalty>  (418) 
-0

>  <r_epik_Charging_Adjusted_Penalty>  (418) 
0

>  <i_epik_Tot_Q>  (418) 
0

>  <i_epik_Tot_abs_Q>  (418) 
0

>  <s_epik_Chemistry_Notes>  (418) 
This compound has an ester and may undergo hydrolysis at high or low pH.

>  <s_lp_Force_Field>  (418) 
OPLS3e

>  <r_lp_Energy>  (418) 
236.625

>  <b_lp_Chiralities_Consistent>  (418) 
1

>  <s_lp_Variant>  (418) 
113:0-1

>  <s_i_glide_gridfile>  (418) 
pfpi4k_grid

>  <i_i_glide_lignum>  (418) 
41

>  <i_i_glide_rotatable_bonds>  (418) 
4

>  <r_i_docking_score>  (418) 
-2.375

>  <r_i_glide_ligand_efficiency>  (418) 
-0.0608976

>  <r_i_glide_ligand_efficiency_sa>  (418) 
-0.206516

>  <r_i_glide_ligand_efficiency_ln>  (418) 
-0.509268

>  <r_i_glide_gscore>  (418) 
-2.375

>  <r_i_glide_lipo>  (418) 
-0.173361

>  <r_i_glide_hbond>  (418) 
-0.0170439

>  <r_i_glide_metal>  (418) 
-0

>  <r_i_glide_rewards>  (418) 
0

>  <r_i_glide_evdw>  (418) 
-27.4175

>  <r_i_glide_ecoul>  (418) 
-5.23693

>  <r_i_glide_erotb>  (418) 
0

>  <r_i_glide_esite>  (418) 
-0.0281861

>  <r_i_glide_emodel>  (418) 
-36.4337

>  <r_i_glide_energy>  (418) 
-32.6544

>  <r_i_glide_einternal>  (418) 
2.33218

>  <r_i_glide_intrahb_reward>  (418) 
-0

>  <i_i_glide_confnum>  (418) 
1

>  <i_i_glide_posenum>  (418) 
17

>  <r_i_glide_eff_state_penalty>  (418) 
0

>  <ligand_id>  (418) 
113

>  <original_smiles>  (418) 
C=C1C2CCC3C(C)CC(O)C3(C)C3(C1O)C1CC(O)C(C)(C)C4(C)C1OC(=O)C(=O)C(C)(O)C4(C)C3CC2

>  <smiles>  (418) 
[H]OC1([H])C(=C([H])[H])C2([H])C([H])([H])C([H])([H])C3([H])C([H])(C([H])([H])[H])C([H])([H])C([H])(O[H])C3(C([H])([H])[H])C13C1([H])C([H])([H])C([H])(O[H])C(C([H])([H])[H])(C([H])([H])[H])C4(C([H])([H])[H])C1([H])OC(=O)C(=O)C(O[H])(C([H])([H])[H])C4(C([H])([H])[H])C3([H])C([H])([H])C2([H])[H]

$$$$
114:0:0
     RDKit          3D

 80 84  0  0  1  0  0  0  0  0999 V2000
   -0.9725   -7.2389    4.3209 C   0  0  0  0  0  0  0  0  0  0  0  0
   -0.4824   -8.6988    4.3942 C   0  0  2  0  0  0  0  0  0  0  0  0
   -0.0629   -9.1211    5.8091 C   0  0  0  0  0  0  0  0  0  0  0  0
    1.1898   -8.3624    6.2442 C   0  0  0  0  0  0  0  0  0  0  0  0
    2.3917   -8.5300    5.2773 C   0  0  2  0  0  0  0  0  0  0  0  0
    3.0505   -9.9070    5.5336 C   0  0  0  0  0  0  0  0  0  0  0  0
    3.3858   -7.4195    5.6504 C   0  0  0  0  0  0  0  0  0  0  0  0
    4.5771   -7.3419    4.6995 C   0  0  0  0  0  0  0  0  0  0  0  0
    4.2249   -7.2049    3.1790 C   0  0  1  0  0  0  0  0  0  0  0  0
    5.3012   -8.0821    2.4662 C   0  0  0  0  0  0  0  0  0  0  0  0
    2.8311   -7.8150    2.8685 C   0  0  0  0  0  0  0  0  0  0  0  0
    2.0094   -8.4004    3.7835 C   0  0  0  0  0  0  0  0  0  0  0  0
    0.6419   -8.9942    3.3866 C   0  0  1  0  0  0  0  0  0  0  0  0
    0.7523  -10.4893    3.0278 C   0  0  0  0  0  0  0  0  0  0  0  0
    2.4826   -7.7144    1.3830 C   0  0  0  0  0  0  0  0  0  0  0  0
    2.4996   -6.2582    0.9395 C   0  0  0  0  0  0  0  0  0  0  0  0
    1.4841   -5.7494    0.4498 O   0  0  0  0  0  0  0  0  0  0  0  0
    3.8517   -5.5537    1.1550 C   0  0  1  0  0  0  0  0  0  0  0  0
    4.2747   -4.2404    0.3264 C   0  0  1  0  0  0  0  0  0  0  0  0
    5.3412   -4.7178   -0.6941 C   0  0  0  0  0  0  0  0  0  0  0  0
    3.1244   -3.5724   -0.4800 C   0  0  0  0  0  0  0  0  0  0  0  0
    3.5013   -2.2605   -1.2024 C   0  0  0  0  0  0  0  0  0  0  0  0
    4.0724   -1.2033   -0.2438 C   0  0  1  0  0  0  0  0  0  0  0  0
    3.0112   -0.7440    0.5777 O   0  0  0  0  0  0  0  0  0  0  0  0
    5.2480   -1.7560    0.6176 C   0  0  0  0  0  0  0  0  0  0  0  0
    6.5229   -1.8456   -0.2549 C   0  0  0  0  0  0  0  0  0  0  0  0
    5.5754   -0.7264    1.7359 C   0  0  0  0  0  0  0  0  0  0  0  0
    4.8159   -3.1140    1.2695 C   0  0  2  0  0  0  0  0  0  0  0  0
    5.7967   -3.6132    2.3438 C   0  0  0  0  0  0  0  0  0  0  0  0
    5.7011   -5.0924    2.7320 C   0  0  0  0  0  0  0  0  0  0  0  0
    4.2660   -5.6795    2.6691 C   0  0  2  0  0  0  0  0  0  0  0  0
    3.2924   -4.8610    3.5714 C   0  0  0  0  0  0  0  0  0  0  0  0
   -0.1595   -6.5297    4.4737 H   0  0  0  0  0  0  0  0  0  0  0  0
   -1.7391   -7.0406    5.0671 H   0  0  0  0  0  0  0  0  0  0  0  0
   -1.4182   -7.0370    3.3453 H   0  0  0  0  0  0  0  0  0  0  0  0
   -1.3395   -9.3041    4.0942 H   0  0  0  0  0  0  0  0  0  0  0  0
   -0.8780   -8.9800    6.5167 H   0  0  0  0  0  0  0  0  0  0  0  0
    0.1216  -10.1948    5.8391 H   0  0  0  0  0  0  0  0  0  0  0  0
    0.9294   -7.3084    6.3500 H   0  0  0  0  0  0  0  0  0  0  0  0
    1.4737   -8.6905    7.2435 H   0  0  0  0  0  0  0  0  0  0  0  0
    3.5502   -9.9365    6.5013 H   0  0  0  0  0  0  0  0  0  0  0  0
    3.7922  -10.1502    4.7702 H   0  0  0  0  0  0  0  0  0  0  0  0
    2.3267  -10.7214    5.5458 H   0  0  0  0  0  0  0  0  0  0  0  0
    2.8763   -6.4584    5.6721 H   0  0  0  0  0  0  0  0  0  0  0  0
    3.7486   -7.5719    6.6656 H   0  0  0  0  0  0  0  0  0  0  0  0
    5.2278   -6.5400    5.0423 H   0  0  0  0  0  0  0  0  0  0  0  0
    5.1661   -8.2447    4.8664 H   0  0  0  0  0  0  0  0  0  0  0  0
    6.3134   -7.8027    2.7625 H   0  0  0  0  0  0  0  0  0  0  0  0
    5.2701   -8.0559    1.3788 H   0  0  0  0  0  0  0  0  0  0  0  0
    5.1809   -9.1315    2.7425 H   0  0  0  0  0  0  0  0  0  0  0  0
    0.2717   -8.5187    2.4885 H   0  0  0  0  0  0  0  0  0  0  0  0
    1.5220  -10.6462    2.2721 H   0  0  0  0  0  0  0  0  0  0  0  0
   -0.1824  -10.8603    2.6155 H   0  0  0  0  0  0  0  0  0  0  0  0
    0.9984  -11.1223    3.8802 H   0  0  0  0  0  0  0  0  0  0  0  0
    3.2291   -8.2789    0.8266 H   0  0  0  0  0  0  0  0  0  0  0  0
    1.5376   -8.1568    1.0921 H   0  0  0  0  0  0  0  0  0  0  0  0
    4.4890   -6.2994    0.6979 H   0  0  0  0  0  0  0  0  0  0  0  0
    5.5881   -4.0089   -1.4683 H   0  0  0  0  0  0  0  0  0  0  0  0
    4.9960   -5.5952   -1.2381 H   0  0  0  0  0  0  0  0  0  0  0  0
    6.2763   -5.0003   -0.2067 H   0  0  0  0  0  0  0  0  0  0  0  0
    2.7402   -4.2525   -1.2372 H   0  0  0  0  0  0  0  0  0  0  0  0
    2.2993   -3.3540    0.1969 H   0  0  0  0  0  0  0  0  0  0  0  0
    4.2040   -2.4508   -2.0115 H   0  0  0  0  0  0  0  0  0  0  0  0
    2.6173   -1.8600   -1.6967 H   0  0  0  0  0  0  0  0  0  0  0  0
    4.4189   -0.3445   -0.8280 H   0  0  0  0  0  0  0  0  0  0  0  0
    2.1955   -0.7053    0.0606 H   0  0  0  0  0  0  0  0  0  0  0  0
    7.2476   -2.5819    0.0917 H   0  0  0  0  0  0  0  0  0  0  0  0
    7.0291   -0.8836   -0.2543 H   0  0  0  0  0  0  0  0  0  0  0  0
    6.3120   -2.0518   -1.3023 H   0  0  0  0  0  0  0  0  0  0  0  0
    6.5133   -0.9507    2.2483 H   0  0  0  0  0  0  0  0  0  0  0  0
    4.7929   -0.6841    2.4952 H   0  0  0  0  0  0  0  0  0  0  0  0
    5.6769    0.2757    1.3172 H   0  0  0  0  0  0  0  0  0  0  0  0
    3.9423   -2.7925    1.8266 H   0  0  0  0  0  0  0  0  0  0  0  0
    6.8191   -3.3872    2.0495 H   0  0  0  0  0  0  0  0  0  0  0  0
    5.6070   -3.0402    3.2493 H   0  0  0  0  0  0  0  0  0  0  0  0
    6.3362   -5.6414    2.0363 H   0  0  0  0  0  0  0  0  0  0  0  0
    6.1707   -5.2293    3.7065 H   0  0  0  0  0  0  0  0  0  0  0  0
    2.9689   -3.9223    3.1422 H   0  0  0  0  0  0  0  0  0  0  0  0
    3.7498   -4.6291    4.5355 H   0  0  0  0  0  0  0  0  0  0  0  0
    2.3599   -5.3923    3.7589 H   0  0  0  0  0  0  0  0  0  0  0  0
  1  2  1  0
  1 33  1  0
  1 34  1  0
  1 35  1  0
  2 13  1  0
  2  3  1  0
  2 36  1  6
  3  4  1  0
  3 37  1  0
  3 38  1  0
  4  5  1  0
  4 39  1  0
  4 40  1  0
  5 12  1  0
  5  6  1  6
  5  7  1  0
  6 41  1  0
  6 42  1  0
  6 43  1  0
  7  8  1  0
  7 44  1  0
  7 45  1  0
  8  9  1  0
  8 46  1  0
  8 47  1  0
  9 31  1  0
  9 10  1  6
  9 11  1  0
 10 48  1  0
 10 49  1  0
 10 50  1  0
 11 12  2  0
 11 15  1  0
 12 13  1  0
 13 14  1  0
 13 51  1  6
 14 52  1  0
 14 53  1  0
 14 54  1  0
 15 16  1  0
 15 55  1  0
 15 56  1  0
 16 17  2  0
 16 18  1  0
 18 31  1  0
 18 19  1  0
 18 57  1  6
 19 28  1  0
 19 20  1  6
 19 21  1  0
 20 58  1  0
 20 59  1  0
 20 60  1  0
 21 22  1  0
 21 61  1  0
 21 62  1  0
 22 23  1  0
 22 63  1  0
 22 64  1  0
 23 24  1  0
 23 25  1  0
 23 65  1  6
 24 66  1  0
 25 26  1  0
 25 27  1  0
 25 28  1  0
 26 67  1  0
 26 68  1  0
 26 69  1  0
 27 70  1  0
 27 71  1  0
 27 72  1  0
 28 29  1  0
 28 73  1  1
 29 30  1  0
 29 74  1  0
 29 75  1  0
 30 31  1  0
 30 76  1  0
 30 77  1  0
 31 32  1  1
 32 78  1  0
 32 79  1  0
 32 80  1  0
M  END
>  <i_m_ct_stereo_status>  (419) 
1

>  <s_m_source_file>  (419) 
/var/tmp/pbs.5076255.sched01/tmp7onimy_i/150cvk1qxg3.sdf

>  <i_m_source_file_index>  (419) 
42

>  <i_lp_mmshare_version>  (419) 
48012

>  <i_f3d_flags>  (419) 
0

>  <s_epik_input>  (419) 
W0NIMl0xW0NIMl1bQ0BASF0oW0NIM10pW0NASF0oW0NIM10pQyhbQ0BdMTJbQ0gzXSk9QzNbQ0BdKFtDSDNdKShbQ0gyXVtDSDJdMilbQ0BdNChbQ0gzXSlbQ0BASF0oQyg9TylbQ0gyXTMpW0NAXTUoW0NIM10pW0NAQEhdKFtDSDJdW0NIMl00KUMoW0NIM10pKFtDSDNdKVtDQEhdKFtPSF0pW0NIMl1bQ0gyXTU=

>  <s_epik_cmdline>  (419) 
J2VwaWtfcHl0aG9uJywgJy1waHQnLCAnMi4wJywgJy1waCcsICc3LjAnLCAnLXRuJywgJzgnLCAnLW1hJywgJzIwMCcsICctaW1hZScsICc8aW5maWxlLm1hZT4nLCAnLW9tYWUnLCAnPG91dGZpbGUubWFlPic=

>  <r_lp_tautomer_probability>  (419) 
1

>  <r_epik_Ionization_Penalty>  (419) 
2.23163e-06

>  <r_epik_Ionization_Penalty_Charging>  (419) 
0

>  <r_epik_Ionization_Penalty_Neutral>  (419) 
2.23163e-06

>  <r_epik_State_Penalty>  (419) 
-0

>  <r_epik_Charging_Adjusted_Penalty>  (419) 
0

>  <i_epik_Tot_Q>  (419) 
0

>  <i_epik_Tot_abs_Q>  (419) 
0

>  <s_lp_Force_Field>  (419) 
OPLS3e

>  <r_lp_Energy>  (419) 
96.1463

>  <b_lp_Chiralities_Consistent>  (419) 
1

>  <s_lp_Variant>  (419) 
114:0-1

>  <s_i_glide_gridfile>  (419) 
pfpi4k_grid

>  <i_i_glide_lignum>  (419) 
42

>  <i_i_glide_rotatable_bonds>  (419) 
1

>  <r_i_docking_score>  (419) 
-3.39635

>  <r_i_glide_ligand_efficiency>  (419) 
-0.106136

>  <r_i_glide_ligand_efficiency_sa>  (419) 
-0.336961

>  <r_i_glide_ligand_efficiency_ln>  (419) 
-0.760536

>  <r_i_glide_gscore>  (419) 
-3.39635

>  <r_i_glide_lipo>  (419) 
-0.412076

>  <r_i_glide_hbond>  (419) 
-0.303824

>  <r_i_glide_metal>  (419) 
-0

>  <r_i_glide_rewards>  (419) 
-0.404312

>  <r_i_glide_evdw>  (419) 
-27.4446

>  <r_i_glide_ecoul>  (419) 
-5.90438

>  <r_i_glide_erotb>  (419) 
0

>  <r_i_glide_esite>  (419) 
-0.0182533

>  <r_i_glide_emodel>  (419) 
-39.9965

>  <r_i_glide_energy>  (419) 
-33.349

>  <r_i_glide_einternal>  (419) 
0.778135

>  <r_i_glide_intrahb_reward>  (419) 
-0

>  <i_i_glide_confnum>  (419) 
2

>  <i_i_glide_posenum>  (419) 
11

>  <r_i_glide_eff_state_penalty>  (419) 
0

>  <ligand_id>  (419) 
114

>  <original_smiles>  (419) 
CC1CCC2(C)CCC3(C)C(=C2C1C)CC(=O)C1C2(C)CCC(O)C(C)(C)C2CCC13C

>  <smiles>  (419) 
[H]OC1([H])C([H])([H])C([H])([H])C2(C([H])([H])[H])C3([H])C(=O)C([H])([H])C4=C5C([H])(C([H])([H])[H])C([H])(C([H])([H])[H])C([H])([H])C([H])([H])C5(C([H])([H])[H])C([H])([H])C([H])([H])C4(C([H])([H])[H])C3(C([H])([H])[H])C([H])([H])C([H])([H])C2([H])C1(C([H])([H])[H])C([H])([H])[H]

$$$$
114:0:1
     RDKit          3D

 80 84  0  0  1  0  0  0  0  0999 V2000
    0.8966  -10.0936    2.6463 C   0  0  0  0  0  0  0  0  0  0  0  0
    1.8050  -10.8651    3.6165 C   0  0  2  0  0  0  0  0  0  0  0  0
    1.2527  -10.8406    5.0341 C   0  0  0  0  0  0  0  0  0  0  0  0
    1.3035   -9.4301    5.6165 C   0  0  0  0  0  0  0  0  0  0  0  0
    2.7146   -8.7805    5.5948 C   0  0  2  0  0  0  0  0  0  0  0  0
    3.5484   -9.3570    6.7659 C   0  0  0  0  0  0  0  0  0  0  0  0
    2.4855   -7.2787    5.8375 C   0  0  0  0  0  0  0  0  0  0  0  0
    3.7621   -6.4538    5.7046 C   0  0  0  0  0  0  0  0  0  0  0  0
    4.5504   -6.6282    4.3633 C   0  0  1  0  0  0  0  0  0  0  0  0
    6.0462   -6.5816    4.8006 C   0  0  0  0  0  0  0  0  0  0  0  0
    4.2890   -8.0271    3.7280 C   0  0  0  0  0  0  0  0  0  0  0  0
    3.4709   -8.9833    4.2585 C   0  0  0  0  0  0  0  0  0  0  0  0
    3.2614  -10.3569    3.5769 C   0  0  1  0  0  0  0  0  0  0  0  0
    4.2771  -11.4022    4.0778 C   0  0  0  0  0  0  0  0  0  0  0  0
    5.0793   -8.2258    2.4264 C   0  0  0  0  0  0  0  0  0  0  0  0
    4.7164   -7.1286    1.4341 C   0  0  0  0  0  0  0  0  0  0  0  0
    4.2494   -7.4099    0.3359 O   0  0  0  0  0  0  0  0  0  0  0  0
    4.9700   -5.6953    1.9394 C   0  0  1  0  0  0  0  0  0  0  0  0
    5.1606   -4.4562    0.9246 C   0  0  1  0  0  0  0  0  0  0  0  0
    6.6858   -4.1509    0.9319 C   0  0  0  0  0  0  0  0  0  0  0  0
    4.7593   -4.7442   -0.5515 C   0  0  0  0  0  0  0  0  0  0  0  0
    4.8232   -3.5370   -1.5152 C   0  0  0  0  0  0  0  0  0  0  0  0
    3.9860   -2.3320   -1.0363 C   0  0  1  0  0  0  0  0  0  0  0  0
    2.6267   -2.6712   -1.2284 O   0  0  0  0  0  0  0  0  0  0  0  0
    4.3168   -1.9378    0.4374 C   0  0  0  0  0  0  0  0  0  0  0  0
    5.6661   -1.1683    0.4669 C   0  0  0  0  0  0  0  0  0  0  0  0
    3.2466   -0.9384    0.9382 C   0  0  0  0  0  0  0  0  0  0  0  0
    4.2863   -3.2193    1.3491 C   0  0  2  0  0  0  0  0  0  0  0  0
    4.2925   -2.9110    2.8671 C   0  0  0  0  0  0  0  0  0  0  0  0
    4.6749   -4.0786    3.7858 C   0  0  0  0  0  0  0  0  0  0  0  0
    4.2034   -5.4753    3.2957 C   0  0  2  0  0  0  0  0  0  0  0  0
    2.6614   -5.4917    3.0695 C   0  0  0  0  0  0  0  0  0  0  0  0
    0.9107   -9.0185    2.8236 H   0  0  0  0  0  0  0  0  0  0  0  0
   -0.1361  -10.4392    2.7015 H   0  0  0  0  0  0  0  0  0  0  0  0
    1.2410  -10.2545    1.6303 H   0  0  0  0  0  0  0  0  0  0  0  0
    1.8007  -11.9033    3.2794 H   0  0  0  0  0  0  0  0  0  0  0  0
    0.2302  -11.2210    5.0519 H   0  0  0  0  0  0  0  0  0  0  0  0
    1.8307  -11.5161    5.6606 H   0  0  0  0  0  0  0  0  0  0  0  0
    0.5889   -8.8163    5.0678 H   0  0  0  0  0  0  0  0  0  0  0  0
    0.9257   -9.4640    6.6380 H   0  0  0  0  0  0  0  0  0  0  0  0
    3.1732   -9.0165    7.7308 H   0  0  0  0  0  0  0  0  0  0  0  0
    4.5970   -9.0647    6.6976 H   0  0  0  0  0  0  0  0  0  0  0  0
    3.5204  -10.4448    6.7991 H   0  0  0  0  0  0  0  0  0  0  0  0
    1.7361   -6.9028    5.1448 H   0  0  0  0  0  0  0  0  0  0  0  0
    2.0576   -7.1233    6.8274 H   0  0  0  0  0  0  0  0  0  0  0  0
    3.5088   -5.4149    5.9001 H   0  0  0  0  0  0  0  0  0  0  0  0
    4.3943   -6.7255    6.5500 H   0  0  0  0  0  0  0  0  0  0  0  0
    6.2711   -5.6902    5.3870 H   0  0  0  0  0  0  0  0  0  0  0  0
    6.7639   -6.6153    3.9847 H   0  0  0  0  0  0  0  0  0  0  0  0
    6.2829   -7.4344    5.4392 H   0  0  0  0  0  0  0  0  0  0  0  0
    3.4468  -10.2701    2.5138 H   0  0  0  0  0  0  0  0  0  0  0  0
    5.2976  -11.0304    3.9768 H   0  0  0  0  0  0  0  0  0  0  0  0
    4.2082  -12.3202    3.4933 H   0  0  0  0  0  0  0  0  0  0  0  0
    4.1247  -11.6759    5.1200 H   0  0  0  0  0  0  0  0  0  0  0  0
    6.1462   -8.1699    2.6337 H   0  0  0  0  0  0  0  0  0  0  0  0
    4.9417   -9.1892    1.9452 H   0  0  0  0  0  0  0  0  0  0  0  0
    5.9880   -5.8415    2.2754 H   0  0  0  0  0  0  0  0  0  0  0  0
    7.0133   -3.4731    0.1540 H   0  0  0  0  0  0  0  0  0  0  0  0
    7.2748   -5.0563    0.7708 H   0  0  0  0  0  0  0  0  0  0  0  0
    7.0062   -3.7202    1.8791 H   0  0  0  0  0  0  0  0  0  0  0  0
    5.3831   -5.5366   -0.9630 H   0  0  0  0  0  0  0  0  0  0  0  0
    3.7327   -5.1116   -0.5716 H   0  0  0  0  0  0  0  0  0  0  0  0
    5.8592   -3.2387   -1.6750 H   0  0  0  0  0  0  0  0  0  0  0  0
    4.4719   -3.8532   -2.4987 H   0  0  0  0  0  0  0  0  0  0  0  0
    4.1852   -1.4841   -1.6964 H   0  0  0  0  0  0  0  0  0  0  0  0
    2.0467   -1.9195   -1.1015 H   0  0  0  0  0  0  0  0  0  0  0  0
    6.1691   -1.2396    1.4303 H   0  0  0  0  0  0  0  0  0  0  0  0
    5.5266   -0.1085    0.2516 H   0  0  0  0  0  0  0  0  0  0  0  0
    6.3600   -1.5162   -0.2927 H   0  0  0  0  0  0  0  0  0  0  0  0
    3.5193   -0.4646    1.8810 H   0  0  0  0  0  0  0  0  0  0  0  0
    2.2752   -1.4155    1.0754 H   0  0  0  0  0  0  0  0  0  0  0  0
    3.1035   -0.1459    0.2113 H   0  0  0  0  0  0  0  0  0  0  0  0
    3.2722   -3.5597    1.1543 H   0  0  0  0  0  0  0  0  0  0  0  0
    4.9127   -2.0451    3.1042 H   0  0  0  0  0  0  0  0  0  0  0  0
    3.2788   -2.6237    3.1387 H   0  0  0  0  0  0  0  0  0  0  0  0
    5.7622   -4.0812    3.8437 H   0  0  0  0  0  0  0  0  0  0  0  0
    4.3348   -3.8495    4.7950 H   0  0  0  0  0  0  0  0  0  0  0  0
    2.3408   -5.0188    2.1507 H   0  0  0  0  0  0  0  0  0  0  0  0
    2.1430   -4.9885    3.8864 H   0  0  0  0  0  0  0  0  0  0  0  0
    2.2683   -6.5047    2.9931 H   0  0  0  0  0  0  0  0  0  0  0  0
  1  2  1  0
  1 33  1  0
  1 34  1  0
  1 35  1  0
  2 13  1  0
  2  3  1  0
  2 36  1  6
  3  4  1  0
  3 37  1  0
  3 38  1  0
  4  5  1  0
  4 39  1  0
  4 40  1  0
  5 12  1  0
  5  6  1  1
  5  7  1  0
  6 41  1  0
  6 42  1  0
  6 43  1  0
  7  8  1  0
  7 44  1  0
  7 45  1  0
  8  9  1  0
  8 46  1  0
  8 47  1  0
  9 31  1  0
  9 10  1  1
  9 11  1  0
 10 48  1  0
 10 49  1  0
 10 50  1  0
 11 12  2  0
 11 15  1  0
 12 13  1  0
 13 14  1  0
 13 51  1  6
 14 52  1  0
 14 53  1  0
 14 54  1  0
 15 16  1  0
 15 55  1  0
 15 56  1  0
 16 17  2  0
 16 18  1  0
 18 31  1  0
 18 19  1  0
 18 57  1  1
 19 28  1  0
 19 20  1  6
 19 21  1  0
 20 58  1  0
 20 59  1  0
 20 60  1  0
 21 22  1  0
 21 61  1  0
 21 62  1  0
 22 23  1  0
 22 63  1  0
 22 64  1  0
 23 24  1  0
 23 25  1  0
 23 65  1  6
 24 66  1  0
 25 26  1  0
 25 27  1  0
 25 28  1  0
 26 67  1  0
 26 68  1  0
 26 69  1  0
 27 70  1  0
 27 71  1  0
 27 72  1  0
 28 29  1  0
 28 73  1  6
 29 30  1  0
 29 74  1  0
 29 75  1  0
 30 31  1  0
 30 76  1  0
 30 77  1  0
 31 32  1  6
 32 78  1  0
 32 79  1  0
 32 80  1  0
M  END
>  <i_m_ct_stereo_status>  (420) 
1

>  <s_m_source_file>  (420) 
/var/tmp/pbs.5076255.sched01/tmp7onimy_i/150cvk1qxg3.sdf

>  <i_m_source_file_index>  (420) 
42

>  <i_lp_mmshare_version>  (420) 
48012

>  <i_f3d_flags>  (420) 
0

>  <s_epik_input>  (420) 
W0NIMl0xW0NIMl1bQ0BASF0oW0NIM10pW0NASF0oW0NIM10pQyhbQ0BdMTJbQ0gzXSk9QzNbQ0BdKFtDSDNdKShbQ0gyXVtDSDJdMilbQ0BdNChbQ0gzXSlbQ0BASF0oQyg9TylbQ0gyXTMpW0NAXTUoW0NIM10pW0NAQEhdKFtDSDJdW0NIMl00KUMoW0NIM10pKFtDSDNdKVtDQEhdKFtPSF0pW0NIMl1bQ0gyXTU=

>  <s_epik_cmdline>  (420) 
J2VwaWtfcHl0aG9uJywgJy1waHQnLCAnMi4wJywgJy1waCcsICc3LjAnLCAnLXRuJywgJzgnLCAnLW1hJywgJzIwMCcsICctaW1hZScsICc8aW5maWxlLm1hZT4nLCAnLW9tYWUnLCAnPG91dGZpbGUubWFlPic=

>  <r_lp_tautomer_probability>  (420) 
1

>  <r_epik_Ionization_Penalty>  (420) 
2.23163e-06

>  <r_epik_Ionization_Penalty_Charging>  (420) 
0

>  <r_epik_Ionization_Penalty_Neutral>  (420) 
2.23163e-06

>  <r_epik_State_Penalty>  (420) 
-0

>  <r_epik_Charging_Adjusted_Penalty>  (420) 
0

>  <i_epik_Tot_Q>  (420) 
0

>  <i_epik_Tot_abs_Q>  (420) 
0

>  <s_lp_Force_Field>  (420) 
OPLS3e

>  <r_lp_Energy>  (420) 
96.1463

>  <b_lp_Chiralities_Consistent>  (420) 
1

>  <s_lp_Variant>  (420) 
114:0-1

>  <s_i_glide_gridfile>  (420) 
pfpi4k_grid

>  <i_i_glide_lignum>  (420) 
42

>  <i_i_glide_rotatable_bonds>  (420) 
1

>  <r_i_docking_score>  (420) 
-3.23569

>  <r_i_glide_ligand_efficiency>  (420) 
-0.101115

>  <r_i_glide_ligand_efficiency_sa>  (420) 
-0.321021

>  <r_i_glide_ligand_efficiency_ln>  (420) 
-0.72456

>  <r_i_glide_gscore>  (420) 
-3.23569

>  <r_i_glide_lipo>  (420) 
-0.551021

>  <r_i_glide_hbond>  (420) 
-0.16

>  <r_i_glide_metal>  (420) 
-0

>  <r_i_glide_rewards>  (420) 
-0.517668

>  <r_i_glide_evdw>  (420) 
-27.118

>  <r_i_glide_ecoul>  (420) 
-4.34068

>  <r_i_glide_erotb>  (420) 
0

>  <r_i_glide_esite>  (420) 
0

>  <r_i_glide_emodel>  (420) 
-38.0347

>  <r_i_glide_energy>  (420) 
-31.4587

>  <r_i_glide_einternal>  (420) 
0.353846

>  <r_i_glide_intrahb_reward>  (420) 
-0

>  <i_i_glide_confnum>  (420) 
2

>  <i_i_glide_posenum>  (420) 
7

>  <r_i_glide_eff_state_penalty>  (420) 
0

>  <ligand_id>  (420) 
114

>  <original_smiles>  (420) 
CC1CCC2(C)CCC3(C)C(=C2C1C)CC(=O)C1C2(C)CCC(O)C(C)(C)C2CCC13C

>  <smiles>  (420) 
[H]OC1([H])C([H])([H])C([H])([H])C2(C([H])([H])[H])C3([H])C(=O)C([H])([H])C4=C5C([H])(C([H])([H])[H])C([H])(C([H])([H])[H])C([H])([H])C([H])([H])C5(C([H])([H])[H])C([H])([H])C([H])([H])C4(C([H])([H])[H])C3(C([H])([H])[H])C([H])([H])C([H])([H])C2([H])C1(C([H])([H])[H])C([H])([H])[H]

$$$$
114:0:2
     RDKit          3D

 80 84  0  0  1  0  0  0  0  0999 V2000
    2.6805   -9.3771    1.6255 C   0  0  0  0  0  0  0  0  0  0  0  0
    2.7326  -10.1366    2.9673 C   0  0  2  0  0  0  0  0  0  0  0  0
    1.3710  -10.7065    3.3722 C   0  0  0  0  0  0  0  0  0  0  0  0
    0.3938   -9.5735    3.6884 C   0  0  0  0  0  0  0  0  0  0  0  0
    0.8879   -8.5866    4.7823 C   0  0  2  0  0  0  0  0  0  0  0  0
    0.6915   -9.2396    6.1734 C   0  0  0  0  0  0  0  0  0  0  0  0
   -0.0270   -7.3539    4.6747 C   0  0  0  0  0  0  0  0  0  0  0  0
    0.4101   -6.2101    5.5872 C   0  0  0  0  0  0  0  0  0  0  0  0
    1.8997   -5.7456    5.4327 C   0  0  1  0  0  0  0  0  0  0  0  0
    2.3458   -5.4254    6.8911 C   0  0  0  0  0  0  0  0  0  0  0  0
    2.8045   -6.8965    4.9035 C   0  0  0  0  0  0  0  0  0  0  0  0
    2.3646   -8.1586    4.6052 C   0  0  0  0  0  0  0  0  0  0  0  0
    3.3224   -9.2589    4.0923 C   0  0  1  0  0  0  0  0  0  0  0  0
    3.9131  -10.0854    5.2512 C   0  0  0  0  0  0  0  0  0  0  0  0
    4.2712   -6.4623    4.7668 C   0  0  0  0  0  0  0  0  0  0  0  0
    4.3797   -5.2618    3.8315 C   0  0  0  0  0  0  0  0  0  0  0  0
    5.0690   -5.3149    2.8121 O   0  0  0  0  0  0  0  0  0  0  0  0
    3.5530   -4.0390    4.2838 C   0  0  1  0  0  0  0  0  0  0  0  0
    3.8949   -2.5467    3.7790 C   0  0  1  0  0  0  0  0  0  0  0  0
    4.5654   -1.8517    4.9985 C   0  0  0  0  0  0  0  0  0  0  0  0
    4.9038   -2.4750    2.5904 C   0  0  0  0  0  0  0  0  0  0  0  0
    5.1595   -1.0580    2.0228 C   0  0  0  0  0  0  0  0  0  0  0  0
    3.8653   -0.3437    1.5873 C   0  0  1  0  0  0  0  0  0  0  0  0
    3.4119   -0.9927    0.4117 O   0  0  0  0  0  0  0  0  0  0  0  0
    2.7811   -0.3300    2.7036 C   0  0  0  0  0  0  0  0  0  0  0  0
    3.1612    0.7283    3.7726 C   0  0  0  0  0  0  0  0  0  0  0  0
    1.4385    0.1499    2.0866 C   0  0  0  0  0  0  0  0  0  0  0  0
    2.6087   -1.7867    3.2793 C   0  0  2  0  0  0  0  0  0  0  0  0
    1.3524   -1.9718    4.1673 C   0  0  0  0  0  0  0  0  0  0  0  0
    1.3573   -3.2085    5.0776 C   0  0  0  0  0  0  0  0  0  0  0  0
    2.0482   -4.4639    4.4710 C   0  0  2  0  0  0  0  0  0  0  0  0
    1.4165   -4.8412    3.1023 C   0  0  0  0  0  0  0  0  0  0  0  0
    2.1151   -8.4483    1.6970 H   0  0  0  0  0  0  0  0  0  0  0  0
    2.2184   -9.9822    0.8480 H   0  0  0  0  0  0  0  0  0  0  0  0
    3.6855   -9.1263    1.2800 H   0  0  0  0  0  0  0  0  0  0  0  0
    3.4028  -10.9830    2.8055 H   0  0  0  0  0  0  0  0  0  0  0  0
    0.9677  -11.3285    2.5724 H   0  0  0  0  0  0  0  0  0  0  0  0
    1.4813  -11.3677    4.2325 H   0  0  0  0  0  0  0  0  0  0  0  0
    0.1815   -9.0428    2.7593 H   0  0  0  0  0  0  0  0  0  0  0  0
   -0.5614  -10.0014    3.9881 H   0  0  0  0  0  0  0  0  0  0  0  0
   -0.3647   -9.3307    6.4270 H   0  0  0  0  0  0  0  0  0  0  0  0
    1.1763   -8.6630    6.9632 H   0  0  0  0  0  0  0  0  0  0  0  0
    1.0989  -10.2492    6.2190 H   0  0  0  0  0  0  0  0  0  0  0  0
   -0.0593   -7.0056    3.6448 H   0  0  0  0  0  0  0  0  0  0  0  0
   -1.0536   -7.6328    4.9091 H   0  0  0  0  0  0  0  0  0  0  0  0
   -0.2933   -5.3908    5.4560 H   0  0  0  0  0  0  0  0  0  0  0  0
    0.2272   -6.5435    6.6093 H   0  0  0  0  0  0  0  0  0  0  0  0
    1.6638   -4.7285    7.3804 H   0  0  0  0  0  0  0  0  0  0  0  0
    3.3462   -5.0084    6.9814 H   0  0  0  0  0  0  0  0  0  0  0  0
    2.3429   -6.3339    7.4963 H   0  0  0  0  0  0  0  0  0  0  0  0
    4.1736   -8.8014    3.6046 H   0  0  0  0  0  0  0  0  0  0  0  0
    4.3755   -9.4348    5.9948 H   0  0  0  0  0  0  0  0  0  0  0  0
    4.6849  -10.7647    4.8895 H   0  0  0  0  0  0  0  0  0  0  0  0
    3.1689  -10.6946    5.7625 H   0  0  0  0  0  0  0  0  0  0  0  0
    4.6588   -6.1814    5.7453 H   0  0  0  0  0  0  0  0  0  0  0  0
    4.9502   -7.2330    4.4199 H   0  0  0  0  0  0  0  0  0  0  0  0
    3.8959   -3.9979    5.3092 H   0  0  0  0  0  0  0  0  0  0  0  0
    5.0412   -0.9067    4.7708 H   0  0  0  0  0  0  0  0  0  0  0  0
    5.3675   -2.4644    5.4146 H   0  0  0  0  0  0  0  0  0  0  0  0
    3.8548   -1.6622    5.8034 H   0  0  0  0  0  0  0  0  0  0  0  0
    5.8631   -2.9000    2.8861 H   0  0  0  0  0  0  0  0  0  0  0  0
    4.5284   -3.0891    1.7693 H   0  0  0  0  0  0  0  0  0  0  0  0
    5.7012   -0.4520    2.7473 H   0  0  0  0  0  0  0  0  0  0  0  0
    5.8347   -1.1339    1.1683 H   0  0  0  0  0  0  0  0  0  0  0  0
    4.1033    0.6841    1.3061 H   0  0  0  0  0  0  0  0  0  0  0  0
    2.5382   -0.6797    0.1861 H   0  0  0  0  0  0  0  0  0  0  0  0
    2.7364    0.5090    4.7532 H   0  0  0  0  0  0  0  0  0  0  0  0
    2.8166    1.7240    3.4868 H   0  0  0  0  0  0  0  0  0  0  0  0
    4.2369    0.8381    3.8952 H   0  0  0  0  0  0  0  0  0  0  0  0
    0.6910    0.3604    2.8540 H   0  0  0  0  0  0  0  0  0  0  0  0
    1.0103   -0.6021    1.4261 H   0  0  0  0  0  0  0  0  0  0  0  0
    1.5671    1.0661    1.5073 H   0  0  0  0  0  0  0  0  0  0  0  0
    2.3548   -2.3162    2.3671 H   0  0  0  0  0  0  0  0  0  0  0  0
    1.1594   -1.0857    4.7716 H   0  0  0  0  0  0  0  0  0  0  0  0
    0.4941   -2.0659    3.5019 H   0  0  0  0  0  0  0  0  0  0  0  0
    1.8853   -2.9280    5.9898 H   0  0  0  0  0  0  0  0  0  0  0  0
    0.3318   -3.4010    5.3893 H   0  0  0  0  0  0  0  0  0  0  0  0
    1.7321   -4.2144    2.2783 H   0  0  0  0  0  0  0  0  0  0  0  0
    0.3297   -4.7770    3.1660 H   0  0  0  0  0  0  0  0  0  0  0  0
    1.6780   -5.8490    2.7820 H   0  0  0  0  0  0  0  0  0  0  0  0
  1  2  1  0
  1 33  1  0
  1 34  1  0
  1 35  1  0
  2 13  1  0
  2  3  1  0
  2 36  1  6
  3  4  1  0
  3 37  1  0
  3 38  1  0
  4  5  1  0
  4 39  1  0
  4 40  1  0
  5 12  1  0
  5  6  1  1
  5  7  1  0
  6 41  1  0
  6 42  1  0
  6 43  1  0
  7  8  1  0
  7 44  1  0
  7 45  1  0
  8  9  1  0
  8 46  1  0
  8 47  1  0
  9 31  1  0
  9 10  1  1
  9 11  1  0
 10 48  1  0
 10 49  1  0
 10 50  1  0
 11 12  2  0
 11 15  1  0
 12 13  1  0
 13 14  1  0
 13 51  1  6
 14 52  1  0
 14 53  1  0
 14 54  1  0
 15 16  1  0
 15 55  1  0
 15 56  1  0
 16 17  2  0
 16 18  1  0
 18 31  1  0
 18 19  1  0
 18 57  1  1
 19 28  1  0
 19 20  1  1
 19 21  1  0
 20 58  1  0
 20 59  1  0
 20 60  1  0
 21 22  1  0
 21 61  1  0
 21 62  1  0
 22 23  1  0
 22 63  1  0
 22 64  1  0
 23 24  1  0
 23 25  1  0
 23 65  1  6
 24 66  1  0
 25 26  1  0
 25 27  1  0
 25 28  1  0
 26 67  1  0
 26 68  1  0
 26 69  1  0
 27 70  1  0
 27 71  1  0
 27 72  1  0
 28 29  1  0
 28 73  1  6
 29 30  1  0
 29 74  1  0
 29 75  1  0
 30 31  1  0
 30 76  1  0
 30 77  1  0
 31 32  1  6
 32 78  1  0
 32 79  1  0
 32 80  1  0
M  END
>  <i_m_ct_stereo_status>  (421) 
1

>  <s_m_source_file>  (421) 
/var/tmp/pbs.5076255.sched01/tmp7onimy_i/150cvk1qxg3.sdf

>  <i_m_source_file_index>  (421) 
42

>  <i_lp_mmshare_version>  (421) 
48012

>  <i_f3d_flags>  (421) 
0

>  <s_epik_input>  (421) 
W0NIMl0xW0NIMl1bQ0BASF0oW0NIM10pW0NASF0oW0NIM10pQyhbQ0BdMTJbQ0gzXSk9QzNbQ0BdKFtDSDNdKShbQ0gyXVtDSDJdMilbQ0BdNChbQ0gzXSlbQ0BASF0oQyg9TylbQ0gyXTMpW0NAXTUoW0NIM10pW0NAQEhdKFtDSDJdW0NIMl00KUMoW0NIM10pKFtDSDNdKVtDQEhdKFtPSF0pW0NIMl1bQ0gyXTU=

>  <s_epik_cmdline>  (421) 
J2VwaWtfcHl0aG9uJywgJy1waHQnLCAnMi4wJywgJy1waCcsICc3LjAnLCAnLXRuJywgJzgnLCAnLW1hJywgJzIwMCcsICctaW1hZScsICc8aW5maWxlLm1hZT4nLCAnLW9tYWUnLCAnPG91dGZpbGUubWFlPic=

>  <r_lp_tautomer_probability>  (421) 
1

>  <r_epik_Ionization_Penalty>  (421) 
2.23163e-06

>  <r_epik_Ionization_Penalty_Charging>  (421) 
0

>  <r_epik_Ionization_Penalty_Neutral>  (421) 
2.23163e-06

>  <r_epik_State_Penalty>  (421) 
-0

>  <r_epik_Charging_Adjusted_Penalty>  (421) 
0

>  <i_epik_Tot_Q>  (421) 
0

>  <i_epik_Tot_abs_Q>  (421) 
0

>  <s_lp_Force_Field>  (421) 
OPLS3e

>  <r_lp_Energy>  (421) 
96.1463

>  <b_lp_Chiralities_Consistent>  (421) 
1

>  <s_lp_Variant>  (421) 
114:0-1

>  <s_i_glide_gridfile>  (421) 
pfpi4k_grid

>  <i_i_glide_lignum>  (421) 
42

>  <i_i_glide_rotatable_bonds>  (421) 
1

>  <r_i_docking_score>  (421) 
-2.71212

>  <r_i_glide_ligand_efficiency>  (421) 
-0.0847538

>  <r_i_glide_ligand_efficiency_sa>  (421) 
-0.269077

>  <r_i_glide_ligand_efficiency_ln>  (421) 
-0.607318

>  <r_i_glide_gscore>  (421) 
-2.71212

>  <r_i_glide_lipo>  (421) 
-0.400084

>  <r_i_glide_hbond>  (421) 
-0.138323

>  <r_i_glide_metal>  (421) 
-0

>  <r_i_glide_rewards>  (421) 
-0.404556

>  <r_i_glide_evdw>  (421) 
-28.8149

>  <r_i_glide_ecoul>  (421) 
-2.18943

>  <r_i_glide_erotb>  (421) 
0

>  <r_i_glide_esite>  (421) 
0

>  <r_i_glide_emodel>  (421) 
-36.3838

>  <r_i_glide_energy>  (421) 
-31.0043

>  <r_i_glide_einternal>  (421) 
0.545788

>  <r_i_glide_intrahb_reward>  (421) 
-0

>  <i_i_glide_confnum>  (421) 
2

>  <i_i_glide_posenum>  (421) 
2

>  <r_i_glide_eff_state_penalty>  (421) 
0

>  <ligand_id>  (421) 
114

>  <original_smiles>  (421) 
CC1CCC2(C)CCC3(C)C(=C2C1C)CC(=O)C1C2(C)CCC(O)C(C)(C)C2CCC13C

>  <smiles>  (421) 
[H]OC1([H])C([H])([H])C([H])([H])C2(C([H])([H])[H])C3([H])C(=O)C([H])([H])C4=C5C([H])(C([H])([H])[H])C([H])(C([H])([H])[H])C([H])([H])C([H])([H])C5(C([H])([H])[H])C([H])([H])C([H])([H])C4(C([H])([H])[H])C3(C([H])([H])[H])C([H])([H])C([H])([H])C2([H])C1(C([H])([H])[H])C([H])([H])[H]

$$$$
115:0:0
     RDKit          3D

 59 64  0  0  1  0  0  0  0  0999 V2000
    5.1141   -0.1927    0.6383 C   0  0  0  0  0  0  0  0  0  0  0  0
    5.0382   -1.6981    0.9157 C   0  0  2  0  0  0  0  0  0  0  0  0
    6.3752   -2.3475    1.4053 C   0  0  2  0  0  0  0  0  0  0  0  0
    7.6081   -1.7195    0.6614 C   0  0  0  0  0  0  0  0  0  0  0  0
    7.8148   -2.2692   -0.7577 C   0  0  1  0  0  0  0  0  0  0  0  0
    7.9410   -3.7790   -0.6945 C   0  0  0  0  0  0  0  0  0  0  0  0
    6.4971   -4.1364   -0.2835 C   0  0  1  0  0  0  0  0  0  0  0  0
    6.4622   -3.8807    1.2154 C   0  0  0  0  0  0  0  0  0  0  0  0
    5.5771   -3.1717   -1.1271 C   0  0  2  0  0  0  0  0  0  0  0  0
    5.0265   -3.8467   -2.3887 C   0  0  0  0  0  0  0  0  0  0  0  0
    6.5732   -2.1208   -1.6442 C   0  0  0  0  0  0  0  0  0  0  0  0
    4.4367   -2.5257   -0.2469 C   0  0  1  0  0  0  0  0  0  0  0  0
    3.4082   -3.4865    0.2313 N   0  0  0  0  0  0  0  0  0  0  0  0
    3.2719   -3.8554    1.6551 C   0  0  0  0  0  0  0  0  0  0  0  0
    3.0082   -5.3489    1.7778 C   0  0  0  0  0  0  0  0  0  0  0  0
    3.6111   -6.2051    2.6279 C   0  0  0  0  0  0  0  0  0  0  0  0
    4.6427   -5.9109    3.6476 C   0  0  0  0  0  0  0  0  0  0  0  0
    4.8677   -4.7220    4.2953 C   0  0  0  0  0  0  0  0  0  0  0  0
    5.9824   -4.8673    5.1048 N   0  0  0  0  0  0  0  0  0  0  0  0
    6.4923   -6.1491    5.0158 C   0  0  0  0  0  0  0  0  0  0  0  0
    7.5809   -6.7708    5.6450 C   0  0  0  0  0  0  0  0  0  0  0  0
    7.8697   -8.1178    5.3686 C   0  0  0  0  0  0  0  0  0  0  0  0
    7.0689   -8.8226    4.4469 C   0  0  0  0  0  0  0  0  0  0  0  0
    5.9843   -8.1903    3.8102 C   0  0  0  0  0  0  0  0  0  0  0  0
    5.6567   -6.8415    4.0823 C   0  0  0  0  0  0  0  0  0  0  0  0
    1.9952   -5.8628    0.8402 C   0  0  0  0  0  0  0  0  0  0  0  0
    1.3338   -6.8841    0.9995 O   0  0  0  0  0  0  0  0  0  0  0  0
    1.8139   -5.0728   -0.2459 N   0  0  0  0  0  0  0  0  0  0  0  0
    2.4206   -3.9235   -0.6050 C   0  0  0  0  0  0  0  0  0  0  0  0
    2.1144   -3.3998   -1.6717 O   0  0  0  0  0  0  0  0  0  0  0  0
    6.3431   -4.1177    5.6779 H   0  0  0  0  0  0  0  0  0  0  0  0
    5.7991    0.0865   -0.1423 H   0  0  0  0  0  0  0  0  0  0  0  0
    5.4736    0.3115    1.5346 H   0  0  0  0  0  0  0  0  0  0  0  0
    4.1404    0.2073    0.3405 H   0  0  0  0  0  0  0  0  0  0  0  0
    4.3372   -1.6297    1.7507 H   0  0  0  0  0  0  0  0  0  0  0  0
    6.4507   -2.0886    2.4617 H   0  0  0  0  0  0  0  0  0  0  0  0
    7.6274   -0.6304    0.6764 H   0  0  0  0  0  0  0  0  0  0  0  0
    8.5099   -1.9550    1.2100 H   0  0  0  0  0  0  0  0  0  0  0  0
    8.7215   -1.8602   -1.1973 H   0  0  0  0  0  0  0  0  0  0  0  0
    8.2569   -4.1309   -1.6835 H   0  0  0  0  0  0  0  0  0  0  0  0
    8.6810   -4.1421    0.0247 H   0  0  0  0  0  0  0  0  0  0  0  0
    6.2295   -5.1770   -0.4650 H   0  0  0  0  0  0  0  0  0  0  0  0
    7.3297   -4.2765    1.7349 H   0  0  0  0  0  0  0  0  0  0  0  0
    5.6894   -4.5012    1.5750 H   0  0  0  0  0  0  0  0  0  0  0  0
    4.4000   -3.1733   -2.9741 H   0  0  0  0  0  0  0  0  0  0  0  0
    4.4208   -4.6671   -2.0656 H   0  0  0  0  0  0  0  0  0  0  0  0
    5.8113   -4.2548   -3.0262 H   0  0  0  0  0  0  0  0  0  0  0  0
    6.1577   -1.1246   -1.7354 H   0  0  0  0  0  0  0  0  0  0  0  0
    6.8842   -2.3429   -2.6679 H   0  0  0  0  0  0  0  0  0  0  0  0
    3.9127   -1.8093   -0.8804 H   0  0  0  0  0  0  0  0  0  0  0  0
    4.1107   -3.5851    2.2566 H   0  0  0  0  0  0  0  0  0  0  0  0
    2.4538   -3.2585    2.0483 H   0  0  0  0  0  0  0  0  0  0  0  0
    3.3208   -7.2522    2.6055 H   0  0  0  0  0  0  0  0  0  0  0  0
    4.3500   -3.7671    4.2657 H   0  0  0  0  0  0  0  0  0  0  0  0
    8.1816   -6.2105    6.3467 H   0  0  0  0  0  0  0  0  0  0  0  0
    8.7007   -8.6033    5.8613 H   0  0  0  0  0  0  0  0  0  0  0  0
    7.2865   -9.8645    4.2364 H   0  0  0  0  0  0  0  0  0  0  0  0
    5.3757   -8.7506    3.1094 H   0  0  0  0  0  0  0  0  0  0  0  0
    1.1116   -5.3890   -0.9190 H   0  0  0  0  0  0  0  0  0  0  0  0
  1  2  1  0
  1 32  1  0
  1 33  1  0
  1 34  1  0
  2 12  1  0
  2  3  1  0
  2 35  1  1
  3  8  1  0
  3  4  1  0
  3 36  1  1
  4  5  1  0
  4 37  1  0
  4 38  1  0
  5 11  1  0
  5  6  1  0
  5 39  1  6
  6  7  1  0
  6 40  1  0
  6 41  1  0
  7  8  1  0
  7  9  1  0
  7 42  1  1
  8 43  1  0
  8 44  1  0
  9 10  1  6
  9 11  1  0
  9 12  1  0
 10 45  1  0
 10 46  1  0
 10 47  1  0
 11 48  1  0
 11 49  1  0
 12 13  1  0
 12 50  1  6
 13 29  1  0
 13 14  1  0
 14 15  1  0
 14 51  1  0
 14 52  1  0
 15 16  2  3
 15 26  1  0
 16 17  1  0
 16 53  1  0
 17 25  1  0
 17 18  2  0
 18 19  1  0
 18 54  1  0
 19 31  1  0
 19 20  1  0
 20 25  2  0
 20 21  1  0
 21 22  2  0
 21 55  1  0
 22 23  1  0
 22 56  1  0
 23 24  2  0
 23 57  1  0
 24 25  1  0
 24 58  1  0
 26 27  2  0
 26 28  1  0
 28 29  1  0
 28 59  1  0
 29 30  2  0
M  END
>  <i_m_ct_stereo_status>  (422) 
1

>  <s_m_source_file>  (422) 
/var/tmp/pbs.5076255.sched01/tmp7onimy_i/150cvk1qxg3.sdf

>  <i_m_source_file_index>  (422) 
43

>  <i_lp_mmshare_version>  (422) 
48012

>  <i_f3d_flags>  (422) 
0

>  <s_epik_input>  (422) 
W0NIM11bQ0BAXTEyW0NASF0zW0NIMl1bQ0BASF0oW0NIMl0xKVtDSDJdW0NASF0oW0NIMl0zKVtDQEBIXShbQ0gzXSlbQ0BASF0yTjRbQ0gyXS9DKEMoPU8pW05IXUM0PU8pPVtDSF1cYyhbY0hdW25IXTUpYyhjNTYpW2NIXVtjSF1bY0hdW2NIXTY=

>  <s_epik_cmdline>  (422) 
J2VwaWtfcHl0aG9uJywgJy1waHQnLCAnMi4wJywgJy1waCcsICc3LjAnLCAnLXRuJywgJzgnLCAnLW1hJywgJzIwMCcsICctaW1hZScsICc8aW5maWxlLm1hZT4nLCAnLW9tYWUnLCAnPG91dGZpbGUubWFlPic=

>  <r_epik_Ionization_Penalty>  (422) 
0.00398737

>  <r_epik_Ionization_Penalty_Charging>  (422) 
0

>  <r_epik_Ionization_Penalty_Neutral>  (422) 
0.00398737

>  <r_epik_State_Penalty>  (422) 
0.00284814

>  <r_epik_Charging_Adjusted_Penalty>  (422) 
0.00284814

>  <i_epik_Tot_Q>  (422) 
0

>  <i_epik_Tot_abs_Q>  (422) 
0

>  <s_lp_Force_Field>  (422) 
OPLS3e

>  <r_lp_Energy>  (422) 
73.3201

>  <b_lp_Chiralities_Consistent>  (422) 
1

>  <s_lp_Variant>  (422) 
115:0-1

>  <s_i_glide_gridfile>  (422) 
pfpi4k_grid

>  <i_i_glide_lignum>  (422) 
43

>  <i_i_glide_rotatable_bonds>  (422) 
2

>  <r_i_docking_score>  (422) 
-1.66295

>  <r_i_glide_ligand_efficiency>  (422) 
-0.0554316

>  <r_i_glide_ligand_efficiency_sa>  (422) 
-0.172239

>  <r_i_glide_ligand_efficiency_ln>  (422) 
-0.37784

>  <r_i_glide_gscore>  (422) 
-1.66295

>  <r_i_glide_lipo>  (422) 
-0.623609

>  <r_i_glide_hbond>  (422) 
0

>  <r_i_glide_metal>  (422) 
-0

>  <r_i_glide_rewards>  (422) 
-0.657841

>  <r_i_glide_evdw>  (422) 
-10.3984

>  <r_i_glide_ecoul>  (422) 
1.5151

>  <r_i_glide_erotb>  (422) 
0.120584

>  <r_i_glide_esite>  (422) 
-0.209427

>  <r_i_glide_emodel>  (422) 
-6.76709

>  <r_i_glide_energy>  (422) 
-8.88331

>  <r_i_glide_einternal>  (422) 
2.26998

>  <r_i_glide_intrahb_reward>  (422) 
-0

>  <i_i_glide_confnum>  (422) 
3

>  <i_i_glide_posenum>  (422) 
5

>  <r_i_glide_eff_state_penalty>  (422) 
0

>  <ligand_id>  (422) 
115

>  <original_smiles>  (422) 
CC1C2CC3CC(C2)C(C)(C3)C1N1CC(=Cc2c[nH]c3ccccc23)C(=O)NC1=O

>  <smiles>  (422) 
[H]C(=C1C(=O)N([H])C(=O)N(C2([H])C([H])(C([H])([H])[H])C3([H])C([H])([H])C4([H])C([H])([H])C([H])(C3([H])[H])C2(C([H])([H])[H])C4([H])[H])C1([H])[H])c1c([H])n([H])c2c([H])c([H])c([H])c([H])c12

$$$$
116:0:0
     RDKit          3D

 59 64  0  0  1  0  0  0  0  0999 V2000
    2.6125   -0.4524    3.4134 C   0  0  0  0  0  0  0  0  0  0  0  0
    2.9101   -1.8404    2.8108 C   0  0  2  0  0  0  0  0  0  0  0  0
    2.9508   -2.8547    3.9712 C   0  0  0  0  0  0  0  0  0  0  0  0
    3.5495   -4.2459    3.7186 C   0  0  2  0  0  0  0  0  0  0  0  0
    5.0563   -4.2234    3.8209 C   0  0  0  0  0  0  0  0  0  0  0  0
    5.6072   -3.2274    2.9857 O   0  0  0  0  0  0  0  0  0  0  0  0
    5.1604   -2.9695    1.6548 C   0  0  2  0  0  0  0  0  0  0  0  0
    6.5556   -2.4294    1.2167 C   0  0  0  0  0  0  0  0  0  0  0  0
    4.1214   -1.7502    1.8057 C   0  0  1  0  0  0  0  0  0  0  0  0
    3.6612   -0.9823    0.4892 C   0  0  0  0  0  0  0  0  0  0  0  0
    3.8192   -1.7479   -0.8402 C   0  0  2  0  0  0  0  0  0  0  0  0
    4.7390   -1.4169   -1.9641 C   0  0  0  0  0  0  0  0  0  0  0  0
    5.6060   -2.3957   -2.3487 C   0  0  0  0  0  0  0  0  0  0  0  0
    5.6661   -3.7492   -1.6723 C   0  0  0  0  0  0  0  0  0  0  0  0
    4.4478   -4.0834   -0.7757 C   0  0  2  0  0  0  0  0  0  0  0  0
    3.2773   -3.1440   -1.1349 C   0  0  1  0  0  0  0  0  0  0  0  0
    2.1314   -3.5513   -0.3138 C   0  0  0  0  0  0  0  0  0  0  0  0
    2.7276   -3.2755   -2.5920 C   0  0  0  0  0  0  0  0  0  0  0  0
    2.6135   -2.4181   -3.6434 C   0  0  0  0  0  0  0  0  0  0  0  0
    3.1105   -1.0060   -3.8142 C   0  0  0  0  0  0  0  0  0  0  0  0
    2.7029   -0.2476   -4.6964 O   0  0  0  0  0  0  0  0  0  0  0  0
    4.2211   -0.4251   -2.9473 C   0  0  0  0  0  0  0  0  0  0  0  0
    4.8044   -4.2723    0.7745 C   0  0  1  0  0  0  0  0  0  0  0  0
    5.7917   -5.4654    0.9198 C   0  0  0  0  0  0  0  0  0  0  0  0
    4.6466   -6.3833    1.3234 C   0  0  0  0  0  0  0  0  0  0  0  0
    3.8172   -5.1961    1.3777 N   0  0  0  0  0  0  0  0  0  0  0  0
    3.0072   -4.9727    2.4921 C   0  0  0  0  0  0  0  0  0  0  0  0
    1.8205   -5.2912    2.4712 O   0  0  0  0  0  0  0  0  0  0  0  0
    3.4296   -0.1084    4.0532 H   0  0  0  0  0  0  0  0  0  0  0  0
    1.7103   -0.4844    4.0251 H   0  0  0  0  0  0  0  0  0  0  0  0
    2.4530    0.3076    2.6460 H   0  0  0  0  0  0  0  0  0  0  0  0
    2.0062   -2.0709    2.2551 H   0  0  0  0  0  0  0  0  0  0  0  0
    3.4583   -2.4105    4.8269 H   0  0  0  0  0  0  0  0  0  0  0  0
    1.9232   -2.9826    4.3085 H   0  0  0  0  0  0  0  0  0  0  0  0
    3.2057   -4.8616    4.5456 H   0  0  0  0  0  0  0  0  0  0  0  0
    5.3251   -3.9541    4.8426 H   0  0  0  0  0  0  0  0  0  0  0  0
    5.4818   -5.2141    3.6575 H   0  0  0  0  0  0  0  0  0  0  0  0
    6.6529   -2.0669    0.2004 H   0  0  0  0  0  0  0  0  0  0  0  0
    7.3220   -3.2008    1.3019 H   0  0  0  0  0  0  0  0  0  0  0  0
    6.8787   -1.5938    1.8368 H   0  0  0  0  0  0  0  0  0  0  0  0
    4.7592   -1.0126    2.2963 H   0  0  0  0  0  0  0  0  0  0  0  0
    2.6179   -0.6714    0.5640 H   0  0  0  0  0  0  0  0  0  0  0  0
    4.2311   -0.0423    0.4156 H   0  0  0  0  0  0  0  0  0  0  0  0
    4.7445   -1.8963   -0.3642 H   0  0  0  0  0  0  0  0  0  0  0  0
    6.1090   -2.4088   -3.2886 H   0  0  0  0  0  0  0  0  0  0  0  0
    5.6073   -4.4549   -2.4958 H   0  0  0  0  0  0  0  0  0  0  0  0
    6.6272   -3.8600   -1.1649 H   0  0  0  0  0  0  0  0  0  0  0  0
    4.1087   -5.0555   -1.1184 H   0  0  0  0  0  0  0  0  0  0  0  0
    2.2171   -3.3751    0.7434 H   0  0  0  0  0  0  0  0  0  0  0  0
    1.7363   -4.5455   -0.5584 H   0  0  0  0  0  0  0  0  0  0  0  0
    1.3948   -2.8737   -0.6370 H   0  0  0  0  0  0  0  0  0  0  0  0
    2.2683   -4.2374   -2.7400 H   0  0  0  0  0  0  0  0  0  0  0  0
    2.1299   -2.8554   -4.5054 H   0  0  0  0  0  0  0  0  0  0  0  0
    3.8918    0.5084   -2.4740 H   0  0  0  0  0  0  0  0  0  0  0  0
    5.0080   -0.2501   -3.6519 H   0  0  0  0  0  0  0  0  0  0  0  0
    6.2413   -5.8054   -0.0088 H   0  0  0  0  0  0  0  0  0  0  0  0
    6.5513   -5.3462    1.6942 H   0  0  0  0  0  0  0  0  0  0  0  0
    4.3418   -7.0967    0.5635 H   0  0  0  0  0  0  0  0  0  0  0  0
    4.7868   -6.8785    2.2784 H   0  0  0  0  0  0  0  0  0  0  0  0
  1  2  1  0
  1 29  1  0
  1 30  1  0
  1 31  1  0
  2  9  1  0
  2  3  1  0
  2 32  1  6
  3  4  1  0
  3 33  1  0
  3 34  1  0
  4 27  1  0
  4  5  1  0
  4 35  1  1
  5  6  1  0
  5 36  1  0
  5 37  1  0
  6  7  1  0
  7 23  1  0
  7  8  1  6
  7  9  1  0
  8 38  1  0
  8 39  1  0
  8 40  1  0
  9 10  1  0
  9 41  1  1
 10 11  1  0
 10 42  1  0
 10 43  1  0
 11 16  1  0
 11 12  1  0
 11 44  1  6
 12 22  1  0
 12 13  2  0
 13 14  1  0
 13 45  1  0
 14 15  1  0
 14 46  1  0
 14 47  1  0
 15 16  1  0
 15 23  1  0
 15 48  1  6
 16 17  1  1
 16 18  1  0
 17 49  1  0
 17 50  1  0
 17 51  1  0
 18 19  2  0
 18 52  1  0
 19 20  1  0
 19 53  1  0
 20 21  2  0
 20 22  1  0
 22 54  1  0
 22 55  1  0
 23 26  1  0
 23 24  1  6
 24 25  1  0
 24 56  1  0
 24 57  1  0
 25 26  1  0
 25 58  1  0
 25 59  1  0
 26 27  1  0
 27 28  2  0
M  END
>  <i_m_ct_stereo_status>  (423) 
1

>  <s_m_source_file>  (423) 
/var/tmp/pbs.5076255.sched01/tmp7onimy_i/150cvk1qxg3.sdf

>  <i_m_source_file_index>  (423) 
45

>  <i_lp_mmshare_version>  (423) 
48012

>  <i_f3d_flags>  (423) 
0

>  <s_epik_input>  (423) 
W0NIMl0xW0NIMl1OMkMoPU8pW0NAQEhdKFtDSDJdTzMpW0NIMl1bQ0BASF0oW0NIM10pW0NAQEhdKFtDQEBdMyhbQ0BAXTEyNClbQ0gzXSlbQ0gyXVtDQEBIXTVDNj1bQ0hdW0NIMl1bQ0hdNFtDQF01KFtDSDNdKVtDSF09W0NIXUMoPU8pW0NIMl02

>  <s_epik_cmdline>  (423) 
J2VwaWtfcHl0aG9uJywgJy1waHQnLCAnMi4wJywgJy1waCcsICc3LjAnLCAnLXRuJywgJzgnLCAnLW1hJywgJzIwMCcsICctaW1hZScsICc8aW5maWxlLm1hZT4nLCAnLW9tYWUnLCAnPG91dGZpbGUubWFlPic=

>  <r_lp_tautomer_probability>  (423) 
1

>  <r_epik_Ionization_Penalty>  (423) 
2.86052e-08

>  <r_epik_Ionization_Penalty_Charging>  (423) 
0

>  <r_epik_Ionization_Penalty_Neutral>  (423) 
2.86052e-08

>  <r_epik_State_Penalty>  (423) 
-0

>  <r_epik_Charging_Adjusted_Penalty>  (423) 
0

>  <i_epik_Tot_Q>  (423) 
0

>  <i_epik_Tot_abs_Q>  (423) 
0

>  <s_lp_Force_Field>  (423) 
OPLS3e

>  <r_lp_Energy>  (423) 
150.228

>  <b_lp_Chiralities_Consistent>  (423) 
1

>  <s_lp_Variant>  (423) 
116:0-1

>  <s_i_glide_gridfile>  (423) 
pfpi4k_grid

>  <i_i_glide_lignum>  (423) 
45

>  <i_i_glide_rotatable_bonds>  (423) 
0

>  <r_i_docking_score>  (423) 
-3.1299

>  <r_i_glide_ligand_efficiency>  (423) 
-0.111782

>  <r_i_glide_ligand_efficiency_sa>  (423) 
-0.339436

>  <r_i_glide_ligand_efficiency_ln>  (423) 
-0.722472

>  <r_i_glide_gscore>  (423) 
-3.1299

>  <r_i_glide_lipo>  (423) 
-0.922005

>  <r_i_glide_hbond>  (423) 
0

>  <r_i_glide_metal>  (423) 
-0

>  <r_i_glide_rewards>  (423) 
-1.10228

>  <r_i_glide_evdw>  (423) 
-17.9808

>  <r_i_glide_ecoul>  (423) 
-1.368

>  <r_i_glide_erotb>  (423) 
0

>  <r_i_glide_esite>  (423) 
-0.00136646

>  <r_i_glide_emodel>  (423) 
-22.9127

>  <r_i_glide_energy>  (423) 
-19.3488

>  <r_i_glide_einternal>  (423) 
0

>  <r_i_glide_intrahb_reward>  (423) 
-0

>  <i_i_glide_confnum>  (423) 
2

>  <i_i_glide_posenum>  (423) 
9

>  <r_i_glide_eff_state_penalty>  (423) 
0

>  <ligand_id>  (423) 
116

>  <original_smiles>  (423) 
CC1CC2COC3(C)C1CC1C4=CCC(C1(C)C=CC(=O)C4)C31CCN1C2=O

>  <smiles>  (423) 
[H]C1=C([H])C2(C([H])([H])[H])C3([H])C(=C([H])C([H])([H])C2([H])C24N(C(=O)C5([H])C([H])([H])OC2(C([H])([H])[H])C([H])(C3([H])[H])C([H])(C([H])([H])[H])C5([H])[H])C([H])([H])C4([H])[H])C([H])([H])C1=O

$$$$
116:0:1
     RDKit          3D

 59 64  0  0  1  0  0  0  0  0999 V2000
    1.7910   -1.5164    3.5557 C   0  0  0  0  0  0  0  0  0  0  0  0
    2.2744   -2.7736    2.7970 C   0  0  2  0  0  0  0  0  0  0  0  0
    2.1029   -3.9898    3.7421 C   0  0  0  0  0  0  0  0  0  0  0  0
    2.7944   -5.3112    3.3856 C   0  0  2  0  0  0  0  0  0  0  0  0
    4.2551   -5.2925    3.8087 C   0  0  0  0  0  0  0  0  0  0  0  0
    4.9565   -4.1785    3.2902 O   0  0  0  0  0  0  0  0  0  0  0  0
    4.7650   -3.6750    1.9612 C   0  0  2  0  0  0  0  0  0  0  0  0
    6.2023   -3.0599    1.9099 C   0  0  0  0  0  0  0  0  0  0  0  0
    3.6612   -2.5014    2.0959 C   0  0  1  0  0  0  0  0  0  0  0  0
    3.4553   -1.5089    0.8668 C   0  0  0  0  0  0  0  0  0  0  0  0
    3.9001   -2.0108   -0.5227 C   0  0  2  0  0  0  0  0  0  0  0  0
    5.0199   -1.4843   -1.3796 C   0  0  0  0  0  0  0  0  0  0  0  0
    6.0238   -2.3447   -1.7029 C   0  0  0  0  0  0  0  0  0  0  0  0
    5.9645   -3.7984   -1.2676 C   0  0  0  0  0  0  0  0  0  0  0  0
    4.5727   -4.3121   -0.7116 C   0  0  2  0  0  0  0  0  0  0  0  0
    3.4297   -3.3255   -1.1453 C   0  0  1  0  0  0  0  0  0  0  0  0
    2.0362   -3.7727   -0.7275 C   0  0  0  0  0  0  0  0  0  0  0  0
    3.2634   -3.2301   -2.6924 C   0  0  0  0  0  0  0  0  0  0  0  0
    3.3388   -2.2198   -3.5896 C   0  0  0  0  0  0  0  0  0  0  0  0
    3.7400   -0.8031   -3.4135 C   0  0  0  0  0  0  0  0  0  0  0  0
    3.4155    0.0482   -4.2349 O   0  0  0  0  0  0  0  0  0  0  0  0
    4.6429   -0.3501   -2.2657 C   0  0  0  0  0  0  0  0  0  0  0  0
    4.6215   -4.7949    0.8145 C   0  0  1  0  0  0  0  0  0  0  0  0
    5.6169   -5.9853    0.9454 C   0  0  0  0  0  0  0  0  0  0  0  0
    4.4582   -6.9792    0.9452 C   0  0  0  0  0  0  0  0  0  0  0  0
    3.5769   -5.8226    1.0297 N   0  0  0  0  0  0  0  0  0  0  0  0
    2.5394   -5.7987    1.9513 C   0  0  0  0  0  0  0  0  0  0  0  0
    1.3893   -6.0815    1.6109 O   0  0  0  0  0  0  0  0  0  0  0  0
    2.4395   -1.2862    4.4028 H   0  0  0  0  0  0  0  0  0  0  0  0
    0.7822   -1.6585    3.9444 H   0  0  0  0  0  0  0  0  0  0  0  0
    1.7653   -0.6358    2.9134 H   0  0  0  0  0  0  0  0  0  0  0  0
    1.5173   -2.9024    2.0352 H   0  0  0  0  0  0  0  0  0  0  0  0
    2.3993   -3.7121    4.7554 H   0  0  0  0  0  0  0  0  0  0  0  0
    1.0302   -4.1813    3.8265 H   0  0  0  0  0  0  0  0  0  0  0  0
    2.3262   -6.0740    4.0048 H   0  0  0  0  0  0  0  0  0  0  0  0
    4.3012   -5.2090    4.8981 H   0  0  0  0  0  0  0  0  0  0  0  0
    4.7524   -6.2310    3.5781 H   0  0  0  0  0  0  0  0  0  0  0  0
    6.4758   -2.5133    1.0158 H   0  0  0  0  0  0  0  0  0  0  0  0
    6.9617   -3.8349    2.0392 H   0  0  0  0  0  0  0  0  0  0  0  0
    6.3015   -2.3397    2.7221 H   0  0  0  0  0  0  0  0  0  0  0  0
    4.1451   -1.8616    2.8334 H   0  0  0  0  0  0  0  0  0  0  0  0
    2.4111   -1.2205    0.7820 H   0  0  0  0  0  0  0  0  0  0  0  0
    3.9776   -0.5713    1.0771 H   0  0  0  0  0  0  0  0  0  0  0  0
    4.7229   -2.2435    0.0949 H   0  0  0  0  0  0  0  0  0  0  0  0
    6.7504   -2.1582   -2.4734 H   0  0  0  0  0  0  0  0  0  0  0  0
    6.1039   -4.2549   -2.2458 H   0  0  0  0  0  0  0  0  0  0  0  0
    6.8135   -4.0483   -0.6301 H   0  0  0  0  0  0  0  0  0  0  0  0
    4.3978   -5.2239   -1.2672 H   0  0  0  0  0  0  0  0  0  0  0  0
    1.9590   -3.8595    0.3387 H   0  0  0  0  0  0  0  0  0  0  0  0
    1.7702   -4.7457   -1.1426 H   0  0  0  0  0  0  0  0  0  0  0  0
    1.2974   -3.0483   -1.0616 H   0  0  0  0  0  0  0  0  0  0  0  0
    2.9531   -4.1617   -3.1318 H   0  0  0  0  0  0  0  0  0  0  0  0
    3.0924   -2.4837   -4.6092 H   0  0  0  0  0  0  0  0  0  0  0  0
    4.2280    0.4308   -1.6862 H   0  0  0  0  0  0  0  0  0  0  0  0
    5.5360    0.0668   -2.6998 H   0  0  0  0  0  0  0  0  0  0  0  0
    6.2753   -6.1330    0.0891 H   0  0  0  0  0  0  0  0  0  0  0  0
    6.1986   -5.9984    1.8682 H   0  0  0  0  0  0  0  0  0  0  0  0
    4.3237   -7.5304    0.0133 H   0  0  0  0  0  0  0  0  0  0  0  0
    4.4572   -7.6362    1.8101 H   0  0  0  0  0  0  0  0  0  0  0  0
  1  2  1  0
  1 29  1  0
  1 30  1  0
  1 31  1  0
  2  9  1  0
  2  3  1  0
  2 32  1  6
  3  4  1  0
  3 33  1  0
  3 34  1  0
  4 27  1  0
  4  5  1  0
  4 35  1  1
  5  6  1  0
  5 36  1  0
  5 37  1  0
  6  7  1  0
  7 23  1  0
  7  8  1  6
  7  9  1  0
  8 38  1  0
  8 39  1  0
  8 40  1  0
  9 10  1  0
  9 41  1  1
 10 11  1  0
 10 42  1  0
 10 43  1  0
 11 16  1  0
 11 12  1  0
 11 44  1  6
 12 22  1  0
 12 13  2  0
 13 14  1  0
 13 45  1  0
 14 15  1  0
 14 46  1  0
 14 47  1  0
 15 16  1  0
 15 23  1  0
 15 48  1  6
 16 17  1  1
 16 18  1  0
 17 49  1  0
 17 50  1  0
 17 51  1  0
 18 19  2  0
 18 52  1  0
 19 20  1  0
 19 53  1  0
 20 21  2  0
 20 22  1  0
 22 54  1  0
 22 55  1  0
 23 26  1  0
 23 24  1  6
 24 25  1  0
 24 56  1  0
 24 57  1  0
 25 26  1  0
 25 58  1  0
 25 59  1  0
 26 27  1  0
 27 28  2  0
M  END
>  <i_m_ct_stereo_status>  (424) 
1

>  <s_m_source_file>  (424) 
/var/tmp/pbs.5076255.sched01/tmp7onimy_i/150cvk1qxg3.sdf

>  <i_m_source_file_index>  (424) 
45

>  <i_lp_mmshare_version>  (424) 
48012

>  <i_f3d_flags>  (424) 
0

>  <s_epik_input>  (424) 
W0NIMl0xW0NIMl1OMkMoPU8pW0NAQEhdKFtDSDJdTzMpW0NIMl1bQ0BASF0oW0NIM10pW0NAQEhdKFtDQEBdMyhbQ0BAXTEyNClbQ0gzXSlbQ0gyXVtDQEBIXTVDNj1bQ0hdW0NIMl1bQ0hdNFtDQF01KFtDSDNdKVtDSF09W0NIXUMoPU8pW0NIMl02

>  <s_epik_cmdline>  (424) 
J2VwaWtfcHl0aG9uJywgJy1waHQnLCAnMi4wJywgJy1waCcsICc3LjAnLCAnLXRuJywgJzgnLCAnLW1hJywgJzIwMCcsICctaW1hZScsICc8aW5maWxlLm1hZT4nLCAnLW9tYWUnLCAnPG91dGZpbGUubWFlPic=

>  <r_lp_tautomer_probability>  (424) 
1

>  <r_epik_Ionization_Penalty>  (424) 
2.86052e-08

>  <r_epik_Ionization_Penalty_Charging>  (424) 
0

>  <r_epik_Ionization_Penalty_Neutral>  (424) 
2.86052e-08

>  <r_epik_State_Penalty>  (424) 
-0

>  <r_epik_Charging_Adjusted_Penalty>  (424) 
0

>  <i_epik_Tot_Q>  (424) 
0

>  <i_epik_Tot_abs_Q>  (424) 
0

>  <s_lp_Force_Field>  (424) 
OPLS3e

>  <r_lp_Energy>  (424) 
150.228

>  <b_lp_Chiralities_Consistent>  (424) 
1

>  <s_lp_Variant>  (424) 
116:0-1

>  <s_i_glide_gridfile>  (424) 
pfpi4k_grid

>  <i_i_glide_lignum>  (424) 
45

>  <i_i_glide_rotatable_bonds>  (424) 
0

>  <r_i_docking_score>  (424) 
-3.12046

>  <r_i_glide_ligand_efficiency>  (424) 
-0.111445

>  <r_i_glide_ligand_efficiency_sa>  (424) 
-0.338413

>  <r_i_glide_ligand_efficiency_ln>  (424) 
-0.720295

>  <r_i_glide_gscore>  (424) 
-3.12046

>  <r_i_glide_lipo>  (424) 
-0.68005

>  <r_i_glide_hbond>  (424) 
-0.072499

>  <r_i_glide_metal>  (424) 
-0

>  <r_i_glide_rewards>  (424) 
-1.0988

>  <r_i_glide_evdw>  (424) 
-18.7962

>  <r_i_glide_ecoul>  (424) 
-2.11761

>  <r_i_glide_erotb>  (424) 
0

>  <r_i_glide_esite>  (424) 
-0.0116645

>  <r_i_glide_emodel>  (424) 
-25.7721

>  <r_i_glide_energy>  (424) 
-20.9138

>  <r_i_glide_einternal>  (424) 
0

>  <r_i_glide_intrahb_reward>  (424) 
-0

>  <i_i_glide_confnum>  (424) 
1

>  <i_i_glide_posenum>  (424) 
12

>  <r_i_glide_eff_state_penalty>  (424) 
0

>  <ligand_id>  (424) 
116

>  <original_smiles>  (424) 
CC1CC2COC3(C)C1CC1C4=CCC(C1(C)C=CC(=O)C4)C31CCN1C2=O

>  <smiles>  (424) 
[H]C1=C([H])C2(C([H])([H])[H])C3([H])C(=C([H])C([H])([H])C2([H])C24N(C(=O)C5([H])C([H])([H])OC2(C([H])([H])[H])C([H])(C3([H])[H])C([H])(C([H])([H])[H])C5([H])[H])C([H])([H])C4([H])[H])C([H])([H])C1=O

$$$$
116:0:2
     RDKit          3D

 59 64  0  0  1  0  0  0  0  0999 V2000
    3.0429   -3.6450   -0.8347 C   0  0  0  0  0  0  0  0  0  0  0  0
    3.6544   -4.1132    0.5036 C   0  0  2  0  0  0  0  0  0  0  0  0
    5.0389   -3.4460    0.6205 C   0  0  0  0  0  0  0  0  0  0  0  0
    6.0021   -3.9653    1.6865 C   0  0  2  0  0  0  0  0  0  0  0  0
    6.7518   -5.1972    1.2084 C   0  0  0  0  0  0  0  0  0  0  0  0
    5.8809   -6.2202    0.7698 O   0  0  0  0  0  0  0  0  0  0  0  0
    4.6490   -6.5363    1.4320 C   0  0  2  0  0  0  0  0  0  0  0  0
    4.6689   -7.9983    0.8789 C   0  0  0  0  0  0  0  0  0  0  0  0
    3.5127   -5.6785    0.6848 C   0  0  1  0  0  0  0  0  0  0  0  0
    1.9895   -6.0482    0.9499 C   0  0  0  0  0  0  0  0  0  0  0  0
    1.6596   -6.8110    2.2508 C   0  0  2  0  0  0  0  0  0  0  0  0
    1.1514   -8.2243    2.4051 C   0  0  0  0  0  0  0  0  0  0  0  0
    1.9010   -9.0907    3.1373 C   0  0  0  0  0  0  0  0  0  0  0  0
    3.2089   -8.6344    3.8143 C   0  0  0  0  0  0  0  0  0  0  0  0
    3.4328   -7.0573    3.8694 C   0  0  2  0  0  0  0  0  0  0  0  0
    2.0689   -6.3003    3.6319 C   0  0  1  0  0  0  0  0  0  0  0  0
    2.1402   -4.7712    3.7416 C   0  0  0  0  0  0  0  0  0  0  0  0
    1.0362   -6.6395    4.7317 C   0  0  0  0  0  0  0  0  0  0  0  0
   -0.2084   -7.1971    4.6964 C   0  0  0  0  0  0  0  0  0  0  0  0
   -0.9798   -7.7616    3.5476 C   0  0  0  0  0  0  0  0  0  0  0  0
   -2.2029   -7.7661    3.5791 O   0  0  0  0  0  0  0  0  0  0  0  0
   -0.3312   -8.3689    2.2951 C   0  0  0  0  0  0  0  0  0  0  0  0
    4.7161   -6.5661    3.0408 C   0  0  1  0  0  0  0  0  0  0  0  0
    5.9955   -7.2285    3.6268 C   0  0  0  0  0  0  0  0  0  0  0  0
    6.3079   -5.9627    4.4143 C   0  0  0  0  0  0  0  0  0  0  0  0
    5.2174   -5.3363    3.6861 N   0  0  0  0  0  0  0  0  0  0  0  0
    5.4138   -4.0836    3.0945 C   0  0  0  0  0  0  0  0  0  0  0  0
    5.0281   -3.0671    3.6761 O   0  0  0  0  0  0  0  0  0  0  0  0
    3.6184   -4.0227   -1.6817 H   0  0  0  0  0  0  0  0  0  0  0  0
    3.0341   -2.5558   -0.9113 H   0  0  0  0  0  0  0  0  0  0  0  0
    2.0144   -3.9839   -0.9628 H   0  0  0  0  0  0  0  0  0  0  0  0
    3.0379   -3.6038    1.2326 H   0  0  0  0  0  0  0  0  0  0  0  0
    5.5503   -3.4623   -0.3409 H   0  0  0  0  0  0  0  0  0  0  0  0
    4.8717   -2.3854    0.8145 H   0  0  0  0  0  0  0  0  0  0  0  0
    6.7604   -3.1951    1.7988 H   0  0  0  0  0  0  0  0  0  0  0  0
    7.3688   -4.9158    0.3520 H   0  0  0  0  0  0  0  0  0  0  0  0
    7.4594   -5.5546    1.9566 H   0  0  0  0  0  0  0  0  0  0  0  0
    3.8344   -8.6352    1.1450 H   0  0  0  0  0  0  0  0  0  0  0  0
    5.5561   -8.5345    1.2130 H   0  0  0  0  0  0  0  0  0  0  0  0
    4.6911   -8.0144   -0.2127 H   0  0  0  0  0  0  0  0  0  0  0  0
    3.6661   -6.0200   -0.3338 H   0  0  0  0  0  0  0  0  0  0  0  0
    1.4141   -5.1287    0.9576 H   0  0  0  0  0  0  0  0  0  0  0  0
    1.6014   -6.6212    0.1050 H   0  0  0  0  0  0  0  0  0  0  0  0
    2.4887   -7.3458    1.8799 H   0  0  0  0  0  0  0  0  0  0  0  0
    1.5035  -10.0504    3.4420 H   0  0  0  0  0  0  0  0  0  0  0  0
    3.1605   -9.0012    4.8407 H   0  0  0  0  0  0  0  0  0  0  0  0
    4.0396   -9.1621    3.3464 H   0  0  0  0  0  0  0  0  0  0  0  0
    3.6620   -6.8685    4.9187 H   0  0  0  0  0  0  0  0  0  0  0  0
    2.8325   -4.3426    3.0528 H   0  0  0  0  0  0  0  0  0  0  0  0
    2.4774   -4.4647    4.7317 H   0  0  0  0  0  0  0  0  0  0  0  0
    1.1752   -4.3016    3.5525 H   0  0  0  0  0  0  0  0  0  0  0  0
    1.3677   -6.3188    5.7104 H   0  0  0  0  0  0  0  0  0  0  0  0
   -0.7108   -7.2460    5.6478 H   0  0  0  0  0  0  0  0  0  0  0  0
   -0.7065   -7.8808    1.3958 H   0  0  0  0  0  0  0  0  0  0  0  0
   -0.5981   -9.4241    2.2394 H   0  0  0  0  0  0  0  0  0  0  0  0
    5.8191   -8.0767    4.2879 H   0  0  0  0  0  0  0  0  0  0  0  0
    6.7591   -7.4778    2.8915 H   0  0  0  0  0  0  0  0  0  0  0  0
    6.1055   -6.0308    5.4869 H   0  0  0  0  0  0  0  0  0  0  0  0
    7.2984   -5.5546    4.2116 H   0  0  0  0  0  0  0  0  0  0  0  0
  1  2  1  0
  1 29  1  0
  1 30  1  0
  1 31  1  0
  2  9  1  0
  2  3  1  0
  2 32  1  1
  3  4  1  0
  3 33  1  0
  3 34  1  0
  4 27  1  0
  4  5  1  0
  4 35  1  1
  5  6  1  0
  5 36  1  0
  5 37  1  0
  6  7  1  0
  7 23  1  0
  7  8  1  6
  7  9  1  0
  8 38  1  0
  8 39  1  0
  8 40  1  0
  9 10  1  0
  9 41  1  6
 10 11  1  0
 10 42  1  0
 10 43  1  0
 11 16  1  0
 11 12  1  0
 11 44  1  1
 12 22  1  0
 12 13  2  0
 13 14  1  0
 13 45  1  0
 14 15  1  0
 14 46  1  0
 14 47  1  0
 15 16  1  0
 15 23  1  0
 15 48  1  1
 16 17  1  6
 16 18  1  0
 17 49  1  0
 17 50  1  0
 17 51  1  0
 18 19  2  0
 18 52  1  0
 19 20  1  0
 19 53  1  0
 20 21  2  0
 20 22  1  0
 22 54  1  0
 22 55  1  0
 23 26  1  0
 23 24  1  6
 24 25  1  0
 24 56  1  0
 24 57  1  0
 25 26  1  0
 25 58  1  0
 25 59  1  0
 26 27  1  0
 27 28  2  0
M  END
>  <i_m_ct_stereo_status>  (425) 
1

>  <s_m_source_file>  (425) 
/var/tmp/pbs.5076255.sched01/tmp7onimy_i/150cvk1qxg3.sdf

>  <i_m_source_file_index>  (425) 
45

>  <i_lp_mmshare_version>  (425) 
48012

>  <i_f3d_flags>  (425) 
0

>  <s_epik_input>  (425) 
W0NIMl0xW0NIMl1OMkMoPU8pW0NAQEhdKFtDSDJdTzMpW0NIMl1bQ0BASF0oW0NIM10pW0NAQEhdKFtDQEBdMyhbQ0BAXTEyNClbQ0gzXSlbQ0gyXVtDQEBIXTVDNj1bQ0hdW0NIMl1bQ0hdNFtDQF01KFtDSDNdKVtDSF09W0NIXUMoPU8pW0NIMl02

>  <s_epik_cmdline>  (425) 
J2VwaWtfcHl0aG9uJywgJy1waHQnLCAnMi4wJywgJy1waCcsICc3LjAnLCAnLXRuJywgJzgnLCAnLW1hJywgJzIwMCcsICctaW1hZScsICc8aW5maWxlLm1hZT4nLCAnLW9tYWUnLCAnPG91dGZpbGUubWFlPic=

>  <r_lp_tautomer_probability>  (425) 
1

>  <r_epik_Ionization_Penalty>  (425) 
2.86052e-08

>  <r_epik_Ionization_Penalty_Charging>  (425) 
0

>  <r_epik_Ionization_Penalty_Neutral>  (425) 
2.86052e-08

>  <r_epik_State_Penalty>  (425) 
-0

>  <r_epik_Charging_Adjusted_Penalty>  (425) 
0

>  <i_epik_Tot_Q>  (425) 
0

>  <i_epik_Tot_abs_Q>  (425) 
0

>  <s_lp_Force_Field>  (425) 
OPLS3e

>  <r_lp_Energy>  (425) 
150.228

>  <b_lp_Chiralities_Consistent>  (425) 
1

>  <s_lp_Variant>  (425) 
116:0-1

>  <s_i_glide_gridfile>  (425) 
pfpi4k_grid

>  <i_i_glide_lignum>  (425) 
45

>  <i_i_glide_rotatable_bonds>  (425) 
0

>  <r_i_docking_score>  (425) 
-2.70892

>  <r_i_glide_ligand_efficiency>  (425) 
-0.0967473

>  <r_i_glide_ligand_efficiency_sa>  (425) 
-0.293782

>  <r_i_glide_ligand_efficiency_ln>  (425) 
-0.625299

>  <r_i_glide_gscore>  (425) 
-2.70892

>  <r_i_glide_lipo>  (425) 
-0.296636

>  <r_i_glide_hbond>  (425) 
0

>  <r_i_glide_metal>  (425) 
-0

>  <r_i_glide_rewards>  (425) 
-0.834855

>  <r_i_glide_evdw>  (425) 
-27.4104

>  <r_i_glide_ecoul>  (425) 
-0.943742

>  <r_i_glide_erotb>  (425) 
0

>  <r_i_glide_esite>  (425) 
-0.0653518

>  <r_i_glide_emodel>  (425) 
-32.7644

>  <r_i_glide_energy>  (425) 
-28.3541

>  <r_i_glide_einternal>  (425) 
0

>  <r_i_glide_intrahb_reward>  (425) 
-0

>  <i_i_glide_confnum>  (425) 
2

>  <i_i_glide_posenum>  (425) 
39

>  <r_i_glide_eff_state_penalty>  (425) 
0

>  <ligand_id>  (425) 
116

>  <original_smiles>  (425) 
CC1CC2COC3(C)C1CC1C4=CCC(C1(C)C=CC(=O)C4)C31CCN1C2=O

>  <smiles>  (425) 
[H]C1=C([H])C2(C([H])([H])[H])C3([H])C(=C([H])C([H])([H])C2([H])C24N(C(=O)C5([H])C([H])([H])OC2(C([H])([H])[H])C([H])(C3([H])[H])C([H])(C([H])([H])[H])C5([H])[H])C([H])([H])C4([H])[H])C([H])([H])C1=O

$$$$
117:0:0
     RDKit          3D

 23 28  0  0  1  0  0  0  0  0999 V2000
   -8.5231   -6.7676   -7.2164 C   0  0  0  0  0  0  0  0  0  0  0  0
   -9.2756   -5.4535   -6.7768 C   0  0  2  0  0  0  0  0  0  0  0  0
   -8.5496   -4.1148   -6.6860 C   0  0  2  0  0  0  0  0  0  0  0  0
   -7.4182   -5.0605   -6.6555 C   0  0  2  0  0  0  0  0  0  0  0  0
   -7.0394   -6.4582   -6.8268 C   0  0  1  0  0  0  0  0  0  0  0  0
   -6.2247   -6.6275   -5.4370 C   0  0  1  0  0  0  0  0  0  0  0  0
   -5.6285   -5.2875   -4.8533 C   0  0  2  0  0  0  0  0  0  0  0  0
   -6.5657   -5.9637   -4.0491 C   0  0  1  0  0  0  0  0  0  0  0  0
   -6.8294   -4.4350   -4.2728 C   0  0  2  0  0  0  0  0  0  0  0  0
   -8.1999   -4.0617   -5.1002 C   0  0  2  0  0  0  0  0  0  0  0  0
   -8.5687   -5.3698   -5.5211 C   0  0  1  0  0  0  0  0  0  0  0  0
   -8.6198   -6.9058   -8.2943 H   0  0  0  0  0  0  0  0  0  0  0  0
   -8.8682   -7.6930   -6.7516 H   0  0  0  0  0  0  0  0  0  0  0  0
  -10.3641   -5.4494   -6.6256 H   0  0  0  0  0  0  0  0  0  0  0  0
   -8.5519   -3.2981   -7.4159 H   0  0  0  0  0  0  0  0  0  0  0  0
   -6.5809   -4.3275   -6.7083 H   0  0  0  0  0  0  0  0  0  0  0  0
   -6.3908   -6.6912   -7.6486 H   0  0  0  0  0  0  0  0  0  0  0  0
   -5.6135   -7.5151   -5.3796 H   0  0  0  0  0  0  0  0  0  0  0  0
   -4.5958   -5.2202   -4.4587 H   0  0  0  0  0  0  0  0  0  0  0  0
   -6.1692   -6.3584   -3.0903 H   0  0  0  0  0  0  0  0  0  0  0  0
   -6.6053   -3.8151   -3.4272 H   0  0  0  0  0  0  0  0  0  0  0  0
   -9.0010   -3.6276   -4.4885 H   0  0  0  0  0  0  0  0  0  0  0  0
   -8.7076   -6.2192   -4.8339 H   0  0  0  0  0  0  0  0  0  0  0  0
  1  5  1  0
  1  2  1  0
  1 12  1  0
  1 13  1  0
  2 11  1  0
  2  3  1  0
  2 14  1  1
  3 10  1  0
  3  4  1  0
  3 15  1  6
  4 11  1  0
  4  5  1  0
  4 16  1  1
  5  6  1  0
  5 17  1  6
  6  8  1  0
  6  7  1  0
  6 18  1  1
  7  9  1  0
  7  8  1  0
  7 19  1  1
  8  9  1  0
  8 20  1  1
  9 10  1  0
  9 21  1  1
 10 11  1  0
 10 22  1  1
 11 23  1  1
M  END
>  <i_m_ct_stereo_status>  (426) 
1

>  <s_m_source_file>  (426) 
/var/tmp/pbs.5076255.sched01/tmp7onimy_i/150cvk1qxg3.sdf

>  <i_m_source_file_index>  (426) 
46

>  <i_lp_mmshare_version>  (426) 
48012

>  <i_f3d_flags>  (426) 
2

>  <s_epik_input>  (426) 
W0NASF0xMltDQEBIXTNbQ0BASF00W0NASF0oW0NIMl0xKVtDQEBIXTVbQ0BIXTZbQ0BASF01W0NASF02W0NAQEhdM1tDQEBIXTI0

>  <s_epik_cmdline>  (426) 
J2VwaWtfcHl0aG9uJywgJy1waHQnLCAnMi4wJywgJy1waCcsICc3LjAnLCAnLXRuJywgJzgnLCAnLW1hJywgJzIwMCcsICctaW1hZScsICc8aW5maWxlLm1hZT4nLCAnLW9tYWUnLCAnPG91dGZpbGUubWFlPic=

>  <r_lp_tautomer_probability>  (426) 
1

>  <r_epik_Ionization_Penalty>  (426) 
0

>  <r_epik_Ionization_Penalty_Charging>  (426) 
0

>  <r_epik_Ionization_Penalty_Neutral>  (426) 
0

>  <r_epik_State_Penalty>  (426) 
-0

>  <r_epik_Charging_Adjusted_Penalty>  (426) 
0

>  <i_epik_Tot_Q>  (426) 
0

>  <i_epik_Tot_abs_Q>  (426) 
0

>  <s_lp_Force_Field>  (426) 
OPLS3e

>  <r_lp_Energy>  (426) 
246.502

>  <b_lp_Chiralities_Consistent>  (426) 
0

>  <s_lp_Variant>  (426) 
117:0-1

>  <s_i_glide_gridfile>  (426) 
pfpi4k_grid

>  <i_i_glide_lignum>  (426) 
46

>  <i_i_glide_rotatable_bonds>  (426) 
0

>  <r_i_docking_score>  (426) 
-5.28519

>  <r_i_glide_ligand_efficiency>  (426) 
-0.480472

>  <r_i_glide_ligand_efficiency_sa>  (426) 
-1.06856

>  <r_i_glide_ligand_efficiency_ln>  (426) 
-1.55543

>  <r_i_glide_gscore>  (426) 
-5.28519

>  <r_i_glide_lipo>  (426) 
-2.52934

>  <r_i_glide_hbond>  (426) 
0

>  <r_i_glide_metal>  (426) 
-0

>  <r_i_glide_rewards>  (426) 
-2.46466

>  <r_i_glide_evdw>  (426) 
-6.70207

>  <r_i_glide_ecoul>  (426) 
0.292773

>  <r_i_glide_erotb>  (426) 
0

>  <r_i_glide_esite>  (426) 
0

>  <r_i_glide_emodel>  (426) 
-6.99461

>  <r_i_glide_energy>  (426) 
-6.4093

>  <r_i_glide_einternal>  (426) 
0

>  <r_i_glide_intrahb_reward>  (426) 
-0

>  <i_i_glide_confnum>  (426) 
1

>  <i_i_glide_posenum>  (426) 
9

>  <r_i_glide_eff_state_penalty>  (426) 
0

>  <ligand_id>  (426) 
117

>  <original_smiles>  (426) 
C1C2C3C4C1C1C5C1C5C3C24

>  <smiles>  (426) 
[H]C1([H])C2([H])C3([H])C4([H])C1([H])C1([H])C5([H])C1([H])C5([H])C3([H])C24[H]

$$$$
118:0:0
     RDKit          3D

 61 66  0  0  1  0  0  0  0  0999 V2000
    1.2484   -4.7878    3.2960 C   0  0  0  0  0  0  0  0  0  0  0  0
    2.1103   -4.2979    2.2884 O   0  0  0  0  0  0  0  0  0  0  0  0
    3.4402   -4.1445    2.6498 C   0  0  2  0  0  0  0  0  0  0  0  0
    3.5754   -2.8591    3.1877 O   0  0  0  0  0  0  0  0  0  0  0  0
    4.8476   -2.5142    3.6992 C   0  0  1  0  0  0  0  0  0  0  0  0
    5.3964   -3.4023    4.6631 O   0  0  0  0  0  0  0  0  0  0  0  0
    5.7861   -2.1209    2.5106 C   0  0  1  0  0  0  0  0  0  0  0  0
    6.4051   -3.2309    1.6783 C   0  0  0  0  0  0  0  0  0  0  0  0
    7.1462   -2.9153    0.6111 C   0  0  0  0  0  0  0  0  0  0  0  0
    7.9880   -1.6720    0.4516 C   0  0  0  0  0  0  0  0  0  0  0  0
    6.8732   -3.6527   -0.6573 C   0  0  0  0  0  0  0  0  0  0  0  0
    5.3351   -3.7651   -1.0201 C   0  0  2  0  0  0  0  0  0  0  0  0
    5.0938   -2.9878   -2.3689 C   0  0  1  0  0  0  0  0  0  0  0  0
    4.4958   -3.8707   -3.2967 O   0  0  0  0  0  0  0  0  0  0  0  0
    4.2525   -1.7173   -2.2184 C   0  0  2  0  0  0  0  0  0  0  0  0
    3.2225   -1.2906   -3.2365 C   0  0  0  0  0  0  0  0  0  0  0  0
    4.5228   -0.7514   -3.2500 O   0  0  0  0  0  0  0  0  0  0  0  0
    4.2367   -1.0732   -0.8593 C   0  0  1  0  0  0  0  0  0  0  0  0
    3.0493   -1.2323   -0.0716 O   0  0  0  0  0  0  0  0  0  0  0  0
    4.2145   -1.9337    0.4029 C   0  0  2  0  0  0  0  0  0  0  0  0
    4.9663   -1.2311    1.5502 C   0  0  1  0  0  0  0  0  0  0  0  0
    4.1828   -0.0740    2.2197 C   0  0  0  0  0  0  0  0  0  0  0  0
    4.2102   -3.4729    0.1119 C   0  0  1  0  0  0  0  0  0  0  0  0
    2.8430   -3.8399   -0.5646 C   0  0  0  0  0  0  0  0  0  0  0  0
    4.3390   -4.4887    1.3778 C   0  0  2  0  0  0  0  0  0  0  0  0
    3.9240   -5.9571    1.0472 C   0  0  0  0  0  0  0  0  0  0  0  0
    5.7804   -4.5868    1.8746 C   0  0  1  0  0  0  0  0  0  0  0  0
    6.5260   -5.6644    1.3009 O   0  0  0  0  0  0  0  0  0  0  0  0
    7.7368   -5.9995    1.9701 C   0  0  0  0  0  0  0  0  0  0  0  0
    0.2397   -4.8589    2.9022 H   0  0  0  0  0  0  0  0  0  0  0  0
    1.2292   -4.1416    4.1774 H   0  0  0  0  0  0  0  0  0  0  0  0
    1.5455   -5.8013    3.5665 H   0  0  0  0  0  0  0  0  0  0  0  0
    3.6514   -4.8579    3.4567 H   0  0  0  0  0  0  0  0  0  0  0  0
    4.6563   -1.6028    4.2793 H   0  0  0  0  0  0  0  0  0  0  0  0
    4.8554   -3.3610    5.4405 H   0  0  0  0  0  0  0  0  0  0  0  0
    6.5698   -1.4635    2.8801 H   0  0  0  0  0  0  0  0  0  0  0  0
    9.0152   -1.9310    0.1718 H   0  0  0  0  0  0  0  0  0  0  0  0
    8.0357   -1.0545    1.3230 H   0  0  0  0  0  0  0  0  0  0  0  0
    7.5328   -1.0710   -0.3139 H   0  0  0  0  0  0  0  0  0  0  0  0
    7.4651   -3.1952   -1.4545 H   0  0  0  0  0  0  0  0  0  0  0  0
    7.3231   -4.6242   -0.5240 H   0  0  0  0  0  0  0  0  0  0  0  0
    5.2332   -4.8241   -1.2692 H   0  0  0  0  0  0  0  0  0  0  0  0
    6.0342   -2.7088   -2.8521 H   0  0  0  0  0  0  0  0  0  0  0  0
    3.8052   -4.3691   -2.8645 H   0  0  0  0  0  0  0  0  0  0  0  0
    2.9853   -1.9423   -4.0765 H   0  0  0  0  0  0  0  0  0  0  0  0
    2.4501   -0.6049   -2.9215 H   0  0  0  0  0  0  0  0  0  0  0  0
    4.6255   -0.0718   -0.7893 H   0  0  0  0  0  0  0  0  0  0  0  0
    5.7309   -0.6541    1.0466 H   0  0  0  0  0  0  0  0  0  0  0  0
    3.2693   -0.4151    2.7079 H   0  0  0  0  0  0  0  0  0  0  0  0
    3.8891    0.6800    1.4896 H   0  0  0  0  0  0  0  0  0  0  0  0
    4.7921    0.4352    2.9681 H   0  0  0  0  0  0  0  0  0  0  0  0
    1.9814   -3.7674    0.0876 H   0  0  0  0  0  0  0  0  0  0  0  0
    2.8609   -4.8470   -0.9342 H   0  0  0  0  0  0  0  0  0  0  0  0
    2.5607   -3.2521   -1.4320 H   0  0  0  0  0  0  0  0  0  0  0  0
    4.4459   -6.3505    0.1717 H   0  0  0  0  0  0  0  0  0  0  0  0
    2.8561   -6.0840    0.8654 H   0  0  0  0  0  0  0  0  0  0  0  0
    4.1604   -6.6217    1.8820 H   0  0  0  0  0  0  0  0  0  0  0  0
    5.7881   -4.8724    2.9187 H   0  0  0  0  0  0  0  0  0  0  0  0
    8.2339   -6.8017    1.4251 H   0  0  0  0  0  0  0  0  0  0  0  0
    7.5504   -6.3626    2.9812 H   0  0  0  0  0  0  0  0  0  0  0  0
    8.4369   -5.1637    2.0276 H   0  0  0  0  0  0  0  0  0  0  0  0
  1  2  1  0
  1 30  1  0
  1 31  1  0
  1 32  1  0
  2  3  1  0
  3 25  1  0
  3  4  1  0
  3 33  1  1
  4  5  1  0
  5  6  1  0
  5  7  1  0
  5 34  1  1
  6 35  1  0
  7 21  1  0
  7  8  1  0
  7 36  1  1
  8 27  1  0
  8  9  2  0
  9 10  1  0
  9 11  1  0
 10 37  1  0
 10 38  1  0
 10 39  1  0
 11 12  1  0
 11 40  1  0
 11 41  1  0
 12 23  1  0
 12 13  1  0
 12 42  1  6
 13 14  1  0
 13 15  1  0
 13 43  1  6
 14 44  1  0
 15 17  1  6
 15 16  1  0
 15 18  1  0
 16 17  1  0
 16 45  1  0
 16 46  1  0
 18 20  1  0
 18 19  1  0
 18 47  1  1
 20 19  1  1
 20 21  1  0
 20 23  1  0
 21 22  1  0
 21 48  1  6
 22 49  1  0
 22 50  1  0
 22 51  1  0
 23 24  1  6
 23 25  1  0
 24 52  1  0
 24 53  1  0
 24 54  1  0
 25 26  1  6
 25 27  1  0
 26 55  1  0
 26 56  1  0
 26 57  1  0
 27 28  1  0
 27 58  1  1
 28 29  1  0
 29 59  1  0
 29 60  1  0
 29 61  1  0
M  END
>  <i_m_ct_stereo_status>  (427) 
1

>  <s_m_source_file>  (427) 
/var/tmp/pbs.5076255.sched01/tmp7onimy_i/150cvk1qxg3.sdf

>  <i_m_source_file_index>  (427) 
47

>  <i_lp_mmshare_version>  (427) 
48012

>  <i_f3d_flags>  (427) 
0

>  <s_epik_input>  (427) 
W0NIM11PW0NAQEhdMVtDQEBdMihbQ0gzXSlbQ0BIXShPW0NIM10pT1tDQEBIXShbT0hdKVtDQEhdKFtDQEBIXTNbQ0gzXSlDMT1DKFtDSDNdKVtDSDJdW0NASF0oW0NASF00W09IXSlbQ0BdMihbQ0gzXSlbQ0BdMyhPNSlbQ0BIXTVbQ0BdNDZbQ0gyXU82

>  <s_epik_cmdline>  (427) 
J2VwaWtfcHl0aG9uJywgJy1waHQnLCAnMi4wJywgJy1waCcsICc3LjAnLCAnLXRuJywgJzgnLCAnLW1hJywgJzIwMCcsICctaW1hZScsICc8aW5maWxlLm1hZT4nLCAnLW9tYWUnLCAnPG91dGZpbGUubWFlPic=

>  <r_lp_tautomer_probability>  (427) 
1

>  <r_epik_Ionization_Penalty>  (427) 
9.25729e-07

>  <r_epik_Ionization_Penalty_Charging>  (427) 
0

>  <r_epik_Ionization_Penalty_Neutral>  (427) 
9.25729e-07

>  <r_epik_State_Penalty>  (427) 
-0

>  <r_epik_Charging_Adjusted_Penalty>  (427) 
0

>  <i_epik_Tot_Q>  (427) 
0

>  <i_epik_Tot_abs_Q>  (427) 
0

>  <s_epik_Chemistry_Notes>  (427) 
This compound contains an acetal/aminal-like group ( X-CH(R)-Y where X, Y are N, S, or O) that may be acid/base labile, releasing an aldehyde.

>  <s_lp_Force_Field>  (427) 
OPLS3e

>  <r_lp_Energy>  (427) 
118.615

>  <b_lp_Chiralities_Consistent>  (427) 
1

>  <s_lp_Variant>  (427) 
118:0-1

>  <s_i_glide_gridfile>  (427) 
pfpi4k_grid

>  <i_i_glide_lignum>  (427) 
47

>  <i_i_glide_rotatable_bonds>  (427) 
4

>  <r_i_docking_score>  (427) 
-2.80395

>  <r_i_glide_ligand_efficiency>  (427) 
-0.0966879

>  <r_i_glide_ligand_efficiency_sa>  (427) 
-0.297056

>  <r_i_glide_ligand_efficiency_ln>  (427) 
-0.642033

>  <r_i_glide_gscore>  (427) 
-2.80395

>  <r_i_glide_lipo>  (427) 
-0.851378

>  <r_i_glide_hbond>  (427) 
0

>  <r_i_glide_metal>  (427) 
-0

>  <r_i_glide_rewards>  (427) 
-0.680402

>  <r_i_glide_evdw>  (427) 
-16.5903

>  <r_i_glide_ecoul>  (427) 
-2.95101

>  <r_i_glide_erotb>  (427) 
0

>  <r_i_glide_esite>  (427) 
0

>  <r_i_glide_emodel>  (427) 
-19.1509

>  <r_i_glide_energy>  (427) 
-19.5413

>  <r_i_glide_einternal>  (427) 
2.04516

>  <r_i_glide_intrahb_reward>  (427) 
-0

>  <i_i_glide_confnum>  (427) 
2

>  <i_i_glide_posenum>  (427) 
28

>  <r_i_glide_eff_state_penalty>  (427) 
0

>  <ligand_id>  (427) 
118

>  <original_smiles>  (427) 
COC1OC(O)C2C3=C(C)CC4C(O)C5(CO5)C5OC5(C2C)C4(C)C1(C)C3OC

>  <smiles>  (427) 
[H]OC1([H])OC([H])(OC([H])([H])[H])C2(C([H])([H])[H])C([H])(OC([H])([H])[H])C3=C(C([H])([H])[H])C([H])([H])C4([H])C([H])(O[H])C5(OC5([H])[H])C5([H])OC5(C([H])(C([H])([H])[H])C31[H])C42C([H])([H])[H]

$$$$
118:0:1
     RDKit          3D

 61 66  0  0  1  0  0  0  0  0999 V2000
    1.2400   -4.7317    3.3243 C   0  0  0  0  0  0  0  0  0  0  0  0
    2.1148   -4.2899    2.3059 O   0  0  0  0  0  0  0  0  0  0  0  0
    3.4428   -4.1265    2.6682 C   0  0  2  0  0  0  0  0  0  0  0  0
    3.5871   -2.8451    3.1965 O   0  0  0  0  0  0  0  0  0  0  0  0
    4.8485   -2.4811    3.7087 C   0  0  1  0  0  0  0  0  0  0  0  0
    5.3763   -3.3181    4.7168 O   0  0  0  0  0  0  0  0  0  0  0  0
    5.7890   -2.0964    2.5255 C   0  0  1  0  0  0  0  0  0  0  0  0
    6.4214   -3.2078    1.7039 C   0  0  0  0  0  0  0  0  0  0  0  0
    7.1436   -2.9085    0.6225 C   0  0  0  0  0  0  0  0  0  0  0  0
    7.9849   -1.6610    0.4411 C   0  0  0  0  0  0  0  0  0  0  0  0
    6.8744   -3.6530   -0.6498 C   0  0  0  0  0  0  0  0  0  0  0  0
    5.3379   -3.7641   -1.0110 C   0  0  2  0  0  0  0  0  0  0  0  0
    5.1009   -2.9848   -2.3524 C   0  0  1  0  0  0  0  0  0  0  0  0
    4.4939   -3.8574   -3.2885 O   0  0  0  0  0  0  0  0  0  0  0  0
    4.2629   -1.7168   -2.2080 C   0  0  2  0  0  0  0  0  0  0  0  0
    3.2196   -1.3056   -3.2293 C   0  0  0  0  0  0  0  0  0  0  0  0
    4.5211   -0.7593   -3.2496 O   0  0  0  0  0  0  0  0  0  0  0  0
    4.2291   -1.0691   -0.8430 C   0  0  1  0  0  0  0  0  0  0  0  0
    3.0599   -1.2313   -0.0639 O   0  0  0  0  0  0  0  0  0  0  0  0
    4.2043   -1.9266    0.4065 C   0  0  2  0  0  0  0  0  0  0  0  0
    4.9666   -1.2160    1.5565 C   0  0  1  0  0  0  0  0  0  0  0  0
    4.1733   -0.0549    2.2181 C   0  0  0  0  0  0  0  0  0  0  0  0
    4.2120   -3.4787    0.1258 C   0  0  1  0  0  0  0  0  0  0  0  0
    2.8464   -3.8441   -0.5460 C   0  0  0  0  0  0  0  0  0  0  0  0
    4.3385   -4.4825    1.4027 C   0  0  2  0  0  0  0  0  0  0  0  0
    3.9333   -5.9521    1.0786 C   0  0  0  0  0  0  0  0  0  0  0  0
    5.7845   -4.5655    1.8953 C   0  0  1  0  0  0  0  0  0  0  0  0
    6.5382   -5.6411    1.3318 O   0  0  0  0  0  0  0  0  0  0  0  0
    7.7857   -5.9258    1.9608 C   0  0  0  0  0  0  0  0  0  0  0  0
    0.2439   -4.8107    2.9223 H   0  0  0  0  0  0  0  0  0  0  0  0
    1.2250   -4.0499    4.1793 H   0  0  0  0  0  0  0  0  0  0  0  0
    1.5383   -5.7310    3.6467 H   0  0  0  0  0  0  0  0  0  0  0  0
    3.6531   -4.8256    3.4838 H   0  0  0  0  0  0  0  0  0  0  0  0
    4.6400   -1.5678    4.2663 H   0  0  0  0  0  0  0  0  0  0  0  0
    5.6962   -4.1298    4.3296 H   0  0  0  0  0  0  0  0  0  0  0  0
    6.5835   -1.4372    2.8782 H   0  0  0  0  0  0  0  0  0  0  0  0
    9.0150   -1.9215    0.1774 H   0  0  0  0  0  0  0  0  0  0  0  0
    8.0221   -1.0375    1.3167 H   0  0  0  0  0  0  0  0  0  0  0  0
    7.5293   -1.0793   -0.3140 H   0  0  0  0  0  0  0  0  0  0  0  0
    7.4698   -3.1938   -1.4440 H   0  0  0  0  0  0  0  0  0  0  0  0
    7.3325   -4.6191   -0.5014 H   0  0  0  0  0  0  0  0  0  0  0  0
    5.2387   -4.8229   -1.2501 H   0  0  0  0  0  0  0  0  0  0  0  0
    6.0380   -2.7057   -2.8367 H   0  0  0  0  0  0  0  0  0  0  0  0
    3.8445   -4.3867   -2.8381 H   0  0  0  0  0  0  0  0  0  0  0  0
    2.9821   -1.9647   -4.0727 H   0  0  0  0  0  0  0  0  0  0  0  0
    2.4380   -0.6187   -2.9163 H   0  0  0  0  0  0  0  0  0  0  0  0
    4.6307   -0.0685   -0.7970 H   0  0  0  0  0  0  0  0  0  0  0  0
    5.7356   -0.6323    1.0487 H   0  0  0  0  0  0  0  0  0  0  0  0
    3.2631   -0.3987    2.7066 H   0  0  0  0  0  0  0  0  0  0  0  0
    3.8798    0.6912    1.4825 H   0  0  0  0  0  0  0  0  0  0  0  0
    4.7829    0.4598    2.9654 H   0  0  0  0  0  0  0  0  0  0  0  0
    1.9875   -3.7643    0.1109 H   0  0  0  0  0  0  0  0  0  0  0  0
    2.8721   -4.8596   -0.9029 H   0  0  0  0  0  0  0  0  0  0  0  0
    2.5671   -3.2597   -1.4168 H   0  0  0  0  0  0  0  0  0  0  0  0
    4.4566   -6.3429    0.2072 H   0  0  0  0  0  0  0  0  0  0  0  0
    2.8679   -6.0778    0.9004 H   0  0  0  0  0  0  0  0  0  0  0  0
    4.1730   -6.6054    1.9183 H   0  0  0  0  0  0  0  0  0  0  0  0
    5.7981   -4.8359    2.9426 H   0  0  0  0  0  0  0  0  0  0  0  0
    8.2783   -6.7343    1.4235 H   0  0  0  0  0  0  0  0  0  0  0  0
    7.6530   -6.2503    2.9923 H   0  0  0  0  0  0  0  0  0  0  0  0
    8.4670   -5.0732    1.9535 H   0  0  0  0  0  0  0  0  0  0  0  0
  1  2  1  0
  1 30  1  0
  1 31  1  0
  1 32  1  0
  2  3  1  0
  3 25  1  0
  3  4  1  0
  3 33  1  1
  4  5  1  0
  5  6  1  0
  5  7  1  0
  5 34  1  1
  6 35  1  0
  7 21  1  0
  7  8  1  0
  7 36  1  1
  8 27  1  0
  8  9  2  0
  9 10  1  0
  9 11  1  0
 10 37  1  0
 10 38  1  0
 10 39  1  0
 11 12  1  0
 11 40  1  0
 11 41  1  0
 12 23  1  0
 12 13  1  0
 12 42  1  6
 13 14  1  0
 13 15  1  0
 13 43  1  6
 14 44  1  0
 15 17  1  6
 15 16  1  0
 15 18  1  0
 16 17  1  0
 16 45  1  0
 16 46  1  0
 18 20  1  0
 18 19  1  0
 18 47  1  1
 20 19  1  1
 20 21  1  0
 20 23  1  0
 21 22  1  0
 21 48  1  6
 22 49  1  0
 22 50  1  0
 22 51  1  0
 23 24  1  6
 23 25  1  0
 24 52  1  0
 24 53  1  0
 24 54  1  0
 25 26  1  6
 25 27  1  0
 26 55  1  0
 26 56  1  0
 26 57  1  0
 27 28  1  0
 27 58  1  1
 28 29  1  0
 29 59  1  0
 29 60  1  0
 29 61  1  0
M  END
>  <i_m_ct_stereo_status>  (428) 
1

>  <s_m_source_file>  (428) 
/var/tmp/pbs.5076255.sched01/tmp7onimy_i/150cvk1qxg3.sdf

>  <i_m_source_file_index>  (428) 
47

>  <i_lp_mmshare_version>  (428) 
48012

>  <i_f3d_flags>  (428) 
0

>  <s_epik_input>  (428) 
W0NIM11PW0NAQEhdMVtDQEBdMihbQ0gzXSlbQ0BIXShPW0NIM10pT1tDQEBIXShbT0hdKVtDQEhdKFtDQEBIXTNbQ0gzXSlDMT1DKFtDSDNdKVtDSDJdW0NASF0oW0NASF00W09IXSlbQ0BdMihbQ0gzXSlbQ0BdMyhPNSlbQ0BIXTVbQ0BdNDZbQ0gyXU82

>  <s_epik_cmdline>  (428) 
J2VwaWtfcHl0aG9uJywgJy1waHQnLCAnMi4wJywgJy1waCcsICc3LjAnLCAnLXRuJywgJzgnLCAnLW1hJywgJzIwMCcsICctaW1hZScsICc8aW5maWxlLm1hZT4nLCAnLW9tYWUnLCAnPG91dGZpbGUubWFlPic=

>  <r_lp_tautomer_probability>  (428) 
1

>  <r_epik_Ionization_Penalty>  (428) 
9.25729e-07

>  <r_epik_Ionization_Penalty_Charging>  (428) 
0

>  <r_epik_Ionization_Penalty_Neutral>  (428) 
9.25729e-07

>  <r_epik_State_Penalty>  (428) 
-0

>  <r_epik_Charging_Adjusted_Penalty>  (428) 
0

>  <i_epik_Tot_Q>  (428) 
0

>  <i_epik_Tot_abs_Q>  (428) 
0

>  <s_epik_Chemistry_Notes>  (428) 
This compound contains an acetal/aminal-like group ( X-CH(R)-Y where X, Y are N, S, or O) that may be acid/base labile, releasing an aldehyde.

>  <s_lp_Force_Field>  (428) 
OPLS3e

>  <r_lp_Energy>  (428) 
118.615

>  <b_lp_Chiralities_Consistent>  (428) 
1

>  <s_lp_Variant>  (428) 
118:0-1

>  <s_i_glide_gridfile>  (428) 
pfpi4k_grid

>  <i_i_glide_lignum>  (428) 
47

>  <i_i_glide_rotatable_bonds>  (428) 
4

>  <r_i_docking_score>  (428) 
-2.80355

>  <r_i_glide_ligand_efficiency>  (428) 
-0.0966742

>  <r_i_glide_ligand_efficiency_sa>  (428) 
-0.297014

>  <r_i_glide_ligand_efficiency_ln>  (428) 
-0.641942

>  <r_i_glide_gscore>  (428) 
-2.80355

>  <r_i_glide_lipo>  (428) 
-0.840533

>  <r_i_glide_hbond>  (428) 
0

>  <r_i_glide_metal>  (428) 
-0

>  <r_i_glide_rewards>  (428) 
-0.680747

>  <r_i_glide_evdw>  (428) 
-16.4729

>  <r_i_glide_ecoul>  (428) 
-3.05752

>  <r_i_glide_erotb>  (428) 
0

>  <r_i_glide_esite>  (428) 
0

>  <r_i_glide_emodel>  (428) 
-19.5826

>  <r_i_glide_energy>  (428) 
-19.5304

>  <r_i_glide_einternal>  (428) 
1.50565

>  <r_i_glide_intrahb_reward>  (428) 
-0

>  <i_i_glide_confnum>  (428) 
2

>  <i_i_glide_posenum>  (428) 
38

>  <r_i_glide_eff_state_penalty>  (428) 
0

>  <ligand_id>  (428) 
118

>  <original_smiles>  (428) 
COC1OC(O)C2C3=C(C)CC4C(O)C5(CO5)C5OC5(C2C)C4(C)C1(C)C3OC

>  <smiles>  (428) 
[H]OC1([H])OC([H])(OC([H])([H])[H])C2(C([H])([H])[H])C([H])(OC([H])([H])[H])C3=C(C([H])([H])[H])C([H])([H])C4([H])C([H])(O[H])C5(OC5([H])[H])C5([H])OC5(C([H])(C([H])([H])[H])C31[H])C42C([H])([H])[H]

$$$$
118:0:2
     RDKit          3D

 61 66  0  0  1  0  0  0  0  0999 V2000
    1.3526   -6.6658    3.4343 C   0  0  0  0  0  0  0  0  0  0  0  0
    2.2687   -6.1108    2.5035 O   0  0  0  0  0  0  0  0  0  0  0  0
    3.3644   -5.4674    3.0684 C   0  0  2  0  0  0  0  0  0  0  0  0
    2.8917   -4.2869    3.6734 O   0  0  0  0  0  0  0  0  0  0  0  0
    3.8192   -3.4778    4.3668 C   0  0  1  0  0  0  0  0  0  0  0  0
    4.5756   -4.0873    5.4165 O   0  0  0  0  0  0  0  0  0  0  0  0
    4.6230   -2.6181    3.3672 C   0  0  1  0  0  0  0  0  0  0  0  0
    5.7203   -3.3041    2.5881 C   0  0  0  0  0  0  0  0  0  0  0  0
    6.3369   -2.6187    1.6264 C   0  0  0  0  0  0  0  0  0  0  0  0
    6.5820   -1.1127    1.5997 C   0  0  0  0  0  0  0  0  0  0  0  0
    6.6312   -3.2986    0.3130 C   0  0  0  0  0  0  0  0  0  0  0  0
    5.3585   -4.0135   -0.2814 C   0  0  2  0  0  0  0  0  0  0  0  0
    4.9791   -3.2774   -1.6291 C   0  0  1  0  0  0  0  0  0  0  0  0
    4.9363   -4.2540   -2.6480 O   0  0  0  0  0  0  0  0  0  0  0  0
    3.6678   -2.4839   -1.5739 C   0  0  2  0  0  0  0  0  0  0  0  0
    2.6777   -2.4773   -2.7267 C   0  0  0  0  0  0  0  0  0  0  0  0
    3.6021   -1.4221   -2.5467 O   0  0  0  0  0  0  0  0  0  0  0  0
    3.2324   -2.0483   -0.2083 C   0  0  1  0  0  0  0  0  0  0  0  0
    2.1957   -2.8128    0.3821 O   0  0  0  0  0  0  0  0  0  0  0  0
    3.4386   -2.9425    1.0167 C   0  0  2  0  0  0  0  0  0  0  0  0
    3.6300   -2.0983    2.3063 C   0  0  1  0  0  0  0  0  0  0  0  0
    2.3338   -1.4466    2.8551 C   0  0  0  0  0  0  0  0  0  0  0  0
    4.1137   -4.3171    0.7038 C   0  0  1  0  0  0  0  0  0  0  0  0
    3.1417   -5.1716   -0.1875 C   0  0  0  0  0  0  0  0  0  0  0  0
    4.4825   -5.2897    1.9325 C   0  0  2  0  0  0  0  0  0  0  0  0
    4.7776   -6.7639    1.5056 C   0  0  0  0  0  0  0  0  0  0  0  0
    5.7320   -4.8115    2.6493 C   0  0  1  0  0  0  0  0  0  0  0  0
    6.9450   -5.3802    2.1346 O   0  0  0  0  0  0  0  0  0  0  0  0
    7.7665   -6.0744    3.0656 C   0  0  0  0  0  0  0  0  0  0  0  0
    0.5443   -7.1457    2.8821 H   0  0  0  0  0  0  0  0  0  0  0  0
    0.9130   -5.8992    4.0812 H   0  0  0  0  0  0  0  0  0  0  0  0
    1.8404   -7.4261    4.0481 H   0  0  0  0  0  0  0  0  0  0  0  0
    3.7279   -6.1185    3.8664 H   0  0  0  0  0  0  0  0  0  0  0  0
    3.1677   -2.8017    4.9269 H   0  0  0  0  0  0  0  0  0  0  0  0
    5.2686   -4.5907    5.0232 H   0  0  0  0  0  0  0  0  0  0  0  0
    5.0454   -1.7751    3.9237 H   0  0  0  0  0  0  0  0  0  0  0  0
    7.6536   -0.9581    1.4593 H   0  0  0  0  0  0  0  0  0  0  0  0
    6.3226   -0.6373    2.5456 H   0  0  0  0  0  0  0  0  0  0  0  0
    6.0665   -0.6107    0.7863 H   0  0  0  0  0  0  0  0  0  0  0  0
    7.0356   -2.5467   -0.3680 H   0  0  0  0  0  0  0  0  0  0  0  0
    7.4642   -3.9984    0.3988 H   0  0  0  0  0  0  0  0  0  0  0  0
    5.7540   -4.9918   -0.5792 H   0  0  0  0  0  0  0  0  0  0  0  0
    5.7557   -2.5897   -1.9571 H   0  0  0  0  0  0  0  0  0  0  0  0
    4.1755   -4.8208   -2.4990 H   0  0  0  0  0  0  0  0  0  0  0  0
    2.8492   -3.0960   -3.6038 H   0  0  0  0  0  0  0  0  0  0  0  0
    1.6446   -2.2559   -2.5154 H   0  0  0  0  0  0  0  0  0  0  0  0
    3.0549   -0.9844   -0.0604 H   0  0  0  0  0  0  0  0  0  0  0  0
    4.1055   -1.1989    1.9292 H   0  0  0  0  0  0  0  0  0  0  0  0
    1.6071   -2.1798    3.1987 H   0  0  0  0  0  0  0  0  0  0  0  0
    1.8419   -0.8244    2.1096 H   0  0  0  0  0  0  0  0  0  0  0  0
    2.5695   -0.7877    3.6961 H   0  0  0  0  0  0  0  0  0  0  0  0
    2.2625   -5.5606    0.3122 H   0  0  0  0  0  0  0  0  0  0  0  0
    3.6833   -6.0102   -0.6256 H   0  0  0  0  0  0  0  0  0  0  0  0
    2.7157   -4.6470   -1.0339 H   0  0  0  0  0  0  0  0  0  0  0  0
    5.5247   -6.8160    0.7046 H   0  0  0  0  0  0  0  0  0  0  0  0
    3.8994   -7.3151    1.1582 H   0  0  0  0  0  0  0  0  0  0  0  0
    5.1732   -7.3464    2.3420 H   0  0  0  0  0  0  0  0  0  0  0  0
    5.7077   -5.1342    3.6751 H   0  0  0  0  0  0  0  0  0  0  0  0
    8.6581   -6.4598    2.5709 H   0  0  0  0  0  0  0  0  0  0  0  0
    7.2429   -6.9307    3.4933 H   0  0  0  0  0  0  0  0  0  0  0  0
    8.0989   -5.4452    3.8903 H   0  0  0  0  0  0  0  0  0  0  0  0
  1  2  1  0
  1 30  1  0
  1 31  1  0
  1 32  1  0
  2  3  1  0
  3 25  1  0
  3  4  1  0
  3 33  1  1
  4  5  1  0
  5  6  1  0
  5  7  1  0
  5 34  1  1
  6 35  1  0
  7 21  1  0
  7  8  1  0
  7 36  1  1
  8 27  1  0
  8  9  2  0
  9 10  1  0
  9 11  1  0
 10 37  1  0
 10 38  1  0
 10 39  1  0
 11 12  1  0
 11 40  1  0
 11 41  1  0
 12 23  1  0
 12 13  1  0
 12 42  1  6
 13 14  1  0
 13 15  1  0
 13 43  1  6
 14 44  1  0
 15 17  1  6
 15 16  1  0
 15 18  1  0
 16 17  1  0
 16 45  1  0
 16 46  1  0
 18 20  1  0
 18 19  1  0
 18 47  1  1
 20 19  1  1
 20 21  1  0
 20 23  1  0
 21 22  1  0
 21 48  1  6
 22 49  1  0
 22 50  1  0
 22 51  1  0
 23 24  1  6
 23 25  1  0
 24 52  1  0
 24 53  1  0
 24 54  1  0
 25 26  1  6
 25 27  1  0
 26 55  1  0
 26 56  1  0
 26 57  1  0
 27 28  1  0
 27 58  1  1
 28 29  1  0
 29 59  1  0
 29 60  1  0
 29 61  1  0
M  END
>  <i_m_ct_stereo_status>  (429) 
1

>  <s_m_source_file>  (429) 
/var/tmp/pbs.5076255.sched01/tmp7onimy_i/150cvk1qxg3.sdf

>  <i_m_source_file_index>  (429) 
47

>  <i_lp_mmshare_version>  (429) 
48012

>  <i_f3d_flags>  (429) 
0

>  <s_epik_input>  (429) 
W0NIM11PW0NAQEhdMVtDQEBdMihbQ0gzXSlbQ0BIXShPW0NIM10pT1tDQEBIXShbT0hdKVtDQEhdKFtDQEBIXTNbQ0gzXSlDMT1DKFtDSDNdKVtDSDJdW0NASF0oW0NASF00W09IXSlbQ0BdMihbQ0gzXSlbQ0BdMyhPNSlbQ0BIXTVbQ0BdNDZbQ0gyXU82

>  <s_epik_cmdline>  (429) 
J2VwaWtfcHl0aG9uJywgJy1waHQnLCAnMi4wJywgJy1waCcsICc3LjAnLCAnLXRuJywgJzgnLCAnLW1hJywgJzIwMCcsICctaW1hZScsICc8aW5maWxlLm1hZT4nLCAnLW9tYWUnLCAnPG91dGZpbGUubWFlPic=

>  <r_lp_tautomer_probability>  (429) 
1

>  <r_epik_Ionization_Penalty>  (429) 
9.25729e-07

>  <r_epik_Ionization_Penalty_Charging>  (429) 
0

>  <r_epik_Ionization_Penalty_Neutral>  (429) 
9.25729e-07

>  <r_epik_State_Penalty>  (429) 
-0

>  <r_epik_Charging_Adjusted_Penalty>  (429) 
0

>  <i_epik_Tot_Q>  (429) 
0

>  <i_epik_Tot_abs_Q>  (429) 
0

>  <s_epik_Chemistry_Notes>  (429) 
This compound contains an acetal/aminal-like group ( X-CH(R)-Y where X, Y are N, S, or O) that may be acid/base labile, releasing an aldehyde.

>  <s_lp_Force_Field>  (429) 
OPLS3e

>  <r_lp_Energy>  (429) 
118.615

>  <b_lp_Chiralities_Consistent>  (429) 
1

>  <s_lp_Variant>  (429) 
118:0-1

>  <s_i_glide_gridfile>  (429) 
pfpi4k_grid

>  <i_i_glide_lignum>  (429) 
47

>  <i_i_glide_rotatable_bonds>  (429) 
4

>  <r_i_docking_score>  (429) 
-2.42024

>  <r_i_glide_ligand_efficiency>  (429) 
-0.0834566

>  <r_i_glide_ligand_efficiency_sa>  (429) 
-0.256405

>  <r_i_glide_ligand_efficiency_ln>  (429) 
-0.554174

>  <r_i_glide_gscore>  (429) 
-2.42024

>  <r_i_glide_lipo>  (429) 
-0.541886

>  <r_i_glide_hbond>  (429) 
-0.0214844

>  <r_i_glide_metal>  (429) 
-0

>  <r_i_glide_rewards>  (429) 
-0.623964

>  <r_i_glide_evdw>  (429) 
-11.8186

>  <r_i_glide_ecoul>  (429) 
-4.27985

>  <r_i_glide_erotb>  (429) 
0

>  <r_i_glide_esite>  (429) 
0

>  <r_i_glide_emodel>  (429) 
-15.0363

>  <r_i_glide_energy>  (429) 
-16.0984

>  <r_i_glide_einternal>  (429) 
3.02194

>  <r_i_glide_intrahb_reward>  (429) 
-0

>  <i_i_glide_confnum>  (429) 
2

>  <i_i_glide_posenum>  (429) 
8

>  <r_i_glide_eff_state_penalty>  (429) 
0

>  <ligand_id>  (429) 
118

>  <original_smiles>  (429) 
COC1OC(O)C2C3=C(C)CC4C(O)C5(CO5)C5OC5(C2C)C4(C)C1(C)C3OC

>  <smiles>  (429) 
[H]OC1([H])OC([H])(OC([H])([H])[H])C2(C([H])([H])[H])C([H])(OC([H])([H])[H])C3=C(C([H])([H])[H])C([H])([H])C4([H])C([H])(O[H])C5(OC5([H])[H])C5([H])OC5(C([H])(C([H])([H])[H])C31[H])C42C([H])([H])[H]

$$$$
119:0:0
     RDKit          3D

 50 53  0  0  1  0  0  0  0  0999 V2000
    4.1349   -1.7619   -4.5534 C   0  0  0  0  0  0  0  0  0  0  0  0
    3.3273   -1.5015   -3.3259 C   0  0  0  0  0  0  0  0  0  0  0  0
    2.7467   -0.1184   -3.5628 C   0  0  0  0  0  0  0  0  0  0  0  0
    2.3401   -2.6245   -2.8866 C   0  0  0  0  0  0  0  0  0  0  0  0
    3.4809   -3.1718   -2.0260 C   0  0  1  0  0  0  0  0  0  0  0  0
    3.9886   -1.7528   -1.9637 C   0  0  1  0  0  0  0  0  0  0  0  0
    5.4666   -1.6936   -1.5414 C   0  0  1  0  0  0  0  0  0  0  0  0
    5.5082   -0.9820   -0.1757 C   0  0  0  0  0  0  0  0  0  0  0  0
    5.2500   -2.1280    0.8290 C   0  0  1  0  0  0  0  0  0  0  0  0
    4.5968   -1.8872    2.2220 C   0  0  0  0  0  0  0  0  0  0  0  0
    5.3204   -0.7126    2.9070 C   0  0  0  0  0  0  0  0  0  0  0  0
    3.1028   -1.5145    2.1584 C   0  0  0  0  0  0  0  0  0  0  0  0
    4.8580   -3.1800    3.0616 C   0  0  1  0  0  0  0  0  0  0  0  0
    4.1284   -3.1697    4.2711 O   0  0  0  0  0  0  0  0  0  0  0  0
    4.6059   -4.5130    2.3147 C   0  0  0  0  0  0  0  0  0  0  0  0
    5.3823   -4.6118    0.9785 C   0  0  0  0  0  0  0  0  0  0  0  0
    4.9694   -3.4532    0.0420 C   0  0  2  0  0  0  0  0  0  0  0  0
    5.9593   -3.1142   -1.1154 C   0  0  0  0  0  0  0  0  0  0  0  0
    3.5457   -3.7891   -0.6366 C   0  0  1  0  0  0  0  0  0  0  0  0
    2.4078   -3.3877    0.0645 O   0  0  0  0  0  0  0  0  0  0  0  0
    3.4450   -1.6700   -5.3834 H   0  0  0  0  0  0  0  0  0  0  0  0
    4.5801   -2.7570   -4.5209 H   0  0  0  0  0  0  0  0  0  0  0  0
    4.9326   -1.0276   -4.6836 H   0  0  0  0  0  0  0  0  0  0  0  0
    2.1305    0.1489   -2.7170 H   0  0  0  0  0  0  0  0  0  0  0  0
    2.1597   -0.0811   -4.4804 H   0  0  0  0  0  0  0  0  0  0  0  0
    3.5238    0.6411   -3.6646 H   0  0  0  0  0  0  0  0  0  0  0  0
    1.4735   -2.2796   -2.3182 H   0  0  0  0  0  0  0  0  0  0  0  0
    2.0583   -3.3053   -3.6942 H   0  0  0  0  0  0  0  0  0  0  0  0
    4.0392   -3.8115   -2.7178 H   0  0  0  0  0  0  0  0  0  0  0  0
    3.3713   -1.1935   -1.2496 H   0  0  0  0  0  0  0  0  0  0  0  0
    6.0983   -1.2362   -2.2952 H   0  0  0  0  0  0  0  0  0  0  0  0
    6.5123   -0.5849    0.0101 H   0  0  0  0  0  0  0  0  0  0  0  0
    4.8215   -0.1486   -0.0865 H   0  0  0  0  0  0  0  0  0  0  0  0
    6.2738   -2.2903    1.1629 H   0  0  0  0  0  0  0  0  0  0  0  0
    4.9579   -0.5632    3.9300 H   0  0  0  0  0  0  0  0  0  0  0  0
    5.1461    0.2144    2.3611 H   0  0  0  0  0  0  0  0  0  0  0  0
    6.3997   -0.8617    2.9622 H   0  0  0  0  0  0  0  0  0  0  0  0
    2.8216   -0.8578    2.9798 H   0  0  0  0  0  0  0  0  0  0  0  0
    2.4681   -2.3915    2.2557 H   0  0  0  0  0  0  0  0  0  0  0  0
    2.8642   -0.9997    1.2304 H   0  0  0  0  0  0  0  0  0  0  0  0
    5.9044   -3.1934    3.3419 H   0  0  0  0  0  0  0  0  0  0  0  0
    3.2120   -3.1792    4.0648 H   0  0  0  0  0  0  0  0  0  0  0  0
    4.9022   -5.3477    2.9517 H   0  0  0  0  0  0  0  0  0  0  0  0
    3.5330   -4.6466    2.1313 H   0  0  0  0  0  0  0  0  0  0  0  0
    6.4465   -4.5752    1.1719 H   0  0  0  0  0  0  0  0  0  0  0  0
    5.1920   -5.5702    0.5087 H   0  0  0  0  0  0  0  0  0  0  0  0
    5.9592   -3.8467   -1.9253 H   0  0  0  0  0  0  0  0  0  0  0  0
    6.9970   -3.0752   -0.7739 H   0  0  0  0  0  0  0  0  0  0  0  0
    3.4837   -4.8715   -0.7165 H   0  0  0  0  0  0  0  0  0  0  0  0
    2.2409   -2.4872   -0.1354 H   0  0  0  0  0  0  0  0  0  0  0  0
  1  2  1  0
  1 21  1  0
  1 22  1  0
  1 23  1  0
  2  6  1  0
  2  3  1  0
  2  4  1  0
  3 24  1  0
  3 25  1  0
  3 26  1  0
  4  5  1  0
  4 27  1  0
  4 28  1  0
  5 19  1  0
  5  6  1  0
  5 29  1  6
  6  7  1  0
  6 30  1  1
  7 18  1  0
  7  8  1  0
  7 31  1  6
  8  9  1  0
  8 32  1  0
  8 33  1  0
  9 17  1  0
  9 10  1  0
  9 34  1  1
 10 11  1  0
 10 12  1  0
 10 13  1  0
 11 35  1  0
 11 36  1  0
 11 37  1  0
 12 38  1  0
 12 39  1  0
 12 40  1  0
 13 14  1  0
 13 15  1  0
 13 41  1  1
 14 42  1  0
 15 16  1  0
 15 43  1  0
 15 44  1  0
 17 16  1  1
 16 45  1  0
 16 46  1  0
 17 18  1  0
 17 19  1  0
 18 47  1  0
 18 48  1  0
 19 20  1  0
 19 49  1  6
 20 50  1  0
M  END
>  <i_m_ct_stereo_status>  (430) 
1

>  <s_m_source_file>  (430) 
/var/tmp/pbs.5076255.sched01/tmp7onimy_i/150cvk1qxg3.sdf

>  <i_m_source_file_index>  (430) 
48

>  <i_lp_mmshare_version>  (430) 
48012

>  <i_f3d_flags>  (430) 
0

>  <s_epik_input>  (430) 
W0NIM11DMShbQ0gzXSlbQ0gyXVtDQEhdKFtDQEBIXTJbT0hdKVtDQEhdMVtDQEhdKFtDSDJdMylbQ0gyXVtDQEhdKFtDQEBdMjM0KUMoW0NIM10pKFtDSDNdKVtDQEBIXShbT0hdKVtDSDJdW0NIMl00

>  <s_epik_cmdline>  (430) 
J2VwaWtfcHl0aG9uJywgJy1waHQnLCAnMi4wJywgJy1waCcsICc3LjAnLCAnLXRuJywgJzgnLCAnLW1hJywgJzIwMCcsICctaW1hZScsICc8aW5maWxlLm1hZT4nLCAnLW9tYWUnLCAnPG91dGZpbGUubWFlPic=

>  <r_lp_tautomer_probability>  (430) 
1

>  <r_epik_Ionization_Penalty>  (430) 
4.13e-06

>  <r_epik_Ionization_Penalty_Charging>  (430) 
0

>  <r_epik_Ionization_Penalty_Neutral>  (430) 
4.13e-06

>  <r_epik_State_Penalty>  (430) 
-0

>  <r_epik_Charging_Adjusted_Penalty>  (430) 
0

>  <i_epik_Tot_Q>  (430) 
0

>  <i_epik_Tot_abs_Q>  (430) 
0

>  <s_lp_Force_Field>  (430) 
OPLS3e

>  <r_lp_Energy>  (430) 
92.5548

>  <b_lp_Chiralities_Consistent>  (430) 
1

>  <s_lp_Variant>  (430) 
119:0-1

>  <s_i_glide_gridfile>  (430) 
pfpi4k_grid

>  <i_i_glide_lignum>  (430) 
48

>  <i_i_glide_rotatable_bonds>  (430) 
2

>  <r_i_docking_score>  (430) 
-3.10641

>  <r_i_glide_ligand_efficiency>  (430) 
-0.155321

>  <r_i_glide_ligand_efficiency_sa>  (430) 
-0.421605

>  <r_i_glide_ligand_efficiency_ln>  (430) 
-0.777433

>  <r_i_glide_gscore>  (430) 
-3.10641

>  <r_i_glide_lipo>  (430) 
-0.608015

>  <r_i_glide_hbond>  (430) 
-0.0761017

>  <r_i_glide_metal>  (430) 
-0

>  <r_i_glide_rewards>  (430) 
-1.51071

>  <r_i_glide_evdw>  (430) 
-13.7322

>  <r_i_glide_ecoul>  (430) 
-1.49985

>  <r_i_glide_erotb>  (430) 
0

>  <r_i_glide_esite>  (430) 
0

>  <r_i_glide_emodel>  (430) 
-17.6879

>  <r_i_glide_energy>  (430) 
-15.2321

>  <r_i_glide_einternal>  (430) 
0.384197

>  <r_i_glide_intrahb_reward>  (430) 
-0

>  <i_i_glide_confnum>  (430) 
2

>  <i_i_glide_posenum>  (430) 
32

>  <r_i_glide_eff_state_penalty>  (430) 
0

>  <ligand_id>  (430) 
119

>  <original_smiles>  (430) 
CC1(C)CC2C1C1CC3C(C)(C)C(O)CCC3(C1)C2O

>  <smiles>  (430) 
[H]OC1([H])C([H])([H])C([H])([H])C23C([H])([H])C([H])(C([H])([H])C2([H])C1(C([H])([H])[H])C([H])([H])[H])C1([H])C([H])(C([H])([H])C1(C([H])([H])[H])C([H])([H])[H])C3([H])O[H]

$$$$
119:0:1
     RDKit          3D

 50 53  0  0  1  0  0  0  0  0999 V2000
    4.5636   -2.6870   -3.6986 C   0  0  0  0  0  0  0  0  0  0  0  0
    3.6560   -2.1477   -2.5895 C   0  0  0  0  0  0  0  0  0  0  0  0
    3.0743   -0.8304   -3.0931 C   0  0  0  0  0  0  0  0  0  0  0  0
    2.6044   -3.1307   -1.9897 C   0  0  0  0  0  0  0  0  0  0  0  0
    3.6819   -3.5562   -1.0006 C   0  0  1  0  0  0  0  0  0  0  0  0
    4.2321   -2.1602   -1.1585 C   0  0  1  0  0  0  0  0  0  0  0  0
    5.6786   -2.0601   -0.6444 C   0  0  1  0  0  0  0  0  0  0  0  0
    5.6568   -1.1216    0.5759 C   0  0  0  0  0  0  0  0  0  0  0  0
    5.2946   -2.0661    1.7486 C   0  0  1  0  0  0  0  0  0  0  0  0
    4.5710   -1.5739    3.0398 C   0  0  0  0  0  0  0  0  0  0  0  0
    5.2665   -0.2931    3.5539 C   0  0  0  0  0  0  0  0  0  0  0  0
    3.0898   -1.1994    2.8209 C   0  0  0  0  0  0  0  0  0  0  0  0
    4.7556   -2.7023    4.1102 C   0  0  1  0  0  0  0  0  0  0  0  0
    3.9526   -2.4647    5.2485 O   0  0  0  0  0  0  0  0  0  0  0  0
    4.5036   -4.1412    3.5944 C   0  0  0  0  0  0  0  0  0  0  0  0
    5.3459   -4.4866    2.3421 C   0  0  0  0  0  0  0  0  0  0  0  0
    5.0325   -3.5098    1.1900 C   0  0  2  0  0  0  0  0  0  0  0  0
    6.1036   -3.3934    0.0600 C   0  0  0  0  0  0  0  0  0  0  0  0
    3.6634   -3.9367    0.4771 C   0  0  1  0  0  0  0  0  0  0  0  0
    2.5096   -3.4150    1.0634 O   0  0  0  0  0  0  0  0  0  0  0  0
    4.0002   -2.8794   -4.6104 H   0  0  0  0  0  0  0  0  0  0  0  0
    5.0728   -3.6082   -3.4200 H   0  0  0  0  0  0  0  0  0  0  0  0
    5.3336   -1.9519   -3.9239 H   0  0  0  0  0  0  0  0  0  0  0  0
    2.3623   -0.4304   -2.3695 H   0  0  0  0  0  0  0  0  0  0  0  0
    2.5326   -0.9690   -4.0292 H   0  0  0  0  0  0  0  0  0  0  0  0
    3.8368   -0.0675   -3.2519 H   0  0  0  0  0  0  0  0  0  0  0  0
    1.7574   -2.6611   -1.5083 H   0  0  0  0  0  0  0  0  0  0  0  0
    2.2870   -3.8948   -2.6960 H   0  0  0  0  0  0  0  0  0  0  0  0
    4.2618   -4.3112   -1.5407 H   0  0  0  0  0  0  0  0  0  0  0  0
    3.5888   -1.4771   -0.5871 H   0  0  0  0  0  0  0  0  0  0  0  0
    6.3802   -1.7546   -1.4207 H   0  0  0  0  0  0  0  0  0  0  0  0
    6.6547   -0.7164    0.7418 H   0  0  0  0  0  0  0  0  0  0  0  0
    4.9911   -0.2649    0.4672 H   0  0  0  0  0  0  0  0  0  0  0  0
    6.2918   -2.1812    2.1741 H   0  0  0  0  0  0  0  0  0  0  0  0
    4.8406    0.0293    4.5044 H   0  0  0  0  0  0  0  0  0  0  0  0
    5.1505    0.5335    2.8515 H   0  0  0  0  0  0  0  0  0  0  0  0
    6.3313   -0.4426    3.7144 H   0  0  0  0  0  0  0  0  0  0  0  0
    2.7721   -0.3999    3.4909 H   0  0  0  0  0  0  0  0  0  0  0  0
    2.4219   -2.0321    3.0330 H   0  0  0  0  0  0  0  0  0  0  0  0
    2.9188   -0.8496    1.8021 H   0  0  0  0  0  0  0  0  0  0  0  0
    5.7883   -2.6839    4.4590 H   0  0  0  0  0  0  0  0  0  0  0  0
    3.0466   -2.4634    4.9758 H   0  0  0  0  0  0  0  0  0  0  0  0
    4.7349   -4.8554    4.3853 H   0  0  0  0  0  0  0  0  0  0  0  0
    3.4437   -4.2820    3.3759 H   0  0  0  0  0  0  0  0  0  0  0  0
    6.4038   -4.4431    2.5915 H   0  0  0  0  0  0  0  0  0  0  0  0
    5.1587   -5.5158    2.0412 H   0  0  0  0  0  0  0  0  0  0  0  0
    6.1311   -4.2591   -0.6002 H   0  0  0  0  0  0  0  0  0  0  0  0
    7.1139   -3.3110    0.4619 H   0  0  0  0  0  0  0  0  0  0  0  0
    3.5626   -5.0199    0.5455 H   0  0  0  0  0  0  0  0  0  0  0  0
    2.4517   -2.5027    0.8223 H   0  0  0  0  0  0  0  0  0  0  0  0
  1  2  1  0
  1 21  1  0
  1 22  1  0
  1 23  1  0
  2  6  1  0
  2  3  1  0
  2  4  1  0
  3 24  1  0
  3 25  1  0
  3 26  1  0
  4  5  1  0
  4 27  1  0
  4 28  1  0
  5 19  1  0
  5  6  1  0
  5 29  1  6
  6  7  1  0
  6 30  1  1
  7 18  1  0
  7  8  1  0
  7 31  1  6
  8  9  1  0
  8 32  1  0
  8 33  1  0
  9 17  1  0
  9 10  1  0
  9 34  1  1
 10 11  1  0
 10 12  1  0
 10 13  1  0
 11 35  1  0
 11 36  1  0
 11 37  1  0
 12 38  1  0
 12 39  1  0
 12 40  1  0
 13 14  1  0
 13 15  1  0
 13 41  1  1
 14 42  1  0
 15 16  1  0
 15 43  1  0
 15 44  1  0
 17 16  1  1
 16 45  1  0
 16 46  1  0
 17 18  1  0
 17 19  1  0
 18 47  1  0
 18 48  1  0
 19 20  1  0
 19 49  1  6
 20 50  1  0
M  END
>  <i_m_ct_stereo_status>  (431) 
1

>  <s_m_source_file>  (431) 
/var/tmp/pbs.5076255.sched01/tmp7onimy_i/150cvk1qxg3.sdf

>  <i_m_source_file_index>  (431) 
48

>  <i_lp_mmshare_version>  (431) 
48012

>  <i_f3d_flags>  (431) 
0

>  <s_epik_input>  (431) 
W0NIM11DMShbQ0gzXSlbQ0gyXVtDQEhdKFtDQEBIXTJbT0hdKVtDQEhdMVtDQEhdKFtDSDJdMylbQ0gyXVtDQEhdKFtDQEBdMjM0KUMoW0NIM10pKFtDSDNdKVtDQEBIXShbT0hdKVtDSDJdW0NIMl00

>  <s_epik_cmdline>  (431) 
J2VwaWtfcHl0aG9uJywgJy1waHQnLCAnMi4wJywgJy1waCcsICc3LjAnLCAnLXRuJywgJzgnLCAnLW1hJywgJzIwMCcsICctaW1hZScsICc8aW5maWxlLm1hZT4nLCAnLW9tYWUnLCAnPG91dGZpbGUubWFlPic=

>  <r_lp_tautomer_probability>  (431) 
1

>  <r_epik_Ionization_Penalty>  (431) 
4.13e-06

>  <r_epik_Ionization_Penalty_Charging>  (431) 
0

>  <r_epik_Ionization_Penalty_Neutral>  (431) 
4.13e-06

>  <r_epik_State_Penalty>  (431) 
-0

>  <r_epik_Charging_Adjusted_Penalty>  (431) 
0

>  <i_epik_Tot_Q>  (431) 
0

>  <i_epik_Tot_abs_Q>  (431) 
0

>  <s_lp_Force_Field>  (431) 
OPLS3e

>  <r_lp_Energy>  (431) 
92.5548

>  <b_lp_Chiralities_Consistent>  (431) 
1

>  <s_lp_Variant>  (431) 
119:0-1

>  <s_i_glide_gridfile>  (431) 
pfpi4k_grid

>  <i_i_glide_lignum>  (431) 
48

>  <i_i_glide_rotatable_bonds>  (431) 
2

>  <r_i_docking_score>  (431) 
-2.94576

>  <r_i_glide_ligand_efficiency>  (431) 
-0.147288

>  <r_i_glide_ligand_efficiency_sa>  (431) 
-0.399802

>  <r_i_glide_ligand_efficiency_ln>  (431) 
-0.737228

>  <r_i_glide_gscore>  (431) 
-2.94576

>  <r_i_glide_lipo>  (431) 
-0.690206

>  <r_i_glide_hbond>  (431) 
0

>  <r_i_glide_metal>  (431) 
-0

>  <r_i_glide_rewards>  (431) 
-1.51071

>  <r_i_glide_evdw>  (431) 
-15.0989

>  <r_i_glide_ecoul>  (431) 
0.0672812

>  <r_i_glide_erotb>  (431) 
0

>  <r_i_glide_esite>  (431) 
0

>  <r_i_glide_emodel>  (431) 
-17.7059

>  <r_i_glide_energy>  (431) 
-15.0316

>  <r_i_glide_einternal>  (431) 
0.0888841

>  <r_i_glide_intrahb_reward>  (431) 
-0

>  <i_i_glide_confnum>  (431) 
2

>  <i_i_glide_posenum>  (431) 
29

>  <r_i_glide_eff_state_penalty>  (431) 
0

>  <ligand_id>  (431) 
119

>  <original_smiles>  (431) 
CC1(C)CC2C1C1CC3C(C)(C)C(O)CCC3(C1)C2O

>  <smiles>  (431) 
[H]OC1([H])C([H])([H])C([H])([H])C23C([H])([H])C([H])(C([H])([H])C2([H])C1(C([H])([H])[H])C([H])([H])[H])C1([H])C([H])(C([H])([H])C1(C([H])([H])[H])C([H])([H])[H])C3([H])O[H]

$$$$
119:0:2
     RDKit          3D

 50 53  0  0  1  0  0  0  0  0999 V2000
    4.6010   -2.6032   -3.7080 C   0  0  0  0  0  0  0  0  0  0  0  0
    3.6839   -2.0980   -2.5999 C   0  0  0  0  0  0  0  0  0  0  0  0
    3.0675   -0.7875   -3.0844 C   0  0  0  0  0  0  0  0  0  0  0  0
    2.6490   -3.1104   -2.0182 C   0  0  0  0  0  0  0  0  0  0  0  0
    3.7394   -3.5379   -1.0389 C   0  0  1  0  0  0  0  0  0  0  0  0
    4.2506   -2.1219   -1.1670 C   0  0  1  0  0  0  0  0  0  0  0  0
    5.6967   -1.9957   -0.6501 C   0  0  1  0  0  0  0  0  0  0  0  0
    5.6504   -1.0774    0.5845 C   0  0  0  0  0  0  0  0  0  0  0  0
    5.3087   -2.0497    1.7401 C   0  0  1  0  0  0  0  0  0  0  0  0
    4.5710   -1.5993    3.0388 C   0  0  0  0  0  0  0  0  0  0  0  0
    5.2316   -0.3095    3.5758 C   0  0  0  0  0  0  0  0  0  0  0  0
    3.0816   -1.2595    2.8208 C   0  0  0  0  0  0  0  0  0  0  0  0
    4.7827   -2.7414    4.0891 C   0  0  1  0  0  0  0  0  0  0  0  0
    3.9618   -2.5438    5.2231 O   0  0  0  0  0  0  0  0  0  0  0  0
    4.5670   -4.1753    3.5469 C   0  0  0  0  0  0  0  0  0  0  0  0
    5.4168   -4.4786    2.2902 C   0  0  0  0  0  0  0  0  0  0  0  0
    5.0825   -3.4887    1.1564 C   0  0  2  0  0  0  0  0  0  0  0  0
    6.1519   -3.3299    0.0311 C   0  0  0  0  0  0  0  0  0  0  0  0
    3.7234   -3.9383    0.4325 C   0  0  1  0  0  0  0  0  0  0  0  0
    2.5547   -3.4587    1.0167 O   0  0  0  0  0  0  0  0  0  0  0  0
    4.0508   -2.7824   -4.6341 H   0  0  0  0  0  0  0  0  0  0  0  0
    5.1222   -3.5249   -3.4495 H   0  0  0  0  0  0  0  0  0  0  0  0
    5.3651   -1.8659   -3.9177 H   0  0  0  0  0  0  0  0  0  0  0  0
    2.3479   -0.4136   -2.3582 H   0  0  0  0  0  0  0  0  0  0  0  0
    2.5367   -0.9254   -4.0282 H   0  0  0  0  0  0  0  0  0  0  0  0
    3.8159   -0.0080   -3.2334 H   0  0  0  0  0  0  0  0  0  0  0  0
    1.7922   -2.6620   -1.5289 H   0  0  0  0  0  0  0  0  0  0  0  0
    2.3478   -3.8603   -2.7454 H   0  0  0  0  0  0  0  0  0  0  0  0
    4.3304   -4.2646   -1.5871 H   0  0  0  0  0  0  0  0  0  0  0  0
    3.5943   -1.4629   -0.5896 H   0  0  0  0  0  0  0  0  0  0  0  0
    6.3911   -1.6592   -1.4189 H   0  0  0  0  0  0  0  0  0  0  0  0
    6.6374   -0.6499    0.7584 H   0  0  0  0  0  0  0  0  0  0  0  0
    4.9637   -0.2350    0.4881 H   0  0  0  0  0  0  0  0  0  0  0  0
    6.3081   -2.1472    2.1673 H   0  0  0  0  0  0  0  0  0  0  0  0
    4.7913   -0.0110    4.5277 H   0  0  0  0  0  0  0  0  0  0  0  0
    5.1012    0.5240    2.8840 H   0  0  0  0  0  0  0  0  0  0  0  0
    6.2981   -0.4336    3.7446 H   0  0  0  0  0  0  0  0  0  0  0  0
    2.7416   -0.4802    3.5047 H   0  0  0  0  0  0  0  0  0  0  0  0
    2.4380   -2.1129    3.0240 H   0  0  0  0  0  0  0  0  0  0  0  0
    2.8973   -0.8976    1.8085 H   0  0  0  0  0  0  0  0  0  0  0  0
    5.8157   -2.6999    4.4387 H   0  0  0  0  0  0  0  0  0  0  0  0
    4.1852   -3.1908    5.8768 H   0  0  0  0  0  0  0  0  0  0  0  0
    4.8111   -4.8984    4.3238 H   0  0  0  0  0  0  0  0  0  0  0  0
    3.5110   -4.3298    3.3248 H   0  0  0  0  0  0  0  0  0  0  0  0
    6.4755   -4.4128    2.5411 H   0  0  0  0  0  0  0  0  0  0  0  0
    5.2551   -5.5084    1.9735 H   0  0  0  0  0  0  0  0  0  0  0  0
    6.2022   -4.1857   -0.6392 H   0  0  0  0  0  0  0  0  0  0  0  0
    7.1589   -3.2299    0.4385 H   0  0  0  0  0  0  0  0  0  0  0  0
    3.6516   -5.0246    0.4834 H   0  0  0  0  0  0  0  0  0  0  0  0
    2.4738   -2.5403    0.7912 H   0  0  0  0  0  0  0  0  0  0  0  0
  1  2  1  0
  1 21  1  0
  1 22  1  0
  1 23  1  0
  2  6  1  0
  2  3  1  0
  2  4  1  0
  3 24  1  0
  3 25  1  0
  3 26  1  0
  4  5  1  0
  4 27  1  0
  4 28  1  0
  5 19  1  0
  5  6  1  0
  5 29  1  6
  6  7  1  0
  6 30  1  1
  7 18  1  0
  7  8  1  0
  7 31  1  6
  8  9  1  0
  8 32  1  0
  8 33  1  0
  9 17  1  0
  9 10  1  0
  9 34  1  1
 10 11  1  0
 10 12  1  0
 10 13  1  0
 11 35  1  0
 11 36  1  0
 11 37  1  0
 12 38  1  0
 12 39  1  0
 12 40  1  0
 13 14  1  0
 13 15  1  0
 13 41  1  1
 14 42  1  0
 15 16  1  0
 15 43  1  0
 15 44  1  0
 17 16  1  1
 16 45  1  0
 16 46  1  0
 17 18  1  0
 17 19  1  0
 18 47  1  0
 18 48  1  0
 19 20  1  0
 19 49  1  6
 20 50  1  0
M  END
>  <i_m_ct_stereo_status>  (432) 
1

>  <s_m_source_file>  (432) 
/var/tmp/pbs.5076255.sched01/tmp7onimy_i/150cvk1qxg3.sdf

>  <i_m_source_file_index>  (432) 
48

>  <i_lp_mmshare_version>  (432) 
48012

>  <i_f3d_flags>  (432) 
0

>  <s_epik_input>  (432) 
W0NIM11DMShbQ0gzXSlbQ0gyXVtDQEhdKFtDQEBIXTJbT0hdKVtDQEhdMVtDQEhdKFtDSDJdMylbQ0gyXVtDQEhdKFtDQEBdMjM0KUMoW0NIM10pKFtDSDNdKVtDQEBIXShbT0hdKVtDSDJdW0NIMl00

>  <s_epik_cmdline>  (432) 
J2VwaWtfcHl0aG9uJywgJy1waHQnLCAnMi4wJywgJy1waCcsICc3LjAnLCAnLXRuJywgJzgnLCAnLW1hJywgJzIwMCcsICctaW1hZScsICc8aW5maWxlLm1hZT4nLCAnLW9tYWUnLCAnPG91dGZpbGUubWFlPic=

>  <r_lp_tautomer_probability>  (432) 
1

>  <r_epik_Ionization_Penalty>  (432) 
4.13e-06

>  <r_epik_Ionization_Penalty_Charging>  (432) 
0

>  <r_epik_Ionization_Penalty_Neutral>  (432) 
4.13e-06

>  <r_epik_State_Penalty>  (432) 
-0

>  <r_epik_Charging_Adjusted_Penalty>  (432) 
0

>  <i_epik_Tot_Q>  (432) 
0

>  <i_epik_Tot_abs_Q>  (432) 
0

>  <s_lp_Force_Field>  (432) 
OPLS3e

>  <r_lp_Energy>  (432) 
92.5548

>  <b_lp_Chiralities_Consistent>  (432) 
1

>  <s_lp_Variant>  (432) 
119:0-1

>  <s_i_glide_gridfile>  (432) 
pfpi4k_grid

>  <i_i_glide_lignum>  (432) 
48

>  <i_i_glide_rotatable_bonds>  (432) 
2

>  <r_i_docking_score>  (432) 
-2.86568

>  <r_i_glide_ligand_efficiency>  (432) 
-0.143284

>  <r_i_glide_ligand_efficiency_sa>  (432) 
-0.388932

>  <r_i_glide_ligand_efficiency_ln>  (432) 
-0.717184

>  <r_i_glide_gscore>  (432) 
-2.86568

>  <r_i_glide_lipo>  (432) 
-0.657211

>  <r_i_glide_hbond>  (432) 
0

>  <r_i_glide_metal>  (432) 
-0

>  <r_i_glide_rewards>  (432) 
-1.51071

>  <r_i_glide_evdw>  (432) 
-15.6068

>  <r_i_glide_ecoul>  (432) 
0.550562

>  <r_i_glide_erotb>  (432) 
0

>  <r_i_glide_esite>  (432) 
0

>  <r_i_glide_emodel>  (432) 
-17.4636

>  <r_i_glide_energy>  (432) 
-15.0563

>  <r_i_glide_einternal>  (432) 
0.451631

>  <r_i_glide_intrahb_reward>  (432) 
-0

>  <i_i_glide_confnum>  (432) 
1

>  <i_i_glide_posenum>  (432) 
34

>  <r_i_glide_eff_state_penalty>  (432) 
0

>  <ligand_id>  (432) 
119

>  <original_smiles>  (432) 
CC1(C)CC2C1C1CC3C(C)(C)C(O)CCC3(C1)C2O

>  <smiles>  (432) 
[H]OC1([H])C([H])([H])C([H])([H])C23C([H])([H])C([H])(C([H])([H])C2([H])C1(C([H])([H])[H])C([H])([H])[H])C1([H])C([H])(C([H])([H])C1(C([H])([H])[H])C([H])([H])[H])C3([H])O[H]

$$$$
